# generated using pymatgen
data_BaYFeCuO5
_symmetry_space_group_name_H-M   'P 1'
_cell_length_a   15.68438154
_cell_length_b   15.68343323
_cell_length_c   15.52135380
_cell_angle_alpha   90.00227231
_cell_angle_beta   90.00313591
_cell_angle_gamma   89.99903938
_symmetry_Int_Tables_number   1
_chemical_formula_structural   BaYFeCuO5
_chemical_formula_sum   'Ba32 Y32 Fe32 Cu32 O160'
_cell_volume   3818.01943943
_cell_formula_units_Z   32
loop_
 _symmetry_equiv_pos_site_id
 _symmetry_equiv_pos_as_xyz
  1  'x, y, z'
loop_
 _atom_type_symbol
 _atom_type_oxidation_number
  Ba2+  2.0
  Y3+  3.0
  Fe3+  3.0
  Cu2+  2.0
  O2-  -2.0
loop_
 _atom_site_type_symbol
 _atom_site_label
 _atom_site_symmetry_multiplicity
 _atom_site_fract_x
 _atom_site_fract_y
 _atom_site_fract_z
 _atom_site_occupancy
  Ba2+  Ba0  1  -0.00199237  0.00086446  0.01185094  1
  Ba2+  Ba1  1  -0.00207963  0.01183565  0.51157602  1
  Ba2+  Ba2  1  -0.00586528  0.24351602  0.01597053  1
  Ba2+  Ba3  1  -0.00486034  0.25083566  0.50734483  1
  Ba2+  Ba4  1  -0.00596826  0.50556027  0.02309043  1
  Ba2+  Ba5  1  -0.00170533  0.49334885  0.50137630  1
  Ba2+  Ba6  1  -0.00120394  0.75006221  0.02016850  1
  Ba2+  Ba7  1  -0.00005066  0.74133588  0.50645314  1
  Ba2+  Ba8  1  0.25365818  -0.00210738  0.00603134  1
  Ba2+  Ba9  1  0.25120354  0.01114840  0.50718892  1
  Ba2+  Ba10  1  0.25038412  0.23871100  0.01132019  1
  Ba2+  Ba11  1  0.25279071  0.25463370  0.49944828  1
  Ba2+  Ba12  1  0.24802815  0.51026790  0.00700816  1
  Ba2+  Ba13  1  0.25316186  0.49565133  0.51421941  1
  Ba2+  Ba14  1  0.25160747  0.75466434  -0.00090742  1
  Ba2+  Ba15  1  0.25115571  0.74051247  0.51756350  1
  Ba2+  Ba16  1  0.49287681  -0.00509885  0.01142347  1
  Ba2+  Ba17  1  0.50500037  0.00573160  0.51570950  1
  Ba2+  Ba18  1  0.49844249  0.24689134  0.01015062  1
  Ba2+  Ba19  1  0.49769099  0.25353005  0.49807902  1
  Ba2+  Ba20  1  0.50675984  0.50589867  0.01244553  1
  Ba2+  Ba21  1  0.49773320  0.49651128  0.51443484  1
  Ba2+  Ba22  1  0.49928395  0.75349161  0.01095936  1
  Ba2+  Ba23  1  0.50446935  0.74549772  0.52234339  1
  Ba2+  Ba24  1  0.75682619  -0.00354355  0.01715230  1
  Ba2+  Ba25  1  0.74686684  0.00768597  0.51728544  1
  Ba2+  Ba26  1  0.75599832  0.25248882  0.01681149  1
  Ba2+  Ba27  1  0.75394316  0.25038762  0.50690484  1
  Ba2+  Ba28  1  0.75106024  0.50158507  0.02692335  1
  Ba2+  Ba29  1  0.75087490  0.49460504  0.50108135  1
  Ba2+  Ba30  1  0.75039938  0.74944512  0.02724437  1
  Ba2+  Ba31  1  0.74435180  0.74591498  0.51052008  1
  Y3+  Y32  1  -0.00161806  0.00350577  0.25718261  1
  Y3+  Y33  1  -0.00142917  0.00337734  0.75659497  1
  Y3+  Y34  1  -0.00360474  0.24954028  0.25903230  1
  Y3+  Y35  1  -0.00317185  0.24815575  0.75577295  1
  Y3+  Y36  1  -0.00259532  0.49855438  0.26038178  1
  Y3+  Y37  1  -0.00047026  0.49869481  0.75320772  1
  Y3+  Y38  1  -0.00089610  0.74840053  0.25979115  1
  Y3+  Y39  1  0.00146077  0.75001073  0.75407969  1
  Y3+  Y40  1  0.25211859  0.00204159  0.25443608  1
  Y3+  Y41  1  0.25116275  0.00011287  0.76107143  1
  Y3+  Y42  1  0.25209672  0.24938176  0.25618679  1
  Y3+  Y43  1  0.25068128  0.24953514  0.75968859  1
  Y3+  Y44  1  0.25012893  0.49781777  0.25877569  1
  Y3+  Y45  1  0.25132625  0.50128611  0.75652008  1
  Y3+  Y46  1  0.25043406  0.75072590  0.25631875  1
  Y3+  Y47  1  0.25144072  0.74971958  0.75889864  1
  Y3+  Y48  1  0.49756222  -0.00021361  0.25351133  1
  Y3+  Y49  1  0.49990655  0.00018231  0.76158121  1
  Y3+  Y50  1  0.49879570  0.25094266  0.25509311  1
  Y3+  Y51  1  0.49914038  0.25002467  0.76035020  1
  Y3+  Y52  1  0.50151523  0.49699768  0.25772410  1
  Y3+  Y53  1  0.49836351  0.50082633  0.75692015  1
  Y3+  Y54  1  0.50058520  0.75208829  0.25384094  1
  Y3+  Y55  1  0.49914522  0.74934881  0.75920673  1
  Y3+  Y56  1  0.75211981  0.00106668  0.25712503  1
  Y3+  Y57  1  0.75054859  0.00354836  0.75621860  1
  Y3+  Y58  1  0.75238414  0.25127567  0.25856270  1
  Y3+  Y59  1  0.75326013  0.24854841  0.75620012  1
  Y3+  Y60  1  0.75085257  0.49751400  0.26016616  1
  Y3+  Y61  1  0.75024518  0.49814177  0.75250429  1
  Y3+  Y62  1  0.75038444  0.74926856  0.25944011  1
  Y3+  Y63  1  0.74797521  0.74988971  0.75192552  1
  Fe3+  Fe64  1  0.12582038  0.87578689  0.38169929  1
  Fe3+  Fe65  1  0.12333175  0.37541325  0.88201077  1
  Fe3+  Fe66  1  0.37629344  0.62498866  0.37684967  1
  Fe3+  Fe67  1  0.62667730  0.12489175  0.88119825  1
  Fe3+  Fe68  1  0.62751782  0.87441643  0.87593204  1
  Fe3+  Fe69  1  0.62452712  0.12521057  0.37355587  1
  Fe3+  Fe70  1  0.62390809  0.87591139  0.37649959  1
  Fe3+  Fe71  1  0.87523375  0.37650651  0.87752739  1
  Fe3+  Fe72  1  0.87473166  0.87598230  0.38063545  1
  Fe3+  Fe73  1  0.62756010  0.62496498  0.87563543  1
  Fe3+  Fe74  1  0.12223537  0.62539212  0.87544627  1
  Fe3+  Fe75  1  0.12349249  0.12456473  0.87719697  1
  Fe3+  Fe76  1  0.62681788  0.37594312  0.87932951  1
  Fe3+  Fe77  1  0.12632652  0.62341151  0.37678444  1
  Fe3+  Fe78  1  0.87494551  0.87339411  0.87358540  1
  Fe3+  Fe79  1  0.87375112  0.62550895  0.87435251  1
  Fe3+  Fe80  1  0.37449106  0.37632662  0.88181184  1
  Fe3+  Fe81  1  0.12528681  0.12642740  0.37539347  1
  Fe3+  Fe82  1  0.62350498  0.62421921  0.37541429  1
  Fe3+  Fe83  1  0.37543448  0.87502297  0.38185519  1
  Fe3+  Fe84  1  0.37468201  0.62581443  0.13694379  1
  Fe3+  Fe85  1  0.12468909  0.37474694  0.13483541  1
  Fe3+  Fe86  1  0.87436048  0.87534494  0.63231481  1
  Fe3+  Fe87  1  0.37530547  0.87608323  0.63561158  1
  Fe3+  Fe88  1  0.37528567  0.12717460  0.64057969  1
  Fe3+  Fe89  1  0.87473861  0.62321815  0.63316451  1
  Fe3+  Fe90  1  0.12508346  0.87542038  0.14005546  1
  Fe3+  Fe91  1  0.62435918  0.37304857  0.63779858  1
  Fe3+  Fe92  1  0.12543163  0.37320236  0.63895211  1
  Fe3+  Fe93  1  0.37479183  0.37609607  0.13401074  1
  Fe3+  Fe94  1  0.12525262  0.87634886  0.63344644  1
  Fe3+  Fe95  1  0.62550109  0.12435371  0.13491082  1
  Cu2+  Cu96  1  0.37556960  0.12489430  0.87455693  1
  Cu2+  Cu97  1  0.37582406  0.62470533  0.86478004  1
  Cu2+  Cu98  1  0.87417395  0.12495029  0.87279589  1
  Cu2+  Cu99  1  0.37591968  0.12438338  0.35952276  1
  Cu2+  Cu100  1  0.12325514  0.87505071  0.85958286  1
  Cu2+  Cu101  1  0.62456831  0.37397811  0.36195269  1
  Cu2+  Cu102  1  0.87429154  0.62508478  0.36667711  1
  Cu2+  Cu103  1  0.87469212  0.37378309  0.37227676  1
  Cu2+  Cu104  1  0.12523355  0.37416184  0.35986913  1
  Cu2+  Cu105  1  0.37570595  0.87463760  0.87115373  1
  Cu2+  Cu106  1  0.37520146  0.37590508  0.37147334  1
  Cu2+  Cu107  1  0.87382073  0.12436282  0.37143008  1
  Cu2+  Cu108  1  0.12484362  0.12518806  0.15188073  1
  Cu2+  Cu109  1  0.12474112  0.62420813  0.64977158  1
  Cu2+  Cu110  1  0.62361383  0.12680752  0.65543536  1
  Cu2+  Cu111  1  0.62448101  0.87589390  0.64984119  1
  Cu2+  Cu112  1  0.62464198  0.62515177  0.15486692  1
  Cu2+  Cu113  1  0.37521049  0.62496254  0.65312465  1
  Cu2+  Cu114  1  0.37522353  0.12463976  0.14153849  1
  Cu2+  Cu115  1  0.87499525  0.37437578  0.64145306  1
  Cu2+  Cu116  1  0.62503881  0.62309516  0.65047221  1
  Cu2+  Cu117  1  0.12613130  0.12577942  0.65220312  1
  Cu2+  Cu118  1  0.37502270  0.37360715  0.64597572  1
  Cu2+  Cu119  1  0.37364673  0.87402350  0.14345055  1
  Cu2+  Cu120  1  0.62497772  0.37424774  0.14874688  1
  Cu2+  Cu121  1  0.87556588  0.37502381  0.15403672  1
  Cu2+  Cu122  1  0.87612787  0.87464656  0.15769195  1
  Cu2+  Cu123  1  0.87462460  0.12580204  0.64141151  1
  Cu2+  Cu124  1  0.62567315  0.87571947  0.15138428  1
  Cu2+  Cu125  1  0.87472407  0.62500807  0.15877768  1
  Cu2+  Cu126  1  0.12535860  0.62475295  0.15442969  1
  Cu2+  Cu127  1  0.87468472  0.12472774  0.14319431  1
  O2-  O128  1  0.12251463  0.12223667  -0.00267295  1
  O2-  O129  1  0.12657865  0.12762011  0.49579095  1
  O2-  O130  1  0.12293887  0.37656815  0.00758405  1
  O2-  O131  1  0.12698841  0.37336495  0.51879075  1
  O2-  O132  1  0.12042948  0.62656478  -0.00463757  1
  O2-  O133  1  0.12728678  0.62313190  0.49671524  1
  O2-  O134  1  0.12376054  0.87403570  0.02004823  1
  O2-  O135  1  0.12684307  0.87597729  0.50698439  1
  O2-  O136  1  0.37562381  0.12407834  0.00787491  1
  O2-  O137  1  0.37630838  0.12738074  0.52027367  1
  O2-  O138  1  0.37434825  0.37799753  0.00805389  1
  O2-  O139  1  0.37528657  0.37478099  0.50713322  1
  O2-  O140  1  0.37433110  0.62663670  0.01667427  1
  O2-  O141  1  0.37665788  0.62480251  0.49667979  1
  O2-  O142  1  0.37422758  0.87300859  0.00674337  1
  O2-  O143  1  0.37600095  0.87587966  0.50782957  1
  O2-  O144  1  0.62729786  0.12335523  0.00736098  1
  O2-  O145  1  0.62323030  0.12598264  0.49384876  1
  O2-  O146  1  0.62835181  0.37882767  -0.00113339  1
  O2-  O147  1  0.62286420  0.37237531  0.51747714  1
  O2-  O148  1  0.62974605  0.62597295  -0.00467657  1
  O2-  O149  1  0.62198838  0.62452789  0.49529092  1
  O2-  O150  1  0.62910900  0.87279433  -0.00443609  1
  O2-  O151  1  0.62248224  0.87599667  0.49605285  1
  O2-  O152  1  0.87459010  0.12395587  0.00779525  1
  O2-  O153  1  0.87355762  0.12454973  0.50724808  1
  O2-  O154  1  0.87532750  0.37818389  -0.00249083  1
  O2-  O155  1  0.87486788  0.37466307  0.50599635  1
  O2-  O156  1  0.87380081  0.62710435  -0.00585196  1
  O2-  O157  1  0.87487029  0.62317115  0.51286073  1
  O2-  O158  1  0.87519332  0.87097971  -0.00641141  1
  O2-  O159  1  0.87421708  0.87626007  0.50619497  1
  O2-  O160  1  0.12426699  0.00048269  0.16873884  1
  O2-  O161  1  0.12525513  -0.00120726  0.66138537  1
  O2-  O162  1  0.12597933  0.25150827  0.15987622  1
  O2-  O163  1  0.12586135  0.24961913  0.67203220  1
  O2-  O164  1  0.12483377  0.49851750  0.16239376  1
  O2-  O165  1  0.12565885  0.49918168  0.66751854  1
  O2-  O166  1  0.12428043  0.74968717  0.17067252  1
  O2-  O167  1  0.12570825  0.75201406  0.65965165  1
  O2-  O168  1  0.37460725  -0.00069620  0.16604295  1
  O2-  O169  1  0.37537319  -0.00082122  0.66565835  1
  O2-  O170  1  0.37451663  0.25358242  0.16126257  1
  O2-  O171  1  0.37489017  0.24850259  0.67441880  1
  O2-  O172  1  0.37506021  0.49921163  0.16443377  1
  O2-  O173  1  0.37445133  0.50121464  0.66582164  1
  O2-  O174  1  0.37457762  0.74825998  0.16919212  1
  O2-  O175  1  0.37495089  0.75191071  0.66162560  1
  O2-  O176  1  0.62526150  0.00073065  0.16191564  1
  O2-  O177  1  0.62448332  0.00172943  0.66450477  1
  O2-  O178  1  0.62508905  0.24831347  0.16053903  1
  O2-  O179  1  0.62387058  0.25046852  0.67291843  1
  O2-  O180  1  0.62464932  0.49970531  0.16502281  1
  O2-  O181  1  0.62435269  0.49855870  0.66473809  1
  O2-  O182  1  0.62548860  0.75102507  0.16540472  1
  O2-  O183  1  0.62437056  0.74887081  0.66003537  1
  O2-  O184  1  0.87602247  -0.00136204  0.16604349  1
  O2-  O185  1  0.87461760  -0.00290975  0.66276241  1
  O2-  O186  1  0.87477228  0.25126402  0.16520746  1
  O2-  O187  1  0.87510390  0.24976599  0.66638215  1
  O2-  O188  1  0.87541576  0.50010180  0.16543935  1
  O2-  O189  1  0.87528743  0.50099728  0.66393863  1
  O2-  O190  1  0.87564147  0.74962600  0.16877284  1
  O2-  O191  1  0.87468058  0.75114978  0.65785313  1
  O2-  O192  1  0.00055181  0.12549701  0.16652870  1
  O2-  O193  1  0.00178327  0.12498396  0.66293483  1
  O2-  O194  1  0.00164819  0.37504344  0.16464801  1
  O2-  O195  1  0.00144510  0.37429060  0.66585658  1
  O2-  O196  1  -0.00008500  0.62521643  0.16646206  1
  O2-  O197  1  -0.00098439  0.62570786  0.66259277  1
  O2-  O198  1  0.00065419  0.87425198  0.17126534  1
  O2-  O199  1  0.00019663  0.87469312  0.65789843  1
  O2-  O200  1  0.24927973  0.12490559  0.16526089  1
  O2-  O201  1  0.25111012  0.12414579  0.66888193  1
  O2-  O202  1  0.24990770  0.37604483  0.16218975  1
  O2-  O203  1  0.24890737  0.37498981  0.67136604  1
  O2-  O204  1  0.25057420  0.62427647  0.16601886  1
  O2-  O205  1  0.24989115  0.62530467  0.66590517  1
  O2-  O206  1  0.24775609  0.87500029  0.17139819  1
  O2-  O207  1  0.25047933  0.87527337  0.66307127  1
  O2-  O208  1  0.50285947  0.12464570  0.16156556  1
  O2-  O209  1  0.49902852  0.12449568  0.67142430  1
  O2-  O210  1  0.49792551  0.37540832  0.16129116  1
  O2-  O211  1  0.50093660  0.37514254  0.67047961  1
  O2-  O212  1  0.49976366  0.62542709  0.16240629  1
  O2-  O213  1  0.50033902  0.62444218  0.66621429  1
  O2-  O214  1  0.50103555  0.87481439  0.16301935  1
  O2-  O215  1  0.49849300  0.87552067  0.66380776  1
  O2-  O216  1  0.74756185  0.12413378  0.16390896  1
  O2-  O217  1  0.74775915  0.12546612  0.66418282  1
  O2-  O218  1  0.75079622  0.37522410  0.16565299  1
  O2-  O219  1  0.74847729  0.37389745  0.66386686  1
  O2-  O220  1  0.74944466  0.62515556  0.16658412  1
  O2-  O221  1  0.75042189  0.62499772  0.66027520  1
  O2-  O222  1  0.75154593  0.87497358  0.16617360  1
  O2-  O223  1  0.75043405  0.87497993  0.65765094  1
  O2-  O224  1  0.12611252  -0.00113727  0.35035356  1
  O2-  O225  1  0.12426882  -0.00011550  0.84512491  1
  O2-  O226  1  0.12590951  0.24975260  0.34367243  1
  O2-  O227  1  0.12514133  0.25185378  0.85330964  1
  O2-  O228  1  0.12537625  0.49947211  0.34628517  1
  O2-  O229  1  0.12515027  0.49905581  0.84901246  1
  O2-  O230  1  0.12530958  0.75136510  0.35210105  1
  O2-  O231  1  0.12461387  0.74965283  0.84326097  1
  O2-  O232  1  0.37457430  -0.00218141  0.35049107  1
  O2-  O233  1  0.37515607  -0.00019811  0.84816979  1
  O2-  O234  1  0.37551282  0.24868084  0.34580478  1
  O2-  O235  1  0.37447853  0.25385876  0.85557520  1
  O2-  O236  1  0.37484509  0.50233950  0.34532989  1
  O2-  O237  1  0.37436549  0.49805959  0.84974053  1
  O2-  O238  1  0.37460182  0.75147827  0.34966994  1
  O2-  O239  1  0.37487804  0.74893035  0.84582899  1
  O2-  O240  1  0.62398646  -0.00047167  0.34297081  1
  O2-  O241  1  0.62601009  0.00075843  0.84804722  1
  O2-  O242  1  0.62356965  0.24957975  0.34416410  1
  O2-  O243  1  0.62481321  0.25004738  0.85443626  1
  O2-  O244  1  0.62477610  0.49932692  0.34835746  1
  O2-  O245  1  0.62499652  0.49986402  0.84430581  1
  O2-  O246  1  0.62453449  0.75073897  0.34638408  1
  O2-  O247  1  0.62575977  0.74954026  0.84155690  1
  O2-  O248  1  0.87515594  -0.00291888  0.34876091  1
  O2-  O249  1  0.87484492  -0.00174005  0.84549833  1
  O2-  O250  1  0.87463090  0.24885259  0.34845235  1
  O2-  O251  1  0.87532282  0.25253454  0.84882597  1
  O2-  O252  1  0.87484033  0.50037653  0.34942452  1
  O2-  O253  1  0.87543264  0.50033211  0.84272874  1
  O2-  O254  1  0.87537820  0.75267399  0.35245637  1
  O2-  O255  1  0.87516013  0.74917050  0.83725296  1
  O2-  O256  1  0.00114808  0.12462756  0.34887858  1
  O2-  O257  1  0.00103125  0.12489010  0.84512651  1
  O2-  O258  1  0.00127316  0.37467547  0.34895789  1
  O2-  O259  1  0.00109394  0.37567034  0.84669610  1
  O2-  O260  1  0.00111592  0.62499614  0.34992974  1
  O2-  O261  1  -0.00094182  0.62514216  0.84147112  1
  O2-  O262  1  0.00084652  0.87486765  0.35492302  1
  O2-  O263  1  -0.00128896  0.87466890  0.84052385  1
  O2-  O264  1  0.25081663  0.12525011  0.34825091  1
  O2-  O265  1  0.24795999  0.12472984  0.84980075  1
  O2-  O266  1  0.24902942  0.37416130  0.34568003  1
  O2-  O267  1  0.24893743  0.37611395  0.85474193  1
  O2-  O268  1  0.25051627  0.62544443  0.34558149  1
  O2-  O269  1  0.24896898  0.62558471  0.85020478  1
  O2-  O270  1  0.25050838  0.87494145  0.35366509  1
  O2-  O271  1  0.24806544  0.87433374  0.84825566  1
  O2-  O272  1  0.49982821  0.12486411  0.34375560  1
  O2-  O273  1  0.50371219  0.12508148  0.85336958  1
  O2-  O274  1  0.50101684  0.37421041  0.34485245  1
  O2-  O275  1  0.49953695  0.37553499  0.85282919  1
  O2-  O276  1  0.49983225  0.62535443  0.34183337  1
  O2-  O277  1  0.50140303  0.62500997  0.84979868  1
  O2-  O278  1  0.49804954  0.87536681  0.34581187  1
  O2-  O279  1  0.50342467  0.87451554  0.84685502  1
  O2-  O280  1  0.74805321  0.12444122  0.34548428  1
  O2-  O281  1  0.74734986  0.12528337  0.84731538  1
  O2-  O282  1  0.74838605  0.37420742  0.34978012  1
  O2-  O283  1  0.75045622  0.37539263  0.84366140  1
  O2-  O284  1  0.74853143  0.62540251  0.34933353  1
  O2-  O285  1  0.75049206  0.62485779  0.83868263  1
  O2-  O286  1  0.75035195  0.87508864  0.34954426  1
  O2-  O287  1  0.75041032  0.87477222  0.83849760  1
