# generated using pymatgen
data_BaYFeCuO5
_symmetry_space_group_name_H-M   'P 1'
_cell_length_a   15.67330321
_cell_length_b   15.67440232
_cell_length_c   15.48702897
_cell_angle_alpha   89.99489607
_cell_angle_beta   90.00543001
_cell_angle_gamma   90.00476847
_symmetry_Int_Tables_number   1
_chemical_formula_structural   BaYFeCuO5
_chemical_formula_sum   'Ba32 Y32 Fe32 Cu32 O160'
_cell_volume   3804.69309896
_cell_formula_units_Z   32
loop_
 _symmetry_equiv_pos_site_id
 _symmetry_equiv_pos_as_xyz
  1  'x, y, z'
loop_
 _atom_type_symbol
 _atom_type_oxidation_number
  Ba2+  2.0
  Y3+  3.0
  Fe3+  3.0
  Cu2+  2.0
  O2-  -2.0
loop_
 _atom_site_type_symbol
 _atom_site_label
 _atom_site_symmetry_multiplicity
 _atom_site_fract_x
 _atom_site_fract_y
 _atom_site_fract_z
 _atom_site_occupancy
  Ba2+  Ba0  1  -0.00427069  0.00444467  0.01240452  1
  Ba2+  Ba1  1  0.00172848  -0.00021443  0.51584043  1
  Ba2+  Ba2  1  0.00622023  0.24692184  0.00746249  1
  Ba2+  Ba3  1  -0.00086136  0.24701397  0.51184032  1
  Ba2+  Ba4  1  0.00851760  0.49728871  0.01118101  1
  Ba2+  Ba5  1  0.00057870  0.50009449  0.50474555  1
  Ba2+  Ba6  1  0.00006382  0.75187476  0.01632263  1
  Ba2+  Ba7  1  0.00433917  0.75203486  0.51177046  1
  Ba2+  Ba8  1  0.25429208  0.00547675  0.01440708  1
  Ba2+  Ba9  1  0.25213015  -0.00304166  0.51098990  1
  Ba2+  Ba10  1  0.24419859  0.24654728  0.01654366  1
  Ba2+  Ba11  1  0.25066967  0.24807922  0.52012064  1
  Ba2+  Ba12  1  0.24079803  0.49711769  0.01069173  1
  Ba2+  Ba13  1  0.25128414  0.50260929  0.52261435  1
  Ba2+  Ba14  1  0.25022714  0.75186511  0.00634299  1
  Ba2+  Ba15  1  0.25313238  0.75226208  0.51036400  1
  Ba2+  Ba16  1  0.50058805  0.00134813  0.00579944  1
  Ba2+  Ba17  1  0.49360426  -0.00658609  0.50677241  1
  Ba2+  Ba18  1  0.50327742  0.24320191  0.01310126  1
  Ba2+  Ba19  1  0.49340267  0.25252244  0.51588783  1
  Ba2+  Ba20  1  0.50307527  0.49515028  0.01082682  1
  Ba2+  Ba21  1  0.49767573  0.50297052  0.52205049  1
  Ba2+  Ba22  1  0.50021060  0.76085657  0.00685135  1
  Ba2+  Ba23  1  0.49590113  0.75195587  0.51120794  1
  Ba2+  Ba24  1  0.74943940  0.00099842  0.00568959  1
  Ba2+  Ba25  1  0.75407149  -0.00453585  0.51162096  1
  Ba2+  Ba26  1  0.74695960  0.24196323  -0.00154277  1
  Ba2+  Ba27  1  0.75734245  0.25101725  0.50574523  1
  Ba2+  Ba28  1  0.74667325  0.49487213  0.01148385  1
  Ba2+  Ba29  1  0.75011243  0.50075650  0.50573219  1
  Ba2+  Ba30  1  0.74974002  0.76171451  0.01852771  1
  Ba2+  Ba31  1  0.74654472  0.75198953  0.51170336  1
  Y3+  Y32  1  0.00019439  0.00005420  0.26105664  1
  Y3+  Y33  1  -0.00010410  0.00088147  0.75255025  1
  Y3+  Y34  1  0.00023265  0.24948349  0.25873265  1
  Y3+  Y35  1  0.00166436  0.24854498  0.75642598  1
  Y3+  Y36  1  0.00106254  0.49965989  0.25516724  1
  Y3+  Y37  1  0.00414553  0.49856644  0.75858280  1
  Y3+  Y38  1  0.00136245  0.75054976  0.25873360  1
  Y3+  Y39  1  0.00188602  0.75205104  0.75443104  1
  Y3+  Y40  1  0.25138187  0.00029403  0.26267209  1
  Y3+  Y41  1  0.25108757  -0.00057583  0.75221751  1
  Y3+  Y42  1  0.24938769  0.24780111  0.25614623  1
  Y3+  Y43  1  0.24859639  0.25068462  0.75540986  1
  Y3+  Y44  1  0.24833986  0.50060188  0.25450765  1
  Y3+  Y45  1  0.24887275  0.49952382  0.75749819  1
  Y3+  Y46  1  0.25060310  0.75065715  0.26126392  1
  Y3+  Y47  1  0.25095856  0.75104556  0.75307523  1
  Y3+  Y48  1  0.49854405  -0.00081341  0.26363070  1
  Y3+  Y49  1  0.49837591  -0.00105024  0.75231944  1
  Y3+  Y50  1  0.49881984  0.24796536  0.25931293  1
  Y3+  Y51  1  0.49890395  0.24933906  0.75404790  1
  Y3+  Y52  1  0.49936532  0.50006538  0.25646687  1
  Y3+  Y53  1  0.49913954  0.50051311  0.75569377  1
  Y3+  Y54  1  0.49862247  0.75225446  0.26265964  1
  Y3+  Y55  1  0.49897354  0.75159353  0.75262110  1
  Y3+  Y56  1  0.74993148  -0.00167007  0.26249058  1
  Y3+  Y57  1  0.75118419  0.00061542  0.75277500  1
  Y3+  Y58  1  0.75137434  0.24954600  0.26127704  1
  Y3+  Y59  1  0.75081856  0.24724779  0.75461014  1
  Y3+  Y60  1  0.75126219  0.49919344  0.25740456  1
  Y3+  Y61  1  0.74790343  0.49980306  0.75726833  1
  Y3+  Y62  1  0.74936258  0.75270125  0.26001825  1
  Y3+  Y63  1  0.74868787  0.75229395  0.75353586  1
  Fe3+  Fe64  1  0.62476719  0.87668537  0.87328104  1
  Fe3+  Fe65  1  0.62416523  0.37327248  0.87573253  1
  Fe3+  Fe66  1  0.12599260  0.37487135  0.37729846  1
  Fe3+  Fe67  1  0.87593719  0.87560893  0.87544867  1
  Fe3+  Fe68  1  0.62469337  0.12477051  0.38233556  1
  Fe3+  Fe69  1  0.12542574  0.12497926  0.37775624  1
  Fe3+  Fe70  1  0.87441867  0.62590201  0.88148038  1
  Fe3+  Fe71  1  0.62532663  0.62665584  0.87981005  1
  Fe3+  Fe72  1  0.37334141  0.37628329  0.37568156  1
  Fe3+  Fe73  1  0.62384075  0.37549860  0.37787547  1
  Fe3+  Fe74  1  0.12599026  0.87663665  0.87880071  1
  Fe3+  Fe75  1  0.12590090  0.62450719  0.37590484  1
  Fe3+  Fe76  1  0.62419290  0.62457284  0.37609210  1
  Fe3+  Fe77  1  0.87649143  0.87395992  0.37733278  1
  Fe3+  Fe78  1  0.37559772  0.62571712  0.87974300  1
  Fe3+  Fe79  1  0.37494091  0.12482536  0.87475187  1
  Fe3+  Fe80  1  0.12477131  0.62650830  0.87685406  1
  Fe3+  Fe81  1  0.37419624  0.37384260  0.87929495  1
  Fe3+  Fe82  1  0.87564809  0.37386620  0.88072597  1
  Fe3+  Fe83  1  0.12554164  0.12358638  0.87447108  1
  Fe3+  Fe84  1  0.62531611  0.12335918  0.14245523  1
  Fe3+  Fe85  1  0.87470853  0.62574284  0.13489881  1
  Fe3+  Fe86  1  0.87427779  0.12428143  0.14036772  1
  Fe3+  Fe87  1  0.62468438  0.12508113  0.63452706  1
  Fe3+  Fe88  1  0.87562561  0.37609578  0.64042423  1
  Fe3+  Fe89  1  0.37511375  0.37345680  0.13359637  1
  Fe3+  Fe90  1  0.62430313  0.62649476  0.13427815  1
  Fe3+  Fe91  1  0.87438705  0.37275655  0.13511017  1
  Fe3+  Fe92  1  0.37483430  0.62581021  0.13333526  1
  Fe3+  Fe93  1  0.87572199  0.62454740  0.63901798  1
  Fe3+  Fe94  1  0.37548610  0.87612098  0.13985677  1
  Fe3+  Fe95  1  0.12535526  0.87642864  0.13595405  1
  Cu2+  Cu96  1  0.62439316  0.12420369  0.85666828  1
  Cu2+  Cu97  1  0.62465149  0.87456238  0.37567004  1
  Cu2+  Cu98  1  0.87610814  0.37555843  0.36192021  1
  Cu2+  Cu99  1  0.37460883  0.62306230  0.37283979  1
  Cu2+  Cu100  1  0.12528160  0.87493801  0.37300464  1
  Cu2+  Cu101  1  0.87586762  0.12443772  0.37524738  1
  Cu2+  Cu102  1  0.37448404  0.87551880  0.86214409  1
  Cu2+  Cu103  1  0.12559827  0.37372427  0.87256709  1
  Cu2+  Cu104  1  0.37402597  0.87429277  0.37008606  1
  Cu2+  Cu105  1  0.87535882  0.12440245  0.86053298  1
  Cu2+  Cu106  1  0.87536604  0.62514870  0.36153271  1
  Cu2+  Cu107  1  0.37435713  0.12648481  0.37534551  1
  Cu2+  Cu108  1  0.12541790  0.62666652  0.14914089  1
  Cu2+  Cu109  1  0.87534559  0.12529233  0.64038536  1
  Cu2+  Cu110  1  0.12576097  0.87502599  0.64019982  1
  Cu2+  Cu111  1  0.12448807  0.12342664  0.15327544  1
  Cu2+  Cu112  1  0.12424146  0.37517434  0.64815970  1
  Cu2+  Cu113  1  0.37463646  0.87479811  0.64558943  1
  Cu2+  Cu114  1  0.12546017  0.12503606  0.64961717  1
  Cu2+  Cu115  1  0.37536105  0.12417722  0.15341461  1
  Cu2+  Cu116  1  0.62442087  0.87542623  0.63979364  1
  Cu2+  Cu117  1  0.37449738  0.62570139  0.64316436  1
  Cu2+  Cu118  1  0.87501086  0.87586216  0.15333460  1
  Cu2+  Cu119  1  0.37488271  0.12465042  0.64033276  1
  Cu2+  Cu120  1  0.12417966  0.37368723  0.14166796  1
  Cu2+  Cu121  1  0.62545850  0.37345526  0.15054357  1
  Cu2+  Cu122  1  0.12477680  0.62506970  0.65190048  1
  Cu2+  Cu123  1  0.62414849  0.87608505  0.15590720  1
  Cu2+  Cu124  1  0.37426416  0.37554043  0.65405160  1
  Cu2+  Cu125  1  0.62578368  0.37484711  0.64839119  1
  Cu2+  Cu126  1  0.87551886  0.87425890  0.64967375  1
  Cu2+  Cu127  1  0.62515247  0.62514038  0.65194118  1
  O2-  O128  1  0.12529443  0.12223769  -0.00489572  1
  O2-  O129  1  0.12508643  0.12672073  0.49805250  1
  O2-  O130  1  0.12432057  0.37323059  0.00684041  1
  O2-  O131  1  0.12640955  0.37608042  0.49727880  1
  O2-  O132  1  0.12442472  0.62777562  -0.00281131  1
  O2-  O133  1  0.12498186  0.62271790  0.49619281  1
  O2-  O134  1  0.12541377  0.87717203  0.00652778  1
  O2-  O135  1  0.12471277  0.87423715  0.50710950  1
  O2-  O136  1  0.37577124  0.12502203  -0.00465251  1
  O2-  O137  1  0.37469728  0.12698403  0.50720332  1
  O2-  O138  1  0.37554686  0.37245912  0.00526222  1
  O2-  O139  1  0.37360816  0.37802831  0.49577576  1
  O2-  O140  1  0.37600633  0.62670516  0.00643222  1
  O2-  O141  1  0.37468835  0.62308827  0.50632663  1
  O2-  O142  1  0.37568360  0.87684497  0.01915219  1
  O2-  O143  1  0.37364349  0.87328344  0.50808536  1
  O2-  O144  1  0.62597301  0.12271569  0.02160185  1
  O2-  O145  1  0.62484881  0.12655713  0.50820385  1
  O2-  O146  1  0.62439025  0.37182314  -0.00380446  1
  O2-  O147  1  0.62353842  0.37812713  0.49765802  1
  O2-  O148  1  0.62541254  0.62743526  0.00586906  1
  O2-  O149  1  0.62492192  0.62244184  0.49621467  1
  O2-  O150  1  0.62537766  0.87752672  -0.00577434  1
  O2-  O151  1  0.62543611  0.87353532  0.50737096  1
  O2-  O152  1  0.87259579  0.12481099  0.01989541  1
  O2-  O153  1  0.87564439  0.12617311  0.50806705  1
  O2-  O154  1  0.87394177  0.37158808  0.00823089  1
  O2-  O155  1  0.87568212  0.37840305  0.52005145  1
  O2-  O156  1  0.87369670  0.62715404  0.00710356  1
  O2-  O157  1  0.87523695  0.62186052  0.51911838  1
  O2-  O158  1  0.87490899  0.87641943  -0.00438469  1
  O2-  O159  1  0.87690156  0.87182093  0.49800827  1
  O2-  O160  1  0.12510839  -0.00181385  0.16420113  1
  O2-  O161  1  0.12504026  0.00189116  0.66360567  1
  O2-  O162  1  0.12407474  0.24748111  0.16372196  1
  O2-  O163  1  0.12476206  0.24923116  0.66384945  1
  O2-  O164  1  0.12464625  0.50177437  0.16017827  1
  O2-  O165  1  0.12492280  0.50039820  0.66707780  1
  O2-  O166  1  0.12488254  0.75260352  0.16224550  1
  O2-  O167  1  0.12494950  0.74871576  0.66653698  1
  O2-  O168  1  0.37470947  -0.00024060  0.16927532  1
  O2-  O169  1  0.37490444  -0.00089829  0.66348209  1
  O2-  O170  1  0.37595252  0.25007893  0.16099055  1
  O2-  O171  1  0.37473066  0.25201210  0.66453440  1
  O2-  O172  1  0.37550753  0.50041185  0.15522192  1
  O2-  O173  1  0.37477106  0.49907192  0.67012345  1
  O2-  O174  1  0.37582735  0.74895833  0.16535335  1
  O2-  O175  1  0.37491357  0.75067234  0.66738254  1
  O2-  O176  1  0.62513570  0.00011733  0.17194570  1
  O2-  O177  1  0.62500591  0.00268522  0.66216977  1
  O2-  O178  1  0.62471730  0.24862955  0.16930541  1
  O2-  O179  1  0.62507060  0.24877018  0.66318634  1
  O2-  O180  1  0.62556852  0.50145059  0.15683846  1
  O2-  O181  1  0.62489374  0.50003859  0.66922181  1
  O2-  O182  1  0.62452716  0.74933619  0.16144174  1
  O2-  O183  1  0.62518053  0.74896879  0.66564239  1
  O2-  O184  1  0.87449696  -0.00007854  0.16758892  1
  O2-  O185  1  0.87541320  -0.00167920  0.66219997  1
  O2-  O186  1  0.87445342  0.25016574  0.16789018  1
  O2-  O187  1  0.87541787  0.25234894  0.66851210  1
  O2-  O188  1  0.87366245  0.50005027  0.15772279  1
  O2-  O189  1  0.87534402  0.50043011  0.67620703  1
  O2-  O190  1  0.87442096  0.74942085  0.16081517  1
  O2-  O191  1  0.87512651  0.74898707  0.66727497  1
  O2-  O192  1  -0.00112377  0.12419775  0.16554601  1
  O2-  O193  1  0.00218983  0.12536094  0.66445448  1
  O2-  O194  1  -0.00396322  0.37524005  0.16333229  1
  O2-  O195  1  -0.00006005  0.37564494  0.66918210  1
  O2-  O196  1  -0.00231174  0.62538357  0.16115126  1
  O2-  O197  1  -0.00005900  0.62489124  0.66852964  1
  O2-  O198  1  0.00177496  0.87507849  0.16110038  1
  O2-  O199  1  -0.00092380  0.87449338  0.66615140  1
  O2-  O200  1  0.24994443  0.12478700  0.16159770  1
  O2-  O201  1  0.24857745  0.12554845  0.66408353  1
  O2-  O202  1  0.25308246  0.37462821  0.15993859  1
  O2-  O203  1  0.24898999  0.37584809  0.66577058  1
  O2-  O204  1  0.25246507  0.62537099  0.15946273  1
  O2-  O205  1  0.24827714  0.62460857  0.66727672  1
  O2-  O206  1  0.24945767  0.87489745  0.16480958  1
  O2-  O207  1  0.25096896  0.87465218  0.66673771  1
  O2-  O208  1  0.50041843  0.12443473  0.16840645  1
  O2-  O209  1  0.50214211  0.12617527  0.66358056  1
  O2-  O210  1  0.49817975  0.37510718  0.16102582  1
  O2-  O211  1  0.49995597  0.37588106  0.66498654  1
  O2-  O212  1  0.49984937  0.62418284  0.15983800  1
  O2-  O213  1  0.50129161  0.62451589  0.66771679  1
  O2-  O214  1  0.49929889  0.87544018  0.16820640  1
  O2-  O215  1  0.49881832  0.87449178  0.66460220  1
  O2-  O216  1  0.75037773  0.12456054  0.17350683  1
  O2-  O217  1  0.74747137  0.12552930  0.66458566  1
  O2-  O218  1  0.75197173  0.37507665  0.16508350  1
  O2-  O219  1  0.75107053  0.37607951  0.66905626  1
  O2-  O220  1  0.74948323  0.62532605  0.16123082  1
  O2-  O221  1  0.75061256  0.62440556  0.66890873  1
  O2-  O222  1  0.74914855  0.87489468  0.16487725  1
  O2-  O223  1  0.75148964  0.87452167  0.66330952  1
  O2-  O224  1  0.12512953  0.00126829  0.34752434  1
  O2-  O225  1  0.12532106  -0.00140239  0.84562475  1
  O2-  O226  1  0.12472886  0.25084553  0.34498097  1
  O2-  O227  1  0.12498423  0.24750648  0.84677716  1
  O2-  O228  1  0.12405386  0.49913301  0.34186693  1
  O2-  O229  1  0.12529712  0.50232051  0.85010783  1
  O2-  O230  1  0.12506201  0.74824594  0.34596764  1
  O2-  O231  1  0.12476842  0.75178248  0.84922977  1
  O2-  O232  1  0.37477200  -0.00080716  0.35244981  1
  O2-  O233  1  0.37518609  0.00027720  0.84605970  1
  O2-  O234  1  0.37477470  0.25326783  0.34393405  1
  O2-  O235  1  0.37542693  0.25094577  0.84678633  1
  O2-  O236  1  0.37482692  0.49714612  0.33728988  1
  O2-  O237  1  0.37588934  0.50049894  0.85464828  1
  O2-  O238  1  0.37453070  0.75024149  0.34876962  1
  O2-  O239  1  0.37580253  0.74858401  0.85219841  1
  O2-  O240  1  0.62487090  0.00235095  0.35419204  1
  O2-  O241  1  0.62507816  -0.00004419  0.84481809  1
  O2-  O242  1  0.62558938  0.25003440  0.35085035  1
  O2-  O243  1  0.62516917  0.24977287  0.84642663  1
  O2-  O244  1  0.62565673  0.49916245  0.33996366  1
  O2-  O245  1  0.62517411  0.50139264  0.85289703  1
  O2-  O246  1  0.62517465  0.74822021  0.34541108  1
  O2-  O247  1  0.62500868  0.74926379  0.84848143  1
  O2-  O248  1  0.87545151  -0.00208087  0.34916352  1
  O2-  O249  1  0.87492475  -0.00058538  0.84556473  1
  O2-  O250  1  0.87496657  0.25152451  0.35049450  1
  O2-  O251  1  0.87418062  0.25069093  0.85220696  1
  O2-  O252  1  0.87526912  0.50059864  0.34308336  1
  O2-  O253  1  0.87357517  0.50036311  0.85891545  1
  O2-  O254  1  0.87528811  0.74982999  0.34421715  1
  O2-  O255  1  0.87479287  0.74928942  0.84887437  1
  O2-  O256  1  0.00187835  0.12562596  0.34687994  1
  O2-  O257  1  0.00055718  0.12440722  0.84752396  1
  O2-  O258  1  0.00085274  0.37597416  0.34676272  1
  O2-  O259  1  -0.00307317  0.37525191  0.85193446  1
  O2-  O260  1  0.00095198  0.62422620  0.34512746  1
  O2-  O261  1  -0.00175605  0.62507695  0.85054720  1
  O2-  O262  1  -0.00121209  0.87381111  0.34442790  1
  O2-  O263  1  0.00155405  0.87505792  0.84886831  1
  O2-  O264  1  0.24816083  0.12577857  0.34505914  1
  O2-  O265  1  0.25046276  0.12465825  0.84485098  1
  O2-  O266  1  0.24883076  0.37553993  0.34085001  1
  O2-  O267  1  0.25323250  0.37554485  0.84966819  1
  O2-  O268  1  0.24791049  0.62390581  0.34219969  1
  O2-  O269  1  0.25156468  0.62576509  0.85079607  1
  O2-  O270  1  0.25093549  0.87450959  0.34768398  1
  O2-  O271  1  0.24848845  0.87424263  0.85126915  1
  O2-  O272  1  0.50287954  0.12619122  0.35114495  1
  O2-  O273  1  0.49906887  0.12512498  0.84617831  1
  O2-  O274  1  0.50026058  0.37528378  0.34331628  1
  O2-  O275  1  0.49875619  0.37552005  0.84853752  1
  O2-  O276  1  0.50186154  0.62382721  0.34251089  1
  O2-  O277  1  0.50068007  0.62488912  0.85249929  1
  O2-  O278  1  0.49823487  0.87438158  0.35114062  1
  O2-  O279  1  0.50022072  0.87509269  0.84740035  1
  O2-  O280  1  0.74738006  0.12585097  0.35391274  1
  O2-  O281  1  0.75005595  0.12498213  0.84913351  1
  O2-  O282  1  0.75004128  0.37608403  0.34922059  1
  O2-  O283  1  0.75069659  0.37502284  0.85100056  1
  O2-  O284  1  0.74935205  0.62393360  0.34525485  1
  O2-  O285  1  0.74964170  0.62501432  0.85201583  1
  O2-  O286  1  0.75230948  0.87392349  0.34854684  1
  O2-  O287  1  0.75018722  0.87526698  0.84462357  1
