# generated using pymatgen
data_BaYFeCuO5
_symmetry_space_group_name_H-M   'P 1'
_cell_length_a   15.68444696
_cell_length_b   15.68924673
_cell_length_c   15.53102490
_cell_angle_alpha   89.98896004
_cell_angle_beta   89.98991877
_cell_angle_gamma   90.00261073
_symmetry_Int_Tables_number   1
_chemical_formula_structural   BaYFeCuO5
_chemical_formula_sum   'Ba32 Y32 Fe32 Cu32 O160'
_cell_volume   3821.83033832
_cell_formula_units_Z   32
loop_
 _symmetry_equiv_pos_site_id
 _symmetry_equiv_pos_as_xyz
  1  'x, y, z'
loop_
 _atom_type_symbol
 _atom_type_oxidation_number
  Ba2+  2.0
  Y3+  3.0
  Fe3+  3.0
  Cu2+  2.0
  O2-  -2.0
loop_
 _atom_site_type_symbol
 _atom_site_label
 _atom_site_symmetry_multiplicity
 _atom_site_fract_x
 _atom_site_fract_y
 _atom_site_fract_z
 _atom_site_occupancy
  Ba2+  Ba0  1  0.00161286  0.01040976  0.01597745  1
  Ba2+  Ba1  1  -0.00067941  -0.00147022  0.51842249  1
  Ba2+  Ba2  1  0.00062107  0.25238385  0.01665717  1
  Ba2+  Ba3  1  0.00053374  0.25060275  0.51736653  1
  Ba2+  Ba4  1  0.00780874  0.49616887  0.00613982  1
  Ba2+  Ba5  1  -0.00030493  0.50174625  0.52628142  1
  Ba2+  Ba6  1  0.00703066  0.74245828  0.00614522  1
  Ba2+  Ba7  1  -0.00028494  0.75062313  0.52954863  1
  Ba2+  Ba8  1  0.25463713  -0.00274935  0.00993271  1
  Ba2+  Ba9  1  0.24458019  0.00360655  0.52298141  1
  Ba2+  Ba10  1  0.24686034  0.25542032  0.02310795  1
  Ba2+  Ba11  1  0.25185868  0.25318464  0.51877275  1
  Ba2+  Ba12  1  0.25021449  0.50043371  0.02277362  1
  Ba2+  Ba13  1  0.25451293  0.49980551  0.51483006  1
  Ba2+  Ba14  1  0.25512892  0.74409575  0.01192665  1
  Ba2+  Ba15  1  0.24710662  0.74246644  0.51803090  1
  Ba2+  Ba16  1  0.49908259  0.00074946  0.00661529  1
  Ba2+  Ba17  1  0.50537121  0.00348014  0.51267383  1
  Ba2+  Ba18  1  0.50601230  0.25345338  0.00612804  1
  Ba2+  Ba19  1  0.49789894  0.25347503  0.50184619  1
  Ba2+  Ba20  1  0.49994277  0.50085300  0.01487184  1
  Ba2+  Ba21  1  0.49634453  0.49947370  0.49796131  1
  Ba2+  Ba22  1  0.49469913  0.74409342  0.01259358  1
  Ba2+  Ba23  1  0.50159667  0.74282534  0.50586543  1
  Ba2+  Ba24  1  0.74647923  0.01203505  0.01200768  1
  Ba2+  Ba25  1  0.75198842  -0.00047365  0.50519556  1
  Ba2+  Ba26  1  0.74693626  0.25005280  0.00251877  1
  Ba2+  Ba27  1  0.74920019  0.24948155  0.49485178  1
  Ba2+  Ba28  1  0.74292885  0.49534216  -0.00363754  1
  Ba2+  Ba29  1  0.74982946  0.50088799  0.50653839  1
  Ba2+  Ba30  1  0.74249224  0.74253534  0.00758151  1
  Ba2+  Ba31  1  0.75225804  0.75151506  0.52186816  1
  Y3+  Y32  1  -0.00103846  0.00296453  0.25506444  1
  Y3+  Y33  1  0.00108428  -0.00007415  0.75696023  1
  Y3+  Y34  1  -0.00002152  0.24846768  0.25598024  1
  Y3+  Y35  1  -0.00029404  0.25328102  0.75643295  1
  Y3+  Y36  1  0.00242046  0.50048519  0.25291365  1
  Y3+  Y37  1  0.00049022  0.49877766  0.75917761  1
  Y3+  Y38  1  0.00188294  0.74860700  0.25089848  1
  Y3+  Y39  1  0.00179159  0.74786809  0.76127444  1
  Y3+  Y40  1  0.25073906  -0.00090174  0.25313889  1
  Y3+  Y41  1  0.25176657  -0.00048292  0.75826486  1
  Y3+  Y42  1  0.25053354  0.25280840  0.25922109  1
  Y3+  Y43  1  0.25150708  0.25170719  0.75108143  1
  Y3+  Y44  1  0.25252797  0.50098725  0.26018267  1
  Y3+  Y45  1  0.25082590  0.50062682  0.75212578  1
  Y3+  Y46  1  0.25242212  0.74783671  0.25524337  1
  Y3+  Y47  1  0.25102053  0.74816608  0.75854289  1
  Y3+  Y48  1  0.50015215  0.00024154  0.25436277  1
  Y3+  Y49  1  0.49940958  -0.00012835  0.76070186  1
  Y3+  Y50  1  0.50068202  0.25168823  0.25991277  1
  Y3+  Y51  1  0.49953886  0.25015842  0.75687883  1
  Y3+  Y52  1  0.49849985  0.50105040  0.26186366  1
  Y3+  Y53  1  0.49923677  0.50015956  0.75574179  1
  Y3+  Y54  1  0.49810985  0.74697433  0.25637858  1
  Y3+  Y55  1  0.49890768  0.74961997  0.75915179  1
  Y3+  Y56  1  0.74960311  0.00396785  0.25573800  1
  Y3+  Y57  1  0.74805003  -0.00023613  0.75966061  1
  Y3+  Y58  1  0.74879401  0.24763794  0.25736323  1
  Y3+  Y59  1  0.74884733  0.25195011  0.76150116  1
  Y3+  Y60  1  0.74660529  0.50075758  0.25908143  1
  Y3+  Y61  1  0.74964782  0.49851071  0.75928128  1
  Y3+  Y62  1  0.74727994  0.74784545  0.25474666  1
  Y3+  Y63  1  0.74840464  0.74939230  0.76091502  1
  Fe3+  Fe64  1  0.87691062  0.37618256  0.37669215  1
  Fe3+  Fe65  1  0.87636696  0.87352532  0.37253205  1
  Fe3+  Fe66  1  0.12428504  0.87447451  0.37453157  1
  Fe3+  Fe67  1  0.62383034  0.87480968  0.88040994  1
  Fe3+  Fe68  1  0.12323217  0.62578752  0.37557676  1
  Fe3+  Fe69  1  0.12394504  0.37606149  0.37747387  1
  Fe3+  Fe70  1  0.87655750  0.62659675  0.37518290  1
  Fe3+  Fe71  1  0.62544976  0.87445236  0.37521621  1
  Fe3+  Fe72  1  0.37372924  0.87528895  0.37998819  1
  Fe3+  Fe73  1  0.37366488  0.12340878  0.37676844  1
  Fe3+  Fe74  1  0.12604064  0.87512755  0.87928204  1
  Fe3+  Fe75  1  0.12488224  0.12436468  0.37581726  1
  Fe3+  Fe76  1  0.37401044  0.37534290  0.87703061  1
  Fe3+  Fe77  1  0.12775230  0.37475902  0.87414463  1
  Fe3+  Fe78  1  0.37445906  0.62285952  0.87494412  1
  Fe3+  Fe79  1  0.87619699  0.12627706  0.87758561  1
  Fe3+  Fe80  1  0.87497719  0.62315118  0.87949522  1
  Fe3+  Fe81  1  0.37405722  0.12704790  0.87912502  1
  Fe3+  Fe82  1  0.12633152  0.12718698  0.87595853  1
  Fe3+  Fe83  1  0.87526642  0.87569032  0.88143161  1
  Fe3+  Fe84  1  0.62461356  0.37539724  0.14190498  1
  Fe3+  Fe85  1  0.87316645  0.12600364  0.63911727  1
  Fe3+  Fe86  1  0.37628889  0.87438142  0.63514934  1
  Fe3+  Fe87  1  0.87387811  0.62267525  0.13209920  1
  Fe3+  Fe88  1  0.62579182  0.12540132  0.64036289  1
  Fe3+  Fe89  1  0.12564763  0.87488007  0.13246614  1
  Fe3+  Fe90  1  0.62490789  0.62471199  0.63973461  1
  Fe3+  Fe91  1  0.37589948  0.12667044  0.13483618  1
  Fe3+  Fe92  1  0.87357795  0.37550793  0.13640550  1
  Fe3+  Fe93  1  0.62543843  0.37462157  0.63801247  1
  Fe3+  Fe94  1  0.87408303  0.87477326  0.13075280  1
  Fe3+  Fe95  1  0.62418672  0.87478707  0.13434150  1
  Cu2+  Cu96  1  0.62583121  0.62627207  0.36342078  1
  Cu2+  Cu97  1  0.12741529  0.62281826  0.87269465  1
  Cu2+  Cu98  1  0.62253700  0.62419687  0.87464019  1
  Cu2+  Cu99  1  0.62419431  0.12378531  0.36126856  1
  Cu2+  Cu100  1  0.37454543  0.87421393  0.87393025  1
  Cu2+  Cu101  1  0.62396921  0.12528188  0.87488196  1
  Cu2+  Cu102  1  0.62558799  0.37523549  0.36530875  1
  Cu2+  Cu103  1  0.62302644  0.37509732  0.86215639  1
  Cu2+  Cu104  1  0.87557522  0.37453750  0.86753253  1
  Cu2+  Cu105  1  0.37358963  0.62633703  0.37352254  1
  Cu2+  Cu106  1  0.37373013  0.37474199  0.37270512  1
  Cu2+  Cu107  1  0.87595430  0.12463551  0.36304865  1
  Cu2+  Cu108  1  0.12578584  0.62437370  0.13940691  1
  Cu2+  Cu109  1  0.37668620  0.62519366  0.64157430  1
  Cu2+  Cu110  1  0.62463853  0.62313724  0.14186268  1
  Cu2+  Cu111  1  0.37567565  0.37515167  0.15302609  1
  Cu2+  Cu112  1  0.62472967  0.87514195  0.65454026  1
  Cu2+  Cu113  1  0.12583568  0.87458251  0.65674334  1
  Cu2+  Cu114  1  0.37613113  0.87440046  0.13940279  1
  Cu2+  Cu115  1  0.37753971  0.37548674  0.64047212  1
  Cu2+  Cu116  1  0.37550237  0.62360033  0.15481954  1
  Cu2+  Cu117  1  0.12490545  0.62463851  0.65555022  1
  Cu2+  Cu118  1  0.37637195  0.12433916  0.65116809  1
  Cu2+  Cu119  1  0.12445278  0.12557410  0.65282480  1
  Cu2+  Cu120  1  0.87310221  0.37488327  0.65203603  1
  Cu2+  Cu121  1  0.12530057  0.37536885  0.15378266  1
  Cu2+  Cu122  1  0.87438163  0.12634196  0.14986009  1
  Cu2+  Cu123  1  0.87398784  0.62476467  0.65906581  1
  Cu2+  Cu124  1  0.12487653  0.37561255  0.64884090  1
  Cu2+  Cu125  1  0.12660020  0.12524791  0.14957809  1
  Cu2+  Cu126  1  0.62342617  0.12671309  0.14283053  1
  Cu2+  Cu127  1  0.87450946  0.87544575  0.65891421  1
  O2-  O128  1  0.12599964  0.12881989  -0.00461736  1
  O2-  O129  1  0.12345161  0.12212613  0.49544902  1
  O2-  O130  1  0.12807990  0.37362741  -0.00582564  1
  O2-  O131  1  0.12186320  0.37629755  0.49698610  1
  O2-  O132  1  0.12657932  0.62302425  0.00586944  1
  O2-  O133  1  0.12017682  0.62761787  0.49532693  1
  O2-  O134  1  0.12637182  0.87587891  0.00528822  1
  O2-  O135  1  0.12184733  0.87464953  0.49398686  1
  O2-  O136  1  0.37434742  0.12814669  0.00620168  1
  O2-  O137  1  0.37326622  0.12099833  0.49667440  1
  O2-  O138  1  0.37264687  0.37551322  -0.00349166  1
  O2-  O139  1  0.37558499  0.37387826  0.50645726  1
  O2-  O140  1  0.37413780  0.62169575  -0.00450068  1
  O2-  O141  1  0.37510215  0.62716820  0.50642504  1
  O2-  O142  1  0.37474480  0.87455355  0.00698686  1
  O2-  O143  1  0.37402499  0.87645809  0.50614946  1
  O2-  O144  1  0.62283050  0.12660851  0.00823931  1
  O2-  O145  1  0.62789066  0.12398730  0.52041907  1
  O2-  O146  1  0.62454953  0.37510657  0.02142026  1
  O2-  O147  1  0.62683498  0.37419883  0.51816898  1
  O2-  O148  1  0.62299965  0.62287422  0.00793310  1
  O2-  O149  1  0.62821780  0.62675266  0.51961226  1
  O2-  O150  1  0.62360839  0.87525244  0.00709831  1
  O2-  O151  1  0.62816382  0.87461176  0.49492047  1
  O2-  O152  1  0.87722162  0.12693267  -0.00201015  1
  O2-  O153  1  0.87329555  0.12424726  0.51918333  1
  O2-  O154  1  0.87249516  0.37480379  0.01636052  1
  O2-  O155  1  0.87789338  0.37658773  0.49668734  1
  O2-  O156  1  0.87408769  0.62115541  0.00602237  1
  O2-  O157  1  0.87742192  0.62943845  0.49468719  1
  O2-  O158  1  0.87468254  0.87695178  0.00568634  1
  O2-  O159  1  0.87725424  0.87245272  0.49227724  1
  O2-  O160  1  0.12495501  -0.00176829  0.15895763  1
  O2-  O161  1  0.12511314  -0.00013198  0.66729429  1
  O2-  O162  1  0.12586340  0.25009196  0.16508199  1
  O2-  O163  1  0.12435561  0.25044887  0.66080478  1
  O2-  O164  1  0.12500769  0.49912011  0.16383186  1
  O2-  O165  1  0.12424710  0.50040109  0.66360042  1
  O2-  O166  1  0.12482058  0.75257968  0.15794025  1
  O2-  O167  1  0.12417247  0.74953403  0.66913858  1
  O2-  O168  1  0.37541133  0.00305223  0.16057341  1
  O2-  O169  1  0.37501284  -0.00205522  0.66705893  1
  O2-  O170  1  0.37417480  0.24908899  0.16454092  1
  O2-  O171  1  0.37638019  0.24806567  0.66411911  1
  O2-  O172  1  0.37545045  0.50024833  0.16647297  1
  O2-  O173  1  0.37562362  0.50073359  0.66282018  1
  O2-  O174  1  0.37542710  0.74715713  0.16356111  1
  O2-  O175  1  0.37559891  0.75290138  0.66432201  1
  O2-  O176  1  0.62520033  -0.00213967  0.16119442  1
  O2-  O177  1  0.62520816  -0.00007160  0.66925805  1
  O2-  O178  1  0.62421074  0.25201965  0.16985631  1
  O2-  O179  1  0.62524839  0.24957662  0.67080128  1
  O2-  O180  1  0.62412170  0.49832675  0.17087366  1
  O2-  O181  1  0.62658887  0.49996644  0.66820687  1
  O2-  O182  1  0.62520161  0.75175986  0.15961171  1
  O2-  O183  1  0.62601477  0.75042077  0.66940587  1
  O2-  O184  1  0.87442218  -0.00132927  0.16073956  1
  O2-  O185  1  0.87478733  0.00047046  0.66792915  1
  O2-  O186  1  0.87538841  0.25113332  0.16691808  1
  O2-  O187  1  0.87489744  0.24957574  0.66715528  1
  O2-  O188  1  0.87520167  0.50027044  0.16547822  1
  O2-  O189  1  0.87424227  0.49979444  0.66655195  1
  O2-  O190  1  0.87461267  0.74995044  0.15368146  1
  O2-  O191  1  0.87498752  0.75093006  0.67117968  1
  O2-  O192  1  0.00099358  0.12490612  0.16022288  1
  O2-  O193  1  -0.00109453  0.12414318  0.66581468  1
  O2-  O194  1  -0.00021175  0.37488197  0.16028849  1
  O2-  O195  1  -0.00080531  0.37556193  0.66520748  1
  O2-  O196  1  -0.00352932  0.62518021  0.15743082  1
  O2-  O197  1  -0.00095367  0.62544486  0.66913588  1
  O2-  O198  1  -0.00074415  0.87513702  0.15555280  1
  O2-  O199  1  0.00053257  0.87512725  0.66890717  1
  O2-  O200  1  0.25207620  0.12448252  0.16087812  1
  O2-  O201  1  0.24971043  0.12434193  0.66229649  1
  O2-  O202  1  0.25020228  0.37532228  0.16436891  1
  O2-  O203  1  0.24968758  0.37436635  0.65901289  1
  O2-  O204  1  0.25235401  0.62484469  0.16501965  1
  O2-  O205  1  0.24907342  0.62623952  0.66074732  1
  O2-  O206  1  0.24754001  0.87505004  0.16255572  1
  O2-  O207  1  0.25182720  0.87518694  0.66283181  1
  O2-  O208  1  0.49691382  0.12542964  0.16546565  1
  O2-  O209  1  0.50171967  0.12307666  0.66928766  1
  O2-  O210  1  0.49967440  0.37519361  0.16913393  1
  O2-  O211  1  0.50283904  0.37450407  0.66863917  1
  O2-  O212  1  0.49797660  0.62450215  0.16762069  1
  O2-  O213  1  0.50245837  0.62621947  0.66772129  1
  O2-  O214  1  0.50294562  0.87466037  0.16670289  1
  O2-  O215  1  0.49865177  0.87606199  0.66414014  1
  O2-  O216  1  0.75018336  0.12562519  0.16550237  1
  O2-  O217  1  0.74970985  0.12407615  0.67391755  1
  O2-  O218  1  0.75008128  0.37493518  0.17062535  1
  O2-  O219  1  0.74874177  0.37484892  0.67146236  1
  O2-  O220  1  0.75316586  0.62485128  0.16449262  1
  O2-  O221  1  0.74942115  0.62634662  0.67149897  1
  O2-  O222  1  0.75000057  0.87460477  0.15937608  1
  O2-  O223  1  0.74979676  0.87461905  0.66987356  1
  O2-  O224  1  0.12468232  -0.00059010  0.34004857  1
  O2-  O225  1  0.12489884  -0.00014373  0.85018516  1
  O2-  O226  1  0.12450160  0.24998872  0.34680820  1
  O2-  O227  1  0.12612984  0.25016772  0.84128022  1
  O2-  O228  1  0.12407291  0.50077106  0.34459825  1
  O2-  O229  1  0.12501545  0.49752037  0.84535595  1
  O2-  O230  1  0.12453130  0.75068231  0.33839733  1
  O2-  O231  1  0.12512976  0.75195962  0.85295762  1
  O2-  O232  1  0.37439159  -0.00187253  0.34234391  1
  O2-  O233  1  0.37437646  0.00312748  0.85191301  1
  O2-  O234  1  0.37493821  0.24722922  0.34757277  1
  O2-  O235  1  0.37459999  0.24956401  0.84616139  1
  O2-  O236  1  0.37464958  0.50043658  0.35071530  1
  O2-  O237  1  0.37557718  0.49870621  0.84276533  1
  O2-  O238  1  0.37492851  0.75412343  0.34714754  1
  O2-  O239  1  0.37445221  0.74798534  0.84718279  1
  O2-  O240  1  0.62507483  -0.00149088  0.34361021  1
  O2-  O241  1  0.62498086  -0.00297183  0.85178673  1
  O2-  O242  1  0.62497274  0.24874608  0.35198347  1
  O2-  O243  1  0.62450969  0.25202982  0.85167565  1
  O2-  O244  1  0.62574963  0.50130209  0.35326221  1
  O2-  O245  1  0.62444372  0.49767001  0.84903916  1
  O2-  O246  1  0.62462259  0.75131631  0.34186343  1
  O2-  O247  1  0.62524866  0.75290375  0.85207242  1
  O2-  O248  1  0.87513483  -0.00064161  0.34448890  1
  O2-  O249  1  0.87593501  -0.00115015  0.84982683  1
  O2-  O250  1  0.87513324  0.25015054  0.34937708  1
  O2-  O251  1  0.87510173  0.24977852  0.84818231  1
  O2-  O252  1  0.87467967  0.50128106  0.34528014  1
  O2-  O253  1  0.87479925  0.50030102  0.85114220  1
  O2-  O254  1  0.87548141  0.74989764  0.33448571  1
  O2-  O255  1  0.87514006  0.75055815  0.85595054  1
  O2-  O256  1  0.00152066  0.12435490  0.34283157  1
  O2-  O257  1  0.00072348  0.12527157  0.84629736  1
  O2-  O258  1  0.00005684  0.37516981  0.34001762  1
  O2-  O259  1  0.00175541  0.37446963  0.84851501  1
  O2-  O260  1  0.00020109  0.62591129  0.33663498  1
  O2-  O261  1  -0.00271433  0.62477432  0.85270037  1
  O2-  O262  1  0.00025649  0.87517964  0.33614886  1
  O2-  O263  1  0.00013593  0.87468645  0.85297132  1
  O2-  O264  1  0.24927188  0.12373606  0.34182992  1
  O2-  O265  1  0.25106435  0.12455618  0.84537775  1
  O2-  O266  1  0.24724965  0.37499375  0.34662896  1
  O2-  O267  1  0.25109602  0.37460926  0.83954282  1
  O2-  O268  1  0.24702722  0.62662162  0.34680793  1
  O2-  O269  1  0.25237225  0.62418917  0.84224796  1
  O2-  O270  1  0.25050968  0.87549151  0.34548353  1
  O2-  O271  1  0.24691624  0.87584949  0.84725388  1
  O2-  O272  1  0.49901550  0.12309779  0.34833596  1
  O2-  O273  1  0.49684453  0.12506106  0.85186483  1
  O2-  O274  1  0.50162062  0.37455653  0.35214684  1
  O2-  O275  1  0.49898585  0.37389425  0.84971140  1
  O2-  O276  1  0.50147683  0.62647586  0.35197452  1
  O2-  O277  1  0.49762066  0.62525443  0.84662469  1
  O2-  O278  1  0.49834504  0.87597746  0.35017459  1
  O2-  O279  1  0.50214493  0.87543534  0.84885143  1
  O2-  O280  1  0.74921350  0.12374303  0.34997246  1
  O2-  O281  1  0.75170691  0.12460032  0.85305350  1
  O2-  O282  1  0.75087560  0.37513119  0.35039870  1
  O2-  O283  1  0.74792998  0.37498270  0.85426438  1
  O2-  O284  1  0.75098281  0.62628159  0.34619997  1
  O2-  O285  1  0.75231530  0.62483709  0.85377502  1
  O2-  O286  1  0.75083507  0.87520903  0.34115845  1
  O2-  O287  1  0.75065490  0.87491346  0.85404314  1
