# generated using pymatgen
data_BaYFeCuO5
_symmetry_space_group_name_H-M   'P 1'
_cell_length_a   15.66599597
_cell_length_b   15.66301052
_cell_length_c   15.46953192
_cell_angle_alpha   90.00385120
_cell_angle_beta   89.99642818
_cell_angle_gamma   90.00174339
_symmetry_Int_Tables_number   1
_chemical_formula_structural   BaYFeCuO5
_chemical_formula_sum   'Ba32 Y32 Fe32 Cu32 O160'
_cell_volume   3795.86205388
_cell_formula_units_Z   32
loop_
 _symmetry_equiv_pos_site_id
 _symmetry_equiv_pos_as_xyz
  1  'x, y, z'
loop_
 _atom_type_symbol
 _atom_type_oxidation_number
  Ba2+  2.0
  Y3+  3.0
  Fe3+  3.0
  Cu2+  2.0
  O2-  -2.0
loop_
 _atom_site_type_symbol
 _atom_site_label
 _atom_site_symmetry_multiplicity
 _atom_site_fract_x
 _atom_site_fract_y
 _atom_site_fract_z
 _atom_site_occupancy
  Ba2+  Ba0  1  0.00157465  -0.00540634  0.01602742  1
  Ba2+  Ba1  1  -0.00634828  0.00417840  0.52093781  1
  Ba2+  Ba2  1  -0.00052756  0.25653248  0.00634276  1
  Ba2+  Ba3  1  -0.00149072  0.25049925  0.51728043  1
  Ba2+  Ba4  1  0.00346711  0.49687258  0.00069774  1
  Ba2+  Ba5  1  -0.00052491  0.50495535  0.50573887  1
  Ba2+  Ba6  1  0.00457694  0.75304381  0.01358160  1
  Ba2+  Ba7  1  -0.00529179  0.74172464  0.51095991  1
  Ba2+  Ba8  1  0.24803579  -0.00663378  0.01707980  1
  Ba2+  Ba9  1  0.25016918  -0.00072247  0.51521000  1
  Ba2+  Ba10  1  0.24056414  0.24886980  0.00746900  1
  Ba2+  Ba11  1  0.24513381  0.25496927  0.51085746  1
  Ba2+  Ba12  1  0.23926009  0.50350345  0.00251780  1
  Ba2+  Ba13  1  0.24584006  0.50325897  0.50148874  1
  Ba2+  Ba14  1  0.24530783  0.75369827  0.01326002  1
  Ba2+  Ba15  1  0.25128751  0.74287502  0.50563582  1
  Ba2+  Ba16  1  0.50591465  -0.00506889  0.00612633  1
  Ba2+  Ba17  1  0.50672785  -0.00507970  0.52356784  1
  Ba2+  Ba18  1  0.51168317  0.24845424  0.00661810  1
  Ba2+  Ba19  1  0.50157654  0.24923434  0.51705317  1
  Ba2+  Ba20  1  0.50536708  0.49450281  0.00729253  1
  Ba2+  Ba21  1  0.49733503  0.50543484  0.51169155  1
  Ba2+  Ba22  1  0.49861954  0.76127987  0.00699604  1
  Ba2+  Ba23  1  0.50248637  0.75140096  0.51953998  1
  Ba2+  Ba24  1  0.74480602  -0.00384411  0.00585031  1
  Ba2+  Ba25  1  0.74953383  -0.00105110  0.52794462  1
  Ba2+  Ba26  1  0.74586230  0.25407106  0.00663762  1
  Ba2+  Ba27  1  0.75468428  0.24445200  0.52419484  1
  Ba2+  Ba28  1  0.75252679  0.48864509  0.00725036  1
  Ba2+  Ba29  1  0.75618873  0.50693255  0.51658546  1
  Ba2+  Ba30  1  0.75182343  0.76091224  0.00656575  1
  Ba2+  Ba31  1  0.75124760  0.74935187  0.52314955  1
  Y3+  Y32  1  -0.00077702  -0.00131164  0.25409511  1
  Y3+  Y33  1  -0.00234222  -0.00073798  0.75679337  1
  Y3+  Y34  1  -0.00053470  0.25143054  0.25579712  1
  Y3+  Y35  1  -0.00175596  0.25195222  0.75820716  1
  Y3+  Y36  1  0.00015087  0.50222557  0.25952824  1
  Y3+  Y37  1  -0.00063894  0.50142677  0.75712464  1
  Y3+  Y38  1  -0.00005313  0.74752468  0.25800170  1
  Y3+  Y39  1  -0.00080757  0.74754002  0.75701878  1
  Y3+  Y40  1  0.25023570  -0.00144283  0.25555344  1
  Y3+  Y41  1  0.25138326  -0.00160406  0.75639198  1
  Y3+  Y42  1  0.24859008  0.24969451  0.25845558  1
  Y3+  Y43  1  0.24944566  0.25077506  0.75625770  1
  Y3+  Y44  1  0.24685589  0.50318656  0.26045430  1
  Y3+  Y45  1  0.24666876  0.50156318  0.75805395  1
  Y3+  Y46  1  0.24883707  0.74822447  0.25709502  1
  Y3+  Y47  1  0.24911067  0.74925522  0.75828712  1
  Y3+  Y48  1  0.50197625  -0.00157342  0.25042516  1
  Y3+  Y49  1  0.50174205  -0.00223048  0.76203986  1
  Y3+  Y50  1  0.50314431  0.24930719  0.25371641  1
  Y3+  Y51  1  0.50196893  0.25005123  0.76017439  1
  Y3+  Y52  1  0.50091878  0.49982768  0.25636327  1
  Y3+  Y53  1  0.50073278  0.49941059  0.75896093  1
  Y3+  Y54  1  0.49958936  0.75204514  0.25398401  1
  Y3+  Y55  1  0.49987835  0.75323480  0.76080596  1
  Y3+  Y56  1  0.74875641  -0.00125655  0.24877641  1
  Y3+  Y57  1  0.74902674  -0.00147517  0.76282898  1
  Y3+  Y58  1  0.74942146  0.25100805  0.25017842  1
  Y3+  Y59  1  0.74993100  0.25066863  0.76278385  1
  Y3+  Y60  1  0.75212836  0.49888950  0.25515247  1
  Y3+  Y61  1  0.75272466  0.49943596  0.75957954  1
  Y3+  Y62  1  0.75196310  0.75109764  0.25401066  1
  Y3+  Y63  1  0.75169853  0.75161879  0.75976363  1
  Fe3+  Fe64  1  0.37425121  0.62571629  0.88164859  1
  Fe3+  Fe65  1  0.37668854  0.87527521  0.37721763  1
  Fe3+  Fe66  1  0.87550135  0.12448992  0.87911473  1
  Fe3+  Fe67  1  0.37696313  0.12401750  0.37912195  1
  Fe3+  Fe68  1  0.87328125  0.87603426  0.37674513  1
  Fe3+  Fe69  1  0.62656058  0.37438384  0.38035532  1
  Fe3+  Fe70  1  0.62590783  0.62650951  0.37570387  1
  Fe3+  Fe71  1  0.37444235  0.12412674  0.87964778  1
  Fe3+  Fe72  1  0.62549296  0.62518489  0.88030368  1
  Fe3+  Fe73  1  0.37385562  0.37456795  0.88052838  1
  Fe3+  Fe74  1  0.87407157  0.37387619  0.37757503  1
  Fe3+  Fe75  1  0.12356626  0.12441193  0.37711367  1
  Fe3+  Fe76  1  0.12461468  0.12379846  0.87588930  1
  Fe3+  Fe77  1  0.12358924  0.87523798  0.37968250  1
  Fe3+  Fe78  1  0.62636252  0.87566577  0.37535351  1
  Fe3+  Fe79  1  0.62647292  0.12386967  0.37602457  1
  Fe3+  Fe80  1  0.37601036  0.37467382  0.37753769  1
  Fe3+  Fe81  1  0.87280935  0.12418859  0.37375927  1
  Fe3+  Fe82  1  0.12462634  0.87495081  0.87295317  1
  Fe3+  Fe83  1  0.87584566  0.62559271  0.88046769  1
  Fe3+  Fe84  1  0.87603414  0.62414040  0.13374324  1
  Fe3+  Fe85  1  0.62571377  0.37622456  0.63646529  1
  Fe3+  Fe86  1  0.12424951  0.37660065  0.63937094  1
  Fe3+  Fe87  1  0.37443917  0.62441341  0.13442678  1
  Fe3+  Fe88  1  0.37451803  0.62477321  0.64129194  1
  Fe3+  Fe89  1  0.12491853  0.37605304  0.14064437  1
  Fe3+  Fe90  1  0.37544761  0.12534386  0.63610965  1
  Fe3+  Fe91  1  0.12433625  0.87370218  0.63396387  1
  Fe3+  Fe92  1  0.37494993  0.12531101  0.13323558  1
  Fe3+  Fe93  1  0.87557972  0.12551713  0.13203979  1
  Fe3+  Fe94  1  0.37388468  0.37493748  0.13421833  1
  Fe3+  Fe95  1  0.62581458  0.62511659  0.13260095  1
  Cu2+  Cu96  1  0.37300507  0.87547297  0.87307637  1
  Cu2+  Cu97  1  0.87717834  0.87513434  0.87286367  1
  Cu2+  Cu98  1  0.12379531  0.37443684  0.36470260  1
  Cu2+  Cu99  1  0.12553580  0.37460296  0.86150016  1
  Cu2+  Cu100  1  0.62509580  0.12473097  0.87228941  1
  Cu2+  Cu101  1  0.12383752  0.62624622  0.37342715  1
  Cu2+  Cu102  1  0.12433315  0.62625641  0.87297546  1
  Cu2+  Cu103  1  0.87573056  0.37498273  0.87242952  1
  Cu2+  Cu104  1  0.62485762  0.37592589  0.87004593  1
  Cu2+  Cu105  1  0.87257779  0.62585799  0.37015418  1
  Cu2+  Cu106  1  0.37708359  0.62581316  0.36035944  1
  Cu2+  Cu107  1  0.62531451  0.87390963  0.87027269  1
  Cu2+  Cu108  1  0.87432254  0.12529860  0.65835301  1
  Cu2+  Cu109  1  0.87572107  0.87421034  0.13931921  1
  Cu2+  Cu110  1  0.87497964  0.62487043  0.64654766  1
  Cu2+  Cu111  1  0.62518777  0.12473468  0.13850951  1
  Cu2+  Cu112  1  0.12482304  0.62508440  0.64315356  1
  Cu2+  Cu113  1  0.87478250  0.37562445  0.65173822  1
  Cu2+  Cu114  1  0.62483800  0.37603945  0.14292300  1
  Cu2+  Cu115  1  0.37458990  0.87455095  0.65160473  1
  Cu2+  Cu116  1  0.87536814  0.87468942  0.65325114  1
  Cu2+  Cu117  1  0.12488761  0.12520187  0.14911808  1
  Cu2+  Cu118  1  0.12500758  0.87433914  0.15582347  1
  Cu2+  Cu119  1  0.62524819  0.87351508  0.14110905  1
  Cu2+  Cu120  1  0.37461218  0.87443044  0.14059006  1
  Cu2+  Cu121  1  0.37491523  0.37587049  0.65181168  1
  Cu2+  Cu122  1  0.62488345  0.62499150  0.65692409  1
  Cu2+  Cu123  1  0.62482989  0.12536057  0.65704280  1
  Cu2+  Cu124  1  0.62555783  0.87434509  0.65788500  1
  Cu2+  Cu125  1  0.12453638  0.62421565  0.14215987  1
  Cu2+  Cu126  1  0.12492943  0.12499061  0.65110630  1
  Cu2+  Cu127  1  0.87652974  0.37580792  0.14112647  1
  O2-  O128  1  0.12561292  0.12242683  -0.00410974  1
  O2-  O129  1  0.12392721  0.12481694  0.49706174  1
  O2-  O130  1  0.12615532  0.37514125  0.01920585  1
  O2-  O131  1  0.12449373  0.37538740  0.51842482  1
  O2-  O132  1  0.12457710  0.62575318  0.00817973  1
  O2-  O133  1  0.12542716  0.62524389  0.50747774  1
  O2-  O134  1  0.12531484  0.87622767  -0.00594733  1
  O2-  O135  1  0.12384909  0.87533478  0.50550224  1
  O2-  O136  1  0.37326950  0.12530040  0.00621381  1
  O2-  O137  1  0.37669148  0.12475305  0.50600626  1
  O2-  O138  1  0.37293289  0.37339187  0.00761330  1
  O2-  O139  1  0.37789285  0.37396173  0.49769756  1
  O2-  O140  1  0.37315454  0.62494208  0.00806634  1
  O2-  O141  1  0.37662278  0.62458899  0.52018659  1
  O2-  O142  1  0.37212829  0.87570827  0.00685818  1
  O2-  O143  1  0.37856211  0.87634055  0.49718208  1
  O2-  O144  1  0.62487428  0.12492412  0.00552097  1
  O2-  O145  1  0.62674737  0.12360564  0.49580627  1
  O2-  O146  1  0.62392398  0.37604105  0.00625135  1
  O2-  O147  1  0.62607412  0.37437563  0.50662976  1
  O2-  O148  1  0.62522524  0.62435220  0.00632090  1
  O2-  O149  1  0.62504649  0.62684396  0.49605619  1
  O2-  O150  1  0.62497797  0.87391879  0.00557485  1
  O2-  O151  1  0.62631480  0.87556387  0.49544811  1
  O2-  O152  1  0.87731085  0.12533864  0.00519922  1
  O2-  O153  1  0.87250577  0.12389352  0.49378321  1
  O2-  O154  1  0.87702412  0.37442353  0.00640671  1
  O2-  O155  1  0.87224554  0.37231484  0.49790364  1
  O2-  O156  1  0.87717462  0.62450011  0.00701457  1
  O2-  O157  1  0.87248605  0.62567241  0.50711474  1
  O2-  O158  1  0.87821425  0.87526791  0.00600003  1
  O2-  O159  1  0.87198714  0.87735580  0.49670039  1
  O2-  O160  1  0.12604227  -0.00107119  0.16305360  1
  O2-  O161  1  0.12552554  -0.00129130  0.65966492  1
  O2-  O162  1  0.12637410  0.25105730  0.16610919  1
  O2-  O163  1  0.12528270  0.25054378  0.66666231  1
  O2-  O164  1  0.12607867  0.49846939  0.16981369  1
  O2-  O165  1  0.12503634  0.49921057  0.66960731  1
  O2-  O166  1  0.12534627  0.75113474  0.16510072  1
  O2-  O167  1  0.12487070  0.75250849  0.66317425  1
  O2-  O168  1  0.37371262  0.00275141  0.16251868  1
  O2-  O169  1  0.37534669  0.00129003  0.66249015  1
  O2-  O170  1  0.37409126  0.25009941  0.16272966  1
  O2-  O171  1  0.37563320  0.24878327  0.66459321  1
  O2-  O172  1  0.37508467  0.49950212  0.16265563  1
  O2-  O173  1  0.37580302  0.50067064  0.67279902  1
  O2-  O174  1  0.37464808  0.74680623  0.16290039  1
  O2-  O175  1  0.37547821  0.74993002  0.66867939  1
  O2-  O176  1  0.62454440  -0.00080853  0.16021337  1
  O2-  O177  1  0.62460521  -0.00012708  0.66603112  1
  O2-  O178  1  0.62425305  0.25073725  0.16473215  1
  O2-  O179  1  0.62443616  0.25219885  0.66404954  1
  O2-  O180  1  0.62452071  0.50343759  0.16616449  1
  O2-  O181  1  0.62422605  0.49863891  0.66468354  1
  O2-  O182  1  0.62446924  0.74594021  0.16233697  1
  O2-  O183  1  0.62465389  0.74986402  0.66690787  1
  O2-  O184  1  0.87623996  0.00234578  0.15946629  1
  O2-  O185  1  0.87448998  0.00018740  0.66546690  1
  O2-  O186  1  0.87605735  0.24783492  0.16125240  1
  O2-  O187  1  0.87451820  0.24989743  0.66640353  1
  O2-  O188  1  0.87486141  0.50249187  0.16532024  1
  O2-  O189  1  0.87444585  0.49932427  0.66842450  1
  O2-  O190  1  0.87592493  0.74691122  0.16242527  1
  O2-  O191  1  0.87477146  0.75098558  0.66742024  1
  O2-  O192  1  -0.00069520  0.12482461  0.16190874  1
  O2-  O193  1  -0.00081995  0.12529199  0.66382868  1
  O2-  O194  1  0.00201907  0.37507545  0.16783164  1
  O2-  O195  1  -0.00050310  0.37462020  0.66611473  1
  O2-  O196  1  -0.00206112  0.62471320  0.16573553  1
  O2-  O197  1  -0.00029388  0.62488382  0.66572777  1
  O2-  O198  1  0.00244829  0.87475663  0.16584505  1
  O2-  O199  1  0.00109045  0.87591804  0.66083399  1
  O2-  O200  1  0.25138091  0.12542332  0.16520284  1
  O2-  O201  1  0.25249030  0.12551577  0.66270718  1
  O2-  O202  1  0.25166428  0.37452696  0.16807403  1
  O2-  O203  1  0.24952072  0.37470306  0.66777626  1
  O2-  O204  1  0.25243386  0.62442812  0.16634645  1
  O2-  O205  1  0.25128234  0.62496332  0.66862183  1
  O2-  O206  1  0.24782443  0.87454259  0.16800805  1
  O2-  O207  1  0.24808070  0.87553226  0.66077065  1
  O2-  O208  1  0.49705472  0.12593970  0.16286118  1
  O2-  O209  1  0.49850018  0.12558458  0.66488769  1
  O2-  O210  1  0.49621654  0.37509295  0.16328098  1
  O2-  O211  1  0.50187942  0.37528452  0.66473406  1
  O2-  O212  1  0.49956845  0.62361727  0.15887913  1
  O2-  O213  1  0.49953111  0.62491399  0.67067169  1
  O2-  O214  1  0.50031837  0.87454945  0.16250921  1
  O2-  O215  1  0.50035041  0.87478383  0.66659598  1
  O2-  O216  1  0.75279850  0.12556941  0.15800958  1
  O2-  O217  1  0.74942016  0.12559252  0.66817290  1
  O2-  O218  1  0.75022059  0.37552626  0.16203365  1
  O2-  O219  1  0.74864418  0.37554591  0.66435501  1
  O2-  O220  1  0.75050005  0.62462464  0.15806678  1
  O2-  O221  1  0.74869607  0.62484891  0.66930120  1
  O2-  O222  1  0.75004126  0.87392637  0.16042910  1
  O2-  O223  1  0.75044568  0.87465949  0.66719726  1
  O2-  O224  1  0.12541247  -0.00109146  0.34591131  1
  O2-  O225  1  0.12558320  0.00073874  0.84108611  1
  O2-  O226  1  0.12567607  0.24845261  0.34742085  1
  O2-  O227  1  0.12615296  0.24906018  0.84926482  1
  O2-  O228  1  0.12502719  0.49916562  0.35200964  1
  O2-  O229  1  0.12577220  0.49874295  0.85275185  1
  O2-  O230  1  0.12547411  0.75365920  0.34896428  1
  O2-  O231  1  0.12516939  0.75111765  0.84539790  1
  O2-  O232  1  0.37537695  0.00135106  0.34549569  1
  O2-  O233  1  0.37422891  0.00289767  0.84740871  1
  O2-  O234  1  0.37548476  0.24832137  0.34681858  1
  O2-  O235  1  0.37409556  0.24991917  0.85054525  1
  O2-  O236  1  0.37660638  0.49941352  0.34708859  1
  O2-  O237  1  0.37474618  0.49977965  0.85662757  1
  O2-  O238  1  0.37538098  0.75107528  0.34615008  1
  O2-  O239  1  0.37491945  0.74710322  0.85172880  1
  O2-  O240  1  0.62446786  0.00007911  0.34059202  1
  O2-  O241  1  0.62442235  -0.00067103  0.84993273  1
  O2-  O242  1  0.62426632  0.25087227  0.34742526  1
  O2-  O243  1  0.62400256  0.25088109  0.84822423  1
  O2-  O244  1  0.62399707  0.49778146  0.34977138  1
  O2-  O245  1  0.62431242  0.50336327  0.84895635  1
  O2-  O246  1  0.62476431  0.75140786  0.34261049  1
  O2-  O247  1  0.62450223  0.74630837  0.85045584  1
  O2-  O248  1  0.87458399  0.00004769  0.33972399  1
  O2-  O249  1  0.87577104  0.00245982  0.84931796  1
  O2-  O250  1  0.87437108  0.24967031  0.34207269  1
  O2-  O251  1  0.87571409  0.24757768  0.85055517  1
  O2-  O252  1  0.87397668  0.49765543  0.34803277  1
  O2-  O253  1  0.87515640  0.50270719  0.85194398  1
  O2-  O254  1  0.87438005  0.75267007  0.34472315  1
  O2-  O255  1  0.87537428  0.74729580  0.85096350  1
  O2-  O256  1  -0.00086590  0.12456620  0.34394777  1
  O2-  O257  1  -0.00036340  0.12519680  0.84726499  1
  O2-  O258  1  -0.00083145  0.37406133  0.34940871  1
  O2-  O259  1  0.00218977  0.37480112  0.84947614  1
  O2-  O260  1  -0.00128432  0.62551011  0.34938593  1
  O2-  O261  1  -0.00209584  0.62461784  0.84933057  1
  O2-  O262  1  0.00032290  0.87584498  0.34873136  1
  O2-  O263  1  0.00228200  0.87532186  0.84290269  1
  O2-  O264  1  0.25160996  0.12463607  0.34971144  1
  O2-  O265  1  0.25087377  0.12552812  0.84634208  1
  O2-  O266  1  0.25051202  0.37445754  0.35060960  1
  O2-  O267  1  0.25182668  0.37453473  0.85116184  1
  O2-  O268  1  0.25208397  0.62512412  0.35096922  1
  O2-  O269  1  0.25228158  0.62454267  0.85099808  1
  O2-  O270  1  0.24959254  0.87617691  0.35137850  1
  O2-  O271  1  0.24779973  0.87537765  0.84304016  1
  O2-  O272  1  0.49975777  0.12571631  0.34606208  1
  O2-  O273  1  0.49680362  0.12595176  0.84999915  1
  O2-  O274  1  0.50211276  0.37414509  0.34631615  1
  O2-  O275  1  0.49575534  0.37502044  0.84953169  1
  O2-  O276  1  0.50203890  0.62466297  0.34170932  1
  O2-  O277  1  0.49933479  0.62386528  0.85455883  1
  O2-  O278  1  0.50063645  0.87567326  0.34276689  1
  O2-  O279  1  0.49954139  0.87502856  0.85100383  1
  O2-  O280  1  0.74921672  0.12550241  0.33834747  1
  O2-  O281  1  0.75257785  0.12533196  0.85241679  1
  O2-  O282  1  0.74810133  0.37439752  0.34424005  1
  O2-  O283  1  0.75008382  0.37552082  0.84855771  1
  O2-  O284  1  0.74712305  0.62434289  0.33999987  1
  O2-  O285  1  0.75043580  0.62477752  0.85391526  1
  O2-  O286  1  0.74956872  0.87584567  0.34027102  1
  O2-  O287  1  0.75056270  0.87450646  0.85129758  1
