# generated using pymatgen
data_BaYFeCuO5
_symmetry_space_group_name_H-M   'P 1'
_cell_length_a   15.65540467
_cell_length_b   15.65343328
_cell_length_c   15.45191099
_cell_angle_alpha   90.00224973
_cell_angle_beta   89.99859077
_cell_angle_gamma   90.00128737
_symmetry_Int_Tables_number   1
_chemical_formula_structural   BaYFeCuO5
_chemical_formula_sum   'Ba32 Y32 Fe32 Cu32 O160'
_cell_volume   3786.65816507
_cell_formula_units_Z   32
loop_
 _symmetry_equiv_pos_site_id
 _symmetry_equiv_pos_as_xyz
  1  'x, y, z'
loop_
 _atom_type_symbol
 _atom_type_oxidation_number
  Ba2+  2.0
  Y3+  3.0
  Fe3+  3.0
  Cu2+  2.0
  O2-  -2.0
loop_
 _atom_site_type_symbol
 _atom_site_label
 _atom_site_symmetry_multiplicity
 _atom_site_fract_x
 _atom_site_fract_y
 _atom_site_fract_z
 _atom_site_occupancy
  Ba2+  Ba0  1  0.00151072  -0.00281327  0.01653246  1
  Ba2+  Ba1  1  -0.00070750  0.00922490  0.51703555  1
  Ba2+  Ba2  1  -0.00015153  0.25012669  0.02029470  1
  Ba2+  Ba3  1  -0.00452612  0.24744721  0.51126573  1
  Ba2+  Ba4  1  0.00361356  0.49407115  0.01603718  1
  Ba2+  Ba5  1  -0.00579099  0.50271392  0.51201992  1
  Ba2+  Ba6  1  0.00510561  0.75915796  0.01026738  1
  Ba2+  Ba7  1  -0.00205789  0.74056887  0.51802546  1
  Ba2+  Ba8  1  0.24914456  0.00005421  0.00728677  1
  Ba2+  Ba9  1  0.25238416  0.01027935  0.51099313  1
  Ba2+  Ba10  1  0.25119621  0.24685656  0.01273266  1
  Ba2+  Ba11  1  0.25587636  0.24520645  0.51542409  1
  Ba2+  Ba12  1  0.25199889  0.50274447  0.01240429  1
  Ba2+  Ba13  1  0.25049386  0.49850698  0.51590787  1
  Ba2+  Ba14  1  0.24986971  0.75070315  0.00714131  1
  Ba2+  Ba15  1  0.24619545  0.74590778  0.51127552  1
  Ba2+  Ba16  1  0.49492319  -0.00321332  0.00202007  1
  Ba2+  Ba17  1  0.49791516  0.00350251  0.51069183  1
  Ba2+  Ba18  1  0.49515866  0.25331728  0.00198745  1
  Ba2+  Ba19  1  0.49510713  0.25302597  0.51737339  1
  Ba2+  Ba20  1  0.49492948  0.49636017  0.00220722  1
  Ba2+  Ba21  1  0.50779045  0.49784607  0.51797858  1
  Ba2+  Ba22  1  0.49474289  0.75368207  0.00231129  1
  Ba2+  Ba23  1  0.51145637  0.74701496  0.51160112  1
  Ba2+  Ba24  1  0.75466350  -0.00589421  0.01146228  1
  Ba2+  Ba25  1  0.74932033  -0.00007246  0.51669549  1
  Ba2+  Ba26  1  0.75435380  0.25601872  0.01079119  1
  Ba2+  Ba27  1  0.75287098  0.25558379  0.51097961  1
  Ba2+  Ba28  1  0.74984821  0.48874362  0.00704605  1
  Ba2+  Ba29  1  0.74681286  0.50276750  0.51368895  1
  Ba2+  Ba30  1  0.74977956  0.76152365  0.00700094  1
  Ba2+  Ba31  1  0.74473237  0.74209835  0.51820110  1
  Y3+  Y32  1  0.00015197  -0.00032348  0.25315341  1
  Y3+  Y33  1  0.00031532  -0.00082866  0.75942651  1
  Y3+  Y34  1  -0.00119271  0.25074798  0.25475403  1
  Y3+  Y35  1  -0.00088452  0.24899012  0.75674958  1
  Y3+  Y36  1  -0.00049587  0.49820491  0.25451134  1
  Y3+  Y37  1  -0.00088986  0.50053090  0.75831102  1
  Y3+  Y38  1  0.00086964  0.75142438  0.25285531  1
  Y3+  Y39  1  0.00006378  0.75084216  0.76019380  1
  Y3+  Y40  1  0.25048037  0.00263511  0.25600383  1
  Y3+  Y41  1  0.25127637  0.00184692  0.75844867  1
  Y3+  Y42  1  0.25105468  0.24709971  0.25639915  1
  Y3+  Y43  1  0.25365504  0.24760730  0.75645698  1
  Y3+  Y44  1  0.24983621  0.50137125  0.25431152  1
  Y3+  Y45  1  0.25207848  0.50039421  0.75856218  1
  Y3+  Y46  1  0.24953482  0.74890109  0.25449195  1
  Y3+  Y47  1  0.25009903  0.75024002  0.76028644  1
  Y3+  Y48  1  0.49902439  0.00153684  0.25662093  1
  Y3+  Y49  1  0.49914363  0.00028684  0.75905351  1
  Y3+  Y50  1  0.49901530  0.24874523  0.25549968  1
  Y3+  Y51  1  0.49774682  0.25109054  0.75952732  1
  Y3+  Y52  1  0.50191816  0.50127482  0.25490974  1
  Y3+  Y53  1  0.50029518  0.49819207  0.76054300  1
  Y3+  Y54  1  0.50178290  0.74863820  0.25605258  1
  Y3+  Y55  1  0.50154139  0.75022640  0.76011328  1
  Y3+  Y56  1  0.75048766  -0.00139316  0.25237707  1
  Y3+  Y57  1  0.74921601  -0.00214623  0.76059080  1
  Y3+  Y58  1  0.75093748  0.25231693  0.25242236  1
  Y3+  Y59  1  0.74953776  0.25239022  0.76114017  1
  Y3+  Y60  1  0.74924079  0.49792475  0.25446082  1
  Y3+  Y61  1  0.74818085  0.49880210  0.76085473  1
  Y3+  Y62  1  0.74839673  0.75085057  0.25416857  1
  Y3+  Y63  1  0.74806734  0.75094846  0.76030886  1
  Fe3+  Fe64  1  0.62607658  0.87514448  0.37745631  1
  Fe3+  Fe65  1  0.87360659  0.62487391  0.37381971  1
  Fe3+  Fe66  1  0.37511387  0.37550655  0.37766644  1
  Fe3+  Fe67  1  0.87357083  0.12488521  0.37477815  1
  Fe3+  Fe68  1  0.12453317  0.37467362  0.37939250  1
  Fe3+  Fe69  1  0.12503296  0.62467850  0.87663843  1
  Fe3+  Fe70  1  0.37475391  0.87447458  0.38147833  1
  Fe3+  Fe71  1  0.62516998  0.37503551  0.37576522  1
  Fe3+  Fe72  1  0.87535778  0.87430642  0.38013181  1
  Fe3+  Fe73  1  0.37650649  0.62443981  0.38040304  1
  Fe3+  Fe74  1  0.12565729  0.37366066  0.87586297  1
  Fe3+  Fe75  1  0.12416566  0.62426198  0.37565468  1
  Fe3+  Fe76  1  0.12437353  0.12571109  0.37588605  1
  Fe3+  Fe77  1  0.12425362  0.87538380  0.38099188  1
  Fe3+  Fe78  1  0.87579201  0.12493962  0.87781900  1
  Fe3+  Fe79  1  0.62543526  0.12597256  0.37890261  1
  Fe3+  Fe80  1  0.62488931  0.12516389  0.87962020  1
  Fe3+  Fe81  1  0.62470815  0.62472156  0.88032721  1
  Fe3+  Fe82  1  0.87541077  0.62493596  0.88051878  1
  Fe3+  Fe83  1  0.12486930  0.12523125  0.87630953  1
  Fe3+  Fe84  1  0.12504840  0.37431905  0.63471943  1
  Fe3+  Fe85  1  0.62429502  0.12503133  0.13354368  1
  Fe3+  Fe86  1  0.87512889  0.62564524  0.13267065  1
  Fe3+  Fe87  1  0.87429450  0.87441890  0.63571950  1
  Fe3+  Fe88  1  0.37605751  0.62510784  0.63652472  1
  Fe3+  Fe89  1  0.62455950  0.62505067  0.13271620  1
  Fe3+  Fe90  1  0.37499386  0.37496623  0.13853406  1
  Fe3+  Fe91  1  0.87403983  0.37562720  0.63974161  1
  Fe3+  Fe92  1  0.62565040  0.12596247  0.63683621  1
  Fe3+  Fe93  1  0.37577645  0.87458298  0.63548401  1
  Fe3+  Fe94  1  0.12527620  0.87556693  0.63496280  1
  Fe3+  Fe95  1  0.37498976  0.87513683  0.14041709  1
  Cu2+  Cu96  1  0.87603092  0.87534335  0.87060325  1
  Cu2+  Cu97  1  0.12560507  0.87602984  0.87163624  1
  Cu2+  Cu98  1  0.37446691  0.62511509  0.87381194  1
  Cu2+  Cu99  1  0.37452431  0.12485360  0.87432085  1
  Cu2+  Cu100  1  0.87750963  0.37454914  0.87245112  1
  Cu2+  Cu101  1  0.37592172  0.12565248  0.37313524  1
  Cu2+  Cu102  1  0.87495638  0.37524066  0.36235080  1
  Cu2+  Cu103  1  0.62444122  0.87596788  0.87416572  1
  Cu2+  Cu104  1  0.37292451  0.37483166  0.86250528  1
  Cu2+  Cu105  1  0.37417559  0.87515598  0.86011452  1
  Cu2+  Cu106  1  0.62598888  0.62438183  0.37001949  1
  Cu2+  Cu107  1  0.62441371  0.37400221  0.87375647  1
  Cu2+  Cu108  1  0.12672262  0.37441307  0.15216404  1
  Cu2+  Cu109  1  0.62501967  0.37437973  0.65460502  1
  Cu2+  Cu110  1  0.62308141  0.87562536  0.14130907  1
  Cu2+  Cu111  1  0.62451096  0.62437108  0.64927427  1
  Cu2+  Cu112  1  0.87336300  0.12482166  0.65289031  1
  Cu2+  Cu113  1  0.37570063  0.12444261  0.14131487  1
  Cu2+  Cu114  1  0.37580524  0.62565058  0.14146765  1
  Cu2+  Cu115  1  0.87407246  0.62505664  0.65674216  1
  Cu2+  Cu116  1  0.37508337  0.37572717  0.65169154  1
  Cu2+  Cu117  1  0.12465962  0.12529941  0.65077856  1
  Cu2+  Cu118  1  0.62323195  0.37445951  0.14015972  1
  Cu2+  Cu119  1  0.87553242  0.37564140  0.14196261  1
  Cu2+  Cu120  1  0.62442688  0.87545826  0.65216869  1
  Cu2+  Cu121  1  0.12524611  0.12493529  0.14956603  1
  Cu2+  Cu122  1  0.87463062  0.12471690  0.14758611  1
  Cu2+  Cu123  1  0.12536213  0.62460155  0.65184080  1
  Cu2+  Cu124  1  0.87546798  0.87427862  0.14312082  1
  Cu2+  Cu125  1  0.12714873  0.87563143  0.14375176  1
  Cu2+  Cu126  1  0.12494572  0.62533760  0.14754249  1
  Cu2+  Cu127  1  0.37655373  0.12439734  0.64469282  1
  O2-  O128  1  0.12365501  0.12569047  -0.00334173  1
  O2-  O129  1  0.12354327  0.12642241  0.49656846  1
  O2-  O130  1  0.12635442  0.37346991  -0.00396474  1
  O2-  O131  1  0.12384355  0.37504858  0.50599034  1
  O2-  O132  1  0.12480053  0.62439775  -0.00298170  1
  O2-  O133  1  0.12374574  0.62361653  0.49604393  1
  O2-  O134  1  0.12737338  0.87611703  0.00699203  1
  O2-  O135  1  0.12293272  0.87499273  0.50698034  1
  O2-  O136  1  0.37471719  0.12437455  0.00707408  1
  O2-  O137  1  0.37697891  0.12524780  0.50837641  1
  O2-  O138  1  0.37215885  0.37498152  0.01724052  1
  O2-  O139  1  0.37552270  0.37653357  0.49848735  1
  O2-  O140  1  0.37452018  0.62572281  0.00678573  1
  O2-  O141  1  0.37619457  0.62434430  0.50801507  1
  O2-  O142  1  0.37318992  0.87514993  0.01924920  1
  O2-  O143  1  0.37540605  0.87406901  0.50850983  1
  O2-  O144  1  0.62453346  0.12466905  0.00629369  1
  O2-  O145  1  0.62625465  0.12644482  0.50690909  1
  O2-  O146  1  0.62331295  0.37379484  0.00654895  1
  O2-  O147  1  0.62617142  0.37492298  0.49662849  1
  O2-  O148  1  0.62374179  0.62534935  0.00652423  1
  O2-  O149  1  0.62544633  0.62379815  0.50684349  1
  O2-  O150  1  0.62309971  0.87645751  0.00692419  1
  O2-  O151  1  0.62858781  0.87447826  0.49797276  1
  O2-  O152  1  0.87697506  0.12434575  -0.00192999  1
  O2-  O153  1  0.87261329  0.12509499  0.49562024  1
  O2-  O154  1  0.87803229  0.37467106  0.00710441  1
  O2-  O155  1  0.87393935  0.37658611  0.51869544  1
  O2-  O156  1  0.87645100  0.62576309  0.00625334  1
  O2-  O157  1  0.87360268  0.62443324  0.49477185  1
  O2-  O158  1  0.87676986  0.87537332  0.00637596  1
  O2-  O159  1  0.87482206  0.87388084  0.50645587  1
  O2-  O160  1  0.12544216  0.00162138  0.16727980  1
  O2-  O161  1  0.12473293  -0.00162686  0.66141699  1
  O2-  O162  1  0.12521822  0.24939594  0.16521088  1
  O2-  O163  1  0.12437469  0.25115849  0.66000388  1
  O2-  O164  1  0.12558795  0.49992042  0.16373485  1
  O2-  O165  1  0.12489571  0.49807355  0.66169512  1
  O2-  O166  1  0.12549738  0.74927417  0.16687319  1
  O2-  O167  1  0.12498089  0.75209498  0.66221823  1
  O2-  O168  1  0.37510331  -0.00090889  0.16961648  1
  O2-  O169  1  0.37556911  -0.00336234  0.66315179  1
  O2-  O170  1  0.37470947  0.25087591  0.16572607  1
  O2-  O171  1  0.37574190  0.25111998  0.66449862  1
  O2-  O172  1  0.37441678  0.49895622  0.16627515  1
  O2-  O173  1  0.37506387  0.50177109  0.66386741  1
  O2-  O174  1  0.37520153  0.75132116  0.17025438  1
  O2-  O175  1  0.37446877  0.75010677  0.66265739  1
  O2-  O176  1  0.62510240  0.00290481  0.16620707  1
  O2-  O177  1  0.62510897  0.00120463  0.66199480  1
  O2-  O178  1  0.62493515  0.24710095  0.16426599  1
  O2-  O179  1  0.62561344  0.24899057  0.66351603  1
  O2-  O180  1  0.62524956  0.50257010  0.16201485  1
  O2-  O181  1  0.62470291  0.49847234  0.66788518  1
  O2-  O182  1  0.62486951  0.74759267  0.16369383  1
  O2-  O183  1  0.62485717  0.75120885  0.66694992  1
  O2-  O184  1  0.87507287  0.00044080  0.16615977  1
  O2-  O185  1  0.87430900  -0.00194631  0.66038654  1
  O2-  O186  1  0.87545104  0.24927970  0.16457738  1
  O2-  O187  1  0.87426775  0.25045643  0.66493149  1
  O2-  O188  1  0.87548140  0.50339832  0.16260642  1
  O2-  O189  1  0.87471840  0.50000755  0.66847432  1
  O2-  O190  1  0.87539050  0.74708281  0.16515309  1
  O2-  O191  1  0.87492846  0.75118765  0.66318335  1
  O2-  O192  1  -0.00016166  0.12468080  0.16364442  1
  O2-  O193  1  -0.00117718  0.12443245  0.66116612  1
  O2-  O194  1  0.00248287  0.37511853  0.16554806  1
  O2-  O195  1  0.00067208  0.37525626  0.66273589  1
  O2-  O196  1  -0.00105201  0.62515736  0.16118705  1
  O2-  O197  1  0.00014207  0.62536042  0.66315648  1
  O2-  O198  1  0.00082696  0.87508841  0.16582308  1
  O2-  O199  1  -0.00028642  0.87477574  0.66115041  1
  O2-  O200  1  0.24924787  0.12488805  0.16502806  1
  O2-  O201  1  0.24954698  0.12452830  0.66355722  1
  O2-  O202  1  0.25083659  0.37486999  0.16915751  1
  O2-  O203  1  0.24826646  0.37492970  0.66017027  1
  O2-  O204  1  0.24868370  0.62540996  0.16632985  1
  O2-  O205  1  0.25197133  0.62527022  0.66108839  1
  O2-  O206  1  0.25195151  0.87514065  0.17231151  1
  O2-  O207  1  0.25002403  0.87458384  0.65990800  1
  O2-  O208  1  0.50240911  0.12455374  0.16613820  1
  O2-  O209  1  0.50362362  0.12511540  0.66602687  1
  O2-  O210  1  0.49785798  0.37507475  0.16709615  1
  O2-  O211  1  0.50044962  0.37497826  0.66613778  1
  O2-  O212  1  0.50301128  0.62527646  0.16607937  1
  O2-  O213  1  0.49747647  0.62530655  0.66638985  1
  O2-  O214  1  0.49809987  0.87529233  0.17045017  1
  O2-  O215  1  0.49832797  0.87408675  0.66358061  1
  O2-  O216  1  0.74867839  0.12466261  0.16097574  1
  O2-  O217  1  0.74787033  0.12444178  0.66571409  1
  O2-  O218  1  0.74958325  0.37491804  0.16194157  1
  O2-  O219  1  0.75014386  0.37535873  0.66837971  1
  O2-  O220  1  0.74990580  0.62563326  0.15879879  1
  O2-  O221  1  0.74974599  0.62514243  0.66980346  1
  O2-  O222  1  0.74978680  0.87497792  0.16322224  1
  O2-  O223  1  0.75150733  0.87459555  0.66445912  1
  O2-  O224  1  0.12443469  -0.00133685  0.35024763  1
  O2-  O225  1  0.12540992  0.00210164  0.84457406  1
  O2-  O226  1  0.12441255  0.25125428  0.34844077  1
  O2-  O227  1  0.12553770  0.24933126  0.84200689  1
  O2-  O228  1  0.12444656  0.49902425  0.34734248  1
  O2-  O229  1  0.12534196  0.49980629  0.84444435  1
  O2-  O230  1  0.12506720  0.75109013  0.34992421  1
  O2-  O231  1  0.12510364  0.74854032  0.84631161  1
  O2-  O232  1  0.37511208  -0.00310939  0.35276738  1
  O2-  O233  1  0.37501940  -0.00220171  0.84708348  1
  O2-  O234  1  0.37493463  0.25212372  0.34718332  1
  O2-  O235  1  0.37453839  0.25185170  0.84863788  1
  O2-  O236  1  0.37461397  0.50130035  0.34800895  1
  O2-  O237  1  0.37427692  0.49800745  0.84836240  1
  O2-  O238  1  0.37415030  0.74967172  0.35385001  1
  O2-  O239  1  0.37473999  0.75235854  0.84716168  1
  O2-  O240  1  0.62545970  0.00079517  0.34953931  1
  O2-  O241  1  0.62431510  0.00326097  0.84693692  1
  O2-  O242  1  0.62582113  0.24929524  0.34707503  1
  O2-  O243  1  0.62444120  0.24719723  0.84829231  1
  O2-  O244  1  0.62536846  0.49794563  0.34422315  1
  O2-  O245  1  0.62453837  0.50198478  0.85176610  1
  O2-  O246  1  0.62557901  0.75221206  0.34605595  1
  O2-  O247  1  0.62492163  0.74737714  0.85078924  1
  O2-  O248  1  0.87513937  -0.00174838  0.34898475  1
  O2-  O249  1  0.87496571  0.00241069  0.84366646  1
  O2-  O250  1  0.87473284  0.24962832  0.34810931  1
  O2-  O251  1  0.87542778  0.24787265  0.84627073  1
  O2-  O252  1  0.87563009  0.50013369  0.34548847  1
  O2-  O253  1  0.87568195  0.50294831  0.85120808  1
  O2-  O254  1  0.87536470  0.75180137  0.34730128  1
  O2-  O255  1  0.87501338  0.74664666  0.84805670  1
  O2-  O256  1  -0.00063595  0.12477033  0.34572611  1
  O2-  O257  1  0.00038305  0.12492935  0.84338754  1
  O2-  O258  1  0.00137059  0.37522700  0.35042784  1
  O2-  O259  1  0.00282035  0.37502761  0.84323983  1
  O2-  O260  1  -0.00001093  0.62548370  0.34347755  1
  O2-  O261  1  -0.00055713  0.62516753  0.84673714  1
  O2-  O262  1  -0.00001696  0.87452553  0.35003126  1
  O2-  O263  1  0.00017214  0.87478272  0.84527715  1
  O2-  O264  1  0.24789418  0.12472403  0.34811667  1
  O2-  O265  1  0.24891463  0.12480878  0.84694625  1
  O2-  O266  1  0.24845717  0.37592422  0.35117193  1
  O2-  O267  1  0.24932462  0.37492331  0.84348567  1
  O2-  O268  1  0.25060976  0.62511381  0.35011313  1
  O2-  O269  1  0.24840512  0.62508975  0.84486288  1
  O2-  O270  1  0.24923765  0.87427724  0.35609127  1
  O2-  O271  1  0.25175330  0.87499480  0.84487944  1
  O2-  O272  1  0.50354784  0.12479239  0.34961793  1
  O2-  O273  1  0.50169935  0.12478042  0.85091587  1
  O2-  O274  1  0.50005783  0.37523310  0.34669831  1
  O2-  O275  1  0.49684513  0.37487646  0.85113035  1
  O2-  O276  1  0.49741459  0.62555682  0.34953599  1
  O2-  O277  1  0.50228512  0.62518290  0.85054538  1
  O2-  O278  1  0.49917229  0.87450340  0.35241181  1
  O2-  O279  1  0.49748921  0.87520614  0.84876262  1
  O2-  O280  1  0.74900306  0.12457075  0.34470167  1
  O2-  O281  1  0.74909547  0.12486813  0.84979245  1
  O2-  O282  1  0.74985396  0.37461807  0.34511286  1
  O2-  O283  1  0.75094914  0.37474551  0.85152826  1
  O2-  O284  1  0.75197784  0.62515967  0.34114592  1
  O2-  O285  1  0.74976619  0.62473859  0.85413175  1
  O2-  O286  1  0.75192555  0.87544714  0.34613455  1
  O2-  O287  1  0.75049204  0.87526917  0.84906562  1
