# generated using pymatgen
data_BaYFeCuO5
_symmetry_space_group_name_H-M   'P 1'
_cell_length_a   15.66827213
_cell_length_b   15.66904205
_cell_length_c   15.47946555
_cell_angle_alpha   89.99922876
_cell_angle_beta   90.00395755
_cell_angle_gamma   89.99933431
_symmetry_Int_Tables_number   1
_chemical_formula_structural   BaYFeCuO5
_chemical_formula_sum   'Ba32 Y32 Fe32 Cu32 O160'
_cell_volume   3800.31427417
_cell_formula_units_Z   32
loop_
 _symmetry_equiv_pos_site_id
 _symmetry_equiv_pos_as_xyz
  1  'x, y, z'
loop_
 _atom_type_symbol
 _atom_type_oxidation_number
  Ba2+  2.0
  Y3+  3.0
  Fe3+  3.0
  Cu2+  2.0
  O2-  -2.0
loop_
 _atom_site_type_symbol
 _atom_site_label
 _atom_site_symmetry_multiplicity
 _atom_site_fract_x
 _atom_site_fract_y
 _atom_site_fract_z
 _atom_site_occupancy
  Ba2+  Ba0  1  -0.00605075  0.00708334  0.00747576  1
  Ba2+  Ba1  1  0.00239171  -0.00454747  0.51930765  1
  Ba2+  Ba2  1  -0.00237082  0.25642723  -0.00007300  1
  Ba2+  Ba3  1  0.00286039  0.25714733  0.51119468  1
  Ba2+  Ba4  1  0.00521910  0.49703261  0.01423390  1
  Ba2+  Ba5  1  -0.00448975  0.49224852  0.50263790  1
  Ba2+  Ba6  1  0.00095851  0.73892691  0.01933412  1
  Ba2+  Ba7  1  -0.00661511  0.75645906  0.50635667  1
  Ba2+  Ba8  1  0.25891677  0.00050828  0.01522212  1
  Ba2+  Ba9  1  0.25127873  0.00050452  0.52546635  1
  Ba2+  Ba10  1  0.25199547  0.26034023  0.01029261  1
  Ba2+  Ba11  1  0.24392004  0.24642698  0.51753297  1
  Ba2+  Ba12  1  0.24813022  0.49642514  0.01863286  1
  Ba2+  Ba13  1  0.25002342  0.50024626  0.50561448  1
  Ba2+  Ba14  1  0.25413982  0.74334352  0.02307916  1
  Ba2+  Ba15  1  0.25665164  0.75282604  0.51442463  1
  Ba2+  Ba16  1  0.50287891  -0.00227823  0.01079465  1
  Ba2+  Ba17  1  0.49943105  -0.00013364  0.51946104  1
  Ba2+  Ba18  1  0.49326330  0.24860750  0.00734411  1
  Ba2+  Ba19  1  0.50359592  0.24434292  0.52350345  1
  Ba2+  Ba20  1  0.48851665  0.49839471  0.01159824  1
  Ba2+  Ba21  1  0.50313529  0.50631320  0.51716248  1
  Ba2+  Ba22  1  0.49759268  0.75590711  0.01666528  1
  Ba2+  Ba23  1  0.49876369  0.74894250  0.51116471  1
  Ba2+  Ba24  1  0.74509347  0.00354225  0.00129047  1
  Ba2+  Ba25  1  0.74800354  -0.00589412  0.50519786  1
  Ba2+  Ba26  1  0.75573973  0.24467689  -0.00213337  1
  Ba2+  Ba27  1  0.74815933  0.25513304  0.51798957  1
  Ba2+  Ba28  1  0.75945084  0.50044620  0.00777259  1
  Ba2+  Ba29  1  0.75141831  0.49767026  0.51244716  1
  Ba2+  Ba30  1  0.74626130  0.75313229  0.01148795  1
  Ba2+  Ba31  1  0.75091395  0.75246624  0.49979574  1
  Y3+  Y32  1  -0.00341023  0.00137905  0.25659546  1
  Y3+  Y33  1  -0.00125057  0.00017984  0.75809431  1
  Y3+  Y34  1  0.00038274  0.25226696  0.25846727  1
  Y3+  Y35  1  0.00008688  0.25296865  0.75692263  1
  Y3+  Y36  1  0.00040008  0.49781831  0.26103834  1
  Y3+  Y37  1  0.00086427  0.49557707  0.75558802  1
  Y3+  Y38  1  -0.00275353  0.74838698  0.26005835  1
  Y3+  Y39  1  -0.00017076  0.75155966  0.75388881  1
  Y3+  Y40  1  0.25243932  0.00139243  0.25315360  1
  Y3+  Y41  1  0.24982620  0.00028970  0.75633122  1
  Y3+  Y42  1  0.24952554  0.25336589  0.25565778  1
  Y3+  Y43  1  0.24793365  0.25281777  0.75837264  1
  Y3+  Y44  1  0.24941458  0.49835700  0.25890460  1
  Y3+  Y45  1  0.24953618  0.49739194  0.75574635  1
  Y3+  Y46  1  0.25239114  0.74679537  0.25950800  1
  Y3+  Y47  1  0.25142846  0.74953658  0.75182558  1
  Y3+  Y48  1  0.50070679  -0.00152406  0.25289348  1
  Y3+  Y49  1  0.50234068  0.00020435  0.76050687  1
  Y3+  Y50  1  0.49761371  0.25019515  0.25385947  1
  Y3+  Y51  1  0.50094772  0.24969052  0.76010860  1
  Y3+  Y52  1  0.49654911  0.50042868  0.25773344  1
  Y3+  Y53  1  0.49920339  0.50025838  0.75636035  1
  Y3+  Y54  1  0.49960070  0.75097697  0.25713474  1
  Y3+  Y55  1  0.50030241  0.74938780  0.75608155  1
  Y3+  Y56  1  0.75007453  -0.00131489  0.25517887  1
  Y3+  Y57  1  0.74941096  0.00057139  0.76043274  1
  Y3+  Y58  1  0.75250879  0.24917846  0.25859580  1
  Y3+  Y59  1  0.75133404  0.24956196  0.75856007  1
  Y3+  Y60  1  0.75320325  0.49988493  0.26040197  1
  Y3+  Y61  1  0.75010381  0.49810458  0.75572465  1
  Y3+  Y62  1  0.75058618  0.75198479  0.25799364  1
  Y3+  Y63  1  0.74907273  0.75149132  0.75785208  1
  Fe3+  Fe64  1  0.12582622  0.62455376  0.87499597  1
  Fe3+  Fe65  1  0.62474459  0.37587223  0.88018568  1
  Fe3+  Fe66  1  0.37352266  0.62466100  0.87508257  1
  Fe3+  Fe67  1  0.87517204  0.12506968  0.38131945  1
  Fe3+  Fe68  1  0.12563558  0.12557747  0.87908047  1
  Fe3+  Fe69  1  0.37589892  0.37359211  0.38111633  1
  Fe3+  Fe70  1  0.12583550  0.87328416  0.88044092  1
  Fe3+  Fe71  1  0.62377048  0.12462839  0.37690252  1
  Fe3+  Fe72  1  0.12449806  0.62563717  0.37945060  1
  Fe3+  Fe73  1  0.87586347  0.87355639  0.88032152  1
  Fe3+  Fe74  1  0.62476271  0.62495895  0.37506458  1
  Fe3+  Fe75  1  0.37550065  0.87680038  0.37521551  1
  Fe3+  Fe76  1  0.62372107  0.37383097  0.37718628  1
  Fe3+  Fe77  1  0.12619862  0.87693140  0.37478010  1
  Fe3+  Fe78  1  0.12580922  0.12392762  0.37596095  1
  Fe3+  Fe79  1  0.87640872  0.62459252  0.87660817  1
  Fe3+  Fe80  1  0.37429946  0.12537370  0.87601820  1
  Fe3+  Fe81  1  0.62435385  0.62501392  0.88045456  1
  Fe3+  Fe82  1  0.37421955  0.87351323  0.87548254  1
  Fe3+  Fe83  1  0.37512791  0.12475357  0.37648013  1
  Fe3+  Fe84  1  0.12395923  0.62481464  0.63259082  1
  Fe3+  Fe85  1  0.87475769  0.12452885  0.63654622  1
  Fe3+  Fe86  1  0.87443957  0.62555419  0.63637958  1
  Fe3+  Fe87  1  0.62558122  0.37522900  0.13357187  1
  Fe3+  Fe88  1  0.12487849  0.87473282  0.13350841  1
  Fe3+  Fe89  1  0.87497442  0.37431330  0.13957372  1
  Fe3+  Fe90  1  0.37528543  0.37443780  0.63569915  1
  Fe3+  Fe91  1  0.62585977  0.87451977  0.63984008  1
  Fe3+  Fe92  1  0.62511063  0.62372044  0.13479918  1
  Fe3+  Fe93  1  0.12444786  0.12687748  0.13295610  1
  Fe3+  Fe94  1  0.62580007  0.12640526  0.13603346  1
  Fe3+  Fe95  1  0.87498509  0.87511577  0.13492006  1
  Cu2+  Cu96  1  0.12592432  0.37365534  0.37368584  1
  Cu2+  Cu97  1  0.62450089  0.12566551  0.86577251  1
  Cu2+  Cu98  1  0.87453485  0.62479410  0.36683107  1
  Cu2+  Cu99  1  0.87504605  0.37622884  0.86221246  1
  Cu2+  Cu100  1  0.62391725  0.87597069  0.36094157  1
  Cu2+  Cu101  1  0.87374084  0.37319668  0.37370536  1
  Cu2+  Cu102  1  0.87614986  0.12501497  0.87128770  1
  Cu2+  Cu103  1  0.87537865  0.87725856  0.37154271  1
  Cu2+  Cu104  1  0.12558771  0.37641516  0.87201752  1
  Cu2+  Cu105  1  0.37460545  0.37608458  0.86993757  1
  Cu2+  Cu106  1  0.62417905  0.87372150  0.87408681  1
  Cu2+  Cu107  1  0.37572907  0.62481965  0.37368827  1
  Cu2+  Cu108  1  0.37497473  0.37513820  0.14343286  1
  Cu2+  Cu109  1  0.62614277  0.62550097  0.65324211  1
  Cu2+  Cu110  1  0.12506323  0.37581758  0.64127543  1
  Cu2+  Cu111  1  0.12382633  0.12524100  0.65448524  1
  Cu2+  Cu112  1  0.12506021  0.87450011  0.65196264  1
  Cu2+  Cu113  1  0.37513354  0.12569181  0.65477904  1
  Cu2+  Cu114  1  0.37537148  0.62421775  0.15432199  1
  Cu2+  Cu115  1  0.12483548  0.62468997  0.15689510  1
  Cu2+  Cu116  1  0.87479254  0.37499005  0.64321065  1
  Cu2+  Cu117  1  0.87460857  0.62427468  0.15319931  1
  Cu2+  Cu118  1  0.87324331  0.87532395  0.64443333  1
  Cu2+  Cu119  1  0.37647876  0.87576682  0.65282603  1
  Cu2+  Cu120  1  0.37516190  0.62454774  0.63976584  1
  Cu2+  Cu121  1  0.37492167  0.12590580  0.14731621  1
  Cu2+  Cu122  1  0.37446280  0.87461215  0.15094801  1
  Cu2+  Cu123  1  0.12412277  0.37497138  0.14440156  1
  Cu2+  Cu124  1  0.62442788  0.37486349  0.65388238  1
  Cu2+  Cu125  1  0.62548787  0.87493699  0.14121514  1
  Cu2+  Cu126  1  0.62626001  0.12417292  0.65422787  1
  Cu2+  Cu127  1  0.87491650  0.12623486  0.14143695  1
  O2-  O128  1  0.12534153  0.12661528  0.00560828  1
  O2-  O129  1  0.12612331  0.12091019  0.49584994  1
  O2-  O130  1  0.12469926  0.37617807  0.00752406  1
  O2-  O131  1  0.12651257  0.37411204  0.50728049  1
  O2-  O132  1  0.12677224  0.62481877  -0.00493521  1
  O2-  O133  1  0.12368106  0.62691456  0.50602218  1
  O2-  O134  1  0.12530876  0.87181933  0.00573363  1
  O2-  O135  1  0.12692634  0.87832668  0.49488274  1
  O2-  O136  1  0.37430444  0.12494991  -0.00355462  1
  O2-  O137  1  0.37533805  0.12350185  0.49623575  1
  O2-  O138  1  0.37482242  0.37631092  0.00701005  1
  O2-  O139  1  0.37724682  0.37242775  0.50730683  1
  O2-  O140  1  0.37272975  0.62487511  -0.00500581  1
  O2-  O141  1  0.37639975  0.62562688  0.50633758  1
  O2-  O142  1  0.37243756  0.87233586  -0.00417039  1
  O2-  O143  1  0.37543117  0.87848865  0.49562688  1
  O2-  O144  1  0.62550899  0.12650083  0.01537679  1
  O2-  O145  1  0.62322809  0.12446283  0.49699977  1
  O2-  O146  1  0.62587245  0.37601669  0.00709456  1
  O2-  O147  1  0.62240243  0.37378749  0.49724288  1
  O2-  O148  1  0.62425383  0.62410526  0.00689089  1
  O2-  O149  1  0.62541387  0.62537844  0.49542937  1
  O2-  O150  1  0.62454678  0.87377287  0.00764778  1
  O2-  O151  1  0.62509093  0.87497321  0.51911727  1
  O2-  O152  1  0.87521190  0.12537508  0.00649313  1
  O2-  O153  1  0.87512350  0.12401068  0.50810062  1
  O2-  O154  1  0.87519900  0.37571182  0.01861225  1
  O2-  O155  1  0.87291258  0.37320880  0.50888686  1
  O2-  O156  1  0.87753868  0.62436475  -0.00310337  1
  O2-  O157  1  0.87319700  0.62615675  0.51576953  1
  O2-  O158  1  0.87685572  0.87300665  0.00709888  1
  O2-  O159  1  0.87430220  0.87701928  0.50696143  1
  O2-  O160  1  0.12495118  -0.00036519  0.15468901  1
  O2-  O161  1  0.12441625  -0.00075424  0.66900689  1
  O2-  O162  1  0.12519554  0.24772103  0.16432085  1
  O2-  O163  1  0.12478782  0.24934782  0.66655087  1
  O2-  O164  1  0.12473725  0.50130680  0.16915584  1
  O2-  O165  1  0.12472621  0.50317938  0.66221599  1
  O2-  O166  1  0.12483699  0.75146148  0.16372218  1
  O2-  O167  1  0.12466963  0.74902424  0.66178736  1
  O2-  O168  1  0.37503635  0.00002118  0.15893804  1
  O2-  O169  1  0.37511718  0.00111755  0.66640580  1
  O2-  O170  1  0.37437818  0.24944503  0.16543286  1
  O2-  O171  1  0.37538833  0.25105363  0.66431609  1
  O2-  O172  1  0.37453040  0.50094997  0.16882350  1
  O2-  O173  1  0.37589167  0.49689791  0.66232455  1
  O2-  O174  1  0.37451679  0.74920870  0.16496151  1
  O2-  O175  1  0.37583670  0.75137573  0.66189437  1
  O2-  O176  1  0.62488412  0.00183198  0.16347301  1
  O2-  O177  1  0.62507085  -0.00042276  0.66867711  1
  O2-  O178  1  0.62498556  0.25203595  0.16370042  1
  O2-  O179  1  0.62552098  0.24892841  0.66677558  1
  O2-  O180  1  0.62507843  0.49971219  0.16165931  1
  O2-  O181  1  0.62488332  0.50055180  0.66522891  1
  O2-  O182  1  0.62496429  0.74649797  0.16277678  1
  O2-  O183  1  0.62499674  0.75033364  0.66824159  1
  O2-  O184  1  0.87563837  -0.00262572  0.16233326  1
  O2-  O185  1  0.87540260  0.00246253  0.66718939  1
  O2-  O186  1  0.87508414  0.25194613  0.16953176  1
  O2-  O187  1  0.87457572  0.24717899  0.66475184  1
  O2-  O188  1  0.87468946  0.49936903  0.16813454  1
  O2-  O189  1  0.87435036  0.50175560  0.66546832  1
  O2-  O190  1  0.87570177  0.75094297  0.16328149  1
  O2-  O191  1  0.87471258  0.74903366  0.66714384  1
  O2-  O192  1  0.00309605  0.12424423  0.16499075  1
  O2-  O193  1  -0.00158109  0.12406511  0.66491675  1
  O2-  O194  1  -0.00147346  0.37573723  0.16887371  1
  O2-  O195  1  0.00032399  0.37469262  0.66513727  1
  O2-  O196  1  -0.00023506  0.62527807  0.16670409  1
  O2-  O197  1  0.00062006  0.62655220  0.66356830  1
  O2-  O198  1  0.00036103  0.87465716  0.16153373  1
  O2-  O199  1  0.00067940  0.87550274  0.66683223  1
  O2-  O200  1  0.24835186  0.12441203  0.15997251  1
  O2-  O201  1  0.24892250  0.12477931  0.66396075  1
  O2-  O202  1  0.24944448  0.37590344  0.16637138  1
  O2-  O203  1  0.25257977  0.37427855  0.66262010  1
  O2-  O204  1  0.25044113  0.62480608  0.16651982  1
  O2-  O205  1  0.24709982  0.62588998  0.65880614  1
  O2-  O206  1  0.24817725  0.87499590  0.16016006  1
  O2-  O207  1  0.25103764  0.87541082  0.66260431  1
  O2-  O208  1  0.50046454  0.12624262  0.16245216  1
  O2-  O209  1  0.50082163  0.12532130  0.66536484  1
  O2-  O210  1  0.50293476  0.37557596  0.16217272  1
  O2-  O211  1  0.49901931  0.37415288  0.66572997  1
  O2-  O212  1  0.50125124  0.62389135  0.16069979  1
  O2-  O213  1  0.50174225  0.62477746  0.66566878  1
  O2-  O214  1  0.49819589  0.87425377  0.16196430  1
  O2-  O215  1  0.50106151  0.87555613  0.66690302  1
  O2-  O216  1  0.74832037  0.12558483  0.16920814  1
  O2-  O217  1  0.75183592  0.12461539  0.66536982  1
  O2-  O218  1  0.74883032  0.37566122  0.16672976  1
  O2-  O219  1  0.74789980  0.37472492  0.66774135  1
  O2-  O220  1  0.74835269  0.62429030  0.16159032  1
  O2-  O221  1  0.75068157  0.62508805  0.66996957  1
  O2-  O222  1  0.75325788  0.87435611  0.16422220  1
  O2-  O223  1  0.74794979  0.87551029  0.67219687  1
  O2-  O224  1  0.12533716  0.00083291  0.33644586  1
  O2-  O225  1  0.12517063  -0.00121617  0.85418944  1
  O2-  O226  1  0.12532354  0.24736847  0.34659683  1
  O2-  O227  1  0.12498658  0.24844492  0.85132497  1
  O2-  O228  1  0.12455694  0.50203655  0.35366052  1
  O2-  O229  1  0.12503260  0.50169621  0.84421524  1
  O2-  O230  1  0.12453594  0.74986369  0.34767657  1
  O2-  O231  1  0.12489892  0.75113716  0.84466004  1
  O2-  O232  1  0.37493036  0.00066301  0.34026771  1
  O2-  O233  1  0.37385313  -0.00045491  0.84820790  1
  O2-  O234  1  0.37545019  0.25060405  0.34731681  1
  O2-  O235  1  0.37490750  0.24886511  0.84753135  1
  O2-  O236  1  0.37560510  0.49681479  0.35280595  1
  O2-  O237  1  0.37510550  0.50216878  0.84378567  1
  O2-  O238  1  0.37509479  0.75222042  0.34818895  1
  O2-  O239  1  0.37438100  0.74917965  0.84253896  1
  O2-  O240  1  0.62516593  0.00070226  0.34545572  1
  O2-  O241  1  0.62551117  0.00077297  0.85173236  1
  O2-  O242  1  0.62418805  0.24930068  0.34346881  1
  O2-  O243  1  0.62535470  0.25237169  0.85196211  1
  O2-  O244  1  0.62462673  0.49897220  0.34410136  1
  O2-  O245  1  0.62542151  0.50060685  0.85037059  1
  O2-  O246  1  0.62547400  0.75083592  0.34667627  1
  O2-  O247  1  0.62487282  0.74623809  0.85024485  1
  O2-  O248  1  0.87445380  0.00412311  0.34564600  1
  O2-  O249  1  0.87590463  -0.00385453  0.85133161  1
  O2-  O250  1  0.87493225  0.24609842  0.35053907  1
  O2-  O251  1  0.87546316  0.25203769  0.84902563  1
  O2-  O252  1  0.87451530  0.49984326  0.35149412  1
  O2-  O253  1  0.87446681  0.50094404  0.84703622  1
  O2-  O254  1  0.87454910  0.75002059  0.34809982  1
  O2-  O255  1  0.87610881  0.75064452  0.84789729  1
  O2-  O256  1  -0.00076438  0.12425914  0.34836275  1
  O2-  O257  1  0.00367218  0.12423011  0.84929247  1
  O2-  O258  1  -0.00020178  0.37377160  0.35161760  1
  O2-  O259  1  -0.00131836  0.37557276  0.84864608  1
  O2-  O260  1  0.00091275  0.62585707  0.35154043  1
  O2-  O261  1  0.00044528  0.62548533  0.84416077  1
  O2-  O262  1  0.00238593  0.87589877  0.34445272  1
  O2-  O263  1  0.00103726  0.87470994  0.85098780  1
  O2-  O264  1  0.25097168  0.12501438  0.34167938  1
  O2-  O265  1  0.24840843  0.12468105  0.84672749  1
  O2-  O266  1  0.25349882  0.37452069  0.34993120  1
  O2-  O267  1  0.25029878  0.37553603  0.84565599  1
  O2-  O268  1  0.24706790  0.62523433  0.35090904  1
  O2-  O269  1  0.24975046  0.62545521  0.83982634  1
  O2-  O270  1  0.25030408  0.87548206  0.34131082  1
  O2-  O271  1  0.24850350  0.87446814  0.84526776  1
  O2-  O272  1  0.49937487  0.12488411  0.34277192  1
  O2-  O273  1  0.49906445  0.12519828  0.84868048  1
  O2-  O274  1  0.49853065  0.37446775  0.34419258  1
  O2-  O275  1  0.50287789  0.37585947  0.85019306  1
  O2-  O276  1  0.50211547  0.62519393  0.34328914  1
  O2-  O277  1  0.50059756  0.62430123  0.84883434  1
  O2-  O278  1  0.49921931  0.87566644  0.34470854  1
  O2-  O279  1  0.49769003  0.87454018  0.84820870  1
  O2-  O280  1  0.75037302  0.12471149  0.35111065  1
  O2-  O281  1  0.74928342  0.12522441  0.84965948  1
  O2-  O282  1  0.74755400  0.37417542  0.34791094  1
  O2-  O283  1  0.74843601  0.37554337  0.85242639  1
  O2-  O284  1  0.74920644  0.62556165  0.34517024  1
  O2-  O285  1  0.74944230  0.62513461  0.85261412  1
  O2-  O286  1  0.74825869  0.87578539  0.34838153  1
  O2-  O287  1  0.75285605  0.87386583  0.85476650  1
