# generated using pymatgen
data_BaYFeCuO5
_symmetry_space_group_name_H-M   'P 1'
_cell_length_a   15.66626766
_cell_length_b   15.66369120
_cell_length_c   15.46831824
_cell_angle_alpha   90.00379678
_cell_angle_beta   89.98763458
_cell_angle_gamma   90.00315876
_symmetry_Int_Tables_number   1
_chemical_formula_structural   BaYFeCuO5
_chemical_formula_sum   'Ba32 Y32 Fe32 Cu32 O160'
_cell_volume   3795.79493399
_cell_formula_units_Z   32
loop_
 _symmetry_equiv_pos_site_id
 _symmetry_equiv_pos_as_xyz
  1  'x, y, z'
loop_
 _atom_type_symbol
 _atom_type_oxidation_number
  Ba2+  2.0
  Y3+  3.0
  Fe3+  3.0
  Cu2+  2.0
  O2-  -2.0
loop_
 _atom_site_type_symbol
 _atom_site_label
 _atom_site_symmetry_multiplicity
 _atom_site_fract_x
 _atom_site_fract_y
 _atom_site_fract_z
 _atom_site_occupancy
  Ba2+  Ba0  1  0.00217146  -0.00127031  0.02234462  1
  Ba2+  Ba1  1  0.00477586  -0.00411466  0.51052217  1
  Ba2+  Ba2  1  0.00087924  0.23840581  0.01119470  1
  Ba2+  Ba3  1  0.00336368  0.26048396  0.51196140  1
  Ba2+  Ba4  1  -0.00076170  0.51018717  0.01874280  1
  Ba2+  Ba5  1  -0.00251046  0.49664789  0.51247778  1
  Ba2+  Ba6  1  0.00094022  0.75251668  0.02764351  1
  Ba2+  Ba7  1  -0.00273057  0.74572837  0.50898851  1
  Ba2+  Ba8  1  0.24891548  -0.00288379  0.01403116  1
  Ba2+  Ba9  1  0.25726960  -0.00366313  0.52286890  1
  Ba2+  Ba10  1  0.24756569  0.23888839  0.01085898  1
  Ba2+  Ba11  1  0.25387414  0.25681245  0.50595918  1
  Ba2+  Ba12  1  0.25177590  0.51176027  0.01125966  1
  Ba2+  Ba13  1  0.25473407  0.49686135  0.50046670  1
  Ba2+  Ba14  1  0.25289155  0.75220302  0.01596423  1
  Ba2+  Ba15  1  0.25792745  0.75147043  0.51732043  1
  Ba2+  Ba16  1  0.49547648  0.00235143  0.01130783  1
  Ba2+  Ba17  1  0.50204162  -0.00180527  0.51852724  1
  Ba2+  Ba18  1  0.50615551  0.24418472  0.01552016  1
  Ba2+  Ba19  1  0.49714624  0.24237025  0.50759008  1
  Ba2+  Ba20  1  0.50137924  0.50703404  0.00662577  1
  Ba2+  Ba21  1  0.49389637  0.50656157  0.49750814  1
  Ba2+  Ba22  1  0.49182154  0.74771957  0.00214639  1
  Ba2+  Ba23  1  0.49973506  0.75106609  0.50733731  1
  Ba2+  Ba24  1  0.75272623  0.00448609  0.01793578  1
  Ba2+  Ba25  1  0.73616623  -0.00046655  0.50641087  1
  Ba2+  Ba26  1  0.74541188  0.24341038  0.01622861  1
  Ba2+  Ba27  1  0.74561893  0.24814890  0.51182030  1
  Ba2+  Ba28  1  0.74590685  0.50454225  0.01143448  1
  Ba2+  Ba29  1  0.75490026  0.50576250  0.50775513  1
  Ba2+  Ba30  1  0.75533366  0.74783041  0.01383374  1
  Ba2+  Ba31  1  0.74337210  0.74643867  0.50214004  1
  Y3+  Y32  1  0.00034962  0.00026395  0.25645983  1
  Y3+  Y33  1  0.00249915  0.00003736  0.75511206  1
  Y3+  Y34  1  0.00211371  0.24964150  0.25740178  1
  Y3+  Y35  1  0.00180087  0.25165836  0.75623152  1
  Y3+  Y36  1  0.00033882  0.50104557  0.26148527  1
  Y3+  Y37  1  -0.00038133  0.49865655  0.75256887  1
  Y3+  Y38  1  -0.00127688  0.74861503  0.26016546  1
  Y3+  Y39  1  0.00009533  0.74985595  0.74999876  1
  Y3+  Y40  1  0.25131210  -0.00017114  0.25070680  1
  Y3+  Y41  1  0.25165505  -0.00155314  0.76004787  1
  Y3+  Y42  1  0.24957037  0.25019332  0.25668083  1
  Y3+  Y43  1  0.24881852  0.24945383  0.75773250  1
  Y3+  Y44  1  0.25165760  0.50094521  0.25822137  1
  Y3+  Y45  1  0.25115072  0.50148087  0.75633634  1
  Y3+  Y46  1  0.25287925  0.74905383  0.25433955  1
  Y3+  Y47  1  0.25477983  0.75054174  0.75825908  1
  Y3+  Y48  1  0.50142966  0.00038935  0.25629544  1
  Y3+  Y49  1  0.50117038  -0.00087427  0.75878739  1
  Y3+  Y50  1  0.50116965  0.24814828  0.25668034  1
  Y3+  Y51  1  0.50191849  0.24643325  0.75835593  1
  Y3+  Y52  1  0.49790739  0.50180087  0.25731069  1
  Y3+  Y53  1  0.49867277  0.50356672  0.76107246  1
  Y3+  Y54  1  0.49799557  0.74990236  0.25820573  1
  Y3+  Y55  1  0.49805375  0.75073731  0.75855421  1
  Y3+  Y56  1  0.74646150  0.00084032  0.25917640  1
  Y3+  Y57  1  0.74516015  0.00043277  0.75533075  1
  Y3+  Y58  1  0.74592336  0.24808056  0.25744027  1
  Y3+  Y59  1  0.74832792  0.24859468  0.75686996  1
  Y3+  Y60  1  0.74887975  0.50149386  0.25935418  1
  Y3+  Y61  1  0.75129829  0.50119740  0.75614151  1
  Y3+  Y62  1  0.74912349  0.74961041  0.26207230  1
  Y3+  Y63  1  0.74850311  0.74986625  0.75413518  1
  Fe3+  Fe64  1  0.62339869  0.37534380  0.38004458  1
  Fe3+  Fe65  1  0.87602263  0.87500965  0.87493824  1
  Fe3+  Fe66  1  0.87479461  0.12541316  0.37963555  1
  Fe3+  Fe67  1  0.87535585  0.12310850  0.87389620  1
  Fe3+  Fe68  1  0.37503032  0.87614773  0.37461308  1
  Fe3+  Fe69  1  0.62598760  0.87439456  0.88080903  1
  Fe3+  Fe70  1  0.12461399  0.37595157  0.88131890  1
  Fe3+  Fe71  1  0.12353608  0.62689760  0.87455391  1
  Fe3+  Fe72  1  0.37476628  0.37469768  0.88215645  1
  Fe3+  Fe73  1  0.37453579  0.12341713  0.37547402  1
  Fe3+  Fe74  1  0.37509497  0.12476601  0.87653133  1
  Fe3+  Fe75  1  0.87526110  0.37494711  0.88041467  1
  Fe3+  Fe76  1  0.62574278  0.37509687  0.87892942  1
  Fe3+  Fe77  1  0.87424915  0.87585947  0.37896298  1
  Fe3+  Fe78  1  0.12383414  0.87384416  0.87494662  1
  Fe3+  Fe79  1  0.87649024  0.62659488  0.87426596  1
  Fe3+  Fe80  1  0.12660548  0.12459503  0.37968479  1
  Fe3+  Fe81  1  0.87414135  0.37400543  0.37542758  1
  Fe3+  Fe82  1  0.12638849  0.62528349  0.37889985  1
  Fe3+  Fe83  1  0.12739362  0.87516080  0.37712202  1
  Fe3+  Fe84  1  0.12677524  0.12569306  0.63425949  1
  Fe3+  Fe85  1  0.62348826  0.62461678  0.63877404  1
  Fe3+  Fe86  1  0.62469486  0.87412992  0.13567636  1
  Fe3+  Fe87  1  0.62341404  0.37626739  0.63524856  1
  Fe3+  Fe88  1  0.87421637  0.37478817  0.13466595  1
  Fe3+  Fe89  1  0.87493204  0.12506090  0.63258010  1
  Fe3+  Fe90  1  0.12696453  0.62450739  0.63353627  1
  Fe3+  Fe91  1  0.87336098  0.87539479  0.63218507  1
  Fe3+  Fe92  1  0.12486115  0.37591712  0.13460257  1
  Fe3+  Fe93  1  0.37558874  0.37488381  0.13489657  1
  Fe3+  Fe94  1  0.37691118  0.37534238  0.64018799  1
  Fe3+  Fe95  1  0.62448562  0.62619386  0.14042636  1
  Cu2+  Cu96  1  0.87511267  0.62453741  0.37388155  1
  Cu2+  Cu97  1  0.62596270  0.12409440  0.87309312  1
  Cu2+  Cu98  1  0.12419649  0.12369093  0.87086327  1
  Cu2+  Cu99  1  0.37375548  0.62665002  0.37248361  1
  Cu2+  Cu100  1  0.62283409  0.87519419  0.37270771  1
  Cu2+  Cu101  1  0.62635853  0.62603013  0.86376907  1
  Cu2+  Cu102  1  0.62362799  0.62452435  0.36448730  1
  Cu2+  Cu103  1  0.37378587  0.62495638  0.87242185  1
  Cu2+  Cu104  1  0.37578719  0.37409099  0.35959568  1
  Cu2+  Cu105  1  0.12546521  0.37493080  0.37249699  1
  Cu2+  Cu106  1  0.37479634  0.87526408  0.87349439  1
  Cu2+  Cu107  1  0.62336414  0.12490234  0.37219810  1
  Cu2+  Cu108  1  0.87485889  0.12552216  0.15626007  1
  Cu2+  Cu109  1  0.87417195  0.62496839  0.63977373  1
  Cu2+  Cu110  1  0.62417825  0.12531615  0.64207032  1
  Cu2+  Cu111  1  0.12477636  0.87393512  0.15488623  1
  Cu2+  Cu112  1  0.12573819  0.87441724  0.64654684  1
  Cu2+  Cu113  1  0.87355149  0.87516427  0.15678102  1
  Cu2+  Cu114  1  0.37627803  0.87514380  0.65514397  1
  Cu2+  Cu115  1  0.62457518  0.87389989  0.64369450  1
  Cu2+  Cu116  1  0.87355156  0.37403080  0.65119865  1
  Cu2+  Cu117  1  0.37509087  0.12536585  0.65297928  1
  Cu2+  Cu118  1  0.12498840  0.12483860  0.14282122  1
  Cu2+  Cu119  1  0.62466750  0.12387216  0.14358141  1
  Cu2+  Cu120  1  0.12485182  0.62469078  0.15562073  1
  Cu2+  Cu121  1  0.37635015  0.87483115  0.14009662  1
  Cu2+  Cu122  1  0.37617009  0.62435041  0.64299970  1
  Cu2+  Cu123  1  0.12741069  0.37590012  0.64199524  1
  Cu2+  Cu124  1  0.37498497  0.12566329  0.14980475  1
  Cu2+  Cu125  1  0.62482318  0.37580133  0.15065382  1
  Cu2+  Cu126  1  0.37589858  0.62498936  0.14344879  1
  Cu2+  Cu127  1  0.87406332  0.62451757  0.15688745  1
  O2-  O128  1  0.12295477  0.12330860  0.00657137  1
  O2-  O129  1  0.12813144  0.12567709  0.50581516  1
  O2-  O130  1  0.12303982  0.37631394  0.00768164  1
  O2-  O131  1  0.12675832  0.37533635  0.50705124  1
  O2-  O132  1  0.12120844  0.62815815  -0.00512739  1
  O2-  O133  1  0.12747171  0.62351884  0.50572794  1
  O2-  O134  1  0.12133550  0.87304692  -0.00493612  1
  O2-  O135  1  0.12863087  0.87660325  0.49712415  1
  O2-  O136  1  0.37431915  0.12565291  -0.00244877  1
  O2-  O137  1  0.37358254  0.12339841  0.49572444  1
  O2-  O138  1  0.37484229  0.37459764  0.00817220  1
  O2-  O139  1  0.37744111  0.37551897  0.51963013  1
  O2-  O140  1  0.37450184  0.62445965  0.00778826  1
  O2-  O141  1  0.37429908  0.62522763  0.50761442  1
  O2-  O142  1  0.37441487  0.87523942  0.00684103  1
  O2-  O143  1  0.37563070  0.87662636  0.49514644  1
  O2-  O144  1  0.62691435  0.12370953  0.00778160  1
  O2-  O145  1  0.62316919  0.12621482  0.50758910  1
  O2-  O146  1  0.62869364  0.37421638  -0.00079491  1
  O2-  O147  1  0.62259778  0.37615501  0.50792696  1
  O2-  O148  1  0.62685168  0.62680833  0.01955537  1
  O2-  O149  1  0.62313456  0.62283191  0.51800063  1
  O2-  O150  1  0.62767577  0.87388442  0.00817326  1
  O2-  O151  1  0.62331356  0.87389322  0.50705907  1
  O2-  O152  1  0.87682927  0.12170841  -0.00553391  1
  O2-  O153  1  0.87464062  0.12649096  0.50560487  1
  O2-  O154  1  0.87505700  0.37529173  0.00632088  1
  O2-  O155  1  0.87405513  0.37363516  0.49581486  1
  O2-  O156  1  0.87766770  0.62789481  -0.00538722  1
  O2-  O157  1  0.87524083  0.62425710  0.50615301  1
  O2-  O158  1  0.87753076  0.87508451  -0.00552682  1
  O2-  O159  1  0.87335505  0.87575612  0.50522488  1
  O2-  O160  1  0.12406875  -0.00199816  0.16546406  1
  O2-  O161  1  0.12504466  0.00172050  0.66032175  1
  O2-  O162  1  0.12403462  0.25403370  0.16422509  1
  O2-  O163  1  0.12526578  0.24739553  0.66572369  1
  O2-  O164  1  0.12447538  0.49827034  0.16410445  1
  O2-  O165  1  0.12543726  0.50271636  0.66617521  1
  O2-  O166  1  0.12327756  0.74930059  0.16715902  1
  O2-  O167  1  0.12469245  0.74850752  0.65728262  1
  O2-  O168  1  0.37460411  0.00179947  0.16103667  1
  O2-  O169  1  0.37528254  0.00036728  0.66374145  1
  O2-  O170  1  0.37473496  0.25188463  0.16349340  1
  O2-  O171  1  0.37547662  0.25014244  0.66694900  1
  O2-  O172  1  0.37475218  0.49707772  0.16472405  1
  O2-  O173  1  0.37601064  0.49850006  0.67125255  1
  O2-  O174  1  0.37545562  0.74950081  0.16506940  1
  O2-  O175  1  0.37596066  0.75131810  0.66509073  1
  O2-  O176  1  0.62656918  -0.00292933  0.16399277  1
  O2-  O177  1  0.62427377  -0.00041620  0.66445936  1
  O2-  O178  1  0.62485449  0.25083315  0.16651919  1
  O2-  O179  1  0.62512874  0.25291693  0.66325905  1
  O2-  O180  1  0.62585287  0.50098659  0.16812330  1
  O2-  O181  1  0.62481851  0.49864041  0.66842397  1
  O2-  O182  1  0.62617996  0.75130726  0.16877686  1
  O2-  O183  1  0.62512170  0.74854389  0.66695629  1
  O2-  O184  1  0.87453120  0.00076368  0.16755478  1
  O2-  O185  1  0.87666862  0.00090179  0.65712246  1
  O2-  O186  1  0.87582368  0.25173384  0.16155572  1
  O2-  O187  1  0.87535058  0.24775595  0.66431288  1
  O2-  O188  1  0.87428510  0.49811703  0.16199603  1
  O2-  O189  1  0.87472461  0.49810045  0.66597242  1
  O2-  O190  1  0.87486904  0.74943996  0.16799430  1
  O2-  O191  1  0.87465632  0.75303298  0.65929239  1
  O2-  O192  1  -0.00105390  0.12511437  0.16917378  1
  O2-  O193  1  0.00071699  0.12580435  0.65608541  1
  O2-  O194  1  -0.00042614  0.37585659  0.16211838  1
  O2-  O195  1  -0.00135473  0.37457383  0.66370399  1
  O2-  O196  1  -0.00099891  0.62390427  0.16755411  1
  O2-  O197  1  0.00265017  0.62403361  0.65771477  1
  O2-  O198  1  -0.00118874  0.87511371  0.16816178  1
  O2-  O199  1  -0.00187311  0.87543226  0.65653032  1
  O2-  O200  1  0.25078643  0.12624906  0.16361240  1
  O2-  O201  1  0.24890613  0.12527271  0.66337964  1
  O2-  O202  1  0.24954900  0.37509801  0.16137328  1
  O2-  O203  1  0.25303302  0.37460321  0.67108736  1
  O2-  O204  1  0.24890432  0.62441490  0.16391558  1
  O2-  O205  1  0.24862388  0.62517234  0.66366090  1
  O2-  O206  1  0.24881094  0.87427790  0.16139403  1
  O2-  O207  1  0.25112211  0.87507040  0.66450562  1
  O2-  O208  1  0.49881111  0.12553713  0.16426974  1
  O2-  O209  1  0.49861364  0.12526012  0.66711034  1
  O2-  O210  1  0.49853598  0.37493956  0.16348445  1
  O2-  O211  1  0.50160159  0.37463358  0.67135052  1
  O2-  O212  1  0.50175084  0.62441037  0.16803135  1
  O2-  O213  1  0.50137475  0.62474771  0.67061873  1
  O2-  O214  1  0.50331695  0.87522821  0.16282990  1
  O2-  O215  1  0.49911567  0.87518708  0.66980576  1
  O2-  O216  1  0.75107031  0.12580586  0.16796041  1
  O2-  O217  1  0.75288208  0.12493881  0.66194835  1
  O2-  O218  1  0.75189237  0.37421353  0.16486804  1
  O2-  O219  1  0.74761107  0.37455189  0.66245992  1
  O2-  O220  1  0.74954627  0.62519624  0.16839010  1
  O2-  O221  1  0.74806263  0.62399183  0.66584255  1
  O2-  O222  1  0.74855818  0.87465865  0.16536321  1
  O2-  O223  1  0.75273951  0.87636336  0.66493468  1
  O2-  O224  1  0.12382801  0.00150059  0.34828543  1
  O2-  O225  1  0.12434408  -0.00237784  0.84292200  1
  O2-  O226  1  0.12537797  0.24659117  0.34826646  1
  O2-  O227  1  0.12364132  0.25377300  0.85016656  1
  O2-  O228  1  0.12535572  0.50240654  0.34871484  1
  O2-  O229  1  0.12425111  0.49880560  0.84882716  1
  O2-  O230  1  0.12469644  0.74978695  0.35035152  1
  O2-  O231  1  0.12391316  0.74991356  0.83865614  1
  O2-  O232  1  0.37444529  0.00019273  0.34166850  1
  O2-  O233  1  0.37513893  0.00153729  0.84705329  1
  O2-  O234  1  0.37398661  0.24901721  0.34740123  1
  O2-  O235  1  0.37496001  0.25185026  0.84856304  1
  O2-  O236  1  0.37473080  0.49868289  0.34894738  1
  O2-  O237  1  0.37410124  0.49708529  0.85288579  1
  O2-  O238  1  0.37415939  0.75233534  0.34670869  1
  O2-  O239  1  0.37508671  0.74933621  0.84900754  1
  O2-  O240  1  0.62436629  0.00070310  0.34732024  1
  O2-  O241  1  0.62620784  -0.00339894  0.84839457  1
  O2-  O242  1  0.62461868  0.25269391  0.35105502  1
  O2-  O243  1  0.62609432  0.25213504  0.84584101  1
  O2-  O244  1  0.62418724  0.49890763  0.35193271  1
  O2-  O245  1  0.62673262  0.50020948  0.85073863  1
  O2-  O246  1  0.62487605  0.74771379  0.35134905  1
  O2-  O247  1  0.62645452  0.75104341  0.85039179  1
  O2-  O248  1  0.87606940  0.00091077  0.35217272  1
  O2-  O249  1  0.87487770  -0.00121098  0.83869587  1
  O2-  O250  1  0.87436218  0.24824885  0.34505391  1
  O2-  O251  1  0.87565290  0.25175181  0.84849862  1
  O2-  O252  1  0.87442415  0.49750004  0.34559866  1
  O2-  O253  1  0.87554392  0.49894801  0.84945078  1
  O2-  O254  1  0.87480436  0.75310204  0.35232945  1
  O2-  O255  1  0.87530907  0.75046339  0.83996706  1
  O2-  O256  1  0.00022254  0.12579870  0.35346234  1
  O2-  O257  1  -0.00235208  0.12545031  0.83878779  1
  O2-  O258  1  -0.00202489  0.37364232  0.34583064  1
  O2-  O259  1  -0.00053473  0.37531179  0.84876356  1
  O2-  O260  1  0.00321425  0.62492887  0.35149006  1
  O2-  O261  1  -0.00045984  0.62430896  0.83778990  1
  O2-  O262  1  -0.00047108  0.87560786  0.35172428  1
  O2-  O263  1  -0.00047271  0.87481720  0.83751934  1
  O2-  O264  1  0.24887341  0.12494911  0.34571661  1
  O2-  O265  1  0.25144713  0.12609861  0.84647768  1
  O2-  O266  1  0.25197641  0.37475009  0.34640564  1
  O2-  O267  1  0.24945934  0.37471132  0.85431033  1
  O2-  O268  1  0.24753210  0.62469481  0.34744809  1
  O2-  O269  1  0.24712535  0.62427549  0.84595075  1
  O2-  O270  1  0.24987633  0.87591098  0.34218148  1
  O2-  O271  1  0.24830766  0.87448710  0.84766770  1
  O2-  O272  1  0.49777923  0.12594208  0.34638412  1
  O2-  O273  1  0.49903405  0.12549160  0.84978950  1
  O2-  O274  1  0.50129024  0.37516981  0.34902730  1
  O2-  O275  1  0.49930960  0.37586432  0.85355774  1
  O2-  O276  1  0.50038837  0.62466881  0.34996084  1
  O2-  O277  1  0.50160044  0.62429856  0.85361923  1
  O2-  O278  1  0.49774253  0.87502043  0.34452752  1
  O2-  O279  1  0.50312963  0.87432451  0.85412370  1
  O2-  O280  1  0.75197855  0.12480603  0.35221746  1
  O2-  O281  1  0.75230070  0.12527055  0.84399638  1
  O2-  O282  1  0.74757156  0.37475680  0.34876366  1
  O2-  O283  1  0.75231304  0.37527041  0.84677472  1
  O2-  O284  1  0.74763525  0.62435397  0.35147173  1
  O2-  O285  1  0.75221247  0.62500937  0.84702129  1
  O2-  O286  1  0.75201413  0.87609050  0.35026134  1
  O2-  O287  1  0.74963102  0.87430091  0.84740089  1
