# generated using pymatgen
data_BaYFeCuO5
_symmetry_space_group_name_H-M   'P 1'
_cell_length_a   15.67070334
_cell_length_b   15.67284338
_cell_length_c   15.49247631
_cell_angle_alpha   89.99868891
_cell_angle_beta   89.99849628
_cell_angle_gamma   89.99790716
_symmetry_Int_Tables_number   1
_chemical_formula_structural   BaYFeCuO5
_chemical_formula_sum   'Ba32 Y32 Fe32 Cu32 O160'
_cell_volume   3805.02157099
_cell_formula_units_Z   32
loop_
 _symmetry_equiv_pos_site_id
 _symmetry_equiv_pos_as_xyz
  1  'x, y, z'
loop_
 _atom_type_symbol
 _atom_type_oxidation_number
  Ba2+  2.0
  Y3+  3.0
  Fe3+  3.0
  Cu2+  2.0
  O2-  -2.0
loop_
 _atom_site_type_symbol
 _atom_site_label
 _atom_site_symmetry_multiplicity
 _atom_site_fract_x
 _atom_site_fract_y
 _atom_site_fract_z
 _atom_site_occupancy
  Ba2+  Ba0  1  0.00584029  0.00636472  0.02301304  1
  Ba2+  Ba1  1  -0.00349986  0.00533488  0.51171537  1
  Ba2+  Ba2  1  -0.00039650  0.25142059  0.02234670  1
  Ba2+  Ba3  1  -0.00119621  0.25227424  0.51132937  1
  Ba2+  Ba4  1  -0.00717997  0.49392611  0.01144574  1
  Ba2+  Ba5  1  0.00215600  0.49281729  0.50567933  1
  Ba2+  Ba6  1  -0.00249024  0.74688985  0.01104680  1
  Ba2+  Ba7  1  0.00021034  0.74937906  0.50589585  1
  Ba2+  Ba8  1  0.25082449  0.00229485  0.00455415  1
  Ba2+  Ba9  1  0.25825400  0.00362193  0.51059782  1
  Ba2+  Ba10  1  0.24775187  0.24933209  0.02004656  1
  Ba2+  Ba11  1  0.25430938  0.25071341  0.50688009  1
  Ba2+  Ba12  1  0.25309860  0.49437950  0.02221337  1
  Ba2+  Ba13  1  0.25287558  0.49736913  0.51122708  1
  Ba2+  Ba14  1  0.25415184  0.75461728  0.01174827  1
  Ba2+  Ba15  1  0.25705205  0.74752451  0.51659451  1
  Ba2+  Ba16  1  0.49904201  0.00034338  0.00609009  1
  Ba2+  Ba17  1  0.49540326  -0.00087299  0.50672267  1
  Ba2+  Ba18  1  0.49552425  0.24552504  0.01280926  1
  Ba2+  Ba19  1  0.49218178  0.24598217  0.50278778  1
  Ba2+  Ba20  1  0.49545736  0.50350655  0.01210619  1
  Ba2+  Ba21  1  0.49394798  0.50264003  0.51740616  1
  Ba2+  Ba22  1  0.49989871  0.75104532  0.00605326  1
  Ba2+  Ba23  1  0.49864454  0.75235705  0.52210119  1
  Ba2+  Ba24  1  0.74528929  0.00516056  0.02214259  1
  Ba2+  Ba25  1  0.74789680  -0.00038190  0.50556383  1
  Ba2+  Ba26  1  0.75698092  0.24819371  0.01741222  1
  Ba2+  Ba27  1  0.75637109  0.24801277  0.50765065  1
  Ba2+  Ba28  1  0.75805385  0.50222227  0.00164408  1
  Ba2+  Ba29  1  0.75210605  0.49781697  0.51270466  1
  Ba2+  Ba30  1  0.74760034  0.74402479  0.00568698  1
  Ba2+  Ba31  1  0.74395990  0.75326324  0.51387616  1
  Y3+  Y32  1  0.00071604  -0.00029508  0.25805018  1
  Y3+  Y33  1  0.00111847  0.00277618  0.75406491  1
  Y3+  Y34  1  -0.00071452  0.25355558  0.25879441  1
  Y3+  Y35  1  -0.00189576  0.25100714  0.75441120  1
  Y3+  Y36  1  -0.00225291  0.49715925  0.25617515  1
  Y3+  Y37  1  -0.00245820  0.49901915  0.75827427  1
  Y3+  Y38  1  -0.00091204  0.74973728  0.25519877  1
  Y3+  Y39  1  0.00024882  0.74749561  0.75852247  1
  Y3+  Y40  1  0.25104950  -0.00029335  0.26097281  1
  Y3+  Y41  1  0.25331200  0.00153820  0.75375653  1
  Y3+  Y42  1  0.25088538  0.25248725  0.26219773  1
  Y3+  Y43  1  0.25183916  0.24785618  0.75237799  1
  Y3+  Y44  1  0.25082988  0.49677182  0.25905787  1
  Y3+  Y45  1  0.25048851  0.49983963  0.75328615  1
  Y3+  Y46  1  0.25081348  0.75119906  0.25746660  1
  Y3+  Y47  1  0.25152735  0.75066928  0.75572941  1
  Y3+  Y48  1  0.50016628  0.00115247  0.26129381  1
  Y3+  Y49  1  0.49672546  -0.00087864  0.75512632  1
  Y3+  Y50  1  0.49870310  0.24877400  0.26156775  1
  Y3+  Y51  1  0.49747211  0.24956390  0.75468397  1
  Y3+  Y52  1  0.49793759  0.49836521  0.25753391  1
  Y3+  Y53  1  0.50064082  0.50102927  0.75668719  1
  Y3+  Y54  1  0.49918112  0.75176161  0.25608816  1
  Y3+  Y55  1  0.50008313  0.75046010  0.75763393  1
  Y3+  Y56  1  0.74765570  0.00087632  0.25802548  1
  Y3+  Y57  1  0.74949058  0.00060303  0.75520758  1
  Y3+  Y58  1  0.75070247  0.24987768  0.25856861  1
  Y3+  Y59  1  0.75291137  0.25232476  0.75614548  1
  Y3+  Y60  1  0.75292813  0.49839793  0.25626967  1
  Y3+  Y61  1  0.75203075  0.50014999  0.75982021  1
  Y3+  Y62  1  0.75044180  0.75064199  0.25514516  1
  Y3+  Y63  1  0.74864921  0.74715116  0.75968769  1
  Fe3+  Fe64  1  0.62483979  0.12619543  0.87644297  1
  Fe3+  Fe65  1  0.62489857  0.37428479  0.88017639  1
  Fe3+  Fe66  1  0.12541672  0.62420537  0.37661342  1
  Fe3+  Fe67  1  0.62426991  0.87389794  0.37593236  1
  Fe3+  Fe68  1  0.62514303  0.87628740  0.87700535  1
  Fe3+  Fe69  1  0.87506744  0.12460411  0.37471304  1
  Fe3+  Fe70  1  0.12590140  0.62335683  0.87982562  1
  Fe3+  Fe71  1  0.12506372  0.87606700  0.87648070  1
  Fe3+  Fe72  1  0.12487782  0.12596955  0.37798610  1
  Fe3+  Fe73  1  0.37379925  0.62446402  0.87600716  1
  Fe3+  Fe74  1  0.12520832  0.87456929  0.37974594  1
  Fe3+  Fe75  1  0.12556399  0.37388989  0.87685709  1
  Fe3+  Fe76  1  0.37588620  0.62583981  0.37531294  1
  Fe3+  Fe77  1  0.12535798  0.12668401  0.87395534  1
  Fe3+  Fe78  1  0.87415926  0.62538606  0.37918954  1
  Fe3+  Fe79  1  0.87575212  0.12473390  0.87671152  1
  Fe3+  Fe80  1  0.62486092  0.37524202  0.38010620  1
  Fe3+  Fe81  1  0.87565679  0.87693228  0.88043400  1
  Fe3+  Fe82  1  0.37381940  0.37387562  0.87618595  1
  Fe3+  Fe83  1  0.62440054  0.62478430  0.37818009  1
  Fe3+  Fe84  1  0.37556066  0.87615351  0.13897890  1
  Fe3+  Fe85  1  0.12533298  0.37481821  0.63712339  1
  Fe3+  Fe86  1  0.62470686  0.37449824  0.13522806  1
  Fe3+  Fe87  1  0.87452140  0.87475128  0.63741708  1
  Fe3+  Fe88  1  0.62478851  0.37459851  0.63507117  1
  Fe3+  Fe89  1  0.87441507  0.87544640  0.13528122  1
  Fe3+  Fe90  1  0.62470450  0.62441891  0.13713119  1
  Fe3+  Fe91  1  0.12503158  0.87507677  0.63416163  1
  Fe3+  Fe92  1  0.37442666  0.12455466  0.14152854  1
  Fe3+  Fe93  1  0.12539619  0.62433932  0.13496350  1
  Fe3+  Fe94  1  0.62500245  0.12508736  0.63542559  1
  Fe3+  Fe95  1  0.87566065  0.62485245  0.63581071  1
  Cu2+  Cu96  1  0.37568770  0.37642872  0.37385018  1
  Cu2+  Cu97  1  0.62408598  0.62404943  0.86427576  1
  Cu2+  Cu98  1  0.37456834  0.87539163  0.86207961  1
  Cu2+  Cu99  1  0.12470263  0.37555405  0.36476359  1
  Cu2+  Cu100  1  0.87630129  0.62549811  0.87279056  1
  Cu2+  Cu101  1  0.87587987  0.37319249  0.87198589  1
  Cu2+  Cu102  1  0.87476775  0.87444641  0.36369653  1
  Cu2+  Cu103  1  0.62509387  0.12542839  0.36799028  1
  Cu2+  Cu104  1  0.87410800  0.37528442  0.37363239  1
  Cu2+  Cu105  1  0.37479944  0.12549313  0.86182460  1
  Cu2+  Cu106  1  0.37500901  0.87363363  0.37407403  1
  Cu2+  Cu107  1  0.37432213  0.12453894  0.37172489  1
  Cu2+  Cu108  1  0.87530298  0.12444714  0.15477942  1
  Cu2+  Cu109  1  0.12501617  0.37507183  0.15326147  1
  Cu2+  Cu110  1  0.37536688  0.87532072  0.64231088  1
  Cu2+  Cu111  1  0.12627815  0.12551525  0.15749072  1
  Cu2+  Cu112  1  0.62541298  0.87515582  0.65280929  1
  Cu2+  Cu113  1  0.12585316  0.87513601  0.15090517  1
  Cu2+  Cu114  1  0.62355021  0.12578693  0.15376221  1
  Cu2+  Cu115  1  0.87418750  0.12498857  0.64963140  1
  Cu2+  Cu116  1  0.37579751  0.37467891  0.64117521  1
  Cu2+  Cu117  1  0.37611955  0.12512126  0.64254493  1
  Cu2+  Cu118  1  0.12429836  0.62482953  0.64775112  1
  Cu2+  Cu119  1  0.62569528  0.62460126  0.65013600  1
  Cu2+  Cu120  1  0.62422324  0.87536977  0.14860889  1
  Cu2+  Cu121  1  0.37598210  0.37391981  0.15342144  1
  Cu2+  Cu122  1  0.12516554  0.12520435  0.64390707  1
  Cu2+  Cu123  1  0.37483199  0.62518582  0.15125408  1
  Cu2+  Cu124  1  0.87375287  0.37462861  0.14362053  1
  Cu2+  Cu125  1  0.87475551  0.37564556  0.64146693  1
  Cu2+  Cu126  1  0.37510240  0.62512744  0.65371209  1
  Cu2+  Cu127  1  0.87449072  0.62473654  0.14239215  1
  O2-  O128  1  0.12516080  0.12620366  -0.00586666  1
  O2-  O129  1  0.12353739  0.12492768  0.49791754  1
  O2-  O130  1  0.12614391  0.37317232  -0.00284468  1
  O2-  O131  1  0.12529180  0.37595478  0.51617393  1
  O2-  O132  1  0.12612240  0.62399766  0.00598955  1
  O2-  O133  1  0.12511971  0.62559887  0.49647970  1
  O2-  O134  1  0.12525270  0.87734785  -0.00366481  1
  O2-  O135  1  0.12440017  0.87370414  0.50655897  1
  O2-  O136  1  0.37416574  0.12438545  0.02073321  1
  O2-  O137  1  0.37551587  0.12450785  0.50734529  1
  O2-  O138  1  0.37380657  0.37332192  -0.00359400  1
  O2-  O139  1  0.37620595  0.37685841  0.50700171  1
  O2-  O140  1  0.37260120  0.62441206  -0.00373297  1
  O2-  O141  1  0.37620464  0.62610974  0.49562145  1
  O2-  O142  1  0.37455294  0.87746664  0.01818715  1
  O2-  O143  1  0.37528251  0.87301912  0.50819237  1
  O2-  O144  1  0.62497845  0.12593057  -0.00352477  1
  O2-  O145  1  0.62564377  0.12524429  0.51515243  1
  O2-  O146  1  0.62477031  0.37426055  0.00734570  1
  O2-  O147  1  0.62470761  0.37546739  0.50749948  1
  O2-  O148  1  0.62460924  0.62348600  0.01655544  1
  O2-  O149  1  0.62375032  0.62602059  0.49805835  1
  O2-  O150  1  0.62544934  0.87715725  -0.00287906  1
  O2-  O151  1  0.62508036  0.87310556  0.49644537  1
  O2-  O152  1  0.87664935  0.12381415  -0.00321433  1
  O2-  O153  1  0.87457928  0.12342352  0.49562415  1
  O2-  O154  1  0.87469690  0.37289762  0.00790913  1
  O2-  O155  1  0.87410996  0.37647761  0.50720016  1
  O2-  O156  1  0.87598224  0.62592041  0.00735153  1
  O2-  O157  1  0.87506344  0.62610988  0.50733672  1
  O2-  O158  1  0.87561908  0.87746553  0.00666038  1
  O2-  O159  1  0.87432964  0.87326815  0.51718766  1
  O2-  O160  1  0.12522792  0.00026268  0.16693878  1
  O2-  O161  1  0.12401153  -0.00143304  0.65995025  1
  O2-  O162  1  0.12501116  0.25065243  0.16636604  1
  O2-  O163  1  0.12461569  0.25013863  0.66241054  1
  O2-  O164  1  0.12529517  0.50098412  0.16250081  1
  O2-  O165  1  0.12499395  0.49994690  0.66636749  1
  O2-  O166  1  0.12517816  0.74818326  0.16220716  1
  O2-  O167  1  0.12390143  0.75132655  0.66447305  1
  O2-  O168  1  0.37476012  0.00006507  0.17192508  1
  O2-  O169  1  0.37558112  0.00015706  0.66477843  1
  O2-  O170  1  0.37514927  0.24944954  0.16886895  1
  O2-  O171  1  0.37610403  0.24974621  0.66327064  1
  O2-  O172  1  0.37547755  0.49915779  0.16276653  1
  O2-  O173  1  0.37546480  0.50231076  0.66370908  1
  O2-  O174  1  0.37462688  0.75091436  0.16388880  1
  O2-  O175  1  0.37511111  0.74812240  0.66600861  1
  O2-  O176  1  0.62477374  0.00071858  0.16534765  1
  O2-  O177  1  0.62639077  0.00007537  0.66353968  1
  O2-  O178  1  0.62433978  0.25161730  0.16522925  1
  O2-  O179  1  0.62557484  0.25119848  0.66445019  1
  O2-  O180  1  0.62422233  0.49834304  0.16600107  1
  O2-  O181  1  0.62559678  0.49871420  0.66394265  1
  O2-  O182  1  0.62491960  0.74962145  0.16305398  1
  O2-  O183  1  0.62558213  0.74989743  0.66591096  1
  O2-  O184  1  0.87525817  -0.00127819  0.16345805  1
  O2-  O185  1  0.87480598  -0.00087972  0.66445641  1
  O2-  O186  1  0.87467407  0.24796006  0.16648086  1
  O2-  O187  1  0.87433898  0.24906806  0.66201656  1
  O2-  O188  1  0.87445020  0.49966527  0.16682688  1
  O2-  O189  1  0.87455225  0.50306746  0.66497902  1
  O2-  O190  1  0.87525849  0.75324380  0.16362135  1
  O2-  O191  1  0.87557434  0.74880038  0.66777286  1
  O2-  O192  1  0.00141931  0.12420267  0.16398826  1
  O2-  O193  1  -0.00123469  0.12445744  0.66101456  1
  O2-  O194  1  0.00042272  0.37512357  0.16555132  1
  O2-  O195  1  0.00140487  0.37576702  0.66499822  1
  O2-  O196  1  0.00310632  0.62543682  0.16459935  1
  O2-  O197  1  -0.00212735  0.62567737  0.66455616  1
  O2-  O198  1  -0.00102247  0.87513811  0.16371793  1
  O2-  O199  1  0.00087641  0.87458971  0.66443690  1
  O2-  O200  1  0.25051853  0.12531021  0.16831408  1
  O2-  O201  1  0.24968647  0.12445840  0.66317825  1
  O2-  O202  1  0.25068063  0.37499376  0.16548212  1
  O2-  O203  1  0.24899372  0.37543857  0.66387973  1
  O2-  O204  1  0.24880854  0.62493467  0.16194941  1
  O2-  O205  1  0.25082791  0.62583468  0.66256942  1
  O2-  O206  1  0.25085373  0.87469075  0.16793179  1
  O2-  O207  1  0.24681737  0.87436186  0.66277381  1
  O2-  O208  1  0.49887263  0.12548771  0.16796403  1
  O2-  O209  1  0.50269114  0.12493127  0.66830416  1
  O2-  O210  1  0.50165654  0.37459847  0.16338883  1
  O2-  O211  1  0.50295999  0.37598622  0.66585260  1
  O2-  O212  1  0.49993721  0.62438698  0.16431273  1
  O2-  O213  1  0.49947780  0.62514457  0.66518750  1
  O2-  O214  1  0.49937351  0.87544063  0.16555857  1
  O2-  O215  1  0.50184601  0.87428481  0.66676276  1
  O2-  O216  1  0.74902473  0.12508832  0.16367742  1
  O2-  O217  1  0.74934135  0.12535578  0.66562060  1
  O2-  O218  1  0.74671387  0.37428065  0.16588388  1
  O2-  O219  1  0.74736431  0.37579667  0.66496218  1
  O2-  O220  1  0.74760907  0.62491900  0.16930349  1
  O2-  O221  1  0.75241699  0.62583332  0.66370839  1
  O2-  O222  1  0.75098335  0.87555527  0.16213187  1
  O2-  O223  1  0.75084055  0.87360801  0.66742094  1
  O2-  O224  1  0.12389641  -0.00137074  0.35051681  1
  O2-  O225  1  0.12544459  0.00065702  0.84203665  1
  O2-  O226  1  0.12435449  0.25063311  0.35004803  1
  O2-  O227  1  0.12568432  0.24982558  0.84181603  1
  O2-  O228  1  0.12402400  0.50058644  0.34613151  1
  O2-  O229  1  0.12521791  0.50058603  0.84851124  1
  O2-  O230  1  0.12371050  0.75037737  0.34628554  1
  O2-  O231  1  0.12538019  0.74907103  0.84914589  1
  O2-  O232  1  0.37453539  -0.00037936  0.35256660  1
  O2-  O233  1  0.37471147  0.00041282  0.84898755  1
  O2-  O234  1  0.37516351  0.25012650  0.35171100  1
  O2-  O235  1  0.37534443  0.25079519  0.84504263  1
  O2-  O236  1  0.37523593  0.50243306  0.34564583  1
  O2-  O237  1  0.37515969  0.49945954  0.84476825  1
  O2-  O238  1  0.37451540  0.74810906  0.34409468  1
  O2-  O239  1  0.37411897  0.74921203  0.84861763  1
  O2-  O240  1  0.62555112  -0.00054858  0.34923220  1
  O2-  O241  1  0.62452037  0.00064033  0.84430727  1
  O2-  O242  1  0.62508523  0.25166227  0.35123243  1
  O2-  O243  1  0.62486116  0.25113723  0.84620149  1
  O2-  O244  1  0.62587650  0.49972909  0.34838232  1
  O2-  O245  1  0.62493500  0.49771879  0.84950981  1
  O2-  O246  1  0.62594813  0.74893754  0.34348091  1
  O2-  O247  1  0.62538074  0.75076826  0.84986408  1
  O2-  O248  1  0.87518721  -0.00007457  0.34665273  1
  O2-  O249  1  0.87561751  -0.00095193  0.84500421  1
  O2-  O250  1  0.87436955  0.24863523  0.34901954  1
  O2-  O251  1  0.87486326  0.24754647  0.84442513  1
  O2-  O252  1  0.87430559  0.50326075  0.35022479  1
  O2-  O253  1  0.87541650  0.49969148  0.84903161  1
  O2-  O254  1  0.87540748  0.74798853  0.34761512  1
  O2-  O255  1  0.87557613  0.75384474  0.85146906  1
  O2-  O256  1  0.00033685  0.12456744  0.34549494  1
  O2-  O257  1  0.00023058  0.12459357  0.84225142  1
  O2-  O258  1  0.00009513  0.37630958  0.34939211  1
  O2-  O259  1  0.00216517  0.37494556  0.84600618  1
  O2-  O260  1  -0.00143495  0.62568075  0.34860310  1
  O2-  O261  1  0.00415966  0.62572112  0.84807418  1
  O2-  O262  1  0.00173243  0.87350086  0.34934986  1
  O2-  O263  1  -0.00040384  0.87485827  0.84635309  1
  O2-  O264  1  0.24781120  0.12485203  0.34875487  1
  O2-  O265  1  0.25044709  0.12433283  0.84603084  1
  O2-  O266  1  0.24905007  0.37622459  0.35020116  1
  O2-  O267  1  0.24999708  0.37525457  0.84318301  1
  O2-  O268  1  0.24965299  0.62512600  0.34439599  1
  O2-  O269  1  0.24851403  0.62500645  0.84499007  1
  O2-  O270  1  0.24652892  0.87410993  0.35043806  1
  O2-  O271  1  0.24955765  0.87526957  0.84607966  1
  O2-  O272  1  0.50047327  0.12520021  0.35048153  1
  O2-  O273  1  0.49973129  0.12554992  0.85005636  1
  O2-  O274  1  0.50345370  0.37549576  0.34811693  1
  O2-  O275  1  0.50064709  0.37490273  0.84887178  1
  O2-  O276  1  0.50076594  0.62469279  0.34405719  1
  O2-  O277  1  0.49862957  0.62462668  0.84875439  1
  O2-  O278  1  0.50167699  0.87456728  0.34635999  1
  O2-  O279  1  0.49982886  0.87495699  0.85012049  1
  O2-  O280  1  0.75066636  0.12466331  0.34707237  1
  O2-  O281  1  0.75007191  0.12463778  0.84550939  1
  O2-  O282  1  0.74685507  0.37518991  0.34945378  1
  O2-  O283  1  0.74753958  0.37527799  0.84969994  1
  O2-  O284  1  0.75073397  0.62554276  0.35060686  1
  O2-  O285  1  0.74884813  0.62466125  0.84859924  1
  O2-  O286  1  0.74912066  0.87464349  0.34577966  1
  O2-  O287  1  0.75133747  0.87540136  0.84905307  1
