# generated using pymatgen
data_BaYFeCuO5
_symmetry_space_group_name_H-M   'P 1'
_cell_length_a   15.68589963
_cell_length_b   15.68700710
_cell_length_c   15.53231902
_cell_angle_alpha   89.99045264
_cell_angle_beta   89.99758930
_cell_angle_gamma   89.99907786
_symmetry_Int_Tables_number   1
_chemical_formula_structural   BaYFeCuO5
_chemical_formula_sum   'Ba32 Y32 Fe32 Cu32 O160'
_cell_volume   3821.95720719
_cell_formula_units_Z   32
loop_
 _symmetry_equiv_pos_site_id
 _symmetry_equiv_pos_as_xyz
  1  'x, y, z'
loop_
 _atom_type_symbol
 _atom_type_oxidation_number
  Ba2+  2.0
  Y3+  3.0
  Fe3+  3.0
  Cu2+  2.0
  O2-  -2.0
loop_
 _atom_site_type_symbol
 _atom_site_label
 _atom_site_symmetry_multiplicity
 _atom_site_fract_x
 _atom_site_fract_y
 _atom_site_fract_z
 _atom_site_occupancy
  Ba2+  Ba0  1  -0.00322912  0.00020726  0.01155584  1
  Ba2+  Ba1  1  0.00328744  -0.00723128  0.50170803  1
  Ba2+  Ba2  1  0.00137829  0.25031637  0.02322577  1
  Ba2+  Ba3  1  0.00312525  0.24522595  0.50246696  1
  Ba2+  Ba4  1  0.00873438  0.49469544  0.01015332  1
  Ba2+  Ba5  1  -0.00566928  0.50727783  0.51337911  1
  Ba2+  Ba6  1  0.00348125  0.75453790  0.00149209  1
  Ba2+  Ba7  1  -0.00434999  0.75379152  0.51512176  1
  Ba2+  Ba8  1  0.25157770  0.00265229  0.01875217  1
  Ba2+  Ba9  1  0.24971684  -0.00859949  0.50767882  1
  Ba2+  Ba10  1  0.24965146  0.25169085  0.02261290  1
  Ba2+  Ba11  1  0.25145717  0.24943071  0.50654630  1
  Ba2+  Ba12  1  0.24653483  0.49846318  0.00486054  1
  Ba2+  Ba13  1  0.26031445  0.50179748  0.51912134  1
  Ba2+  Ba14  1  0.24848428  0.74731891  0.00048631  1
  Ba2+  Ba15  1  0.25662526  0.75514755  0.51851197  1
  Ba2+  Ba16  1  0.50058105  0.00298431  0.02789482  1
  Ba2+  Ba17  1  0.50338602  -0.00558498  0.50239717  1
  Ba2+  Ba18  1  0.49985869  0.24934618  0.02816966  1
  Ba2+  Ba19  1  0.50698224  0.25370559  0.51019184  1
  Ba2+  Ba20  1  0.49848427  0.49713663  0.01711299  1
  Ba2+  Ba21  1  0.50282504  0.50010652  0.51262576  1
  Ba2+  Ba22  1  0.50003892  0.75131516  0.01654853  1
  Ba2+  Ba23  1  0.49882225  0.75153072  0.50073351  1
  Ba2+  Ba24  1  0.75107093  0.00125223  0.02167846  1
  Ba2+  Ba25  1  0.74421343  -0.00396474  0.49692235  1
  Ba2+  Ba26  1  0.74934173  0.24829886  0.02913780  1
  Ba2+  Ba27  1  0.73922679  0.24982018  0.50714468  1
  Ba2+  Ba28  1  0.74507316  0.49354017  0.02214452  1
  Ba2+  Ba29  1  0.74177846  0.50391326  0.50623726  1
  Ba2+  Ba30  1  0.74771604  0.75791715  0.01463861  1
  Ba2+  Ba31  1  0.74884134  0.75066967  0.49282526  1
  Y3+  Y32  1  -0.00030450  -0.00044368  0.25639688  1
  Y3+  Y33  1  -0.00045409  -0.00246035  0.75993114  1
  Y3+  Y34  1  0.00171718  0.24939286  0.25792804  1
  Y3+  Y35  1  0.00106300  0.25048325  0.75651744  1
  Y3+  Y36  1  0.00193978  0.50001101  0.25320979  1
  Y3+  Y37  1  0.00133648  0.50123290  0.76094740  1
  Y3+  Y38  1  -0.00033513  0.75009105  0.25268485  1
  Y3+  Y39  1  0.00062376  0.75163113  0.76293899  1
  Y3+  Y40  1  0.25089285  -0.00045047  0.25999297  1
  Y3+  Y41  1  0.25058176  -0.00261075  0.75544623  1
  Y3+  Y42  1  0.24888626  0.24954379  0.25781111  1
  Y3+  Y43  1  0.25078776  0.25147492  0.75586985  1
  Y3+  Y44  1  0.24854213  0.49973292  0.25243038  1
  Y3+  Y45  1  0.25076033  0.50129427  0.76171581  1
  Y3+  Y46  1  0.25119922  0.75040450  0.25483496  1
  Y3+  Y47  1  0.25060300  0.75027509  0.76006135  1
  Y3+  Y48  1  0.50005048  -0.00170513  0.26189753  1
  Y3+  Y49  1  0.50046437  0.00078633  0.75180790  1
  Y3+  Y50  1  0.50179706  0.24949698  0.26261630  1
  Y3+  Y51  1  0.50192289  0.25071346  0.74937998  1
  Y3+  Y52  1  0.50260159  0.49968474  0.25805774  1
  Y3+  Y53  1  0.49854934  0.49972960  0.75525242  1
  Y3+  Y54  1  0.50074845  0.75161710  0.25700317  1
  Y3+  Y55  1  0.49637396  0.74984734  0.75764309  1
  Y3+  Y56  1  0.74929591  -0.00164574  0.25766438  1
  Y3+  Y57  1  0.74956809  0.00043559  0.75795953  1
  Y3+  Y58  1  0.74728519  0.24943128  0.26298754  1
  Y3+  Y59  1  0.74661957  0.24951640  0.75082161  1
  Y3+  Y60  1  0.74705643  0.49962484  0.25827975  1
  Y3+  Y61  1  0.74904868  0.49986255  0.75504754  1
  Y3+  Y62  1  0.74844986  0.75164890  0.25283328  1
  Y3+  Y63  1  0.75196376  0.75123761  0.76263829  1
  Fe3+  Fe64  1  0.37665803  0.87755884  0.87802724  1
  Fe3+  Fe65  1  0.12607234  0.62542389  0.38052156  1
  Fe3+  Fe66  1  0.87491541  0.37613392  0.37949055  1
  Fe3+  Fe67  1  0.37670661  0.12600020  0.87487843  1
  Fe3+  Fe68  1  0.37477562  0.62486263  0.37593025  1
  Fe3+  Fe69  1  0.12527496  0.37718191  0.38019159  1
  Fe3+  Fe70  1  0.87339749  0.37279126  0.87583105  1
  Fe3+  Fe71  1  0.12620397  0.12583970  0.87668301  1
  Fe3+  Fe72  1  0.87354085  0.12712905  0.87589630  1
  Fe3+  Fe73  1  0.87541384  0.12364826  0.37904683  1
  Fe3+  Fe74  1  0.37670280  0.37279937  0.87559981  1
  Fe3+  Fe75  1  0.87545912  0.62556581  0.37376540  1
  Fe3+  Fe76  1  0.37505615  0.37644758  0.37650858  1
  Fe3+  Fe77  1  0.37446776  0.12436525  0.37911171  1
  Fe3+  Fe78  1  0.62418437  0.62402986  0.88031200  1
  Fe3+  Fe79  1  0.87346838  0.62352257  0.88133010  1
  Fe3+  Fe80  1  0.12514187  0.87200085  0.37575641  1
  Fe3+  Fe81  1  0.62381096  0.12637961  0.87582033  1
  Fe3+  Fe82  1  0.62374251  0.87753149  0.87928087  1
  Fe3+  Fe83  1  0.62476898  0.37316362  0.87507158  1
  Fe3+  Fe84  1  0.12517907  0.62654878  0.63632858  1
  Fe3+  Fe85  1  0.12582706  0.87496615  0.13718618  1
  Fe3+  Fe86  1  0.37471368  0.62481980  0.13709580  1
  Fe3+  Fe87  1  0.87494443  0.12350661  0.63171627  1
  Fe3+  Fe88  1  0.87510424  0.62433151  0.13393367  1
  Fe3+  Fe89  1  0.87356080  0.87443562  0.63930560  1
  Fe3+  Fe90  1  0.37522784  0.12443818  0.63164822  1
  Fe3+  Fe91  1  0.12491461  0.37599884  0.63358478  1
  Fe3+  Fe92  1  0.12440250  0.12338197  0.63491964  1
  Fe3+  Fe93  1  0.62545849  0.62831452  0.63914783  1
  Fe3+  Fe94  1  0.87477420  0.37582807  0.63205265  1
  Fe3+  Fe95  1  0.62572745  0.87315560  0.63834702  1
  Cu2+  Cu96  1  0.37424458  0.87334333  0.37183242  1
  Cu2+  Cu97  1  0.62454088  0.37612821  0.37257548  1
  Cu2+  Cu98  1  0.12491543  0.62470648  0.87296779  1
  Cu2+  Cu99  1  0.87364444  0.87734663  0.87606071  1
  Cu2+  Cu100  1  0.12527217  0.12424876  0.36603084  1
  Cu2+  Cu101  1  0.87563918  0.87380023  0.35913035  1
  Cu2+  Cu102  1  0.62520513  0.87382765  0.35958944  1
  Cu2+  Cu103  1  0.37657831  0.62465402  0.86538621  1
  Cu2+  Cu104  1  0.62465111  0.62555229  0.35974751  1
  Cu2+  Cu105  1  0.12627540  0.87725466  0.86456776  1
  Cu2+  Cu106  1  0.12523251  0.37255201  0.87075976  1
  Cu2+  Cu107  1  0.62436082  0.12399439  0.37314463  1
  Cu2+  Cu108  1  0.12518162  0.62581136  0.14006035  1
  Cu2+  Cu109  1  0.87580390  0.87524949  0.14171175  1
  Cu2+  Cu110  1  0.62528978  0.37700232  0.63975418  1
  Cu2+  Cu111  1  0.62419720  0.87580355  0.15346971  1
  Cu2+  Cu112  1  0.12513102  0.12394469  0.15533659  1
  Cu2+  Cu113  1  0.87481245  0.37481113  0.15701791  1
  Cu2+  Cu114  1  0.37455791  0.87520211  0.15148943  1
  Cu2+  Cu115  1  0.12442647  0.87447568  0.65395335  1
  Cu2+  Cu116  1  0.62477093  0.62503241  0.14889131  1
  Cu2+  Cu117  1  0.37520973  0.37486065  0.15493078  1
  Cu2+  Cu118  1  0.87492207  0.12532932  0.15844981  1
  Cu2+  Cu119  1  0.37447838  0.37481478  0.64820677  1
  Cu2+  Cu120  1  0.62580182  0.12275550  0.63738798  1
  Cu2+  Cu121  1  0.62478454  0.12463275  0.15971279  1
  Cu2+  Cu122  1  0.37594655  0.87522439  0.64166706  1
  Cu2+  Cu123  1  0.62449307  0.37413093  0.15806512  1
  Cu2+  Cu124  1  0.37507508  0.62566621  0.65312269  1
  Cu2+  Cu125  1  0.87486298  0.62611968  0.65442413  1
  Cu2+  Cu126  1  0.12550584  0.37461294  0.14374831  1
  Cu2+  Cu127  1  0.37506239  0.12517356  0.15876885  1
  O2-  O128  1  0.12630946  0.12708021  -0.00346458  1
  O2-  O129  1  0.12325470  0.12307731  0.51499399  1
  O2-  O130  1  0.12539348  0.37169071  0.00623467  1
  O2-  O131  1  0.12487297  0.37858377  0.50635246  1
  O2-  O132  1  0.12502568  0.62447821  0.00636667  1
  O2-  O133  1  0.12535338  0.62596879  0.50685503  1
  O2-  O134  1  0.12622613  0.87775278  0.01701637  1
  O2-  O135  1  0.12446122  0.87011902  0.49599879  1
  O2-  O136  1  0.37694092  0.12664898  -0.00561721  1
  O2-  O137  1  0.37405205  0.12382343  0.50533713  1
  O2-  O138  1  0.37704745  0.37046106  -0.00469473  1
  O2-  O139  1  0.37444581  0.37744964  0.49650675  1
  O2-  O140  1  0.37568280  0.62435869  0.01709423  1
  O2-  O141  1  0.37481886  0.62539244  0.49599588  1
  O2-  O142  1  0.37736375  0.87998546  -0.00237483  1
  O2-  O143  1  0.37499142  0.87389778  0.50644809  1
  O2-  O144  1  0.62399702  0.12778939  -0.00472458  1
  O2-  O145  1  0.62538249  0.12245656  0.50539055  1
  O2-  O146  1  0.62499276  0.37097945  -0.00528411  1
  O2-  O147  1  0.62538390  0.37799159  0.50588586  1
  O2-  O148  1  0.62392743  0.62102180  0.00014915  1
  O2-  O149  1  0.62593549  0.62975556  0.51908498  1
  O2-  O150  1  0.62250022  0.88018436  -0.00085873  1
  O2-  O151  1  0.62730583  0.87035818  0.51832620  1
  O2-  O152  1  0.87336810  0.12921445  -0.00426669  1
  O2-  O153  1  0.87627421  0.12142731  0.50621238  1
  O2-  O154  1  0.87288713  0.37014838  -0.00488593  1
  O2-  O155  1  0.87518490  0.37864517  0.50526648  1
  O2-  O156  1  0.87378848  0.62203668  0.00705512  1
  O2-  O157  1  0.87522100  0.62723474  0.49363679  1
  O2-  O158  1  0.87434252  0.87792060  0.00856903  1
  O2-  O159  1  0.87372798  0.87296700  0.51938075  1
  O2-  O160  1  0.12569107  -0.00033503  0.16793701  1
  O2-  O161  1  0.12431446  -0.00023104  0.66333698  1
  O2-  O162  1  0.12466473  0.24776832  0.17008080  1
  O2-  O163  1  0.12355963  0.25153885  0.65736195  1
  O2-  O164  1  0.12478696  0.50001314  0.16560687  1
  O2-  O165  1  0.12464777  0.50064084  0.66193792  1
  O2-  O166  1  0.12500950  0.75181944  0.16531817  1
  O2-  O167  1  0.12438853  0.74853772  0.66568338  1
  O2-  O168  1  0.37449967  0.00046979  0.16854919  1
  O2-  O169  1  0.37361292  0.00297866  0.66053455  1
  O2-  O170  1  0.37469588  0.25018404  0.16912982  1
  O2-  O171  1  0.37432164  0.24834947  0.65631017  1
  O2-  O172  1  0.37512456  0.49951630  0.16434149  1
  O2-  O173  1  0.37357978  0.49997756  0.66449747  1
  O2-  O174  1  0.37561783  0.74988602  0.16396238  1
  O2-  O175  1  0.37393944  0.74953753  0.66880957  1
  O2-  O176  1  0.62497227  0.00047026  0.16779718  1
  O2-  O177  1  0.62649631  -0.00290402  0.66456901  1
  O2-  O178  1  0.62495053  0.24941408  0.17016021  1
  O2-  O179  1  0.62536750  0.25030593  0.65649245  1
  O2-  O180  1  0.62550556  0.49854036  0.16479036  1
  O2-  O181  1  0.62551860  0.50336107  0.66501754  1
  O2-  O182  1  0.62472428  0.75099946  0.16175876  1
  O2-  O183  1  0.62493618  0.75034265  0.67641943  1
  O2-  O184  1  0.87494865  0.00162851  0.16806324  1
  O2-  O185  1  0.87552709  0.00044638  0.66523561  1
  O2-  O186  1  0.87551519  0.25014153  0.17233155  1
  O2-  O187  1  0.87683268  0.25038573  0.65269549  1
  O2-  O188  1  0.87440417  0.50043111  0.16331961  1
  O2-  O189  1  0.87615305  0.49938405  0.66238232  1
  O2-  O190  1  0.87469227  0.74707635  0.16022023  1
  O2-  O191  1  0.87654197  0.75043796  0.67272768  1
  O2-  O192  1  -0.00015284  0.12530630  0.16742177  1
  O2-  O193  1  -0.00111553  0.12546418  0.66457043  1
  O2-  O194  1  -0.00085008  0.37426979  0.16928110  1
  O2-  O195  1  0.00030124  0.37643873  0.66039399  1
  O2-  O196  1  -0.00317681  0.62384065  0.16559441  1
  O2-  O197  1  0.00175225  0.62491885  0.66297296  1
  O2-  O198  1  0.00219530  0.87566697  0.16704560  1
  O2-  O199  1  -0.00101762  0.87435511  0.66795034  1
  O2-  O200  1  0.25056310  0.12537587  0.16719345  1
  O2-  O201  1  0.24978106  0.12612856  0.66170048  1
  O2-  O202  1  0.25115522  0.37385863  0.16773528  1
  O2-  O203  1  0.24731190  0.37503442  0.66125521  1
  O2-  O204  1  0.25214409  0.62485075  0.16811115  1
  O2-  O205  1  0.24844687  0.62528534  0.66319210  1
  O2-  O206  1  0.24975885  0.87587208  0.16696601  1
  O2-  O207  1  0.24865620  0.87481357  0.66364545  1
  O2-  O208  1  0.49985740  0.12498045  0.16829283  1
  O2-  O209  1  0.49762086  0.12451792  0.65848828  1
  O2-  O210  1  0.50017170  0.37448726  0.16563778  1
  O2-  O211  1  0.49866095  0.37634842  0.66090029  1
  O2-  O212  1  0.49950944  0.62457108  0.16681367  1
  O2-  O213  1  0.49957866  0.62543082  0.66454287  1
  O2-  O214  1  0.49947795  0.87593230  0.16689750  1
  O2-  O215  1  0.50174884  0.87481153  0.66374662  1
  O2-  O216  1  0.74970629  0.12554071  0.16792645  1
  O2-  O217  1  0.75402834  0.12558716  0.66138606  1
  O2-  O218  1  0.74951399  0.37400672  0.16774773  1
  O2-  O219  1  0.75360637  0.37594801  0.66052114  1
  O2-  O220  1  0.75109424  0.62391518  0.16361404  1
  O2-  O221  1  0.75039592  0.62589377  0.66867962  1
  O2-  O222  1  0.74862570  0.87564817  0.16462666  1
  O2-  O223  1  0.75056631  0.87370970  0.67141149  1
  O2-  O224  1  0.12408346  -0.00194298  0.35052473  1
  O2-  O225  1  0.12534874  0.00219343  0.84448513  1
  O2-  O226  1  0.12491349  0.25259220  0.35515855  1
  O2-  O227  1  0.12546105  0.24742040  0.83801960  1
  O2-  O228  1  0.12387802  0.50057139  0.34901739  1
  O2-  O229  1  0.12467367  0.49915434  0.84708533  1
  O2-  O230  1  0.12457225  0.74688713  0.34512684  1
  O2-  O231  1  0.12524143  0.75211336  0.85083221  1
  O2-  O232  1  0.37427520  0.00138746  0.35252445  1
  O2-  O233  1  0.37566382  0.00102186  0.84053401  1
  O2-  O234  1  0.37314748  0.24972857  0.35205201  1
  O2-  O235  1  0.37564002  0.24947275  0.83719991  1
  O2-  O236  1  0.37441425  0.50056664  0.34403509  1
  O2-  O237  1  0.37549860  0.49928450  0.84835622  1
  O2-  O238  1  0.37491462  0.74724932  0.34473801  1
  O2-  O239  1  0.37464066  0.75102502  0.85182212  1
  O2-  O240  1  0.62498334  -0.00230934  0.35143284  1
  O2-  O241  1  0.62404396  0.00164939  0.84323471  1
  O2-  O242  1  0.62534589  0.24975593  0.35288658  1
  O2-  O243  1  0.62467129  0.25007633  0.83674706  1
  O2-  O244  1  0.62538916  0.50165060  0.34835521  1
  O2-  O245  1  0.62522935  0.49909979  0.84521047  1
  O2-  O246  1  0.62596147  0.74996110  0.34600177  1
  O2-  O247  1  0.62600419  0.75024515  0.85531843  1
  O2-  O248  1  0.87653268  -0.00049139  0.35259461  1
  O2-  O249  1  0.87494356  0.00363416  0.84576187  1
  O2-  O250  1  0.87605247  0.25048138  0.35743942  1
  O2-  O251  1  0.87429569  0.24986833  0.83472495  1
  O2-  O252  1  0.87617412  0.49929905  0.34649224  1
  O2-  O253  1  0.87473995  0.49983299  0.84622667  1
  O2-  O254  1  0.87479513  0.74911459  0.34260394  1
  O2-  O255  1  0.87434702  0.74754500  0.85571145  1
  O2-  O256  1  -0.00156773  0.12521310  0.35132564  1
  O2-  O257  1  -0.00006478  0.12604565  0.84530889  1
  O2-  O258  1  0.00043009  0.37521942  0.35311052  1
  O2-  O259  1  -0.00276175  0.37449668  0.84306206  1
  O2-  O260  1  0.00197293  0.62431597  0.34824291  1
  O2-  O261  1  -0.00393229  0.62455933  0.84833703  1
  O2-  O262  1  0.00093751  0.87313052  0.34790784  1
  O2-  O263  1  0.00146356  0.87599448  0.85134310  1
  O2-  O264  1  0.25113930  0.12491054  0.35112210  1
  O2-  O265  1  0.25126221  0.12530660  0.84256351  1
  O2-  O266  1  0.24818466  0.37600818  0.34971977  1
  O2-  O267  1  0.25276257  0.37479436  0.84418918  1
  O2-  O268  1  0.24808635  0.62381509  0.34869062  1
  O2-  O269  1  0.25187905  0.62489566  0.84809215  1
  O2-  O270  1  0.24785655  0.87378598  0.34708103  1
  O2-  O271  1  0.25182674  0.87603132  0.84704894  1
  O2-  O272  1  0.49645568  0.12491624  0.35126590  1
  O2-  O273  1  0.50038329  0.12599914  0.83854828  1
  O2-  O274  1  0.49789447  0.37524730  0.34789835  1
  O2-  O275  1  0.50065641  0.37469335  0.84104943  1
  O2-  O276  1  0.50022236  0.62501800  0.34917839  1
  O2-  O277  1  0.50156711  0.62509583  0.84590689  1
  O2-  O278  1  0.50108710  0.87363137  0.35077436  1
  O2-  O279  1  0.50024082  0.87528736  0.84247357  1
  O2-  O280  1  0.75376435  0.12395873  0.35139245  1
  O2-  O281  1  0.74864897  0.12626147  0.84149455  1
  O2-  O282  1  0.75323804  0.37576657  0.35138360  1
  O2-  O283  1  0.74924253  0.37464192  0.84014191  1
  O2-  O284  1  0.74998313  0.62475139  0.34739104  1
  O2-  O285  1  0.75033858  0.62382129  0.84910105  1
  O2-  O286  1  0.75052144  0.87409282  0.34871299  1
  O2-  O287  1  0.74702210  0.87657709  0.84929562  1
