# generated using pymatgen
data_BaYFeCuO5
_symmetry_space_group_name_H-M   'P 1'
_cell_length_a   15.68037947
_cell_length_b   15.67300356
_cell_length_c   15.50142855
_cell_angle_alpha   89.99828425
_cell_angle_beta   89.99595229
_cell_angle_gamma   89.99673025
_symmetry_Int_Tables_number   1
_chemical_formula_structural   BaYFeCuO5
_chemical_formula_sum   'Ba32 Y32 Fe32 Cu32 O160'
_cell_volume   3809.61003214
_cell_formula_units_Z   32
loop_
 _symmetry_equiv_pos_site_id
 _symmetry_equiv_pos_as_xyz
  1  'x, y, z'
loop_
 _atom_type_symbol
 _atom_type_oxidation_number
  Ba2+  2.0
  Y3+  3.0
  Fe3+  3.0
  Cu2+  2.0
  O2-  -2.0
loop_
 _atom_site_type_symbol
 _atom_site_label
 _atom_site_symmetry_multiplicity
 _atom_site_fract_x
 _atom_site_fract_y
 _atom_site_fract_z
 _atom_site_occupancy
  Ba2+  Ba0  1  -0.00012361  -0.00969906  0.01707134  1
  Ba2+  Ba1  1  -0.00068215  0.00097900  0.50022794  1
  Ba2+  Ba2  1  0.00009552  0.25997955  0.01704160  1
  Ba2+  Ba3  1  0.00465284  0.24330825  0.51859482  1
  Ba2+  Ba4  1  0.00097934  0.50205529  0.01608880  1
  Ba2+  Ba5  1  0.00695754  0.50380970  0.52100937  1
  Ba2+  Ba6  1  0.00005368  0.74817340  0.01714213  1
  Ba2+  Ba7  1  0.00155484  0.75130462  0.50660977  1
  Ba2+  Ba8  1  0.25489569  -0.00498918  0.01198656  1
  Ba2+  Ba9  1  0.24896629  0.00022937  0.50760080  1
  Ba2+  Ba10  1  0.25629667  0.25706226  0.00579630  1
  Ba2+  Ba11  1  0.25074175  0.25161651  0.52353157  1
  Ba2+  Ba12  1  0.25479558  0.50146667  0.01449383  1
  Ba2+  Ba13  1  0.25136266  0.49829900  0.52209026  1
  Ba2+  Ba14  1  0.25229174  0.74614466  0.02054178  1
  Ba2+  Ba15  1  0.24937100  0.75019687  0.50587916  1
  Ba2+  Ba16  1  0.49943051  -0.00839264  0.00630595  1
  Ba2+  Ba17  1  0.49773598  -0.00568442  0.50649144  1
  Ba2+  Ba18  1  0.49461283  0.25790629  0.00601455  1
  Ba2+  Ba19  1  0.49104393  0.25501719  0.50656427  1
  Ba2+  Ba20  1  0.49621535  0.50208384  0.01656706  1
  Ba2+  Ba21  1  0.49161490  0.49443917  0.50622697  1
  Ba2+  Ba22  1  0.50050225  0.74763390  0.01798678  1
  Ba2+  Ba23  1  0.49737599  0.75580931  0.50634324  1
  Ba2+  Ba24  1  0.74679841  -0.01172449  0.01155911  1
  Ba2+  Ba25  1  0.75421673  -0.00364141  0.50140386  1
  Ba2+  Ba26  1  0.74853199  0.26042069  0.01871686  1
  Ba2+  Ba27  1  0.75311351  0.24629138  0.50274222  1
  Ba2+  Ba28  1  0.74819778  0.50227604  0.01920181  1
  Ba2+  Ba29  1  0.74949770  0.50029156  0.50711801  1
  Ba2+  Ba30  1  0.74615268  0.74988335  0.01189923  1
  Ba2+  Ba31  1  0.75080216  0.75727589  0.50694724  1
  Y3+  Y32  1  -0.00112813  -0.00226657  0.25858454  1
  Y3+  Y33  1  -0.00090529  0.00189392  0.75677072  1
  Y3+  Y34  1  -0.00049996  0.25058941  0.25747750  1
  Y3+  Y35  1  0.00075714  0.24815597  0.75573756  1
  Y3+  Y36  1  0.00230998  0.49920587  0.25466829  1
  Y3+  Y37  1  0.00077399  0.50268934  0.75576384  1
  Y3+  Y38  1  0.00135333  0.75253945  0.25739324  1
  Y3+  Y39  1  -0.00124458  0.74692700  0.75595633  1
  Y3+  Y40  1  0.25025259  -0.00404082  0.25658485  1
  Y3+  Y41  1  0.25211482  0.00293610  0.75912875  1
  Y3+  Y42  1  0.25203566  0.25389479  0.25421868  1
  Y3+  Y43  1  0.25320990  0.25059920  0.75886639  1
  Y3+  Y44  1  0.25228294  0.49952354  0.25292005  1
  Y3+  Y45  1  0.25345712  0.50013970  0.75833828  1
  Y3+  Y46  1  0.25077280  0.75066629  0.25546330  1
  Y3+  Y47  1  0.25189211  0.74596979  0.75685515  1
  Y3+  Y48  1  0.50127979  -0.00401663  0.25790882  1
  Y3+  Y49  1  0.50100206  -0.00067092  0.75849383  1
  Y3+  Y50  1  0.49892360  0.25438101  0.25853237  1
  Y3+  Y51  1  0.49569136  0.24997330  0.75787883  1
  Y3+  Y52  1  0.49800096  0.49840513  0.25695347  1
  Y3+  Y53  1  0.49480968  0.50054692  0.75771191  1
  Y3+  Y54  1  0.50028371  0.75158930  0.25717945  1
  Y3+  Y55  1  0.50080844  0.74981780  0.75770255  1
  Y3+  Y56  1  0.74968876  -0.00258094  0.25979729  1
  Y3+  Y57  1  0.74780056  -0.00160935  0.75624799  1
  Y3+  Y58  1  0.74948520  0.25067583  0.26073721  1
  Y3+  Y59  1  0.75074045  0.24752478  0.75484255  1
  Y3+  Y60  1  0.74746762  0.49827804  0.25928062  1
  Y3+  Y61  1  0.75115788  0.50332670  0.75457401  1
  Y3+  Y62  1  0.74748998  0.75363956  0.25850948  1
  Y3+  Y63  1  0.74872481  0.75050089  0.75584685  1
  Fe3+  Fe64  1  0.12536329  0.62522202  0.87697258  1
  Fe3+  Fe65  1  0.87417684  0.12507747  0.88213579  1
  Fe3+  Fe66  1  0.62394570  0.62479732  0.37927781  1
  Fe3+  Fe67  1  0.87441683  0.37654604  0.87462787  1
  Fe3+  Fe68  1  0.12480572  0.37599003  0.87550352  1
  Fe3+  Fe69  1  0.62505292  0.12555131  0.88135190  1
  Fe3+  Fe70  1  0.87757896  0.37556310  0.37960793  1
  Fe3+  Fe71  1  0.12659359  0.12609926  0.37328648  1
  Fe3+  Fe72  1  0.62536647  0.37655733  0.87475495  1
  Fe3+  Fe73  1  0.12523468  0.87377596  0.87788851  1
  Fe3+  Fe74  1  0.12667239  0.37527259  0.37665519  1
  Fe3+  Fe75  1  0.12593005  0.62416714  0.37495426  1
  Fe3+  Fe76  1  0.87521406  0.87335294  0.87741116  1
  Fe3+  Fe77  1  0.62348184  0.12521230  0.37920972  1
  Fe3+  Fe78  1  0.62465157  0.62441789  0.87568852  1
  Fe3+  Fe79  1  0.12481950  0.12503032  0.88146255  1
  Fe3+  Fe80  1  0.37385141  0.62471778  0.37653487  1
  Fe3+  Fe81  1  0.87596084  0.62471888  0.37815572  1
  Fe3+  Fe82  1  0.37499723  0.87289120  0.87711045  1
  Fe3+  Fe83  1  0.37340928  0.12530175  0.37605535  1
  Fe3+  Fe84  1  0.87544462  0.87557062  0.63866751  1
  Fe3+  Fe85  1  0.62414207  0.12520419  0.13560687  1
  Fe3+  Fe86  1  0.62383614  0.12450385  0.63455522  1
  Fe3+  Fe87  1  0.37454080  0.87509865  0.63891890  1
  Fe3+  Fe88  1  0.62425129  0.37434765  0.63509885  1
  Fe3+  Fe89  1  0.87378666  0.12475470  0.13500497  1
  Fe3+  Fe90  1  0.87396546  0.62577685  0.14054736  1
  Fe3+  Fe91  1  0.62351598  0.62542767  0.63297735  1
  Fe3+  Fe92  1  0.87556241  0.37461721  0.63407262  1
  Fe3+  Fe93  1  0.12535442  0.87547398  0.63873300  1
  Fe3+  Fe94  1  0.12574889  0.12531325  0.13358671  1
  Fe3+  Fe95  1  0.37666332  0.12467900  0.13611005  1
  Cu2+  Cu96  1  0.62426619  0.37519162  0.36867331  1
  Cu2+  Cu97  1  0.12542922  0.87462573  0.36176234  1
  Cu2+  Cu98  1  0.87632713  0.12538819  0.37244140  1
  Cu2+  Cu99  1  0.62497647  0.87377358  0.87207471  1
  Cu2+  Cu100  1  0.87551918  0.87398112  0.36239196  1
  Cu2+  Cu101  1  0.37428234  0.87466176  0.36223282  1
  Cu2+  Cu102  1  0.37533077  0.62561545  0.87304995  1
  Cu2+  Cu103  1  0.37570152  0.12439397  0.86877457  1
  Cu2+  Cu104  1  0.37230988  0.37546172  0.37043426  1
  Cu2+  Cu105  1  0.87471236  0.62491092  0.86277397  1
  Cu2+  Cu106  1  0.62440030  0.87481330  0.37431030  1
  Cu2+  Cu107  1  0.37531920  0.37629056  0.87137671  1
  Cu2+  Cu108  1  0.12495844  0.62512088  0.15089811  1
  Cu2+  Cu109  1  0.12568782  0.37476068  0.14861046  1
  Cu2+  Cu110  1  0.62474239  0.87505921  0.14319034  1
  Cu2+  Cu111  1  0.12626154  0.62613858  0.65127400  1
  Cu2+  Cu112  1  0.87433050  0.62593629  0.64496283  1
  Cu2+  Cu113  1  0.87425902  0.87477005  0.15324515  1
  Cu2+  Cu114  1  0.87454762  0.37532127  0.15534943  1
  Cu2+  Cu115  1  0.12605456  0.12366158  0.65539183  1
  Cu2+  Cu116  1  0.62442489  0.37476344  0.15456190  1
  Cu2+  Cu117  1  0.12527197  0.87548140  0.15098850  1
  Cu2+  Cu118  1  0.62434907  0.87548308  0.64119178  1
  Cu2+  Cu119  1  0.37565222  0.37493243  0.14227950  1
  Cu2+  Cu120  1  0.87426931  0.12305990  0.64064930  1
  Cu2+  Cu121  1  0.37568466  0.87522271  0.15218991  1
  Cu2+  Cu122  1  0.37584997  0.12395978  0.65171180  1
  Cu2+  Cu123  1  0.37523415  0.37492361  0.64413675  1
  Cu2+  Cu124  1  0.62505646  0.62475050  0.15638534  1
  Cu2+  Cu125  1  0.37594844  0.62584509  0.64790773  1
  Cu2+  Cu126  1  0.37598616  0.62540822  0.14341435  1
  Cu2+  Cu127  1  0.12525613  0.37477532  0.65320745  1
  O2-  O128  1  0.12396423  0.12506969  0.00681270  1
  O2-  O129  1  0.12687150  0.12586026  0.49350449  1
  O2-  O130  1  0.12291434  0.37629551  -0.00437637  1
  O2-  O131  1  0.12526847  0.37384416  0.49640480  1
  O2-  O132  1  0.12384596  0.62538273  -0.00304781  1
  O2-  O133  1  0.12588362  0.62449486  0.49507585  1
  O2-  O134  1  0.12473359  0.87365474  -0.00211189  1
  O2-  O135  1  0.12461383  0.87687759  0.51856663  1
  O2-  O136  1  0.37791369  0.12460628  0.01594823  1
  O2-  O137  1  0.37144995  0.12520790  0.49610162  1
  O2-  O138  1  0.37581825  0.37612301  0.00697994  1
  O2-  O139  1  0.37213849  0.37454730  0.50863229  1
  O2-  O140  1  0.37578844  0.62601832  0.00829319  1
  O2-  O141  1  0.37259636  0.62457445  0.49687273  1
  O2-  O142  1  0.37505373  0.87252737  -0.00206390  1
  O2-  O143  1  0.37254309  0.87633858  0.51807297  1
  O2-  O144  1  0.62582861  0.12621291  0.00838777  1
  O2-  O145  1  0.62391903  0.12491409  0.50727550  1
  O2-  O146  1  0.62708856  0.37770743  -0.00504704  1
  O2-  O147  1  0.62431523  0.37259588  0.51500698  1
  O2-  O148  1  0.62599859  0.62317069  -0.00413922  1
  O2-  O149  1  0.62381129  0.62527267  0.50593216  1
  O2-  O150  1  0.62488043  0.87338235  0.00760488  1
  O2-  O151  1  0.62473614  0.87603386  0.50688426  1
  O2-  O152  1  0.87277543  0.12615613  0.00755637  1
  O2-  O153  1  0.87640803  0.12483206  0.50657541  1
  O2-  O154  1  0.87343442  0.37708075  -0.00528785  1
  O2-  O155  1  0.87799729  0.37437468  0.50592845  1
  O2-  O156  1  0.87340666  0.62493186  0.01995957  1
  O2-  O157  1  0.87753903  0.62363113  0.49804015  1
  O2-  O158  1  0.87494074  0.87239726  -0.00197005  1
  O2-  O159  1  0.87763272  0.87651208  0.51782591  1
  O2-  O160  1  0.12470251  0.00259894  0.16323303  1
  O2-  O161  1  0.12549342  -0.00062673  0.67062898  1
  O2-  O162  1  0.12372067  0.24779481  0.16128472  1
  O2-  O163  1  0.12465571  0.24857923  0.66611625  1
  O2-  O164  1  0.12471599  0.49943529  0.16220855  1
  O2-  O165  1  0.12508624  0.50105905  0.66173630  1
  O2-  O166  1  0.12417220  0.75073589  0.16542043  1
  O2-  O167  1  0.12518687  0.75061124  0.66406537  1
  O2-  O168  1  0.37526253  0.00044765  0.16584719  1
  O2-  O169  1  0.37526010  -0.00036012  0.66861266  1
  O2-  O170  1  0.37627236  0.24821302  0.16538488  1
  O2-  O171  1  0.37512793  0.24807182  0.66658805  1
  O2-  O172  1  0.37554174  0.49983451  0.16436586  1
  O2-  O173  1  0.37483581  0.50165516  0.66444411  1
  O2-  O174  1  0.37598288  0.75176332  0.16631727  1
  O2-  O175  1  0.37543019  0.75048133  0.66392958  1
  O2-  O176  1  0.62636671  0.00328494  0.16461710  1
  O2-  O177  1  0.62448804  0.00262106  0.66758068  1
  O2-  O178  1  0.62544176  0.24840191  0.16444581  1
  O2-  O179  1  0.62521962  0.24895737  0.66670271  1
  O2-  O180  1  0.62613032  0.49912517  0.16668275  1
  O2-  O181  1  0.62658194  0.50052558  0.65937888  1
  O2-  O182  1  0.62510031  0.74923085  0.16688997  1
  O2-  O183  1  0.62437728  0.74751021  0.66137031  1
  O2-  O184  1  0.87373477  0.00190033  0.16298011  1
  O2-  O185  1  0.87451845  -0.00213149  0.67182419  1
  O2-  O186  1  0.87486924  0.24877049  0.16344820  1
  O2-  O187  1  0.87567589  0.25245970  0.66430481  1
  O2-  O188  1  0.87378277  0.50002717  0.16776104  1
  O2-  O189  1  0.87466218  0.49838560  0.65979963  1
  O2-  O190  1  0.87494725  0.74998576  0.16813317  1
  O2-  O191  1  0.87513471  0.75096073  0.66466891  1
  O2-  O192  1  -0.00112281  0.12499379  0.15787893  1
  O2-  O193  1  0.00164915  0.12451580  0.66753232  1
  O2-  O194  1  0.00007308  0.37484109  0.16246694  1
  O2-  O195  1  -0.00076984  0.37467718  0.66136372  1
  O2-  O196  1  -0.00029354  0.62462354  0.16470339  1
  O2-  O197  1  0.00053526  0.62503344  0.66349923  1
  O2-  O198  1  -0.00037246  0.87624144  0.16364226  1
  O2-  O199  1  0.00054643  0.87528610  0.66921959  1
  O2-  O200  1  0.24951922  0.12503118  0.15876971  1
  O2-  O201  1  0.25055387  0.12476605  0.66726122  1
  O2-  O202  1  0.24914352  0.37415838  0.16138621  1
  O2-  O203  1  0.24871870  0.37419452  0.66662746  1
  O2-  O204  1  0.24842921  0.62592348  0.16231464  1
  O2-  O205  1  0.25082413  0.62523949  0.66446238  1
  O2-  O206  1  0.25025114  0.87530395  0.16317427  1
  O2-  O207  1  0.25012629  0.87557016  0.66896091  1
  O2-  O208  1  0.50164964  0.12459014  0.16769416  1
  O2-  O209  1  0.50166708  0.12515548  0.66466047  1
  O2-  O210  1  0.50133618  0.37495616  0.16715777  1
  O2-  O211  1  0.50180113  0.37460981  0.66616140  1
  O2-  O212  1  0.50218283  0.62480998  0.16792739  1
  O2-  O213  1  0.50158735  0.62418227  0.66327105  1
  O2-  O214  1  0.49949328  0.87566919  0.16675917  1
  O2-  O215  1  0.49816542  0.87572284  0.66579295  1
  O2-  O216  1  0.75009143  0.12671440  0.16464028  1
  O2-  O217  1  0.74645229  0.12534910  0.66491778  1
  O2-  O218  1  0.74932087  0.37385860  0.16848518  1
  O2-  O219  1  0.75107125  0.37377242  0.66031335  1
  O2-  O220  1  0.74980401  0.62472684  0.17067602  1
  O2-  O221  1  0.74757428  0.62533428  0.66145087  1
  O2-  O222  1  0.75053458  0.87532670  0.16774044  1
  O2-  O223  1  0.75103416  0.87509023  0.66517219  1
  O2-  O224  1  0.12472428  -0.00048601  0.34698693  1
  O2-  O225  1  0.12390368  0.00152920  0.85171610  1
  O2-  O226  1  0.12526080  0.25084607  0.34161052  1
  O2-  O227  1  0.12409985  0.24841054  0.84970188  1
  O2-  O228  1  0.12454395  0.49992617  0.34350260  1
  O2-  O229  1  0.12398253  0.50018895  0.84388748  1
  O2-  O230  1  0.12507766  0.74991380  0.34919909  1
  O2-  O231  1  0.12444681  0.74992625  0.84399692  1
  O2-  O232  1  0.37522345  0.00004283  0.34782055  1
  O2-  O233  1  0.37554235  -0.00113514  0.85052284  1
  O2-  O234  1  0.37443303  0.24884619  0.34584132  1
  O2-  O235  1  0.37528896  0.24900596  0.85062203  1
  O2-  O236  1  0.37500274  0.50172511  0.34622137  1
  O2-  O237  1  0.37503807  0.50034391  0.84783018  1
  O2-  O238  1  0.37445391  0.74969790  0.34941348  1
  O2-  O239  1  0.37489921  0.75145341  0.84445933  1
  O2-  O240  1  0.62440853  0.00273416  0.34875858  1
  O2-  O241  1  0.62561406  0.00299460  0.85246579  1
  O2-  O242  1  0.62525306  0.24878959  0.34927900  1
  O2-  O243  1  0.62672945  0.24891457  0.84909760  1
  O2-  O244  1  0.62449034  0.50151459  0.35133871  1
  O2-  O245  1  0.62578978  0.50004675  0.83979843  1
  O2-  O246  1  0.62565546  0.74687972  0.35064235  1
  O2-  O247  1  0.62607663  0.74810636  0.84398013  1
  O2-  O248  1  0.87539819  -0.00192931  0.34766506  1
  O2-  O249  1  0.87529179  0.00173783  0.85302549  1
  O2-  O250  1  0.87496776  0.25372100  0.34768511  1
  O2-  O251  1  0.87439395  0.24851312  0.84758497  1
  O2-  O252  1  0.87566067  0.49872723  0.34914650  1
  O2-  O253  1  0.87515433  0.49960553  0.84263829  1
  O2-  O254  1  0.87457965  0.74905372  0.35019469  1
  O2-  O255  1  0.87488262  0.75006207  0.84626574  1
  O2-  O256  1  0.00304994  0.12499303  0.34147535  1
  O2-  O257  1  -0.00098093  0.12572186  0.85152941  1
  O2-  O258  1  0.00010671  0.37469238  0.34531659  1
  O2-  O259  1  -0.00043912  0.37407671  0.84290880  1
  O2-  O260  1  0.00036138  0.62530339  0.34460842  1
  O2-  O261  1  0.00015125  0.62467031  0.84693849  1
  O2-  O262  1  0.00010451  0.87504900  0.34858515  1
  O2-  O263  1  -0.00001345  0.87559959  0.84745087  1
  O2-  O264  1  0.24982994  0.12390949  0.33919702  1
  O2-  O265  1  0.24812737  0.12488586  0.85279588  1
  O2-  O266  1  0.24825632  0.37554505  0.34247377  1
  O2-  O267  1  0.24824610  0.37422203  0.84863132  1
  O2-  O268  1  0.24975854  0.62569786  0.34299298  1
  O2-  O269  1  0.24845891  0.62479085  0.84737831  1
  O2-  O270  1  0.25001900  0.87519203  0.34788946  1
  O2-  O271  1  0.24934829  0.87614736  0.84754931  1
  O2-  O272  1  0.50017042  0.12570531  0.35039949  1
  O2-  O273  1  0.50262407  0.12554101  0.84990782  1
  O2-  O274  1  0.49922709  0.37466553  0.35138700  1
  O2-  O275  1  0.50194492  0.37408772  0.84675851  1
  O2-  O276  1  0.50025756  0.62534649  0.35072568  1
  O2-  O277  1  0.50147358  0.62498799  0.84567460  1
  O2-  O278  1  0.49834238  0.87479780  0.35031485  1
  O2-  O279  1  0.49882838  0.87535917  0.84699651  1
  O2-  O280  1  0.74681017  0.12547326  0.35055685  1
  O2-  O281  1  0.75073366  0.12501399  0.84909089  1
  O2-  O282  1  0.75229097  0.37518215  0.35392743  1
  O2-  O283  1  0.75034077  0.37470604  0.84004372  1
  O2-  O284  1  0.74931033  0.62316377  0.35297914  1
  O2-  O285  1  0.74986174  0.62456470  0.84470163  1
  O2-  O286  1  0.75115799  0.87578869  0.35110699  1
  O2-  O287  1  0.75223196  0.87566718  0.84666862  1
