# generated using pymatgen
data_BaYFeCuO5
_symmetry_space_group_name_H-M   'P 1'
_cell_length_a   15.66546711
_cell_length_b   15.66350635
_cell_length_c   15.46987239
_cell_angle_alpha   90.00732058
_cell_angle_beta   90.00307834
_cell_angle_gamma   90.00698711
_symmetry_Int_Tables_number   1
_chemical_formula_structural   BaYFeCuO5
_chemical_formula_sum   'Ba32 Y32 Fe32 Cu32 O160'
_cell_volume   3795.93756309
_cell_formula_units_Z   32
loop_
 _symmetry_equiv_pos_site_id
 _symmetry_equiv_pos_as_xyz
  1  'x, y, z'
loop_
 _atom_type_symbol
 _atom_type_oxidation_number
  Ba2+  2.0
  Y3+  3.0
  Fe3+  3.0
  Cu2+  2.0
  O2-  -2.0
loop_
 _atom_site_type_symbol
 _atom_site_label
 _atom_site_symmetry_multiplicity
 _atom_site_fract_x
 _atom_site_fract_y
 _atom_site_fract_z
 _atom_site_occupancy
  Ba2+  Ba0  1  0.00375985  -0.00819271  0.00993340  1
  Ba2+  Ba1  1  0.00022697  0.00062235  0.52223676  1
  Ba2+  Ba2  1  0.00493439  0.24399318  0.01170236  1
  Ba2+  Ba3  1  0.00287166  0.24192017  0.50632844  1
  Ba2+  Ba4  1  -0.00542033  0.50577546  0.01223245  1
  Ba2+  Ba5  1  0.00582037  0.50671760  0.49606166  1
  Ba2+  Ba6  1  -0.00455439  0.75907712  0.01089800  1
  Ba2+  Ba7  1  0.00312831  0.74919664  0.51257637  1
  Ba2+  Ba8  1  0.25096546  0.00134009  0.01568953  1
  Ba2+  Ba9  1  0.25010930  -0.00131186  0.52084676  1
  Ba2+  Ba10  1  0.25990165  0.24431737  0.01025303  1
  Ba2+  Ba11  1  0.24918065  0.24850008  0.51876364  1
  Ba2+  Ba12  1  0.25816114  0.49330294  0.00722791  1
  Ba2+  Ba13  1  0.24310948  0.49847926  0.50613166  1
  Ba2+  Ba14  1  0.24873051  0.76165171  0.01152117  1
  Ba2+  Ba15  1  0.24503996  0.75489053  0.51216294  1
  Ba2+  Ba16  1  0.49841874  0.00232825  0.02168751  1
  Ba2+  Ba17  1  0.49321694  -0.00564151  0.51316597  1
  Ba2+  Ba18  1  0.49436016  0.24843418  0.00662479  1
  Ba2+  Ba19  1  0.49697366  0.25500723  0.51665108  1
  Ba2+  Ba20  1  0.50313796  0.49317974  -0.00471227  1
  Ba2+  Ba21  1  0.50449282  0.49451363  0.51575297  1
  Ba2+  Ba22  1  0.50588855  0.75531834  0.01183899  1
  Ba2+  Ba23  1  0.50122215  0.75602706  0.51596197  1
  Ba2+  Ba24  1  0.74715035  -0.00676800  0.01720238  1
  Ba2+  Ba25  1  0.75652308  -0.00230045  0.51528528  1
  Ba2+  Ba26  1  0.73843301  0.24838224  0.00683235  1
  Ba2+  Ba27  1  0.75044561  0.24945374  0.50596899  1
  Ba2+  Ba28  1  0.74355763  0.50557586  0.00016995  1
  Ba2+  Ba29  1  0.74403354  0.50199976  0.50726330  1
  Ba2+  Ba30  1  0.75210943  0.75391950  0.01225582  1
  Ba2+  Ba31  1  0.75107345  0.75089950  0.51704049  1
  Y3+  Y32  1  0.00028920  -0.00068499  0.25355837  1
  Y3+  Y33  1  -0.00032929  -0.00262298  0.75899419  1
  Y3+  Y34  1  0.00037911  0.24812515  0.25878397  1
  Y3+  Y35  1  -0.00078410  0.24644914  0.75660947  1
  Y3+  Y36  1  0.00054535  0.50350340  0.25927421  1
  Y3+  Y37  1  0.00101412  0.50201095  0.75824512  1
  Y3+  Y38  1  -0.00040413  0.75024953  0.25553690  1
  Y3+  Y39  1  0.00116461  0.75348736  0.75899628  1
  Y3+  Y40  1  0.25138693  -0.00097157  0.25344714  1
  Y3+  Y41  1  0.25023032  -0.00036379  0.75778239  1
  Y3+  Y42  1  0.25170571  0.24873724  0.25300525  1
  Y3+  Y43  1  0.25418809  0.24847647  0.76018671  1
  Y3+  Y44  1  0.24959383  0.50020086  0.25774111  1
  Y3+  Y45  1  0.25152052  0.49948360  0.75780821  1
  Y3+  Y46  1  0.24959488  0.75286895  0.25833362  1
  Y3+  Y47  1  0.24797405  0.75208586  0.75567278  1
  Y3+  Y48  1  0.49795273  -0.00024057  0.25717383  1
  Y3+  Y49  1  0.49687067  -0.00002022  0.75312758  1
  Y3+  Y50  1  0.49932714  0.24960265  0.25612439  1
  Y3+  Y51  1  0.49765798  0.25149251  0.75814692  1
  Y3+  Y52  1  0.49958199  0.49780059  0.25940067  1
  Y3+  Y53  1  0.50165157  0.49747779  0.75633338  1
  Y3+  Y54  1  0.49796604  0.75308426  0.25896614  1
  Y3+  Y55  1  0.50114710  0.75030907  0.75412478  1
  Y3+  Y56  1  0.75098080  0.00017906  0.25720629  1
  Y3+  Y57  1  0.75301537  -0.00188753  0.75478282  1
  Y3+  Y58  1  0.74913238  0.24912846  0.26190576  1
  Y3+  Y59  1  0.74863082  0.24940815  0.75368151  1
  Y3+  Y60  1  0.75063652  0.50116051  0.26109506  1
  Y3+  Y61  1  0.74580965  0.49983159  0.75564572  1
  Y3+  Y62  1  0.75293807  0.75053234  0.25560013  1
  Y3+  Y63  1  0.74937420  0.75138178  0.75750848  1
  Fe3+  Fe64  1  0.87639871  0.87529913  0.37629657  1
  Fe3+  Fe65  1  0.37380802  0.12460580  0.37754686  1
  Fe3+  Fe66  1  0.87409477  0.62623619  0.87734246  1
  Fe3+  Fe67  1  0.62423086  0.62655128  0.37841800  1
  Fe3+  Fe68  1  0.12479057  0.37440567  0.88137882  1
  Fe3+  Fe69  1  0.37619655  0.62658109  0.87931493  1
  Fe3+  Fe70  1  0.87363263  0.12376726  0.88001379  1
  Fe3+  Fe71  1  0.62409444  0.12431461  0.37997561  1
  Fe3+  Fe72  1  0.37451230  0.62617235  0.38069861  1
  Fe3+  Fe73  1  0.62554361  0.87542043  0.37669251  1
  Fe3+  Fe74  1  0.12574835  0.62591400  0.88142034  1
  Fe3+  Fe75  1  0.37378440  0.37413306  0.37725730  1
  Fe3+  Fe76  1  0.12633052  0.12350590  0.37480097  1
  Fe3+  Fe77  1  0.12484346  0.87671187  0.37560571  1
  Fe3+  Fe78  1  0.87636578  0.37525691  0.37996633  1
  Fe3+  Fe79  1  0.37580475  0.87594705  0.87602453  1
  Fe3+  Fe80  1  0.87417174  0.37415107  0.88107608  1
  Fe3+  Fe81  1  0.62381774  0.12290892  0.87439862  1
  Fe3+  Fe82  1  0.12591800  0.12388822  0.87742868  1
  Fe3+  Fe83  1  0.62450766  0.87633323  0.87364448  1
  Fe3+  Fe84  1  0.37410227  0.62431980  0.63548718  1
  Fe3+  Fe85  1  0.12521914  0.37484305  0.13506104  1
  Fe3+  Fe86  1  0.37646326  0.62497562  0.13415481  1
  Fe3+  Fe87  1  0.87357400  0.37527289  0.13555814  1
  Fe3+  Fe88  1  0.62499046  0.37542025  0.13966745  1
  Fe3+  Fe89  1  0.62450228  0.62484068  0.13834610  1
  Fe3+  Fe90  1  0.12372958  0.37481390  0.64031382  1
  Fe3+  Fe91  1  0.12571633  0.62575967  0.13439345  1
  Fe3+  Fe92  1  0.62421317  0.12400234  0.63411333  1
  Fe3+  Fe93  1  0.87614199  0.37556352  0.63544789  1
  Fe3+  Fe94  1  0.87582183  0.62427502  0.63824647  1
  Fe3+  Fe95  1  0.87407004  0.12564007  0.13467295  1
  Cu2+  Cu96  1  0.62575825  0.37358139  0.86052662  1
  Cu2+  Cu97  1  0.37388829  0.87580931  0.37307149  1
  Cu2+  Cu98  1  0.12569755  0.37369643  0.36018918  1
  Cu2+  Cu99  1  0.62427672  0.62610608  0.86191466  1
  Cu2+  Cu100  1  0.62410831  0.37450913  0.37497860  1
  Cu2+  Cu101  1  0.87606528  0.12299120  0.37281233  1
  Cu2+  Cu102  1  0.37512657  0.37452469  0.87186230  1
  Cu2+  Cu103  1  0.12645069  0.62737639  0.37101268  1
  Cu2+  Cu104  1  0.87390133  0.87543195  0.87206215  1
  Cu2+  Cu105  1  0.12581918  0.87537121  0.87169596  1
  Cu2+  Cu106  1  0.37616989  0.12300843  0.87058806  1
  Cu2+  Cu107  1  0.87500577  0.62679463  0.36594039  1
  Cu2+  Cu108  1  0.62476959  0.62528785  0.64987467  1
  Cu2+  Cu109  1  0.37550439  0.87403449  0.14995632  1
  Cu2+  Cu110  1  0.87580463  0.87384182  0.65140789  1
  Cu2+  Cu111  1  0.87511925  0.12535098  0.64122523  1
  Cu2+  Cu112  1  0.37380359  0.87385506  0.64177962  1
  Cu2+  Cu113  1  0.62502855  0.87493884  0.15412584  1
  Cu2+  Cu114  1  0.62555951  0.37374423  0.64236164  1
  Cu2+  Cu115  1  0.12451720  0.87539646  0.65233588  1
  Cu2+  Cu116  1  0.87439665  0.62432260  0.14967733  1
  Cu2+  Cu117  1  0.12486128  0.62438543  0.64394264  1
  Cu2+  Cu118  1  0.87492893  0.87538909  0.14224559  1
  Cu2+  Cu119  1  0.12554395  0.12496662  0.65525945  1
  Cu2+  Cu120  1  0.62534456  0.12543778  0.15351420  1
  Cu2+  Cu121  1  0.37636577  0.37608378  0.14221550  1
  Cu2+  Cu122  1  0.37589845  0.12512091  0.14209320  1
  Cu2+  Cu123  1  0.37489735  0.12509167  0.64858957  1
  Cu2+  Cu124  1  0.12486247  0.12522419  0.14760342  1
  Cu2+  Cu125  1  0.37384926  0.37552693  0.65212514  1
  Cu2+  Cu126  1  0.62540277  0.87571023  0.64861096  1
  Cu2+  Cu127  1  0.12502567  0.87497993  0.14181896  1
  O2-  O128  1  0.12524708  0.12484722  -0.00213224  1
  O2-  O129  1  0.12643851  0.12364274  0.49532714  1
  O2-  O130  1  0.12499479  0.37468347  0.00795185  1
  O2-  O131  1  0.12235813  0.37515758  0.51997298  1
  O2-  O132  1  0.12563261  0.62530251  0.00766394  1
  O2-  O133  1  0.12563889  0.62529740  0.50789572  1
  O2-  O134  1  0.12589482  0.87470753  0.00651938  1
  O2-  O135  1  0.12330134  0.87715469  0.49637401  1
  O2-  O136  1  0.37735024  0.12333513  0.00672697  1
  O2-  O137  1  0.37257247  0.12622462  0.49796616  1
  O2-  O138  1  0.37677747  0.37539665  0.00663102  1
  O2-  O139  1  0.37186258  0.37457746  0.49761505  1
  O2-  O140  1  0.37761219  0.62611045  0.00696019  1
  O2-  O141  1  0.37345399  0.62441235  0.50731410  1
  O2-  O142  1  0.37808976  0.87532613  -0.00346317  1
  O2-  O143  1  0.37317418  0.87419467  0.50690513  1
  O2-  O144  1  0.62444199  0.12252028  -0.00520470  1
  O2-  O145  1  0.62446455  0.12458685  0.50625451  1
  O2-  O146  1  0.62643679  0.37605663  0.01911968  1
  O2-  O147  1  0.62533824  0.37441023  0.50822477  1
  O2-  O148  1  0.62287900  0.62366104  0.01799162  1
  O2-  O149  1  0.62422297  0.62708770  0.49871490  1
  O2-  O150  1  0.62398040  0.87686106  -0.00591109  1
  O2-  O151  1  0.62706836  0.87474306  0.49684469  1
  O2-  O152  1  0.87270999  0.12584651  0.00663735  1
  O2-  O153  1  0.87640344  0.12489834  0.50721153  1
  O2-  O154  1  0.87200607  0.37443113  0.00846200  1
  O2-  O155  1  0.87832865  0.37585956  0.50864945  1
  O2-  O156  1  0.87280589  0.62522204  -0.00191671  1
  O2-  O157  1  0.87645802  0.62389057  0.51771457  1
  O2-  O158  1  0.87253695  0.87579915  0.00665589  1
  O2-  O159  1  0.87719654  0.87476979  0.49684382  1
  O2-  O160  1  0.12466106  0.00146450  0.16122650  1
  O2-  O161  1  0.12471891  0.00028838  0.66318820  1
  O2-  O162  1  0.12402498  0.25208550  0.16257545  1
  O2-  O163  1  0.12456579  0.25018481  0.66829367  1
  O2-  O164  1  0.12404331  0.50034583  0.16313778  1
  O2-  O165  1  0.12491241  0.49755371  0.67319808  1
  O2-  O166  1  0.12573376  0.74666543  0.16348220  1
  O2-  O167  1  0.12487949  0.75165979  0.66539467  1
  O2-  O168  1  0.37586800  -0.00188102  0.16357858  1
  O2-  O169  1  0.37403224  0.00041519  0.66192704  1
  O2-  O170  1  0.37563442  0.25082860  0.16346320  1
  O2-  O171  1  0.37454258  0.25036944  0.66574176  1
  O2-  O172  1  0.37533112  0.50357957  0.16584993  1
  O2-  O173  1  0.37489142  0.50157314  0.66637138  1
  O2-  O174  1  0.37478207  0.74778342  0.16352547  1
  O2-  O175  1  0.37444381  0.74674192  0.66401631  1
  O2-  O176  1  0.62547590  0.00005094  0.16408356  1
  O2-  O177  1  0.62490599  0.00096557  0.65840442  1
  O2-  O178  1  0.62657241  0.25092703  0.16767939  1
  O2-  O179  1  0.62476389  0.24644307  0.66374218  1
  O2-  O180  1  0.62549096  0.50018496  0.17135835  1
  O2-  O181  1  0.62480521  0.50025129  0.66607233  1
  O2-  O182  1  0.62533654  0.74959206  0.16372061  1
  O2-  O183  1  0.62531890  0.75103467  0.66341388  1
  O2-  O184  1  0.87417838  0.00371769  0.16144836  1
  O2-  O185  1  0.87579180  -0.00219571  0.66437869  1
  O2-  O186  1  0.87486302  0.25088640  0.16404599  1
  O2-  O187  1  0.87538805  0.25312866  0.66636112  1
  O2-  O188  1  0.87555518  0.49729660  0.16631893  1
  O2-  O189  1  0.87539736  0.49859309  0.66901384  1
  O2-  O190  1  0.87481704  0.74873783  0.16328728  1
  O2-  O191  1  0.87514729  0.74940281  0.66519600  1
  O2-  O192  1  -0.00213838  0.12707749  0.16072521  1
  O2-  O193  1  0.00140064  0.12523817  0.66825935  1
  O2-  O194  1  -0.00050730  0.37501863  0.15982364  1
  O2-  O195  1  -0.00142260  0.37476756  0.67303081  1
  O2-  O196  1  0.00140699  0.62383303  0.16129537  1
  O2-  O197  1  -0.00166888  0.62457804  0.67131379  1
  O2-  O198  1  -0.00020770  0.87483502  0.16235875  1
  O2-  O199  1  0.00066340  0.87480049  0.66730477  1
  O2-  O200  1  0.24901843  0.12555522  0.16153830  1
  O2-  O201  1  0.25033136  0.12579865  0.66569128  1
  O2-  O202  1  0.24733463  0.37651350  0.16097964  1
  O2-  O203  1  0.24920376  0.37505327  0.66832268  1
  O2-  O204  1  0.25032640  0.62385781  0.16073584  1
  O2-  O205  1  0.25228107  0.62392452  0.66763667  1
  O2-  O206  1  0.25136177  0.87430241  0.16272254  1
  O2-  O207  1  0.24784166  0.87444791  0.66584155  1
  O2-  O208  1  0.50204084  0.12520288  0.16748363  1
  O2-  O209  1  0.50059906  0.12465184  0.65994825  1
  O2-  O210  1  0.50230285  0.37547248  0.16866914  1
  O2-  O211  1  0.49809665  0.37515659  0.66322407  1
  O2-  O212  1  0.49935387  0.62592583  0.16818879  1
  O2-  O213  1  0.49858092  0.62449856  0.66195338  1
  O2-  O214  1  0.50035266  0.87421814  0.16599146  1
  O2-  O215  1  0.50077904  0.87414747  0.66118742  1
  O2-  O216  1  0.75149647  0.12667240  0.16551265  1
  O2-  O217  1  0.74705273  0.12469413  0.66341482  1
  O2-  O218  1  0.75111041  0.37488417  0.16963152  1
  O2-  O219  1  0.75328887  0.37491077  0.66413491  1
  O2-  O220  1  0.74924500  0.62388536  0.16710776  1
  O2-  O221  1  0.75038435  0.62422270  0.66500389  1
  O2-  O222  1  0.74895380  0.87537651  0.16462461  1
  O2-  O223  1  0.75045558  0.87497244  0.66305923  1
  O2-  O224  1  0.12517240  -0.00006862  0.34139327  1
  O2-  O225  1  0.12463256  0.00176630  0.84609389  1
  O2-  O226  1  0.12461391  0.24908906  0.34587366  1
  O2-  O227  1  0.12323154  0.25094734  0.85045699  1
  O2-  O228  1  0.12534468  0.49909953  0.34819789  1
  O2-  O229  1  0.12448171  0.50003361  0.85517831  1
  O2-  O230  1  0.12534604  0.75292540  0.34577806  1
  O2-  O231  1  0.12554701  0.74668634  0.84938756  1
  O2-  O232  1  0.37498615  0.00224434  0.34623105  1
  O2-  O233  1  0.37529161  -0.00212764  0.84381966  1
  O2-  O234  1  0.37460489  0.24947282  0.34451956  1
  O2-  O235  1  0.37574188  0.24958808  0.85033029  1
  O2-  O236  1  0.37379098  0.50099133  0.34897894  1
  O2-  O237  1  0.37523977  0.50295624  0.85156990  1
  O2-  O238  1  0.37475530  0.74788075  0.34839745  1
  O2-  O239  1  0.37525916  0.74904040  0.84716842  1
  O2-  O240  1  0.62519608  0.00089236  0.34745817  1
  O2-  O241  1  0.62554218  -0.00011925  0.83896619  1
  O2-  O242  1  0.62533777  0.24719242  0.35039603  1
  O2-  O243  1  0.62630244  0.24881631  0.84709554  1
  O2-  O244  1  0.62510133  0.50232781  0.35049166  1
  O2-  O245  1  0.62536374  0.49910227  0.85097737  1
  O2-  O246  1  0.62457937  0.75024510  0.34424168  1
  O2-  O247  1  0.62418264  0.75118052  0.84656446  1
  O2-  O248  1  0.87498742  -0.00242198  0.34329649  1
  O2-  O249  1  0.87433371  0.00299005  0.84843312  1
  O2-  O250  1  0.87603664  0.25260122  0.34966121  1
  O2-  O251  1  0.87492976  0.24981199  0.85138460  1
  O2-  O252  1  0.87641632  0.49926262  0.35168162  1
  O2-  O253  1  0.87501760  0.49854842  0.85190424  1
  O2-  O254  1  0.87564462  0.75145923  0.34605128  1
  O2-  O255  1  0.87493436  0.74823130  0.84728767  1
  O2-  O256  1  0.00245265  0.12537649  0.34371212  1
  O2-  O257  1  -0.00186977  0.12564431  0.85189654  1
  O2-  O258  1  -0.00077110  0.37577829  0.34653752  1
  O2-  O259  1  -0.00067544  0.37518204  0.85621218  1
  O2-  O260  1  -0.00059448  0.62512568  0.34649291  1
  O2-  O261  1  0.00131230  0.62364751  0.85300151  1
  O2-  O262  1  0.00041833  0.87512808  0.34261772  1
  O2-  O263  1  0.00011222  0.87490753  0.85165472  1
  O2-  O264  1  0.25025376  0.12559521  0.34227890  1
  O2-  O265  1  0.24912148  0.12554019  0.84883265  1
  O2-  O266  1  0.25059870  0.37560358  0.34384668  1
  O2-  O267  1  0.24627075  0.37538632  0.85159726  1
  O2-  O268  1  0.25317766  0.62485373  0.34593160  1
  O2-  O269  1  0.25025071  0.62400540  0.85251303  1
  O2-  O270  1  0.24824481  0.87524550  0.34531468  1
  O2-  O271  1  0.25203423  0.87389149  0.84797256  1
  O2-  O272  1  0.50037372  0.12495915  0.34998643  1
  O2-  O273  1  0.50162741  0.12486789  0.84280893  1
  O2-  O274  1  0.49714258  0.37544856  0.34901962  1
  O2-  O275  1  0.50185573  0.37507173  0.84763361  1
  O2-  O276  1  0.49827052  0.62494091  0.34964553  1
  O2-  O277  1  0.49872663  0.62463550  0.84773318  1
  O2-  O278  1  0.50161402  0.87537041  0.34912928  1
  O2-  O279  1  0.49989441  0.87442442  0.84180254  1
  O2-  O280  1  0.74743520  0.12520817  0.35040921  1
  O2-  O281  1  0.75105485  0.12597653  0.84644434  1
  O2-  O282  1  0.75333307  0.37528120  0.35291501  1
  O2-  O283  1  0.75227662  0.37436391  0.84908919  1
  O2-  O284  1  0.74947351  0.62524076  0.34964275  1
  O2-  O285  1  0.74970417  0.62391930  0.84751846  1
  O2-  O286  1  0.75035840  0.87499410  0.34575703  1
  O2-  O287  1  0.74807313  0.87495163  0.84551848  1
