# generated using pymatgen
data_BaYFeCuO5
_symmetry_space_group_name_H-M   'P 1'
_cell_length_a   15.66381502
_cell_length_b   15.66487888
_cell_length_c   15.46841873
_cell_angle_alpha   90.00409433
_cell_angle_beta   90.00008768
_cell_angle_gamma   90.00297971
_symmetry_Int_Tables_number   1
_chemical_formula_structural   BaYFeCuO5
_chemical_formula_sum   'Ba32 Y32 Fe32 Cu32 O160'
_cell_volume   3795.51319191
_cell_formula_units_Z   32
loop_
 _symmetry_equiv_pos_site_id
 _symmetry_equiv_pos_as_xyz
  1  'x, y, z'
loop_
 _atom_type_symbol
 _atom_type_oxidation_number
  Ba2+  2.0
  Y3+  3.0
  Fe3+  3.0
  Cu2+  2.0
  O2-  -2.0
loop_
 _atom_site_type_symbol
 _atom_site_label
 _atom_site_symmetry_multiplicity
 _atom_site_fract_x
 _atom_site_fract_y
 _atom_site_fract_z
 _atom_site_occupancy
  Ba2+  Ba0  1  0.00338543  0.00633408  0.01639910  1
  Ba2+  Ba1  1  0.00345333  0.00422995  0.51760819  1
  Ba2+  Ba2  1  -0.00191572  0.24897632  0.01186222  1
  Ba2+  Ba3  1  0.00163601  0.25246398  0.51360289  1
  Ba2+  Ba4  1  -0.00170053  0.50171904  0.00090381  1
  Ba2+  Ba5  1  -0.00381644  0.49414434  0.50224220  1
  Ba2+  Ba6  1  0.00368296  0.74295761  0.00554640  1
  Ba2+  Ba7  1  -0.00082215  0.74884151  0.50678889  1
  Ba2+  Ba8  1  0.24517729  -0.00514306  0.02286599  1
  Ba2+  Ba9  1  0.23916803  -0.00049297  0.50967719  1
  Ba2+  Ba10  1  0.24681395  0.25704041  0.01739930  1
  Ba2+  Ba11  1  0.24525220  0.25774720  0.51104897  1
  Ba2+  Ba12  1  0.25242505  0.49892122  0.01184486  1
  Ba2+  Ba13  1  0.25261757  0.49105200  0.51076639  1
  Ba2+  Ba14  1  0.25001189  0.74850354  0.02044222  1
  Ba2+  Ba15  1  0.24699554  0.75120536  0.51016696  1
  Ba2+  Ba16  1  0.49821400  -0.00084832  0.01583401  1
  Ba2+  Ba17  1  0.50933562  0.00241118  0.50618860  1
  Ba2+  Ba18  1  0.50314737  0.25993353  0.01018552  1
  Ba2+  Ba19  1  0.50210857  0.25691808  0.50698877  1
  Ba2+  Ba20  1  0.49967136  0.49660616  0.01603028  1
  Ba2+  Ba21  1  0.49515172  0.49321476  0.51642884  1
  Ba2+  Ba22  1  0.49400139  0.74358777  0.02197372  1
  Ba2+  Ba23  1  0.50111532  0.74924890  0.51461985  1
  Ba2+  Ba24  1  0.75306338  0.01042586  0.01111534  1
  Ba2+  Ba25  1  0.74849123  0.00608388  0.51292777  1
  Ba2+  Ba26  1  0.75082304  0.25308455  0.00669855  1
  Ba2+  Ba27  1  0.75149523  0.25093354  0.50620478  1
  Ba2+  Ba28  1  0.74999315  0.49809251  0.00709154  1
  Ba2+  Ba29  1  0.75620101  0.49650105  0.50696777  1
  Ba2+  Ba30  1  0.75217967  0.73808054  0.01247144  1
  Ba2+  Ba31  1  0.75313371  0.74635471  0.51173187  1
  Y3+  Y32  1  0.00138901  0.00056346  0.25591079  1
  Y3+  Y33  1  0.00004993  0.00183849  0.75713885  1
  Y3+  Y34  1  0.00105183  0.25159673  0.25661018  1
  Y3+  Y35  1  -0.00055459  0.24952093  0.75894051  1
  Y3+  Y36  1  -0.00148189  0.49906914  0.26048300  1
  Y3+  Y37  1  -0.00147321  0.50137052  0.75736469  1
  Y3+  Y38  1  -0.00070706  0.74863273  0.25988350  1
  Y3+  Y39  1  -0.00091796  0.74774802  0.75546309  1
  Y3+  Y40  1  0.24761306  -0.00129812  0.25859299  1
  Y3+  Y41  1  0.24735642  -0.00001236  0.75268774  1
  Y3+  Y42  1  0.24974222  0.25440290  0.25881158  1
  Y3+  Y43  1  0.24950929  0.25367357  0.75495953  1
  Y3+  Y44  1  0.25090946  0.49551656  0.25968549  1
  Y3+  Y45  1  0.25137795  0.49769515  0.75465069  1
  Y3+  Y46  1  0.24857591  0.75123457  0.26066544  1
  Y3+  Y47  1  0.24867133  0.74861786  0.75259526  1
  Y3+  Y48  1  0.50114488  0.00209529  0.25639536  1
  Y3+  Y49  1  0.50034560  0.00013921  0.75629458  1
  Y3+  Y50  1  0.50118498  0.25274997  0.25461401  1
  Y3+  Y51  1  0.49907960  0.25519724  0.76008415  1
  Y3+  Y52  1  0.49931265  0.49702733  0.25471272  1
  Y3+  Y53  1  0.49804525  0.49551120  0.75826598  1
  Y3+  Y54  1  0.49950285  0.74829416  0.25675729  1
  Y3+  Y55  1  0.49983679  0.74889840  0.75329431  1
  Y3+  Y56  1  0.75050368  0.00384187  0.25428640  1
  Y3+  Y57  1  0.75141107  0.00162401  0.75932358  1
  Y3+  Y58  1  0.74883164  0.24959278  0.25293346  1
  Y3+  Y59  1  0.75138804  0.25152766  0.76333129  1
  Y3+  Y60  1  0.75120652  0.50080639  0.25551960  1
  Y3+  Y61  1  0.75170574  0.49910881  0.76066246  1
  Y3+  Y62  1  0.75276164  0.74573865  0.25739095  1
  Y3+  Y63  1  0.75186605  0.74764227  0.75639682  1
  Fe3+  Fe64  1  0.12457211  0.12621095  0.37553170  1
  Fe3+  Fe65  1  0.62458866  0.87364532  0.87991267  1
  Fe3+  Fe66  1  0.37583491  0.62381339  0.37874307  1
  Fe3+  Fe67  1  0.12525467  0.62348577  0.38043927  1
  Fe3+  Fe68  1  0.62479183  0.62366361  0.37892129  1
  Fe3+  Fe69  1  0.37392808  0.87441831  0.87568780  1
  Fe3+  Fe70  1  0.62591511  0.37521646  0.37573876  1
  Fe3+  Fe71  1  0.62303605  0.62478183  0.87544255  1
  Fe3+  Fe72  1  0.62324460  0.12531639  0.87879788  1
  Fe3+  Fe73  1  0.37540758  0.12629611  0.37936907  1
  Fe3+  Fe74  1  0.12504988  0.37609638  0.87679396  1
  Fe3+  Fe75  1  0.12586846  0.87390386  0.87540751  1
  Fe3+  Fe76  1  0.37386005  0.62514109  0.87409338  1
  Fe3+  Fe77  1  0.62702807  0.87504811  0.37558287  1
  Fe3+  Fe78  1  0.87522375  0.12603860  0.37602445  1
  Fe3+  Fe79  1  0.37306981  0.12543022  0.88006786  1
  Fe3+  Fe80  1  0.37592447  0.87604607  0.37867562  1
  Fe3+  Fe81  1  0.87483973  0.87672380  0.37849234  1
  Fe3+  Fe82  1  0.87557435  0.87481505  0.88002260  1
  Fe3+  Fe83  1  0.12673208  0.12500885  0.87629605  1
  Fe3+  Fe84  1  0.12445034  0.62294547  0.63489141  1
  Fe3+  Fe85  1  0.37423850  0.12616222  0.13576015  1
  Fe3+  Fe86  1  0.87596408  0.37591263  0.13876643  1
  Fe3+  Fe87  1  0.37535015  0.87632663  0.63271129  1
  Fe3+  Fe88  1  0.87449645  0.87579704  0.63559967  1
  Fe3+  Fe89  1  0.62537048  0.62233005  0.63473779  1
  Fe3+  Fe90  1  0.12466453  0.62304813  0.14162245  1
  Fe3+  Fe91  1  0.37488968  0.12619053  0.63338772  1
  Fe3+  Fe92  1  0.87448796  0.37420649  0.64162546  1
  Fe3+  Fe93  1  0.87603436  0.87396169  0.13405044  1
  Fe3+  Fe94  1  0.62620077  0.87400570  0.13395191  1
  Fe3+  Fe95  1  0.62532844  0.12780672  0.63989805  1
  Cu2+  Cu96  1  0.37339409  0.37526441  0.87330690  1
  Cu2+  Cu97  1  0.87626643  0.37526110  0.86575317  1
  Cu2+  Cu98  1  0.87443847  0.62428197  0.37570192  1
  Cu2+  Cu99  1  0.87637946  0.12466815  0.87456965  1
  Cu2+  Cu100  1  0.12433034  0.37452202  0.37351354  1
  Cu2+  Cu101  1  0.87390185  0.37334944  0.36105320  1
  Cu2+  Cu102  1  0.12634628  0.62522876  0.85912085  1
  Cu2+  Cu103  1  0.62481513  0.37641525  0.87405997  1
  Cu2+  Cu104  1  0.12321330  0.87550019  0.37411407  1
  Cu2+  Cu105  1  0.87503470  0.62570412  0.87328029  1
  Cu2+  Cu106  1  0.37642561  0.37425079  0.37141816  1
  Cu2+  Cu107  1  0.62530094  0.12586374  0.36120230  1
  Cu2+  Cu108  1  0.37451033  0.37504477  0.14218385  1
  Cu2+  Cu109  1  0.12313294  0.37581764  0.64324018  1
  Cu2+  Cu110  1  0.37495260  0.62435202  0.64483869  1
  Cu2+  Cu111  1  0.62488394  0.62465606  0.15184793  1
  Cu2+  Cu112  1  0.62616718  0.87544664  0.65049222  1
  Cu2+  Cu113  1  0.37513990  0.37342374  0.64283862  1
  Cu2+  Cu114  1  0.12622839  0.12601896  0.15211998  1
  Cu2+  Cu115  1  0.12490673  0.12637593  0.65042923  1
  Cu2+  Cu116  1  0.37351165  0.62413394  0.15641220  1
  Cu2+  Cu117  1  0.62418461  0.12572748  0.14600239  1
  Cu2+  Cu118  1  0.12311484  0.87431606  0.64002101  1
  Cu2+  Cu119  1  0.62640303  0.37581761  0.14237146  1
  Cu2+  Cu120  1  0.87491925  0.62368378  0.64131471  1
  Cu2+  Cu121  1  0.87595913  0.12601518  0.14198528  1
  Cu2+  Cu122  1  0.12380043  0.87351284  0.15386247  1
  Cu2+  Cu123  1  0.12409212  0.37628178  0.15192897  1
  Cu2+  Cu124  1  0.62625591  0.37465421  0.65329365  1
  Cu2+  Cu125  1  0.87688878  0.62410678  0.14360357  1
  Cu2+  Cu126  1  0.37506398  0.87513802  0.15444159  1
  Cu2+  Cu127  1  0.87454462  0.12591758  0.65311674  1
  O2-  O128  1  0.12928271  0.12336292  -0.00350135  1
  O2-  O129  1  0.12336490  0.12580762  0.49621982  1
  O2-  O130  1  0.12536922  0.37654115  -0.00252477  1
  O2-  O131  1  0.12315466  0.37513517  0.50749928  1
  O2-  O132  1  0.12634742  0.62475360  0.02075667  1
  O2-  O133  1  0.12443404  0.62329740  0.50744046  1
  O2-  O134  1  0.12786984  0.87313694  -0.00453587  1
  O2-  O135  1  0.12300365  0.87536629  0.50645633  1
  O2-  O136  1  0.37317609  0.12405808  0.00643449  1
  O2-  O137  1  0.37602212  0.12487748  0.50630333  1
  O2-  O138  1  0.37326703  0.37534362  0.00777231  1
  O2-  O139  1  0.37618793  0.37255768  0.50723815  1
  O2-  O140  1  0.37331270  0.62729530  -0.00549084  1
  O2-  O141  1  0.37774486  0.62560926  0.49871372  1
  O2-  O142  1  0.37330045  0.87333860  -0.00478807  1
  O2-  O143  1  0.37759004  0.87761290  0.50473669  1
  O2-  O144  1  0.62126493  0.12261369  -0.00078663  1
  O2-  O145  1  0.62624651  0.12688822  0.51878960  1
  O2-  O146  1  0.62577902  0.37718656  0.00725821  1
  O2-  O147  1  0.62626430  0.37474442  0.49658222  1
  O2-  O148  1  0.62139655  0.62680192  -0.00405333  1
  O2-  O149  1  0.62520342  0.62353466  0.50555950  1
  O2-  O150  1  0.62383654  0.87316610  0.00537632  1
  O2-  O151  1  0.62718632  0.87633824  0.49565703  1
  O2-  O152  1  0.87711154  0.12417207  0.00727970  1
  O2-  O153  1  0.87491282  0.12471516  0.49640795  1
  O2-  O154  1  0.87656178  0.37596022  0.01771071  1
  O2-  O155  1  0.87361758  0.37257045  0.52038461  1
  O2-  O156  1  0.87648201  0.62589161  0.00752585  1
  O2-  O157  1  0.87373041  0.62485964  0.50794304  1
  O2-  O158  1  0.87625912  0.87405471  0.00664365  1
  O2-  O159  1  0.87311003  0.87741991  0.50642413  1
  O2-  O160  1  0.12565902  -0.00127174  0.16321745  1
  O2-  O161  1  0.12437020  0.00134607  0.66255465  1
  O2-  O162  1  0.12568594  0.25122841  0.16345254  1
  O2-  O163  1  0.12480691  0.24942628  0.66570339  1
  O2-  O164  1  0.12558139  0.50016445  0.17093208  1
  O2-  O165  1  0.12493634  0.50227478  0.66539599  1
  O2-  O166  1  0.12542507  0.74923602  0.17029678  1
  O2-  O167  1  0.12448441  0.74696702  0.66090425  1
  O2-  O168  1  0.37517403  0.00141981  0.16372289  1
  O2-  O169  1  0.37541357  0.00067201  0.66242406  1
  O2-  O170  1  0.37445389  0.24756536  0.16405534  1
  O2-  O171  1  0.37523986  0.24665549  0.66655569  1
  O2-  O172  1  0.37443746  0.50053139  0.16593141  1
  O2-  O173  1  0.37547803  0.49988574  0.66394259  1
  O2-  O174  1  0.37470424  0.75027651  0.16724516  1
  O2-  O175  1  0.37588273  0.75258999  0.65763083  1
  O2-  O176  1  0.62492864  -0.00249234  0.16195416  1
  O2-  O177  1  0.62514007  0.00124318  0.66665576  1
  O2-  O178  1  0.62448262  0.24947224  0.16370542  1
  O2-  O179  1  0.62452615  0.25015636  0.67005030  1
  O2-  O180  1  0.62489942  0.50194822  0.16640128  1
  O2-  O181  1  0.62459140  0.50005827  0.66195864  1
  O2-  O182  1  0.62511748  0.75124728  0.16486371  1
  O2-  O183  1  0.62511186  0.74871840  0.65956712  1
  O2-  O184  1  0.87492130  -0.00300689  0.16291313  1
  O2-  O185  1  0.87388700  0.00008373  0.66289141  1
  O2-  O186  1  0.87609176  0.25164837  0.16578009  1
  O2-  O187  1  0.87454411  0.24953309  0.66947283  1
  O2-  O188  1  0.87562135  0.49893686  0.16938224  1
  O2-  O189  1  0.87416002  0.49837651  0.66780947  1
  O2-  O190  1  0.87508369  0.75238910  0.16651727  1
  O2-  O191  1  0.87391516  0.75218999  0.66138852  1
  O2-  O192  1  0.00279522  0.12413374  0.16329034  1
  O2-  O193  1  -0.00020225  0.12481587  0.66459635  1
  O2-  O194  1  0.00015931  0.37562117  0.16820450  1
  O2-  O195  1  -0.00225261  0.37450429  0.66841001  1
  O2-  O196  1  0.00202078  0.62561112  0.17143485  1
  O2-  O197  1  0.00181848  0.62520853  0.66490188  1
  O2-  O198  1  -0.00152860  0.87452769  0.16330195  1
  O2-  O199  1  -0.00397733  0.87571455  0.66518819  1
  O2-  O200  1  0.25144298  0.12397312  0.16570173  1
  O2-  O201  1  0.25146983  0.12429627  0.65894114  1
  O2-  O202  1  0.24810578  0.37524828  0.16667081  1
  O2-  O203  1  0.24946001  0.37449564  0.66222923  1
  O2-  O204  1  0.24941891  0.62583464  0.17048888  1
  O2-  O205  1  0.24902300  0.62537163  0.65908102  1
  O2-  O206  1  0.24965129  0.87467839  0.16729527  1
  O2-  O207  1  0.25278408  0.87578572  0.65790871  1
  O2-  O208  1  0.49766652  0.12391801  0.16457434  1
  O2-  O209  1  0.49877356  0.12396564  0.66480272  1
  O2-  O210  1  0.50052233  0.37519947  0.16363679  1
  O2-  O211  1  0.50170002  0.37399098  0.66530327  1
  O2-  O212  1  0.49847359  0.62609917  0.16420186  1
  O2-  O213  1  0.50171438  0.62570347  0.65989851  1
  O2-  O214  1  0.50210495  0.87479452  0.16247461  1
  O2-  O215  1  0.49867821  0.87625321  0.66208191  1
  O2-  O216  1  0.74893032  0.12457241  0.16306586  1
  O2-  O217  1  0.74916156  0.12483915  0.66907643  1
  O2-  O218  1  0.75187418  0.37549667  0.16603211  1
  O2-  O219  1  0.75044042  0.37436347  0.67043955  1
  O2-  O220  1  0.74961302  0.62579659  0.16518943  1
  O2-  O221  1  0.74696753  0.62517110  0.66465895  1
  O2-  O222  1  0.75026454  0.87433981  0.15938633  1
  O2-  O223  1  0.75201554  0.87570960  0.66741992  1
  O2-  O224  1  0.12500949  0.00236453  0.34605951  1
  O2-  O225  1  0.12576313  -0.00095979  0.84361726  1
  O2-  O226  1  0.12555840  0.24870625  0.34629289  1
  O2-  O227  1  0.12572569  0.25000292  0.84734161  1
  O2-  O228  1  0.12511714  0.50184739  0.35271916  1
  O2-  O229  1  0.12482540  0.50085487  0.84805745  1
  O2-  O230  1  0.12482842  0.74710245  0.35322714  1
  O2-  O231  1  0.12528348  0.75019549  0.84328853  1
  O2-  O232  1  0.37642724  0.00039636  0.34912160  1
  O2-  O233  1  0.37519805  0.00050287  0.84590313  1
  O2-  O234  1  0.37629491  0.24705186  0.34801882  1
  O2-  O235  1  0.37426067  0.24694336  0.85077415  1
  O2-  O236  1  0.37606979  0.50110516  0.34875601  1
  O2-  O237  1  0.37414290  0.50154699  0.84668787  1
  O2-  O238  1  0.37628366  0.75138205  0.35072927  1
  O2-  O239  1  0.37512078  0.75087444  0.83908791  1
  O2-  O240  1  0.62490066  -0.00019972  0.34584216  1
  O2-  O241  1  0.62382517  -0.00205590  0.84884615  1
  O2-  O242  1  0.62506689  0.25030182  0.34693549  1
  O2-  O243  1  0.62388345  0.24863920  0.85152214  1
  O2-  O244  1  0.62522621  0.50103408  0.34874575  1
  O2-  O245  1  0.62472276  0.50206129  0.84536634  1
  O2-  O246  1  0.62536614  0.74893288  0.34858228  1
  O2-  O247  1  0.62439771  0.75176782  0.84302598  1
  O2-  O248  1  0.87422121  0.00022613  0.34586833  1
  O2-  O249  1  0.87483850  -0.00407547  0.84719209  1
  O2-  O250  1  0.87383908  0.24951779  0.34735917  1
  O2-  O251  1  0.87564523  0.25164719  0.85227865  1
  O2-  O252  1  0.87410206  0.49705818  0.35229997  1
  O2-  O253  1  0.87556305  0.49898251  0.85050579  1
  O2-  O254  1  0.87379841  0.75304136  0.35109922  1
  O2-  O255  1  0.87459455  0.75377352  0.84570313  1
  O2-  O256  1  -0.00041886  0.12512908  0.34454809  1
  O2-  O257  1  0.00308937  0.12394681  0.84791084  1
  O2-  O258  1  -0.00280558  0.37424204  0.35111658  1
  O2-  O259  1  0.00040532  0.37560857  0.84940941  1
  O2-  O260  1  0.00206716  0.62504051  0.35343957  1
  O2-  O261  1  0.00177655  0.62649745  0.84922865  1
  O2-  O262  1  -0.00399540  0.87533615  0.34763530  1
  O2-  O263  1  -0.00002627  0.87415425  0.84873756  1
  O2-  O264  1  0.25150729  0.12422525  0.34962218  1
  O2-  O265  1  0.25110513  0.12387811  0.84172774  1
  O2-  O266  1  0.25087488  0.37426155  0.35064783  1
  O2-  O267  1  0.24771667  0.37530959  0.84450397  1
  O2-  O268  1  0.24997546  0.62596397  0.35259882  1
  O2-  O269  1  0.25069365  0.62608507  0.84178935  1
  O2-  O270  1  0.25345603  0.87579967  0.35191648  1
  O2-  O271  1  0.25015718  0.87491903  0.83910107  1
  O2-  O272  1  0.49899771  0.12375239  0.35025493  1
  O2-  O273  1  0.49781280  0.12344361  0.84750759  1
  O2-  O274  1  0.50256330  0.37440635  0.34582219  1
  O2-  O275  1  0.49875810  0.37517192  0.84951268  1
  O2-  O276  1  0.50156448  0.62597672  0.34773431  1
  O2-  O277  1  0.49903347  0.62633719  0.84107575  1
  O2-  O278  1  0.49994063  0.87563404  0.34677170  1
  O2-  O279  1  0.50068896  0.87533883  0.84589321  1
  O2-  O280  1  0.75053673  0.12439748  0.34637706  1
  O2-  O281  1  0.74768704  0.12359070  0.85162181  1
  O2-  O282  1  0.74969460  0.37457032  0.34754676  1
  O2-  O283  1  0.75279954  0.37555037  0.85313157  1
  O2-  O284  1  0.74701130  0.62531599  0.34956902  1
  O2-  O285  1  0.74763355  0.62665955  0.84781398  1
  O2-  O286  1  0.75116551  0.87575036  0.34338552  1
  O2-  O287  1  0.74894236  0.87498276  0.85278413  1
