# generated using pymatgen
data_BaYFeCuO5
_symmetry_space_group_name_H-M   'P 1'
_cell_length_a   15.68235978
_cell_length_b   15.68629950
_cell_length_c   15.53724318
_cell_angle_alpha   89.99329701
_cell_angle_beta   89.99464616
_cell_angle_gamma   90.00394754
_symmetry_Int_Tables_number   1
_chemical_formula_structural   BaYFeCuO5
_chemical_formula_sum   'Ba32 Y32 Fe32 Cu32 O160'
_cell_volume   3822.13368363
_cell_formula_units_Z   32
loop_
 _symmetry_equiv_pos_site_id
 _symmetry_equiv_pos_as_xyz
  1  'x, y, z'
loop_
 _atom_type_symbol
 _atom_type_oxidation_number
  Ba2+  2.0
  Y3+  3.0
  Fe3+  3.0
  Cu2+  2.0
  O2-  -2.0
loop_
 _atom_site_type_symbol
 _atom_site_label
 _atom_site_symmetry_multiplicity
 _atom_site_fract_x
 _atom_site_fract_y
 _atom_site_fract_z
 _atom_site_occupancy
  Ba2+  Ba0  1  0.00474726  0.00241476  0.01134100  1
  Ba2+  Ba1  1  -0.00188041  0.00776998  0.49561903  1
  Ba2+  Ba2  1  -0.00687242  0.24937020  0.00668405  1
  Ba2+  Ba3  1  0.00243777  0.24854098  0.50003379  1
  Ba2+  Ba4  1  -0.00622427  0.50220587  0.01585361  1
  Ba2+  Ba5  1  -0.00196652  0.49731929  0.50530298  1
  Ba2+  Ba6  1  0.00511818  0.74591054  0.02255090  1
  Ba2+  Ba7  1  -0.00622397  0.74540928  0.50212915  1
  Ba2+  Ba8  1  0.25260022  -0.00214804  0.01881435  1
  Ba2+  Ba9  1  0.25126553  0.00848660  0.51636813  1
  Ba2+  Ba10  1  0.25739350  0.24805541  0.00539111  1
  Ba2+  Ba11  1  0.24685201  0.24919737  0.52363832  1
  Ba2+  Ba12  1  0.25676653  0.50338641  0.01674185  1
  Ba2+  Ba13  1  0.24608117  0.49360075  0.51412836  1
  Ba2+  Ba14  1  0.25255142  0.75109012  0.02875238  1
  Ba2+  Ba15  1  0.25015586  0.74984758  0.50633250  1
  Ba2+  Ba16  1  0.49793541  -0.00053983  0.01893350  1
  Ba2+  Ba17  1  0.49846291  -0.00474502  0.51632027  1
  Ba2+  Ba18  1  0.49884224  0.25127547  0.01968608  1
  Ba2+  Ba19  1  0.49569658  0.25462199  0.52216990  1
  Ba2+  Ba20  1  0.49853547  0.49814025  0.01118070  1
  Ba2+  Ba21  1  0.50727009  0.49792233  0.51726750  1
  Ba2+  Ba22  1  0.49895980  0.75024705  0.00499444  1
  Ba2+  Ba23  1  0.50902313  0.75242393  0.51064141  1
  Ba2+  Ba24  1  0.74447894  0.00421806  0.01363532  1
  Ba2+  Ba25  1  0.75208922  -0.00613127  0.49667299  1
  Ba2+  Ba26  1  0.75022073  0.25218180  0.02079874  1
  Ba2+  Ba27  1  0.75613169  0.25475476  0.49965426  1
  Ba2+  Ba28  1  0.75114529  0.49722784  0.01218060  1
  Ba2+  Ba29  1  0.74827598  0.50274187  0.51449265  1
  Ba2+  Ba30  1  0.74405382  0.74594928  -0.00059251  1
  Ba2+  Ba31  1  0.74512849  0.74824471  0.50795001  1
  Y3+  Y32  1  -0.00031834  0.00161532  0.25820087  1
  Y3+  Y33  1  0.00207041  0.00231277  0.75790868  1
  Y3+  Y34  1  -0.00243890  0.24942875  0.25640323  1
  Y3+  Y35  1  0.00206740  0.24945151  0.76013419  1
  Y3+  Y36  1  -0.00133685  0.50064546  0.25461340  1
  Y3+  Y37  1  -0.00159561  0.49862896  0.75999972  1
  Y3+  Y38  1  0.00046847  0.74855102  0.25863767  1
  Y3+  Y39  1  -0.00154804  0.74964170  0.75651346  1
  Y3+  Y40  1  0.24951421  0.00088607  0.25894743  1
  Y3+  Y41  1  0.24962808  0.00289831  0.75415893  1
  Y3+  Y42  1  0.25084085  0.24961786  0.25479304  1
  Y3+  Y43  1  0.24939427  0.24958514  0.75849892  1
  Y3+  Y44  1  0.25096380  0.50085306  0.25552762  1
  Y3+  Y45  1  0.25107574  0.49618114  0.75857960  1
  Y3+  Y46  1  0.24983453  0.74853758  0.26010589  1
  Y3+  Y47  1  0.25141575  0.75140279  0.75207790  1
  Y3+  Y48  1  0.50063201  0.00018022  0.25925698  1
  Y3+  Y49  1  0.50012608  -0.00230064  0.75340259  1
  Y3+  Y50  1  0.49993714  0.25075641  0.25308820  1
  Y3+  Y51  1  0.49770539  0.25256960  0.75797108  1
  Y3+  Y52  1  0.50040545  0.49896906  0.25586664  1
  Y3+  Y53  1  0.50158803  0.49929379  0.75742933  1
  Y3+  Y54  1  0.50142624  0.74928043  0.26257545  1
  Y3+  Y55  1  0.50357180  0.75101436  0.75274449  1
  Y3+  Y56  1  0.75039414  0.00038201  0.25917807  1
  Y3+  Y57  1  0.74770765  -0.00187450  0.75705491  1
  Y3+  Y58  1  0.75197378  0.25046138  0.25466415  1
  Y3+  Y59  1  0.75096185  0.25203105  0.75954178  1
  Y3+  Y60  1  0.75039918  0.49881567  0.25626037  1
  Y3+  Y61  1  0.74898165  0.50083041  0.75848922  1
  Y3+  Y62  1  0.74839445  0.74993626  0.26273694  1
  Y3+  Y63  1  0.74641055  0.74873818  0.75432971  1
  Fe3+  Fe64  1  0.62398796  0.12647754  0.37954587  1
  Fe3+  Fe65  1  0.62490040  0.37482028  0.37567998  1
  Fe3+  Fe66  1  0.37572857  0.62287377  0.38040922  1
  Fe3+  Fe67  1  0.12656768  0.87410690  0.87660866  1
  Fe3+  Fe68  1  0.87496488  0.62568549  0.87711714  1
  Fe3+  Fe69  1  0.12688056  0.62660350  0.87669088  1
  Fe3+  Fe70  1  0.62338527  0.12474192  0.87641563  1
  Fe3+  Fe71  1  0.12553279  0.37461678  0.37338528  1
  Fe3+  Fe72  1  0.37491481  0.37419520  0.37645459  1
  Fe3+  Fe73  1  0.12520426  0.37547161  0.88118609  1
  Fe3+  Fe74  1  0.37492317  0.62621509  0.87346547  1
  Fe3+  Fe75  1  0.87471732  0.87492361  0.88193293  1
  Fe3+  Fe76  1  0.87386748  0.12429367  0.87909335  1
  Fe3+  Fe77  1  0.62486172  0.37462367  0.87757621  1
  Fe3+  Fe78  1  0.87373107  0.62329347  0.37537214  1
  Fe3+  Fe79  1  0.37468109  0.87482928  0.87338013  1
  Fe3+  Fe80  1  0.12468724  0.87555261  0.37931240  1
  Fe3+  Fe81  1  0.37504504  0.12724844  0.37705531  1
  Fe3+  Fe82  1  0.37497539  0.87579001  0.37830152  1
  Fe3+  Fe83  1  0.37602894  0.12364425  0.87478980  1
  Fe3+  Fe84  1  0.12329249  0.62404836  0.63520217  1
  Fe3+  Fe85  1  0.87429395  0.87412525  0.13611559  1
  Fe3+  Fe86  1  0.12526054  0.37511467  0.13370143  1
  Fe3+  Fe87  1  0.12543640  0.12574818  0.13715014  1
  Fe3+  Fe88  1  0.87592015  0.37448320  0.63995373  1
  Fe3+  Fe89  1  0.87489735  0.12519013  0.63823328  1
  Fe3+  Fe90  1  0.12317990  0.87583239  0.63270724  1
  Fe3+  Fe91  1  0.62485175  0.87385897  0.14037287  1
  Fe3+  Fe92  1  0.37520140  0.62445459  0.63347460  1
  Fe3+  Fe93  1  0.87553403  0.87553455  0.63767836  1
  Fe3+  Fe94  1  0.62492076  0.62541906  0.13932726  1
  Fe3+  Fe95  1  0.62667873  0.12625812  0.63329656  1
  Cu2+  Cu96  1  0.62439608  0.87566281  0.37383144  1
  Cu2+  Cu97  1  0.62428443  0.87543143  0.86290688  1
  Cu2+  Cu98  1  0.12596468  0.12417947  0.86703084  1
  Cu2+  Cu99  1  0.87431530  0.37517756  0.87494295  1
  Cu2+  Cu100  1  0.62462824  0.62283869  0.37312469  1
  Cu2+  Cu101  1  0.87549574  0.87420673  0.36193625  1
  Cu2+  Cu102  1  0.12653847  0.12676723  0.37177562  1
  Cu2+  Cu103  1  0.62409615  0.62488694  0.86168883  1
  Cu2+  Cu104  1  0.87502311  0.37554566  0.35946437  1
  Cu2+  Cu105  1  0.12526033  0.62340014  0.36529001  1
  Cu2+  Cu106  1  0.37542073  0.37540055  0.87307383  1
  Cu2+  Cu107  1  0.87416133  0.12563297  0.36078722  1
  Cu2+  Cu108  1  0.62552493  0.62419186  0.64219317  1
  Cu2+  Cu109  1  0.87308219  0.62684898  0.15213148  1
  Cu2+  Cu110  1  0.87523605  0.62467937  0.65259116  1
  Cu2+  Cu111  1  0.37605190  0.87458258  0.15764314  1
  Cu2+  Cu112  1  0.62684644  0.87613333  0.64122470  1
  Cu2+  Cu113  1  0.62511913  0.37524349  0.15039945  1
  Cu2+  Cu114  1  0.62490416  0.12454106  0.15359134  1
  Cu2+  Cu115  1  0.12274915  0.12573782  0.64188881  1
  Cu2+  Cu116  1  0.87560832  0.37527836  0.14193604  1
  Cu2+  Cu117  1  0.37491058  0.12415494  0.15245067  1
  Cu2+  Cu118  1  0.37418851  0.87441321  0.64531151  1
  Cu2+  Cu119  1  0.12540901  0.62459960  0.15425534  1
  Cu2+  Cu120  1  0.37579411  0.12573752  0.65127872  1
  Cu2+  Cu121  1  0.37435872  0.37606143  0.65260101  1
  Cu2+  Cu122  1  0.37705270  0.62599418  0.15670961  1
  Cu2+  Cu123  1  0.12507486  0.87520686  0.15633713  1
  Cu2+  Cu124  1  0.62649975  0.37385867  0.65203148  1
  Cu2+  Cu125  1  0.87534401  0.12354544  0.15130934  1
  Cu2+  Cu126  1  0.12336436  0.37510833  0.65592244  1
  Cu2+  Cu127  1  0.37457833  0.37531150  0.14033983  1
  O2-  O128  1  0.12623167  0.12285095  0.01715214  1
  O2-  O129  1  0.12458880  0.12660742  0.50696018  1
  O2-  O130  1  0.12571950  0.37562877  0.00737755  1
  O2-  O131  1  0.12509856  0.37452461  0.49356523  1
  O2-  O132  1  0.12904633  0.62922319  -0.00419385  1
  O2-  O133  1  0.12250471  0.62236661  0.51522609  1
  O2-  O134  1  0.12855952  0.87272353  -0.00395161  1
  O2-  O135  1  0.12238646  0.87633687  0.50610587  1
  O2-  O136  1  0.37692678  0.12128487  -0.00537736  1
  O2-  O137  1  0.37463811  0.12895918  0.49658234  1
  O2-  O138  1  0.37518282  0.37577213  0.00625185  1
  O2-  O139  1  0.37345208  0.37383373  0.49577361  1
  O2-  O140  1  0.37414405  0.62856795  -0.00673512  1
  O2-  O141  1  0.37534209  0.62201492  0.50643836  1
  O2-  O142  1  0.37401864  0.87409075  -0.00715900  1
  O2-  O143  1  0.37362769  0.87643028  0.49777142  1
  O2-  O144  1  0.62228726  0.12407780  -0.00385547  1
  O2-  O145  1  0.62598335  0.12711928  0.50593601  1
  O2-  O146  1  0.62423320  0.37420259  -0.00225403  1
  O2-  O147  1  0.62543805  0.37342369  0.49561344  1
  O2-  O148  1  0.62288275  0.62734501  0.01925865  1
  O2-  O149  1  0.62544262  0.62291412  0.50815960  1
  O2-  O150  1  0.62430087  0.87372540  0.02038070  1
  O2-  O151  1  0.62632493  0.87686514  0.50749984  1
  O2-  O152  1  0.87318551  0.12272234  -0.00084609  1
  O2-  O153  1  0.87501645  0.12596786  0.51845319  1
  O2-  O154  1  0.87457731  0.37553666  0.00840792  1
  O2-  O155  1  0.87723278  0.37382559  0.51986083  1
  O2-  O156  1  0.87540213  0.62804529  -0.00300535  1
  O2-  O157  1  0.87490300  0.62249020  0.49582257  1
  O2-  O158  1  0.87460867  0.87377436  0.00814293  1
  O2-  O159  1  0.87686479  0.87644706  0.51803544  1
  O2-  O160  1  0.12546466  0.00047338  0.16790317  1
  O2-  O161  1  0.12479109  -0.00279225  0.66318581  1
  O2-  O162  1  0.12539086  0.25079195  0.16271506  1
  O2-  O163  1  0.12420987  0.25180005  0.66921397  1
  O2-  O164  1  0.12537278  0.49959222  0.16003969  1
  O2-  O165  1  0.12524285  0.50045349  0.66729800  1
  O2-  O166  1  0.12544074  0.74970043  0.16941136  1
  O2-  O167  1  0.12355835  0.75100721  0.65932742  1
  O2-  O168  1  0.37490840  -0.00068830  0.16547550  1
  O2-  O169  1  0.37391529  -0.00007912  0.66086036  1
  O2-  O170  1  0.37485077  0.24831980  0.16115558  1
  O2-  O171  1  0.37509975  0.25171594  0.66602485  1
  O2-  O172  1  0.37536797  0.50197350  0.16390159  1
  O2-  O173  1  0.37309172  0.50117130  0.66321777  1
  O2-  O174  1  0.37546261  0.75010273  0.17068714  1
  O2-  O175  1  0.37475892  0.74805898  0.65786188  1
  O2-  O176  1  0.62506926  -0.00092889  0.16840648  1
  O2-  O177  1  0.62598862  0.00388974  0.66257754  1
  O2-  O178  1  0.62513275  0.24957488  0.16286295  1
  O2-  O179  1  0.62446637  0.24854519  0.66321578  1
  O2-  O180  1  0.62505881  0.50022677  0.16424076  1
  O2-  O181  1  0.62624425  0.49755379  0.66529027  1
  O2-  O182  1  0.62468434  0.75034286  0.17355119  1
  O2-  O183  1  0.62544271  0.75019971  0.66348957  1
  O2-  O184  1  0.87498175  -0.00265446  0.16436246  1
  O2-  O185  1  0.87477841  0.00035333  0.67090094  1
  O2-  O186  1  0.87536472  0.24797023  0.16441579  1
  O2-  O187  1  0.87550061  0.24990372  0.67117877  1
  O2-  O188  1  0.87468128  0.50274274  0.16264518  1
  O2-  O189  1  0.87512785  0.49988414  0.66697584  1
  O2-  O190  1  0.87521062  0.75219584  0.16652130  1
  O2-  O191  1  0.87598937  0.74989397  0.66457526  1
  O2-  O192  1  0.00113179  0.12389694  0.16638855  1
  O2-  O193  1  -0.00241989  0.12491275  0.67094754  1
  O2-  O194  1  0.00338717  0.37550914  0.16324182  1
  O2-  O195  1  -0.00089248  0.37552235  0.67196163  1
  O2-  O196  1  -0.00073639  0.62630560  0.16287267  1
  O2-  O197  1  0.00061145  0.62478015  0.66791489  1
  O2-  O198  1  -0.00144792  0.87462735  0.16350736  1
  O2-  O199  1  0.00076297  0.87513895  0.67004724  1
  O2-  O200  1  0.24987147  0.12388276  0.16478933  1
  O2-  O201  1  0.25128994  0.12631829  0.66318653  1
  O2-  O202  1  0.24705287  0.37589114  0.16219923  1
  O2-  O203  1  0.24847125  0.37466663  0.66494011  1
  O2-  O204  1  0.25179068  0.62606387  0.16678943  1
  O2-  O205  1  0.25023269  0.62579574  0.65922594  1
  O2-  O206  1  0.25089663  0.87419845  0.16692834  1
  O2-  O207  1  0.24715701  0.87391665  0.65769740  1
  O2-  O208  1  0.49936138  0.12426866  0.16517510  1
  O2-  O209  1  0.50146200  0.12493648  0.65856266  1
  O2-  O210  1  0.50082982  0.37498578  0.16393376  1
  O2-  O211  1  0.50051769  0.37587257  0.66192308  1
  O2-  O212  1  0.50122088  0.62533652  0.16950607  1
  O2-  O213  1  0.49702446  0.62368881  0.66224833  1
  O2-  O214  1  0.50059458  0.87540871  0.16730013  1
  O2-  O215  1  0.49903378  0.87560132  0.66150032  1
  O2-  O216  1  0.75010518  0.12416618  0.16593038  1
  O2-  O217  1  0.74942663  0.12599838  0.66667917  1
  O2-  O218  1  0.74927039  0.37445400  0.16493668  1
  O2-  O219  1  0.75145952  0.37436224  0.66738447  1
  O2-  O220  1  0.74861457  0.62579301  0.16720264  1
  O2-  O221  1  0.75151562  0.62494651  0.66630908  1
  O2-  O222  1  0.75063868  0.87548659  0.16678575  1
  O2-  O223  1  0.75273310  0.87480056  0.67059244  1
  O2-  O224  1  0.12427203  -0.00226374  0.35081336  1
  O2-  O225  1  0.12485838  -0.00171846  0.84554959  1
  O2-  O226  1  0.12420548  0.25218802  0.34266295  1
  O2-  O227  1  0.12549425  0.25095068  0.85346214  1
  O2-  O228  1  0.12503162  0.49852681  0.34291218  1
  O2-  O229  1  0.12512647  0.50039790  0.84943717  1
  O2-  O230  1  0.12514882  0.75114200  0.35419528  1
  O2-  O231  1  0.12548804  0.75046026  0.83847309  1
  O2-  O232  1  0.37495182  0.00090713  0.34718432  1
  O2-  O233  1  0.37548450  -0.00068994  0.84141810  1
  O2-  O234  1  0.37539379  0.25079713  0.34124517  1
  O2-  O235  1  0.37446994  0.24787190  0.84866323  1
  O2-  O236  1  0.37473223  0.49982379  0.34645716  1
  O2-  O237  1  0.37522261  0.50233258  0.84577363  1
  O2-  O238  1  0.37383213  0.74857636  0.35369540  1
  O2-  O239  1  0.37531560  0.75066393  0.83832165  1
  O2-  O240  1  0.62521295  0.00377211  0.35119514  1
  O2-  O241  1  0.62407218  0.00046385  0.84476547  1
  O2-  O242  1  0.62576104  0.24915459  0.34583998  1
  O2-  O243  1  0.62500878  0.24940678  0.84427873  1
  O2-  O244  1  0.62472607  0.49722140  0.34528264  1
  O2-  O245  1  0.62426257  0.49988313  0.84810718  1
  O2-  O246  1  0.62504952  0.74959416  0.35426785  1
  O2-  O247  1  0.62484797  0.75034502  0.84806228  1
  O2-  O248  1  0.87539710  -0.00050641  0.34896430  1
  O2-  O249  1  0.87526341  -0.00189228  0.85040103  1
  O2-  O250  1  0.87512503  0.25078561  0.34859126  1
  O2-  O251  1  0.87481874  0.24747674  0.85042902  1
  O2-  O252  1  0.87560740  0.50005551  0.34472933  1
  O2-  O253  1  0.87539881  0.50252468  0.84852808  1
  O2-  O254  1  0.87565920  0.74898001  0.34903833  1
  O2-  O255  1  0.87394771  0.75192650  0.84677408  1
  O2-  O256  1  -0.00183229  0.12521377  0.34918144  1
  O2-  O257  1  -0.00028812  0.12376265  0.85216678  1
  O2-  O258  1  -0.00051709  0.37548825  0.34630936  1
  O2-  O259  1  0.00293763  0.37498444  0.85352149  1
  O2-  O260  1  -0.00068822  0.62463697  0.34651341  1
  O2-  O261  1  0.00082276  0.62663647  0.84736723  1
  O2-  O262  1  0.00180518  0.87447700  0.34882970  1
  O2-  O263  1  -0.00103904  0.87454473  0.85125708  1
  O2-  O264  1  0.25244854  0.12558243  0.34480437  1
  O2-  O265  1  0.25079584  0.12399427  0.84611227  1
  O2-  O266  1  0.25095286  0.37537394  0.34219385  1
  O2-  O267  1  0.24693955  0.37528360  0.84916046  1
  O2-  O268  1  0.25211051  0.62409167  0.35116930  1
  O2-  O269  1  0.24998301  0.62549183  0.83875520  1
  O2-  O270  1  0.24883580  0.87483274  0.34972330  1
  O2-  O271  1  0.25038108  0.87525663  0.83871483  1
  O2-  O272  1  0.50080542  0.12602652  0.34778213  1
  O2-  O273  1  0.49994473  0.12469958  0.84001432  1
  O2-  O274  1  0.49954121  0.37433580  0.34468824  1
  O2-  O275  1  0.50199848  0.37511587  0.84476057  1
  O2-  O276  1  0.49703773  0.62427854  0.35104906  1
  O2-  O277  1  0.49986765  0.62639646  0.84483646  1
  O2-  O278  1  0.49758014  0.87514082  0.34803918  1
  O2-  O279  1  0.49969276  0.87418953  0.84448049  1
  O2-  O280  1  0.74867987  0.12530085  0.35122840  1
  O2-  O281  1  0.74928465  0.12323504  0.84597287  1
  O2-  O282  1  0.75032770  0.37408230  0.34770526  1
  O2-  O283  1  0.74807826  0.37543686  0.84793408  1
  O2-  O284  1  0.75079993  0.62435799  0.34772157  1
  O2-  O285  1  0.74956438  0.62610203  0.84933595  1
  O2-  O286  1  0.75144944  0.87566321  0.34902931  1
  O2-  O287  1  0.75070841  0.87555847  0.85428489  1
