# generated using pymatgen
data_BaYFeCuO5
_symmetry_space_group_name_H-M   'P 1'
_cell_length_a   15.65979102
_cell_length_b   15.66093884
_cell_length_c   15.45807410
_cell_angle_alpha   89.99983481
_cell_angle_beta   89.99729998
_cell_angle_gamma   89.99895950
_symmetry_Int_Tables_number   1
_chemical_formula_structural   BaYFeCuO5
_chemical_formula_sum   'Ba32 Y32 Fe32 Cu32 O160'
_cell_volume   3791.04674937
_cell_formula_units_Z   32
loop_
 _symmetry_equiv_pos_site_id
 _symmetry_equiv_pos_as_xyz
  1  'x, y, z'
loop_
 _atom_type_symbol
 _atom_type_oxidation_number
  Ba2+  2.0
  Y3+  3.0
  Fe3+  3.0
  Cu2+  2.0
  O2-  -2.0
loop_
 _atom_site_type_symbol
 _atom_site_label
 _atom_site_symmetry_multiplicity
 _atom_site_fract_x
 _atom_site_fract_y
 _atom_site_fract_z
 _atom_site_occupancy
  Ba2+  Ba0  1  0.00550777  -0.00568008  0.01211339  1
  Ba2+  Ba1  1  -0.01059798  -0.00262320  0.51166785  1
  Ba2+  Ba2  1  0.00303145  0.26050191  0.01091553  1
  Ba2+  Ba3  1  -0.00403809  0.25673627  0.51243711  1
  Ba2+  Ba4  1  0.00555445  0.50152187  0.01599731  1
  Ba2+  Ba5  1  0.00164015  0.50224991  0.50035464  1
  Ba2+  Ba6  1  0.00648113  0.74317115  0.01637153  1
  Ba2+  Ba7  1  -0.00523510  0.74391390  0.50132826  1
  Ba2+  Ba8  1  0.25658745  -0.00490675  0.02452117  1
  Ba2+  Ba9  1  0.25584410  0.00673935  0.50593850  1
  Ba2+  Ba10  1  0.25433191  0.25885778  0.01017427  1
  Ba2+  Ba11  1  0.25567319  0.25522961  0.51742072  1
  Ba2+  Ba12  1  0.24387641  0.49579937  0.00628020  1
  Ba2+  Ba13  1  0.25054087  0.50210059  0.51842881  1
  Ba2+  Ba14  1  0.24484570  0.75095869  0.01873505  1
  Ba2+  Ba15  1  0.24971003  0.73655117  0.50668957  1
  Ba2+  Ba16  1  0.49994135  0.00076498  0.02291107  1
  Ba2+  Ba17  1  0.49951433  0.00235684  0.50999395  1
  Ba2+  Ba18  1  0.49490273  0.24498034  0.01161881  1
  Ba2+  Ba19  1  0.49502474  0.25494778  0.51816032  1
  Ba2+  Ba20  1  0.49621739  0.49779583  0.00191222  1
  Ba2+  Ba21  1  0.50012561  0.50277842  0.51821683  1
  Ba2+  Ba22  1  0.50149069  0.75582357  0.01429605  1
  Ba2+  Ba23  1  0.50443615  0.73974718  0.51054055  1
  Ba2+  Ba24  1  0.73797763  0.00070225  0.01073299  1
  Ba2+  Ba25  1  0.75479493  -0.00655916  0.51646090  1
  Ba2+  Ba26  1  0.74591396  0.24679686  0.00989890  1
  Ba2+  Ba27  1  0.75333591  0.25620641  0.51337851  1
  Ba2+  Ba28  1  0.75536501  0.50426399  0.01265709  1
  Ba2+  Ba29  1  0.74799570  0.50275278  0.50068057  1
  Ba2+  Ba30  1  0.74543848  0.74740148  0.01099532  1
  Ba2+  Ba31  1  0.75003744  0.74749964  0.50749395  1
  Y3+  Y32  1  -0.00052623  -0.00228633  0.25885125  1
  Y3+  Y33  1  -0.00216112  -0.00090154  0.75468867  1
  Y3+  Y34  1  -0.00005823  0.25418232  0.25478585  1
  Y3+  Y35  1  0.00151209  0.25179597  0.75892787  1
  Y3+  Y36  1  0.00051688  0.50093179  0.25507857  1
  Y3+  Y37  1  0.00558645  0.50100989  0.76035809  1
  Y3+  Y38  1  0.00010603  0.74634427  0.25905252  1
  Y3+  Y39  1  0.00125567  0.74788854  0.75542339  1
  Y3+  Y40  1  0.25236424  0.00056943  0.26056730  1
  Y3+  Y41  1  0.25125465  0.00144901  0.75158809  1
  Y3+  Y42  1  0.25284470  0.25193728  0.25483980  1
  Y3+  Y43  1  0.25125830  0.25428851  0.75858451  1
  Y3+  Y44  1  0.24866698  0.50081360  0.25592799  1
  Y3+  Y45  1  0.24880542  0.49964651  0.75970287  1
  Y3+  Y46  1  0.24847400  0.74643082  0.26010050  1
  Y3+  Y47  1  0.24890432  0.74471707  0.75479263  1
  Y3+  Y48  1  0.49957696  0.00190228  0.25830925  1
  Y3+  Y49  1  0.50137868  0.00153675  0.75361137  1
  Y3+  Y50  1  0.49760975  0.24886386  0.25476674  1
  Y3+  Y51  1  0.49842811  0.25116548  0.75919693  1
  Y3+  Y52  1  0.49853018  0.50113471  0.25885309  1
  Y3+  Y53  1  0.49894762  0.50101783  0.75719123  1
  Y3+  Y54  1  0.50015612  0.74824195  0.26113612  1
  Y3+  Y55  1  0.50175701  0.74687515  0.75361440  1
  Y3+  Y56  1  0.74858682  -0.00072505  0.25687034  1
  Y3+  Y57  1  0.74969152  -0.00095516  0.75586980  1
  Y3+  Y58  1  0.74979151  0.25118066  0.25401281  1
  Y3+  Y59  1  0.74838687  0.24879251  0.75971240  1
  Y3+  Y60  1  0.75266150  0.50084219  0.25790638  1
  Y3+  Y61  1  0.74658379  0.50231352  0.75899844  1
  Y3+  Y62  1  0.75116533  0.74796694  0.26065307  1
  Y3+  Y63  1  0.74791258  0.75000486  0.75439682  1
  Fe3+  Fe64  1  0.62555542  0.87486732  0.37781274  1
  Fe3+  Fe65  1  0.12435069  0.12714492  0.37895730  1
  Fe3+  Fe66  1  0.37501186  0.37612876  0.37593351  1
  Fe3+  Fe67  1  0.37546571  0.87370151  0.37951287  1
  Fe3+  Fe68  1  0.87521719  0.87402012  0.88002696  1
  Fe3+  Fe69  1  0.37458692  0.87508439  0.87363089  1
  Fe3+  Fe70  1  0.12671626  0.12414622  0.87908099  1
  Fe3+  Fe71  1  0.87438232  0.12621885  0.37540396  1
  Fe3+  Fe72  1  0.62538247  0.12684669  0.37950939  1
  Fe3+  Fe73  1  0.12700206  0.87517068  0.87439874  1
  Fe3+  Fe74  1  0.62435610  0.37468789  0.37623068  1
  Fe3+  Fe75  1  0.12449649  0.87470692  0.37981018  1
  Fe3+  Fe76  1  0.87494569  0.37611736  0.87959847  1
  Fe3+  Fe77  1  0.87557116  0.62611919  0.87912498  1
  Fe3+  Fe78  1  0.37457890  0.12317077  0.87564763  1
  Fe3+  Fe79  1  0.62300408  0.87505618  0.87398436  1
  Fe3+  Fe80  1  0.87546321  0.12393313  0.88000163  1
  Fe3+  Fe81  1  0.37450808  0.62659162  0.87976764  1
  Fe3+  Fe82  1  0.12577838  0.37493227  0.37683711  1
  Fe3+  Fe83  1  0.62470586  0.37519233  0.87971126  1
  Fe3+  Fe84  1  0.12590675  0.12541073  0.13475059  1
  Fe3+  Fe85  1  0.87450005  0.87392301  0.13493056  1
  Fe3+  Fe86  1  0.12388759  0.12629755  0.63371912  1
  Fe3+  Fe87  1  0.62417892  0.37568926  0.13467756  1
  Fe3+  Fe88  1  0.62447300  0.62479520  0.13807709  1
  Fe3+  Fe89  1  0.12465032  0.87380206  0.63170182  1
  Fe3+  Fe90  1  0.37536745  0.87339175  0.63243269  1
  Fe3+  Fe91  1  0.62599549  0.12621300  0.63471770  1
  Fe3+  Fe92  1  0.87560445  0.12449304  0.13332363  1
  Fe3+  Fe93  1  0.87483507  0.37796049  0.64110212  1
  Fe3+  Fe94  1  0.37474964  0.62488272  0.13541665  1
  Fe3+  Fe95  1  0.87521691  0.62341303  0.63941303  1
  Cu2+  Cu96  1  0.37543436  0.12742885  0.37414997  1
  Cu2+  Cu97  1  0.62333402  0.12384740  0.87207509  1
  Cu2+  Cu98  1  0.12538450  0.62308333  0.37269233  1
  Cu2+  Cu99  1  0.62447130  0.62581025  0.86731286  1
  Cu2+  Cu100  1  0.12477074  0.37486690  0.87250084  1
  Cu2+  Cu101  1  0.12535377  0.62615344  0.87313820  1
  Cu2+  Cu102  1  0.87436968  0.87483642  0.37172816  1
  Cu2+  Cu103  1  0.37517094  0.37546500  0.87259476  1
  Cu2+  Cu104  1  0.62466733  0.62354738  0.37207247  1
  Cu2+  Cu105  1  0.87498064  0.62386118  0.36246083  1
  Cu2+  Cu106  1  0.87502303  0.37480517  0.36028445  1
  Cu2+  Cu107  1  0.37498388  0.62291308  0.37217718  1
  Cu2+  Cu108  1  0.87497643  0.12637790  0.65293730  1
  Cu2+  Cu109  1  0.62628814  0.62391044  0.64332837  1
  Cu2+  Cu110  1  0.37520967  0.12586804  0.64100668  1
  Cu2+  Cu111  1  0.62543018  0.37523919  0.65378018  1
  Cu2+  Cu112  1  0.12457551  0.37538797  0.65048104  1
  Cu2+  Cu113  1  0.37477924  0.62451025  0.64428425  1
  Cu2+  Cu114  1  0.62525181  0.87403246  0.15531830  1
  Cu2+  Cu115  1  0.37514504  0.37614711  0.65507725  1
  Cu2+  Cu116  1  0.62467278  0.12513649  0.14225812  1
  Cu2+  Cu117  1  0.37533830  0.87317816  0.15787167  1
  Cu2+  Cu118  1  0.87492588  0.62563488  0.15039949  1
  Cu2+  Cu119  1  0.12480837  0.87515047  0.15665366  1
  Cu2+  Cu120  1  0.37572578  0.37665336  0.14046115  1
  Cu2+  Cu121  1  0.12569688  0.62455705  0.14480164  1
  Cu2+  Cu122  1  0.12385929  0.62391009  0.64184657  1
  Cu2+  Cu123  1  0.12605178  0.37515849  0.14339657  1
  Cu2+  Cu124  1  0.87439128  0.37538412  0.14621441  1
  Cu2+  Cu125  1  0.87529167  0.87265462  0.64303886  1
  Cu2+  Cu126  1  0.37412234  0.12486160  0.15237933  1
  Cu2+  Cu127  1  0.62479720  0.87459802  0.64511034  1
  O2-  O128  1  0.12777688  0.12220357  0.00587032  1
  O2-  O129  1  0.12221435  0.12788535  0.50559341  1
  O2-  O130  1  0.12462936  0.37432959  0.00732141  1
  O2-  O131  1  0.12541999  0.37331004  0.49734166  1
  O2-  O132  1  0.12649569  0.62666583  0.00853313  1
  O2-  O133  1  0.12349226  0.62331668  0.50670179  1
  O2-  O134  1  0.12849105  0.87692462  -0.00513836  1
  O2-  O135  1  0.12303566  0.87525576  0.50564833  1
  O2-  O136  1  0.37372631  0.12033436  -0.00396527  1
  O2-  O137  1  0.37562617  0.12691103  0.50648025  1
  O2-  O138  1  0.37652115  0.37536504  0.00646963  1
  O2-  O139  1  0.37547805  0.37637949  0.49674754  1
  O2-  O140  1  0.37488882  0.62831268  0.00748943  1
  O2-  O141  1  0.37577579  0.62284122  0.50789663  1
  O2-  O142  1  0.37479594  0.87611381  -0.00659874  1
  O2-  O143  1  0.37561655  0.87348780  0.50549492  1
  O2-  O144  1  0.62312229  0.12357978  0.00674054  1
  O2-  O145  1  0.62774920  0.12801147  0.50584035  1
  O2-  O146  1  0.62509040  0.37526479  0.00707865  1
  O2-  O147  1  0.62484621  0.37326912  0.49643153  1
  O2-  O148  1  0.62376733  0.62632515  0.01748718  1
  O2-  O149  1  0.62646140  0.62278140  0.50739150  1
  O2-  O150  1  0.62186325  0.87598195  -0.00521379  1
  O2-  O151  1  0.62656033  0.87594132  0.49815838  1
  O2-  O152  1  0.87611031  0.12263411  0.00629054  1
  O2-  O153  1  0.87430319  0.12749854  0.49599320  1
  O2-  O154  1  0.87425986  0.37463774  0.00005473  1
  O2-  O155  1  0.87443200  0.37753678  0.52018814  1
  O2-  O156  1  0.87539665  0.62873746  -0.00000044  1
  O2-  O157  1  0.87430690  0.62171922  0.51840582  1
  O2-  O158  1  0.87541014  0.87469295  0.00610425  1
  O2-  O159  1  0.87472454  0.87418450  0.50619070  1
  O2-  O160  1  0.12484070  0.00176703  0.16633765  1
  O2-  O161  1  0.12373478  0.00035029  0.65891950  1
  O2-  O162  1  0.12491025  0.24679715  0.16220038  1
  O2-  O163  1  0.12435654  0.24880962  0.66492768  1
  O2-  O164  1  0.12491448  0.49989629  0.16462006  1
  O2-  O165  1  0.12525804  0.49844515  0.66821167  1
  O2-  O166  1  0.12466657  0.75138584  0.16782259  1
  O2-  O167  1  0.12556780  0.75252452  0.66228255  1
  O2-  O168  1  0.37465530  -0.00153469  0.16761600  1
  O2-  O169  1  0.37484452  -0.00293845  0.65885832  1
  O2-  O170  1  0.37509340  0.24922311  0.16162177  1
  O2-  O171  1  0.37483913  0.25180805  0.66675476  1
  O2-  O172  1  0.37582767  0.50362858  0.16225875  1
  O2-  O173  1  0.37513958  0.49902328  0.66972760  1
  O2-  O174  1  0.37510042  0.74830683  0.16534300  1
  O2-  O175  1  0.37404623  0.75277929  0.66421819  1
  O2-  O176  1  0.62457274  -0.00159751  0.16702324  1
  O2-  O177  1  0.62602352  0.00226038  0.65894987  1
  O2-  O178  1  0.62539264  0.25243313  0.16186629  1
  O2-  O179  1  0.62590833  0.24885234  0.66529670  1
  O2-  O180  1  0.62527557  0.49964543  0.16428311  1
  O2-  O181  1  0.62458114  0.49835087  0.66984986  1
  O2-  O182  1  0.62527406  0.74924723  0.16705172  1
  O2-  O183  1  0.62527897  0.75061804  0.66353468  1
  O2-  O184  1  0.87631273  -0.00050319  0.16168691  1
  O2-  O185  1  0.87536696  0.00113151  0.66443937  1
  O2-  O186  1  0.87549504  0.24750353  0.16006792  1
  O2-  O187  1  0.87504701  0.25156752  0.66834585  1
  O2-  O188  1  0.87461127  0.50050182  0.16382468  1
  O2-  O189  1  0.87493182  0.50014925  0.67491721  1
  O2-  O190  1  0.87503924  0.75254068  0.16512351  1
  O2-  O191  1  0.87516846  0.74737956  0.66737234  1
  O2-  O192  1  0.00017435  0.12393854  0.16009370  1
  O2-  O193  1  0.00146448  0.12529288  0.66579299  1
  O2-  O194  1  -0.00092641  0.37479111  0.16487904  1
  O2-  O195  1  -0.00041649  0.37420246  0.66785696  1
  O2-  O196  1  -0.00094180  0.62547335  0.16535593  1
  O2-  O197  1  -0.00112884  0.62452982  0.66793038  1
  O2-  O198  1  -0.00174962  0.87592048  0.16262172  1
  O2-  O199  1  0.00304442  0.87579940  0.66571377  1
  O2-  O200  1  0.24878336  0.12345756  0.16549228  1
  O2-  O201  1  0.24657397  0.12484761  0.65992079  1
  O2-  O202  1  0.25082776  0.37477892  0.16442325  1
  O2-  O203  1  0.24980655  0.37498288  0.66443517  1
  O2-  O204  1  0.25252546  0.62633489  0.16508404  1
  O2-  O205  1  0.24942257  0.62397743  0.66488026  1
  O2-  O206  1  0.24982389  0.87515038  0.16871694  1
  O2-  O207  1  0.24926389  0.87673399  0.65648549  1
  O2-  O208  1  0.49780639  0.12419752  0.16601171  1
  O2-  O209  1  0.50314822  0.12570658  0.66057005  1
  O2-  O210  1  0.50291834  0.37508945  0.16246878  1
  O2-  O211  1  0.50048120  0.37488496  0.66527696  1
  O2-  O212  1  0.49920886  0.62635067  0.16592285  1
  O2-  O213  1  0.50033123  0.62449939  0.66536393  1
  O2-  O214  1  0.50036356  0.87450737  0.16609193  1
  O2-  O215  1  0.49861323  0.87508783  0.65871713  1
  O2-  O216  1  0.75374264  0.12390707  0.16193747  1
  O2-  O217  1  0.74889264  0.12545872  0.66600220  1
  O2-  O218  1  0.74795678  0.37493425  0.16249356  1
  O2-  O219  1  0.75034861  0.37439405  0.66981181  1
  O2-  O220  1  0.74932914  0.62529152  0.16553045  1
  O2-  O221  1  0.75146708  0.62439405  0.66897719  1
  O2-  O222  1  0.75162255  0.87621206  0.16045504  1
  O2-  O223  1  0.74900041  0.87540909  0.66702403  1
  O2-  O224  1  0.12459399  0.00053101  0.35177813  1
  O2-  O225  1  0.12495514  0.00118328  0.84255107  1
  O2-  O226  1  0.12423166  0.24976056  0.34461328  1
  O2-  O227  1  0.12430365  0.24593111  0.85000140  1
  O2-  O228  1  0.12402693  0.49738563  0.34634812  1
  O2-  O229  1  0.12531681  0.50048378  0.85219521  1
  O2-  O230  1  0.12501175  0.75194075  0.35214499  1
  O2-  O231  1  0.12480098  0.75255987  0.84454290  1
  O2-  O232  1  0.37464740  -0.00271115  0.35239992  1
  O2-  O233  1  0.37428461  -0.00043596  0.83878926  1
  O2-  O234  1  0.37514350  0.25288063  0.34410730  1
  O2-  O235  1  0.37458915  0.24812072  0.84950733  1
  O2-  O236  1  0.37491196  0.49754503  0.34328111  1
  O2-  O237  1  0.37527914  0.50338574  0.85397361  1
  O2-  O238  1  0.37451039  0.75252934  0.34981325  1
  O2-  O239  1  0.37503720  0.74938981  0.84619687  1
  O2-  O240  1  0.62546782  0.00191372  0.35029096  1
  O2-  O241  1  0.62534019  -0.00249851  0.84130607  1
  O2-  O242  1  0.62572983  0.24948487  0.34451258  1
  O2-  O243  1  0.62549346  0.25239354  0.85040725  1
  O2-  O244  1  0.62603861  0.49768990  0.34586132  1
  O2-  O245  1  0.62528661  0.49904673  0.85419747  1
  O2-  O246  1  0.62508995  0.75072199  0.34978266  1
  O2-  O247  1  0.62454347  0.75120322  0.84642901  1
  O2-  O248  1  0.87515892  0.00295696  0.34420253  1
  O2-  O249  1  0.87546788  -0.00097979  0.84943091  1
  O2-  O250  1  0.87507184  0.24904529  0.34288020  1
  O2-  O251  1  0.87533538  0.24844013  0.85134370  1
  O2-  O252  1  0.87488019  0.49999951  0.34935953  1
  O2-  O253  1  0.87354637  0.50074665  0.85321552  1
  O2-  O254  1  0.87520111  0.74731488  0.34968658  1
  O2-  O255  1  0.87567924  0.75208793  0.84848783  1
  O2-  O256  1  0.00135653  0.12509204  0.34490502  1
  O2-  O257  1  0.00015495  0.12307051  0.85141565  1
  O2-  O258  1  -0.00014809  0.37380339  0.34884998  1
  O2-  O259  1  -0.00228490  0.37406711  0.84875452  1
  O2-  O260  1  -0.00184023  0.62454460  0.34971831  1
  O2-  O261  1  -0.00145770  0.62617607  0.84873362  1
  O2-  O262  1  0.00269526  0.87557914  0.34780657  1
  O2-  O263  1  -0.00092632  0.87688826  0.84901815  1
  O2-  O264  1  0.24630749  0.12493024  0.35034627  1
  O2-  O265  1  0.24913944  0.12416154  0.84298960  1
  O2-  O266  1  0.24983945  0.37427416  0.34534087  1
  O2-  O267  1  0.24987500  0.37445768  0.84908530  1
  O2-  O268  1  0.25016231  0.62457785  0.34812519  1
  O2-  O269  1  0.25227627  0.62618517  0.84900518  1
  O2-  O270  1  0.24950959  0.87604888  0.35351696  1
  O2-  O271  1  0.25045125  0.87556007  0.83773008  1
  O2-  O272  1  0.50366528  0.12527172  0.34973559  1
  O2-  O273  1  0.49750143  0.12435045  0.84302109  1
  O2-  O274  1  0.50020571  0.37467177  0.34346824  1
  O2-  O275  1  0.50285113  0.37528718  0.84991037  1
  O2-  O276  1  0.49960865  0.62447185  0.34781631  1
  O2-  O277  1  0.49854836  0.62572206  0.85010512  1
  O2-  O278  1  0.49955519  0.87553887  0.34955717  1
  O2-  O279  1  0.49890741  0.87492969  0.84022719  1
  O2-  O280  1  0.74829993  0.12588316  0.34468410  1
  O2-  O281  1  0.75327818  0.12395897  0.85110605  1
  O2-  O282  1  0.75013851  0.37381537  0.34667786  1
  O2-  O283  1  0.74925556  0.37412611  0.85103439  1
  O2-  O284  1  0.75205008  0.62433044  0.34892053  1
  O2-  O285  1  0.75035569  0.62671833  0.85095072  1
  O2-  O286  1  0.74806186  0.87538589  0.34383599  1
  O2-  O287  1  0.75142963  0.87531798  0.85048393  1
