# generated using pymatgen
data_BaYFeCuO5
_symmetry_space_group_name_H-M   'P 1'
_cell_length_a   15.66804682
_cell_length_b   15.66676157
_cell_length_c   15.48338447
_cell_angle_alpha   90.00269861
_cell_angle_beta   90.00701480
_cell_angle_gamma   90.00287088
_symmetry_Int_Tables_number   1
_chemical_formula_structural   BaYFeCuO5
_chemical_formula_sum   'Ba32 Y32 Fe32 Cu32 O160'
_cell_volume   3800.66847111
_cell_formula_units_Z   32
loop_
 _symmetry_equiv_pos_site_id
 _symmetry_equiv_pos_as_xyz
  1  'x, y, z'
loop_
 _atom_type_symbol
 _atom_type_oxidation_number
  Ba2+  2.0
  Y3+  3.0
  Fe3+  3.0
  Cu2+  2.0
  O2-  -2.0
loop_
 _atom_site_type_symbol
 _atom_site_label
 _atom_site_symmetry_multiplicity
 _atom_site_fract_x
 _atom_site_fract_y
 _atom_site_fract_z
 _atom_site_occupancy
  Ba2+  Ba0  1  -0.00044577  -0.00297978  0.01090720  1
  Ba2+  Ba1  1  0.00194175  -0.00273606  0.52163357  1
  Ba2+  Ba2  1  -0.00558176  0.24515675  0.02243065  1
  Ba2+  Ba3  1  -0.00379486  0.24361191  0.51058228  1
  Ba2+  Ba4  1  -0.00774124  0.50633866  0.01593102  1
  Ba2+  Ba5  1  -0.00435792  0.50625023  0.51171496  1
  Ba2+  Ba6  1  -0.00285057  0.74994448  0.00586787  1
  Ba2+  Ba7  1  0.00064153  0.75346766  0.52229503  1
  Ba2+  Ba8  1  0.23893254  -0.00109002  0.01182178  1
  Ba2+  Ba9  1  0.24808173  -0.00341671  0.49851905  1
  Ba2+  Ba10  1  0.25345597  0.25273110  0.01125004  1
  Ba2+  Ba11  1  0.25290621  0.24305115  0.51149247  1
  Ba2+  Ba12  1  0.25265255  0.49762794  0.01157022  1
  Ba2+  Ba13  1  0.24951132  0.50144967  0.51669648  1
  Ba2+  Ba14  1  0.23836374  0.75108179  0.01200011  1
  Ba2+  Ba15  1  0.24299419  0.75777748  0.50658285  1
  Ba2+  Ba16  1  0.51142763  -0.00074649  0.01181448  1
  Ba2+  Ba17  1  0.49989998  -0.00104623  0.50509322  1
  Ba2+  Ba18  1  0.50587887  0.25826608  0.01164600  1
  Ba2+  Ba19  1  0.49642870  0.24427643  0.51175069  1
  Ba2+  Ba20  1  0.50639779  0.49202908  0.00168245  1
  Ba2+  Ba21  1  0.50377082  0.50402852  0.51159778  1
  Ba2+  Ba22  1  0.51138830  0.75126731  0.00254666  1
  Ba2+  Ba23  1  0.50794331  0.75288818  0.50759780  1
  Ba2+  Ba24  1  0.74966209  -0.00172447  0.01095266  1
  Ba2+  Ba25  1  0.75064812  -0.00095441  0.52598299  1
  Ba2+  Ba26  1  0.74845729  0.25219488  0.02179274  1
  Ba2+  Ba27  1  0.75339223  0.24440624  0.51085673  1
  Ba2+  Ba28  1  0.75024335  0.50009373  0.00654869  1
  Ba2+  Ba29  1  0.75120755  0.50813603  0.50652681  1
  Ba2+  Ba30  1  0.75178961  0.74931104  -0.00318278  1
  Ba2+  Ba31  1  0.75000912  0.75005174  0.52269628  1
  Y3+  Y32  1  0.00201055  -0.00128831  0.25421842  1
  Y3+  Y33  1  0.00064187  -0.00345580  0.75783996  1
  Y3+  Y34  1  -0.00273951  0.25007243  0.25747284  1
  Y3+  Y35  1  0.00005835  0.24776134  0.75356418  1
  Y3+  Y36  1  -0.00342847  0.50137586  0.25578014  1
  Y3+  Y37  1  -0.00158298  0.50311767  0.75679525  1
  Y3+  Y38  1  0.00108198  0.75088630  0.25369240  1
  Y3+  Y39  1  -0.00096535  0.75145549  0.75931324  1
  Y3+  Y40  1  0.24845626  -0.00214588  0.25641052  1
  Y3+  Y41  1  0.24641674  -0.00185443  0.75888983  1
  Y3+  Y42  1  0.25114785  0.24974265  0.25522524  1
  Y3+  Y43  1  0.25232866  0.25133409  0.75844362  1
  Y3+  Y44  1  0.25015183  0.50051321  0.25530433  1
  Y3+  Y45  1  0.25233604  0.49854920  0.75850846  1
  Y3+  Y46  1  0.24737676  0.75264307  0.25706511  1
  Y3+  Y47  1  0.24653165  0.75124614  0.75857644  1
  Y3+  Y48  1  0.50014837  -0.00090707  0.25587358  1
  Y3+  Y49  1  0.50326447  -0.00099998  0.75950951  1
  Y3+  Y50  1  0.50068120  0.25171680  0.25462768  1
  Y3+  Y51  1  0.49925090  0.25275357  0.75940933  1
  Y3+  Y52  1  0.50158152  0.49963626  0.25758259  1
  Y3+  Y53  1  0.50153915  0.49814723  0.75884241  1
  Y3+  Y54  1  0.50178664  0.75063813  0.25902933  1
  Y3+  Y55  1  0.50463757  0.74953223  0.75849884  1
  Y3+  Y56  1  0.74874792  0.00028132  0.25199110  1
  Y3+  Y57  1  0.75027911  -0.00270948  0.75899132  1
  Y3+  Y58  1  0.75031099  0.25194783  0.25634149  1
  Y3+  Y59  1  0.74868221  0.24924897  0.75560588  1
  Y3+  Y60  1  0.75119966  0.50009517  0.25714560  1
  Y3+  Y61  1  0.74863920  0.50303969  0.75850336  1
  Y3+  Y62  1  0.74948918  0.74880059  0.25544249  1
  Y3+  Y63  1  0.75016911  0.74915488  0.75945308  1
  Fe3+  Fe64  1  0.12398085  0.12619437  0.87719345  1
  Fe3+  Fe65  1  0.37552842  0.12436823  0.88181155  1
  Fe3+  Fe66  1  0.12286388  0.37459221  0.87917572  1
  Fe3+  Fe67  1  0.12449836  0.62357164  0.87652742  1
  Fe3+  Fe68  1  0.62783915  0.87566305  0.37630705  1
  Fe3+  Fe69  1  0.62621523  0.12636764  0.87673957  1
  Fe3+  Fe70  1  0.62571319  0.37495769  0.38020932  1
  Fe3+  Fe71  1  0.87491112  0.62771699  0.37609438  1
  Fe3+  Fe72  1  0.87431834  0.12245680  0.37481545  1
  Fe3+  Fe73  1  0.12406684  0.37527127  0.37873254  1
  Fe3+  Fe74  1  0.62515792  0.12451561  0.37545626  1
  Fe3+  Fe75  1  0.37451169  0.37500687  0.37814995  1
  Fe3+  Fe76  1  0.12453237  0.12454968  0.37467453  1
  Fe3+  Fe77  1  0.87522137  0.87564958  0.37732875  1
  Fe3+  Fe78  1  0.37481586  0.62659351  0.38005838  1
  Fe3+  Fe79  1  0.87490362  0.12520663  0.87571845  1
  Fe3+  Fe80  1  0.12422792  0.62572018  0.37623383  1
  Fe3+  Fe81  1  0.87514714  0.37368115  0.87632670  1
  Fe3+  Fe82  1  0.37477056  0.87499147  0.88253002  1
  Fe3+  Fe83  1  0.37561386  0.62544781  0.88056458  1
  Fe3+  Fe84  1  0.62545009  0.62479061  0.13805564  1
  Fe3+  Fe85  1  0.37549509  0.87396481  0.13470108  1
  Fe3+  Fe86  1  0.62491273  0.37439799  0.63459795  1
  Fe3+  Fe87  1  0.12500828  0.37452651  0.63413411  1
  Fe3+  Fe88  1  0.37514568  0.62662276  0.63683119  1
  Fe3+  Fe89  1  0.37479778  0.12260141  0.64115754  1
  Fe3+  Fe90  1  0.37532085  0.87482142  0.63986166  1
  Fe3+  Fe91  1  0.87435025  0.37539949  0.63517935  1
  Fe3+  Fe92  1  0.37563084  0.12474963  0.13475376  1
  Fe3+  Fe93  1  0.87392161  0.87406278  0.13600991  1
  Fe3+  Fe94  1  0.12386333  0.37546908  0.13504291  1
  Fe3+  Fe95  1  0.37595970  0.62544887  0.13467256  1
  Cu2+  Cu96  1  0.62508577  0.62409867  0.86368697  1
  Cu2+  Cu97  1  0.62568731  0.62575654  0.37383103  1
  Cu2+  Cu98  1  0.37521082  0.37481679  0.87433530  1
  Cu2+  Cu99  1  0.37519371  0.12486142  0.35837076  1
  Cu2+  Cu100  1  0.12433749  0.87478991  0.87347470  1
  Cu2+  Cu101  1  0.87531676  0.62445468  0.87225525  1
  Cu2+  Cu102  1  0.62598747  0.87565779  0.87270104  1
  Cu2+  Cu103  1  0.37539675  0.87476420  0.36230554  1
  Cu2+  Cu104  1  0.87507957  0.37511413  0.36743100  1
  Cu2+  Cu105  1  0.62740925  0.37380243  0.86955993  1
  Cu2+  Cu106  1  0.87517542  0.87542744  0.86411785  1
  Cu2+  Cu107  1  0.12257059  0.87510537  0.37108696  1
  Cu2+  Cu108  1  0.12622097  0.87517495  0.64432008  1
  Cu2+  Cu109  1  0.87423565  0.12409999  0.15070618  1
  Cu2+  Cu110  1  0.62518118  0.87345123  0.14171500  1
  Cu2+  Cu111  1  0.12469180  0.62447216  0.14911171  1
  Cu2+  Cu112  1  0.87475697  0.87457363  0.65446240  1
  Cu2+  Cu113  1  0.12635141  0.12467781  0.65147359  1
  Cu2+  Cu114  1  0.12566902  0.62474007  0.65170945  1
  Cu2+  Cu115  1  0.87511033  0.12448882  0.65206336  1
  Cu2+  Cu116  1  0.62455912  0.87525517  0.65406677  1
  Cu2+  Cu117  1  0.62554687  0.37703553  0.14487238  1
  Cu2+  Cu118  1  0.62468553  0.62456285  0.64339524  1
  Cu2+  Cu119  1  0.37584822  0.37646429  0.14172035  1
  Cu2+  Cu120  1  0.12407252  0.87473034  0.14165277  1
  Cu2+  Cu121  1  0.87363262  0.62638280  0.14154761  1
  Cu2+  Cu122  1  0.87509463  0.62512001  0.65336085  1
  Cu2+  Cu123  1  0.87454770  0.37569228  0.15145276  1
  Cu2+  Cu124  1  0.37530619  0.37507719  0.64815922  1
  Cu2+  Cu125  1  0.62449420  0.12562446  0.14989793  1
  Cu2+  Cu126  1  0.12518882  0.12579854  0.14987606  1
  Cu2+  Cu127  1  0.62384592  0.12509445  0.65170364  1
  O2-  O128  1  0.12296427  0.12850665  -0.00294344  1
  O2-  O129  1  0.12530452  0.12432883  0.49509352  1
  O2-  O130  1  0.12269138  0.37473880  0.00579491  1
  O2-  O131  1  0.12557089  0.37475807  0.50560636  1
  O2-  O132  1  0.12501563  0.62102122  -0.00317558  1
  O2-  O133  1  0.12524236  0.62529555  0.49635061  1
  O2-  O134  1  0.12379484  0.87502312  0.00729783  1
  O2-  O135  1  0.12443268  0.87604284  0.50762786  1
  O2-  O136  1  0.37587650  0.12533536  0.00797535  1
  O2-  O137  1  0.37421071  0.12158085  0.52059052  1
  O2-  O138  1  0.37470745  0.37542946  0.00727785  1
  O2-  O139  1  0.37257804  0.37368557  0.49817734  1
  O2-  O140  1  0.37601946  0.62468118  0.00767710  1
  O2-  O141  1  0.37402869  0.62732946  0.50795537  1
  O2-  O142  1  0.37483971  0.87427808  0.00882813  1
  O2-  O143  1  0.37529062  0.87557598  0.51974390  1
  O2-  O144  1  0.62666344  0.12786740  -0.00300084  1
  O2-  O145  1  0.62475441  0.12346422  0.49561254  1
  O2-  O146  1  0.62756631  0.37515572  0.00803412  1
  O2-  O147  1  0.62456776  0.37379188  0.50718042  1
  O2-  O148  1  0.62436617  0.62299130  0.01752693  1
  O2-  O149  1  0.62460270  0.62579564  0.50908172  1
  O2-  O150  1  0.62618573  0.87478531  0.00665598  1
  O2-  O151  1  0.62703085  0.87717985  0.49668693  1
  O2-  O152  1  0.87440715  0.12683016  -0.00452020  1
  O2-  O153  1  0.87477004  0.12159340  0.49521995  1
  O2-  O154  1  0.87601374  0.37290941  -0.00335134  1
  O2-  O155  1  0.87577788  0.37532069  0.51509111  1
  O2-  O156  1  0.87400639  0.62513640  0.00573609  1
  O2-  O157  1  0.87614246  0.62832842  0.49674573  1
  O2-  O158  1  0.87454155  0.87430367  0.01516672  1
  O2-  O159  1  0.87458653  0.87604442  0.49742090  1
  O2-  O160  1  0.12617716  0.00175864  0.16204819  1
  O2-  O161  1  0.12565279  0.00122133  0.66774654  1
  O2-  O162  1  0.12487338  0.25226194  0.16377263  1
  O2-  O163  1  0.12632600  0.25138130  0.66032728  1
  O2-  O164  1  0.12515190  0.49814041  0.16442904  1
  O2-  O165  1  0.12583456  0.49796550  0.66139937  1
  O2-  O166  1  0.12564967  0.74833363  0.16368143  1
  O2-  O167  1  0.12606692  0.74847900  0.66681325  1
  O2-  O168  1  0.37499062  -0.00035627  0.16102070  1
  O2-  O169  1  0.37553291  -0.00105616  0.67488936  1
  O2-  O170  1  0.37506875  0.24766655  0.16291574  1
  O2-  O171  1  0.37451660  0.24921625  0.66626468  1
  O2-  O172  1  0.37426301  0.50372762  0.16649983  1
  O2-  O173  1  0.37465732  0.50149434  0.66285233  1
  O2-  O174  1  0.37461541  0.74956051  0.16349073  1
  O2-  O175  1  0.37496201  0.74933582  0.67038805  1
  O2-  O176  1  0.62363245  0.00089967  0.16052023  1
  O2-  O177  1  0.62396175  0.00036637  0.66625819  1
  O2-  O178  1  0.62445610  0.24990268  0.16604278  1
  O2-  O179  1  0.62388244  0.25131382  0.66019316  1
  O2-  O180  1  0.62468087  0.50240675  0.17169991  1
  O2-  O181  1  0.62427882  0.49635174  0.66372327  1
  O2-  O182  1  0.62335761  0.74784112  0.16777131  1
  O2-  O183  1  0.62458251  0.75103689  0.66658740  1
  O2-  O184  1  0.87430211  -0.00029736  0.16135660  1
  O2-  O185  1  0.87516151  0.00029797  0.66612847  1
  O2-  O186  1  0.87495749  0.24925407  0.16531765  1
  O2-  O187  1  0.87569053  0.25019212  0.66135664  1
  O2-  O188  1  0.87463576  0.49986326  0.16564393  1
  O2-  O189  1  0.87554828  0.49942848  0.66454768  1
  O2-  O190  1  0.87518532  0.75160277  0.16529860  1
  O2-  O191  1  0.87504877  0.74946956  0.66618766  1
  O2-  O192  1  -0.00000428  0.12574884  0.16260046  1
  O2-  O193  1  0.00112374  0.12540604  0.66143996  1
  O2-  O194  1  0.00063541  0.37511874  0.16329527  1
  O2-  O195  1  0.00115504  0.37457950  0.66300027  1
  O2-  O196  1  0.00067038  0.62405260  0.16240159  1
  O2-  O197  1  0.00052558  0.62433602  0.66312694  1
  O2-  O198  1  -0.00179069  0.87574304  0.16398307  1
  O2-  O199  1  -0.00062629  0.87457642  0.66533955  1
  O2-  O200  1  0.25206272  0.12572432  0.16187493  1
  O2-  O201  1  0.25108640  0.12533688  0.67115466  1
  O2-  O202  1  0.24721283  0.37546124  0.16238903  1
  O2-  O203  1  0.24824916  0.37531145  0.66596527  1
  O2-  O204  1  0.25152191  0.62470795  0.16202695  1
  O2-  O205  1  0.25208853  0.62414027  0.66558534  1
  O2-  O206  1  0.25258138  0.87458433  0.16381961  1
  O2-  O207  1  0.25188445  0.87446961  0.67015441  1
  O2-  O208  1  0.49832027  0.12495695  0.16361201  1
  O2-  O209  1  0.49889607  0.12512044  0.66935307  1
  O2-  O210  1  0.50016577  0.37628602  0.16775350  1
  O2-  O211  1  0.50151063  0.37459324  0.66424581  1
  O2-  O212  1  0.49869900  0.62522922  0.16854993  1
  O2-  O213  1  0.49683789  0.62489007  0.66622071  1
  O2-  O214  1  0.49712180  0.87448594  0.16482801  1
  O2-  O215  1  0.49974386  0.87444453  0.66923411  1
  O2-  O216  1  0.74898116  0.12580411  0.16294777  1
  O2-  O217  1  0.74915057  0.12541982  0.66173224  1
  O2-  O218  1  0.75159588  0.37520070  0.16725107  1
  O2-  O219  1  0.74906370  0.37384664  0.66252277  1
  O2-  O220  1  0.74841237  0.62486662  0.16714229  1
  O2-  O221  1  0.75105547  0.62460216  0.66532029  1
  O2-  O222  1  0.75090508  0.87519499  0.16478797  1
  O2-  O223  1  0.74938474  0.87518309  0.66441277  1
  O2-  O224  1  0.12575938  0.00172968  0.34443915  1
  O2-  O225  1  0.12518073  0.00188464  0.85041718  1
  O2-  O226  1  0.12575533  0.25133675  0.34742979  1
  O2-  O227  1  0.12519675  0.25124425  0.84376157  1
  O2-  O228  1  0.12540977  0.49920203  0.34807556  1
  O2-  O229  1  0.12547138  0.49803159  0.84487549  1
  O2-  O230  1  0.12584109  0.74846509  0.34603191  1
  O2-  O231  1  0.12570030  0.74799276  0.85008755  1
  O2-  O232  1  0.37484808  -0.00028249  0.34630272  1
  O2-  O233  1  0.37468546  0.00010582  0.85603261  1
  O2-  O234  1  0.37430974  0.25146565  0.34610737  1
  O2-  O235  1  0.37457987  0.24654846  0.84972164  1
  O2-  O236  1  0.37417823  0.50101080  0.34965130  1
  O2-  O237  1  0.37513867  0.50317126  0.84852656  1
  O2-  O238  1  0.37431717  0.74870155  0.34831614  1
  O2-  O239  1  0.37522570  0.74959048  0.85422237  1
  O2-  O240  1  0.62394114  0.00031179  0.34204883  1
  O2-  O241  1  0.62523319  0.00238620  0.84911078  1
  O2-  O242  1  0.62431922  0.25118296  0.34895960  1
  O2-  O243  1  0.62477655  0.24793573  0.84229404  1
  O2-  O244  1  0.62419200  0.49729850  0.35428821  1
  O2-  O245  1  0.62484736  0.50044554  0.84730559  1
  O2-  O246  1  0.62450986  0.75207441  0.34804201  1
  O2-  O247  1  0.62489777  0.74866845  0.85110866  1
  O2-  O248  1  0.87489219  -0.00001582  0.34084352  1
  O2-  O249  1  0.87531500  0.00013703  0.84941815  1
  O2-  O250  1  0.87503646  0.24888026  0.34920669  1
  O2-  O251  1  0.87591195  0.24951125  0.84074524  1
  O2-  O252  1  0.87575242  0.50118010  0.34954876  1
  O2-  O253  1  0.87547998  0.49761876  0.84617052  1
  O2-  O254  1  0.87497015  0.75091195  0.34374060  1
  O2-  O255  1  0.87509763  0.75167460  0.85085135  1
  O2-  O256  1  -0.00022379  0.12596014  0.34402926  1
  O2-  O257  1  0.00003118  0.12537081  0.84325702  1
  O2-  O258  1  0.00226791  0.37486192  0.34814366  1
  O2-  O259  1  0.00133083  0.37454517  0.84474919  1
  O2-  O260  1  -0.00003799  0.62465417  0.34371002  1
  O2-  O261  1  0.00186710  0.62421029  0.84601760  1
  O2-  O262  1  -0.00208949  0.87537804  0.34443448  1
  O2-  O263  1  -0.00139254  0.87485531  0.84915235  1
  O2-  O264  1  0.24998850  0.12546182  0.34571544  1
  O2-  O265  1  0.25079540  0.12554595  0.85248669  1
  O2-  O266  1  0.24875398  0.37557112  0.34592590  1
  O2-  O267  1  0.24636236  0.37502542  0.85134948  1
  O2-  O268  1  0.25085483  0.62474467  0.34650413  1
  O2-  O269  1  0.25126860  0.62424429  0.84899610  1
  O2-  O270  1  0.25073143  0.87524090  0.34867922  1
  O2-  O271  1  0.25299765  0.87460015  0.85192459  1
  O2-  O272  1  0.50006873  0.12517000  0.34724721  1
  O2-  O273  1  0.49902588  0.12467644  0.85106630  1
  O2-  O274  1  0.50048171  0.37506546  0.35018618  1
  O2-  O275  1  0.50117462  0.37503498  0.84912274  1
  O2-  O276  1  0.49710810  0.62543534  0.35210049  1
  O2-  O277  1  0.49888080  0.62485523  0.85110352  1
  O2-  O278  1  0.50113503  0.87539848  0.34868660  1
  O2-  O279  1  0.49682702  0.87472195  0.85202150  1
  O2-  O280  1  0.74943581  0.12567802  0.34397026  1
  O2-  O281  1  0.75064582  0.12515545  0.84356043  1
  O2-  O282  1  0.74816955  0.37484850  0.35139602  1
  O2-  O283  1  0.75215610  0.37433683  0.84406779  1
  O2-  O284  1  0.75162035  0.62454369  0.34763733  1
  O2-  O285  1  0.74855847  0.62452674  0.84937510  1
  O2-  O286  1  0.75052316  0.87587961  0.34328356  1
  O2-  O287  1  0.75177168  0.87479545  0.84879424  1
