# generated using pymatgen
data_BaYFeCuO5
_symmetry_space_group_name_H-M   'P 1'
_cell_length_a   15.65052707
_cell_length_b   15.65192904
_cell_length_c   15.43944526
_cell_angle_alpha   90.00156287
_cell_angle_beta   90.00242709
_cell_angle_gamma   90.00139952
_symmetry_Int_Tables_number   1
_chemical_formula_structural   BaYFeCuO5
_chemical_formula_sum   'Ba32 Y32 Fe32 Cu32 O160'
_cell_volume   3782.06100394
_cell_formula_units_Z   32
loop_
 _symmetry_equiv_pos_site_id
 _symmetry_equiv_pos_as_xyz
  1  'x, y, z'
loop_
 _atom_type_symbol
 _atom_type_oxidation_number
  Ba2+  2.0
  Y3+  3.0
  Fe3+  3.0
  Cu2+  2.0
  O2-  -2.0
loop_
 _atom_site_type_symbol
 _atom_site_label
 _atom_site_symmetry_multiplicity
 _atom_site_fract_x
 _atom_site_fract_y
 _atom_site_fract_z
 _atom_site_occupancy
  Ba2+  Ba0  1  0.00043101  0.00029623  0.01748414  1
  Ba2+  Ba1  1  -0.00162619  -0.00079077  0.50674886  1
  Ba2+  Ba2  1  0.00993498  0.24570180  0.01040825  1
  Ba2+  Ba3  1  -0.00287025  0.25406066  0.50181508  1
  Ba2+  Ba4  1  0.00343981  0.49716705  0.01106212  1
  Ba2+  Ba5  1  -0.00305029  0.50429064  0.51264341  1
  Ba2+  Ba6  1  -0.00643016  0.75644103  0.01513957  1
  Ba2+  Ba7  1  -0.00288412  0.74324421  0.51666120  1
  Ba2+  Ba8  1  0.24333824  0.00680751  0.01574692  1
  Ba2+  Ba9  1  0.25082046  0.00802420  0.50659946  1
  Ba2+  Ba10  1  0.24515154  0.24966328  0.01643520  1
  Ba2+  Ba11  1  0.25752173  0.25151719  0.50738469  1
  Ba2+  Ba12  1  0.25227844  0.49272424  0.01815343  1
  Ba2+  Ba13  1  0.25555156  0.50484428  0.50684449  1
  Ba2+  Ba14  1  0.24978244  0.75004453  0.01682077  1
  Ba2+  Ba15  1  0.24980313  0.73788050  0.50633079  1
  Ba2+  Ba16  1  0.49954934  -0.00057287  0.01651728  1
  Ba2+  Ba17  1  0.50858518  0.00311211  0.51061552  1
  Ba2+  Ba18  1  0.48873757  0.25052295  0.01799878  1
  Ba2+  Ba19  1  0.49660461  0.24663596  0.51274492  1
  Ba2+  Ba20  1  0.49722688  0.50661860  0.01697427  1
  Ba2+  Ba21  1  0.49212167  0.50339386  0.50314970  1
  Ba2+  Ba22  1  0.50690614  0.74426768  0.01549514  1
  Ba2+  Ba23  1  0.50511172  0.74596533  0.50076378  1
  Ba2+  Ba24  1  0.75676089  -0.00716618  0.01534503  1
  Ba2+  Ba25  1  0.74205975  -0.00439466  0.51057814  1
  Ba2+  Ba26  1  0.75551310  0.24499107  0.01218310  1
  Ba2+  Ba27  1  0.74888998  0.24964377  0.50691009  1
  Ba2+  Ba28  1  0.74774516  0.51132627  0.01096490  1
  Ba2+  Ba29  1  0.75659167  0.50224155  0.50763726  1
  Ba2+  Ba30  1  0.75025223  0.75096613  0.01686414  1
  Ba2+  Ba31  1  0.74806869  0.75191962  0.51262121  1
  Y3+  Y32  1  0.00025500  0.00087827  0.25551859  1
  Y3+  Y33  1  -0.00122848  -0.00117084  0.75907582  1
  Y3+  Y34  1  0.00177851  0.24978393  0.25676018  1
  Y3+  Y35  1  0.00185126  0.25187930  0.75944490  1
  Y3+  Y36  1  0.00075150  0.49927875  0.25891411  1
  Y3+  Y37  1  0.00089923  0.49934845  0.75596485  1
  Y3+  Y38  1  -0.00072848  0.75000708  0.25572395  1
  Y3+  Y39  1  -0.00200030  0.75000882  0.75631041  1
  Y3+  Y40  1  0.24749906  0.00195792  0.25634988  1
  Y3+  Y41  1  0.24965272  0.00150693  0.75685237  1
  Y3+  Y42  1  0.24897898  0.25081885  0.25702383  1
  Y3+  Y43  1  0.24935818  0.25118040  0.75802832  1
  Y3+  Y44  1  0.25150239  0.49978444  0.26084847  1
  Y3+  Y45  1  0.25030506  0.49981977  0.75361881  1
  Y3+  Y46  1  0.24979028  0.74741578  0.25997377  1
  Y3+  Y47  1  0.24998320  0.74731569  0.75308617  1
  Y3+  Y48  1  0.50317913  -0.00095813  0.26012720  1
  Y3+  Y49  1  0.50186266  0.00035673  0.75243095  1
  Y3+  Y50  1  0.49822855  0.25074356  0.26058225  1
  Y3+  Y51  1  0.49869418  0.24957440  0.75307518  1
  Y3+  Y52  1  0.49774864  0.50260824  0.25933997  1
  Y3+  Y53  1  0.49841428  0.50117913  0.75609604  1
  Y3+  Y54  1  0.50296157  0.74779290  0.25818808  1
  Y3+  Y55  1  0.50189291  0.74882424  0.75559394  1
  Y3+  Y56  1  0.74887249  -0.00188659  0.25846057  1
  Y3+  Y57  1  0.74971969  -0.00306184  0.75441981  1
  Y3+  Y58  1  0.75073919  0.24989177  0.26058620  1
  Y3+  Y59  1  0.75012494  0.24997515  0.75453126  1
  Y3+  Y60  1  0.74980683  0.50201395  0.25721481  1
  Y3+  Y61  1  0.75075843  0.50053556  0.75804218  1
  Y3+  Y62  1  0.74763465  0.75047776  0.25559847  1
  Y3+  Y63  1  0.75034413  0.75181559  0.75858177  1
  Fe3+  Fe64  1  0.37502581  0.87485768  0.87934566  1
  Fe3+  Fe65  1  0.12469787  0.87433245  0.37933428  1
  Fe3+  Fe66  1  0.87508709  0.37481805  0.88022363  1
  Fe3+  Fe67  1  0.37534210  0.12444624  0.37479761  1
  Fe3+  Fe68  1  0.12526613  0.87469815  0.87680348  1
  Fe3+  Fe69  1  0.12564504  0.62479668  0.87917965  1
  Fe3+  Fe70  1  0.62386689  0.37494330  0.88119283  1
  Fe3+  Fe71  1  0.37479064  0.12450878  0.87618415  1
  Fe3+  Fe72  1  0.87481596  0.62583192  0.37416996  1
  Fe3+  Fe73  1  0.12517792  0.37578492  0.37925796  1
  Fe3+  Fe74  1  0.37473298  0.37522453  0.87607679  1
  Fe3+  Fe75  1  0.87525921  0.62596983  0.87743223  1
  Fe3+  Fe76  1  0.87463064  0.87403154  0.37733713  1
  Fe3+  Fe77  1  0.62473982  0.87505399  0.87795735  1
  Fe3+  Fe78  1  0.62457958  0.37612626  0.37924628  1
  Fe3+  Fe79  1  0.87551939  0.12388941  0.87678018  1
  Fe3+  Fe80  1  0.87469241  0.12450666  0.37842006  1
  Fe3+  Fe81  1  0.62478703  0.12514728  0.87956445  1
  Fe3+  Fe82  1  0.37526395  0.87480050  0.37885643  1
  Fe3+  Fe83  1  0.37471913  0.62547168  0.87740052  1
  Fe3+  Fe84  1  0.62438765  0.37511208  0.13552565  1
  Fe3+  Fe85  1  0.87507713  0.37503724  0.13579049  1
  Fe3+  Fe86  1  0.37491564  0.87494466  0.13648634  1
  Fe3+  Fe87  1  0.12432080  0.12582666  0.63570564  1
  Fe3+  Fe88  1  0.62507482  0.12529463  0.13572756  1
  Fe3+  Fe89  1  0.12525184  0.87463938  0.63358224  1
  Fe3+  Fe90  1  0.37544844  0.87430665  0.63260960  1
  Fe3+  Fe91  1  0.62479331  0.37609977  0.63505515  1
  Fe3+  Fe92  1  0.87517839  0.12486218  0.63522355  1
  Fe3+  Fe93  1  0.12471030  0.62449890  0.13594256  1
  Fe3+  Fe94  1  0.12538402  0.37539173  0.63476909  1
  Fe3+  Fe95  1  0.62546687  0.62434850  0.63750084  1
  Cu2+  Cu96  1  0.62540981  0.87433533  0.37212661  1
  Cu2+  Cu97  1  0.12339335  0.62501000  0.37182662  1
  Cu2+  Cu98  1  0.62475803  0.62516907  0.87227427  1
  Cu2+  Cu99  1  0.87479486  0.37581730  0.37216397  1
  Cu2+  Cu100  1  0.37507722  0.37499552  0.37246890  1
  Cu2+  Cu101  1  0.12457379  0.12529457  0.36758559  1
  Cu2+  Cu102  1  0.12624167  0.37568925  0.87331754  1
  Cu2+  Cu103  1  0.12527087  0.12462550  0.87016960  1
  Cu2+  Cu104  1  0.37515839  0.62609682  0.37049322  1
  Cu2+  Cu105  1  0.62535539  0.12567364  0.37246468  1
  Cu2+  Cu106  1  0.62617737  0.62429957  0.36506587  1
  Cu2+  Cu107  1  0.87503430  0.87519092  0.87201985  1
  Cu2+  Cu108  1  0.87565958  0.62426381  0.14938632  1
  Cu2+  Cu109  1  0.12548575  0.87445428  0.15245009  1
  Cu2+  Cu110  1  0.37428287  0.12423700  0.65037177  1
  Cu2+  Cu111  1  0.62435530  0.87525717  0.15017038  1
  Cu2+  Cu112  1  0.37625768  0.62570220  0.64253344  1
  Cu2+  Cu113  1  0.87515368  0.37450392  0.64072941  1
  Cu2+  Cu114  1  0.37518996  0.37574446  0.64004850  1
  Cu2+  Cu115  1  0.12500661  0.37550783  0.14493932  1
  Cu2+  Cu116  1  0.37414786  0.62565965  0.15286260  1
  Cu2+  Cu117  1  0.62596726  0.12554134  0.64175332  1
  Cu2+  Cu118  1  0.12488575  0.62425201  0.64108734  1
  Cu2+  Cu119  1  0.87493753  0.87517213  0.14431016  1
  Cu2+  Cu120  1  0.87524320  0.87504900  0.64600341  1
  Cu2+  Cu121  1  0.37534717  0.37508168  0.15466183  1
  Cu2+  Cu122  1  0.87395973  0.62504243  0.65424840  1
  Cu2+  Cu123  1  0.62456114  0.87353697  0.64209922  1
  Cu2+  Cu124  1  0.12458184  0.12550307  0.14476912  1
  Cu2+  Cu125  1  0.37537691  0.12432564  0.15311514  1
  Cu2+  Cu126  1  0.87442021  0.12568042  0.15314990  1
  Cu2+  Cu127  1  0.62515793  0.62438390  0.14441498  1
  O2-  O128  1  0.12516722  0.12427325  0.00852273  1
  O2-  O129  1  0.12337783  0.12562064  0.51539421  1
  O2-  O130  1  0.12590777  0.37566630  0.00806607  1
  O2-  O131  1  0.12484803  0.37542181  0.50742915  1
  O2-  O132  1  0.12591786  0.62519549  0.00680997  1
  O2-  O133  1  0.12312620  0.62423821  0.50692526  1
  O2-  O134  1  0.12624381  0.87484340  -0.00257558  1
  O2-  O135  1  0.12494892  0.87450363  0.50637609  1
  O2-  O136  1  0.37492318  0.12383444  -0.00325318  1
  O2-  O137  1  0.37614326  0.12349508  0.49612897  1
  O2-  O138  1  0.37499045  0.37490927  -0.00310219  1
  O2-  O139  1  0.37572728  0.37451139  0.50655011  1
  O2-  O140  1  0.37351685  0.62597939  -0.00207453  1
  O2-  O141  1  0.37616369  0.62675871  0.50618923  1
  O2-  O142  1  0.37448858  0.87511720  0.00609962  1
  O2-  O143  1  0.37502686  0.87531131  0.50566215  1
  O2-  O144  1  0.62461426  0.12513755  0.00623478  1
  O2-  O145  1  0.62594734  0.12651979  0.50668417  1
  O2-  O146  1  0.62374466  0.37367299  0.00805611  1
  O2-  O147  1  0.62516148  0.37648791  0.50738185  1
  O2-  O148  1  0.62454783  0.62472320  0.00849332  1
  O2-  O149  1  0.62664989  0.62272637  0.51660559  1
  O2-  O150  1  0.62383163  0.87645742  -0.00142866  1
  O2-  O151  1  0.62446931  0.87370582  0.50651961  1
  O2-  O152  1  0.87549275  0.12414808  -0.00255006  1
  O2-  O153  1  0.87448258  0.12485558  0.50684181  1
  O2-  O154  1  0.87495039  0.37419424  0.00734751  1
  O2-  O155  1  0.87452805  0.37493734  0.50738075  1
  O2-  O156  1  0.87608563  0.62571570  -0.00195028  1
  O2-  O157  1  0.87437353  0.62607284  0.49535790  1
  O2-  O158  1  0.87562354  0.87567933  0.00791508  1
  O2-  O159  1  0.87541720  0.87350727  0.49790509  1
  O2-  O160  1  0.12501465  -0.00118024  0.16703253  1
  O2-  O161  1  0.12543184  -0.00104611  0.66220847  1
  O2-  O162  1  0.12468965  0.25084709  0.16724432  1
  O2-  O163  1  0.12461654  0.25074391  0.66578350  1
  O2-  O164  1  0.12551165  0.50247770  0.16437803  1
  O2-  O165  1  0.12468155  0.49750417  0.66509571  1
  O2-  O166  1  0.12495740  0.74802370  0.16334808  1
  O2-  O167  1  0.12477925  0.75280139  0.66311368  1
  O2-  O168  1  0.37480799  -0.00181577  0.16292359  1
  O2-  O169  1  0.37399008  -0.00203361  0.66264162  1
  O2-  O170  1  0.37579172  0.24927129  0.16458661  1
  O2-  O171  1  0.37524457  0.24814486  0.66341499  1
  O2-  O172  1  0.37476867  0.50052211  0.16525603  1
  O2-  O173  1  0.37533998  0.50077106  0.66500445  1
  O2-  O174  1  0.37472454  0.75210405  0.16332608  1
  O2-  O175  1  0.37454880  0.75300585  0.66487707  1
  O2-  O176  1  0.62506274  0.00221865  0.16372977  1
  O2-  O177  1  0.62514002  -0.00040977  0.66397029  1
  O2-  O178  1  0.62449725  0.25023574  0.16327850  1
  O2-  O179  1  0.62512595  0.25287059  0.66491302  1
  O2-  O180  1  0.62508315  0.49648856  0.16436206  1
  O2-  O181  1  0.62581687  0.49911549  0.66846708  1
  O2-  O182  1  0.62440509  0.75089112  0.16444258  1
  O2-  O183  1  0.62569730  0.74784406  0.66615278  1
  O2-  O184  1  0.87444809  0.00176890  0.16752620  1
  O2-  O185  1  0.87542453  0.00155849  0.66123316  1
  O2-  O186  1  0.87410051  0.25200102  0.16541855  1
  O2-  O187  1  0.87556094  0.24663317  0.66550584  1
  O2-  O188  1  0.87399513  0.49784641  0.16199218  1
  O2-  O189  1  0.87471944  0.50155271  0.66665317  1
  O2-  O190  1  0.87580316  0.74849353  0.16308415  1
  O2-  O191  1  0.87511160  0.74935144  0.66354083  1
  O2-  O192  1  -0.00177260  0.12545263  0.16751437  1
  O2-  O193  1  -0.00030533  0.12427166  0.66457246  1
  O2-  O194  1  -0.00304485  0.37531270  0.16558357  1
  O2-  O195  1  0.00311010  0.37504042  0.66535647  1
  O2-  O196  1  0.00158430  0.62402687  0.16201299  1
  O2-  O197  1  -0.00264043  0.62456145  0.66499982  1
  O2-  O198  1  0.00157001  0.87553974  0.16640132  1
  O2-  O199  1  0.00191403  0.87529819  0.66164682  1
  O2-  O200  1  0.25148191  0.12491992  0.16626070  1
  O2-  O201  1  0.24854061  0.12458768  0.66362175  1
  O2-  O202  1  0.25188502  0.37488418  0.16740323  1
  O2-  O203  1  0.24761967  0.37456022  0.66190523  1
  O2-  O204  1  0.24846383  0.62589576  0.16448742  1
  O2-  O205  1  0.25056691  0.62540110  0.66415658  1
  O2-  O206  1  0.25161813  0.87474616  0.16537730  1
  O2-  O207  1  0.24971999  0.87507802  0.66141820  1
  O2-  O208  1  0.50188893  0.12479836  0.16174943  1
  O2-  O209  1  0.49866651  0.12456475  0.66428260  1
  O2-  O210  1  0.50111433  0.37454370  0.16402476  1
  O2-  O211  1  0.50258375  0.37504481  0.66387326  1
  O2-  O212  1  0.49825194  0.62495146  0.16586057  1
  O2-  O213  1  0.50226750  0.62482413  0.66661140  1
  O2-  O214  1  0.49839206  0.87570380  0.16393028  1
  O2-  O215  1  0.49725244  0.87539661  0.66431531  1
  O2-  O216  1  0.74771283  0.12651336  0.16293267  1
  O2-  O217  1  0.75297711  0.12548555  0.66575982  1
  O2-  O218  1  0.74947410  0.37365900  0.16257460  1
  O2-  O219  1  0.74722859  0.37460530  0.66687429  1
  O2-  O220  1  0.75158632  0.62450509  0.16405306  1
  O2-  O221  1  0.75010041  0.62417877  0.66662413  1
  O2-  O222  1  0.74818789  0.87533956  0.16473662  1
  O2-  O223  1  0.75116562  0.87482783  0.66441874  1
  O2-  O224  1  0.12468687  -0.00205941  0.35190282  1
  O2-  O225  1  0.12571787  -0.00184124  0.84432801  1
  O2-  O226  1  0.12452749  0.25169621  0.35135439  1
  O2-  O227  1  0.12528384  0.24998221  0.84870394  1
  O2-  O228  1  0.12436031  0.49760020  0.34849486  1
  O2-  O229  1  0.12494703  0.50338087  0.84902192  1
  O2-  O230  1  0.12527304  0.75324846  0.34794176  1
  O2-  O231  1  0.12595322  0.74847825  0.84645304  1
  O2-  O232  1  0.37453376  -0.00163771  0.34664976  1
  O2-  O233  1  0.37548949  -0.00143002  0.84637720  1
  O2-  O234  1  0.37464403  0.24829555  0.34808122  1
  O2-  O235  1  0.37593128  0.24968836  0.84541357  1
  O2-  O236  1  0.37517287  0.50060541  0.34964623  1
  O2-  O237  1  0.37529793  0.50041685  0.84602247  1
  O2-  O238  1  0.37440998  0.75315696  0.34793081  1
  O2-  O239  1  0.37456860  0.75137404  0.84752388  1
  O2-  O240  1  0.62516683  0.00009690  0.34831968  1
  O2-  O241  1  0.62439387  0.00172625  0.84705368  1
  O2-  O242  1  0.62553415  0.25317696  0.34857631  1
  O2-  O243  1  0.62522304  0.24984957  0.85002766  1
  O2-  O244  1  0.62529159  0.49885809  0.34898599  1
  O2-  O245  1  0.62503822  0.49640065  0.85163818  1
  O2-  O246  1  0.62533752  0.74794676  0.34888794  1
  O2-  O247  1  0.62408548  0.75197161  0.84754830  1
  O2-  O248  1  0.87564031  0.00020274  0.35070261  1
  O2-  O249  1  0.87443406  0.00172443  0.84412618  1
  O2-  O250  1  0.87488192  0.24766437  0.35047520  1
  O2-  O251  1  0.87396624  0.25104171  0.84844784  1
  O2-  O252  1  0.87491948  0.50170001  0.34524082  1
  O2-  O253  1  0.87499544  0.49868018  0.85017426  1
  O2-  O254  1  0.87484887  0.75065862  0.34407651  1
  O2-  O255  1  0.87541276  0.74864030  0.84663790  1
  O2-  O256  1  -0.00166899  0.12505680  0.35189855  1
  O2-  O257  1  -0.00143284  0.12550214  0.84595304  1
  O2-  O258  1  0.00246350  0.37468251  0.35009633  1
  O2-  O259  1  -0.00307754  0.37489252  0.85002810  1
  O2-  O260  1  -0.00202697  0.62554971  0.34451619  1
  O2-  O261  1  0.00122436  0.62498517  0.84826108  1
  O2-  O262  1  0.00051547  0.87523523  0.34935717  1
  O2-  O263  1  0.00191732  0.87445086  0.84525304  1
  O2-  O264  1  0.25009386  0.12392136  0.34921626  1
  O2-  O265  1  0.25199976  0.12425852  0.84550892  1
  O2-  O266  1  0.24760901  0.37506675  0.35155071  1
  O2-  O267  1  0.25264113  0.37540776  0.84416400  1
  O2-  O268  1  0.24928700  0.62556410  0.34893618  1
  O2-  O269  1  0.24959111  0.62567926  0.84638116  1
  O2-  O270  1  0.24968625  0.87550580  0.35132310  1
  O2-  O271  1  0.25176692  0.87474436  0.84542656  1
  O2-  O272  1  0.49838795  0.12464036  0.34474472  1
  O2-  O273  1  0.50135562  0.12505212  0.84722858  1
  O2-  O274  1  0.50241391  0.37533691  0.34910043  1
  O2-  O275  1  0.50051566  0.37411061  0.84692763  1
  O2-  O276  1  0.50183618  0.62543669  0.34982764  1
  O2-  O277  1  0.49795973  0.62538220  0.84746770  1
  O2-  O278  1  0.49782781  0.87493652  0.34939912  1
  O2-  O279  1  0.49860464  0.87576818  0.84754848  1
  O2-  O280  1  0.75316018  0.12537756  0.34765009  1
  O2-  O281  1  0.74819654  0.12604991  0.84904346  1
  O2-  O282  1  0.74734630  0.37509434  0.34798563  1
  O2-  O283  1  0.74992731  0.37403859  0.85228339  1
  O2-  O284  1  0.75073814  0.62446436  0.34649778  1
  O2-  O285  1  0.75153337  0.62394989  0.84831153  1
  O2-  O286  1  0.75187789  0.87536382  0.34745404  1
  O2-  O287  1  0.74785271  0.87607738  0.84754141  1
