# generated using pymatgen
data_BaYFeCuO5
_symmetry_space_group_name_H-M   'P 1'
_cell_length_a   15.67168490
_cell_length_b   15.67490278
_cell_length_c   15.49017633
_cell_angle_alpha   89.99289319
_cell_angle_beta   89.99297320
_cell_angle_gamma   89.99647417
_symmetry_Int_Tables_number   1
_chemical_formula_structural   BaYFeCuO5
_chemical_formula_sum   'Ba32 Y32 Fe32 Cu32 O160'
_cell_volume   3805.19485623
_cell_formula_units_Z   32
loop_
 _symmetry_equiv_pos_site_id
 _symmetry_equiv_pos_as_xyz
  1  'x, y, z'
loop_
 _atom_type_symbol
 _atom_type_oxidation_number
  Ba2+  2.0
  Y3+  3.0
  Fe3+  3.0
  Cu2+  2.0
  O2-  -2.0
loop_
 _atom_site_type_symbol
 _atom_site_label
 _atom_site_symmetry_multiplicity
 _atom_site_fract_x
 _atom_site_fract_y
 _atom_site_fract_z
 _atom_site_occupancy
  Ba2+  Ba0  1  -0.00347959  0.00197725  0.02303322  1
  Ba2+  Ba1  1  -0.00423272  0.00257488  0.50176586  1
  Ba2+  Ba2  1  -0.00603291  0.25061061  0.01733338  1
  Ba2+  Ba3  1  0.00165348  0.24309542  0.49644525  1
  Ba2+  Ba4  1  -0.00144116  0.49929438  0.00582095  1
  Ba2+  Ba5  1  0.00787666  0.49943108  0.50694725  1
  Ba2+  Ba6  1  0.00160893  0.74828517  0.01323969  1
  Ba2+  Ba7  1  0.00222438  0.75547349  0.51088653  1
  Ba2+  Ba8  1  0.23886772  -0.00084657  0.01823687  1
  Ba2+  Ba9  1  0.24571689  0.00459380  0.49978195  1
  Ba2+  Ba10  1  0.23919457  0.25069864  0.01779741  1
  Ba2+  Ba11  1  0.25158817  0.25115862  0.50703151  1
  Ba2+  Ba12  1  0.24189551  0.50568831  0.01655620  1
  Ba2+  Ba13  1  0.25268061  0.49854625  0.50547320  1
  Ba2+  Ba14  1  0.24181912  0.74360404  0.01621306  1
  Ba2+  Ba15  1  0.24758983  0.74601523  0.50080351  1
  Ba2+  Ba16  1  0.50739418  0.00578545  0.00642589  1
  Ba2+  Ba17  1  0.50669208  0.00658361  0.51687231  1
  Ba2+  Ba18  1  0.51165959  0.24943836  0.01064753  1
  Ba2+  Ba19  1  0.50189070  0.24924616  0.52346978  1
  Ba2+  Ba20  1  0.50744355  0.50424861  0.01487913  1
  Ba2+  Ba21  1  0.49943967  0.49788185  0.51831335  1
  Ba2+  Ba22  1  0.50280876  0.73996648  0.01139033  1
  Ba2+  Ba23  1  0.50450953  0.74603679  0.51299131  1
  Ba2+  Ba24  1  0.75657377  0.00815783  0.01070199  1
  Ba2+  Ba25  1  0.75024312  0.00412547  0.51740958  1
  Ba2+  Ba26  1  0.75517152  0.24893886  0.01163579  1
  Ba2+  Ba27  1  0.74571100  0.24089593  0.51061043  1
  Ba2+  Ba28  1  0.75271090  0.49814525  0.00658512  1
  Ba2+  Ba29  1  0.73975231  0.49856007  0.51809800  1
  Ba2+  Ba30  1  0.75443953  0.74350223  0.00514187  1
  Ba2+  Ba31  1  0.74534825  0.75619016  0.52286112  1
  Y3+  Y32  1  -0.00133185  0.00157253  0.25943370  1
  Y3+  Y33  1  -0.00420117  0.00152794  0.75486576  1
  Y3+  Y34  1  -0.00210791  0.24924571  0.25740692  1
  Y3+  Y35  1  -0.00479040  0.24919791  0.75901835  1
  Y3+  Y36  1  0.00067698  0.49722214  0.25617247  1
  Y3+  Y37  1  -0.00017065  0.50086998  0.75916246  1
  Y3+  Y38  1  0.00094706  0.75211731  0.25716610  1
  Y3+  Y39  1  0.00049198  0.74833680  0.75720833  1
  Y3+  Y40  1  0.24670336  -0.00091272  0.25842204  1
  Y3+  Y41  1  0.25111718  0.00062941  0.75676081  1
  Y3+  Y42  1  0.24621046  0.25111677  0.25828103  1
  Y3+  Y43  1  0.25167528  0.25038552  0.75645526  1
  Y3+  Y44  1  0.24903603  0.50137030  0.25643706  1
  Y3+  Y45  1  0.24809945  0.50117193  0.75745873  1
  Y3+  Y46  1  0.24889544  0.74815391  0.25603548  1
  Y3+  Y47  1  0.24781626  0.74812885  0.75819714  1
  Y3+  Y48  1  0.50292812  0.00174692  0.25544222  1
  Y3+  Y49  1  0.50261539  0.00261418  0.75817352  1
  Y3+  Y50  1  0.50456689  0.24891879  0.25408687  1
  Y3+  Y51  1  0.50228916  0.24858744  0.75814677  1
  Y3+  Y52  1  0.50085127  0.50206149  0.25348463  1
  Y3+  Y53  1  0.50184569  0.49966173  0.75851766  1
  Y3+  Y54  1  0.49965367  0.74705078  0.25454374  1
  Y3+  Y55  1  0.50221856  0.74920957  0.75926009  1
  Y3+  Y56  1  0.75149300  0.00481494  0.25712308  1
  Y3+  Y57  1  0.75098696  0.00358327  0.75730936  1
  Y3+  Y58  1  0.75083117  0.24760818  0.25545002  1
  Y3+  Y59  1  0.75143147  0.24669232  0.75984347  1
  Y3+  Y60  1  0.74884444  0.49751668  0.25354749  1
  Y3+  Y61  1  0.75032423  0.49991681  0.76068504  1
  Y3+  Y62  1  0.74999994  0.75024632  0.25380584  1
  Y3+  Y63  1  0.74936737  0.74985096  0.75895651  1
  Fe3+  Fe64  1  0.37363137  0.12540796  0.88110174  1
  Fe3+  Fe65  1  0.87628245  0.87559616  0.87710719  1
  Fe3+  Fe66  1  0.12409460  0.62483491  0.37609639  1
  Fe3+  Fe67  1  0.62502560  0.87577656  0.37500704  1
  Fe3+  Fe68  1  0.12308087  0.12459430  0.87757623  1
  Fe3+  Fe69  1  0.87356352  0.37538668  0.38075214  1
  Fe3+  Fe70  1  0.62540354  0.62474144  0.37552474  1
  Fe3+  Fe71  1  0.87280949  0.87454644  0.37662495  1
  Fe3+  Fe72  1  0.62412655  0.37403103  0.37532078  1
  Fe3+  Fe73  1  0.12384816  0.87571918  0.87722512  1
  Fe3+  Fe74  1  0.37657189  0.87479277  0.37868021  1
  Fe3+  Fe75  1  0.12419697  0.37422835  0.87721651  1
  Fe3+  Fe76  1  0.62605522  0.87535358  0.87947023  1
  Fe3+  Fe77  1  0.37695505  0.12592554  0.37496107  1
  Fe3+  Fe78  1  0.62618558  0.37454083  0.87635978  1
  Fe3+  Fe79  1  0.37423348  0.62429052  0.87863411  1
  Fe3+  Fe80  1  0.37418997  0.87479394  0.88138353  1
  Fe3+  Fe81  1  0.87307940  0.62489310  0.38147442  1
  Fe3+  Fe82  1  0.37709333  0.37487697  0.37356469  1
  Fe3+  Fe83  1  0.37434364  0.37518710  0.88107720  1
  Fe3+  Fe84  1  0.37525804  0.87476724  0.13366637  1
  Fe3+  Fe85  1  0.37516461  0.87547773  0.63460401  1
  Fe3+  Fe86  1  0.87463478  0.37412605  0.63432562  1
  Fe3+  Fe87  1  0.37437549  0.62526035  0.63820112  1
  Fe3+  Fe88  1  0.87518859  0.62476633  0.63509087  1
  Fe3+  Fe89  1  0.87585621  0.62426921  0.13986430  1
  Fe3+  Fe90  1  0.62701940  0.87499502  0.13272710  1
  Fe3+  Fe91  1  0.12459449  0.37447264  0.63710997  1
  Fe3+  Fe92  1  0.37516867  0.37516069  0.13302702  1
  Fe3+  Fe93  1  0.37427227  0.12516868  0.13388719  1
  Fe3+  Fe94  1  0.12545223  0.87573594  0.63631773  1
  Fe3+  Fe95  1  0.12465761  0.12554637  0.63770428  1
  Cu2+  Cu96  1  0.87344313  0.12521221  0.37254137  1
  Cu2+  Cu97  1  0.87575502  0.62555063  0.86099798  1
  Cu2+  Cu98  1  0.62456195  0.12513610  0.37072044  1
  Cu2+  Cu99  1  0.12498592  0.37533199  0.36352707  1
  Cu2+  Cu100  1  0.12533868  0.12522080  0.36084997  1
  Cu2+  Cu101  1  0.12483354  0.87455137  0.36412690  1
  Cu2+  Cu102  1  0.87534016  0.37425823  0.87293692  1
  Cu2+  Cu103  1  0.37611727  0.62460374  0.36217721  1
  Cu2+  Cu104  1  0.62650942  0.12515651  0.87305099  1
  Cu2+  Cu105  1  0.87624325  0.12460958  0.87190109  1
  Cu2+  Cu106  1  0.62526926  0.62463400  0.87271718  1
  Cu2+  Cu107  1  0.12463414  0.62509324  0.87252704  1
  Cu2+  Cu108  1  0.87583287  0.12593104  0.64115926  1
  Cu2+  Cu109  1  0.12450282  0.12525340  0.15478472  1
  Cu2+  Cu110  1  0.12247458  0.62443343  0.14589202  1
  Cu2+  Cu111  1  0.62730462  0.62526532  0.14131286  1
  Cu2+  Cu112  1  0.87508906  0.87502215  0.65120704  1
  Cu2+  Cu113  1  0.62554588  0.12548486  0.64615174  1
  Cu2+  Cu114  1  0.87545819  0.12549193  0.14533657  1
  Cu2+  Cu115  1  0.37496195  0.37522959  0.65458530  1
  Cu2+  Cu116  1  0.62502348  0.62477562  0.65512349  1
  Cu2+  Cu117  1  0.87469485  0.87508833  0.15032208  1
  Cu2+  Cu118  1  0.62594436  0.37425951  0.65446679  1
  Cu2+  Cu119  1  0.87484802  0.37526404  0.14354360  1
  Cu2+  Cu120  1  0.62436063  0.87592105  0.65534074  1
  Cu2+  Cu121  1  0.12430419  0.87477747  0.15381355  1
  Cu2+  Cu122  1  0.62578253  0.37481231  0.14792143  1
  Cu2+  Cu123  1  0.62623210  0.12466073  0.14068599  1
  Cu2+  Cu124  1  0.37439616  0.12488240  0.65172336  1
  Cu2+  Cu125  1  0.37446446  0.62480139  0.14829865  1
  Cu2+  Cu126  1  0.12427891  0.37516965  0.15269458  1
  Cu2+  Cu127  1  0.12498831  0.62487104  0.64882348  1
  O2-  O128  1  0.12367550  0.12425249  -0.00210664  1
  O2-  O129  1  0.12698972  0.12541608  0.51709340  1
  O2-  O130  1  0.12449441  0.37498165  -0.00244594  1
  O2-  O131  1  0.12670034  0.37464412  0.51685750  1
  O2-  O132  1  0.12267941  0.62502816  0.00741622  1
  O2-  O133  1  0.12617762  0.62504191  0.49714231  1
  O2-  O134  1  0.12373514  0.87518008  -0.00260152  1
  O2-  O135  1  0.12791816  0.87536055  0.51615546  1
  O2-  O136  1  0.37243334  0.12436984  0.00694372  1
  O2-  O137  1  0.37650546  0.12627846  0.49533338  1
  O2-  O138  1  0.37349582  0.37551760  0.00586789  1
  O2-  O139  1  0.37789691  0.37409797  0.49368191  1
  O2-  O140  1  0.37330628  0.62469482  -0.00098303  1
  O2-  O141  1  0.37562312  0.62542537  0.51778090  1
  O2-  O142  1  0.37334390  0.87483553  0.00672807  1
  O2-  O143  1  0.37647775  0.87520542  0.50662869  1
  O2-  O144  1  0.62593460  0.12453503  0.00674807  1
  O2-  O145  1  0.62333453  0.12497071  0.50737421  1
  O2-  O146  1  0.62635534  0.37588118  -0.00301617  1
  O2-  O147  1  0.62150816  0.37509997  0.49537337  1
  O2-  O148  1  0.62692452  0.62541932  0.00629293  1
  O2-  O149  1  0.62424836  0.62511478  0.49584893  1
  O2-  O150  1  0.62636071  0.87456522  0.00573152  1
  O2-  O151  1  0.62331065  0.87502166  0.49505412  1
  O2-  O152  1  0.87755328  0.12510111  0.00892112  1
  O2-  O153  1  0.87503761  0.12503138  0.50709931  1
  O2-  O154  1  0.87559796  0.37582112  0.00757533  1
  O2-  O155  1  0.87406596  0.37506280  0.50757280  1
  O2-  O156  1  0.87714343  0.62426886  0.01913743  1
  O2-  O157  1  0.87244578  0.62563125  0.50723226  1
  O2-  O158  1  0.87744943  0.87462966  -0.00305634  1
  O2-  O159  1  0.87160927  0.87374608  0.49675359  1
  O2-  O160  1  0.12591218  -0.00015530  0.16521619  1
  O2-  O161  1  0.12660963  0.00001599  0.66731256  1
  O2-  O162  1  0.12551518  0.25006795  0.16458281  1
  O2-  O163  1  0.12580718  0.25039519  0.66798353  1
  O2-  O164  1  0.12464393  0.49894490  0.16610957  1
  O2-  O165  1  0.12523199  0.49958127  0.66497246  1
  O2-  O166  1  0.12472492  0.75076670  0.16523735  1
  O2-  O167  1  0.12554098  0.75059941  0.66501859  1
  O2-  O168  1  0.37432679  -0.00051024  0.16162179  1
  O2-  O169  1  0.37534151  -0.00207656  0.66585999  1
  O2-  O170  1  0.37440575  0.25013152  0.15780065  1
  O2-  O171  1  0.37523251  0.25054432  0.66683289  1
  O2-  O172  1  0.37481798  0.49803438  0.16144066  1
  O2-  O173  1  0.37533488  0.50057491  0.66597981  1
  O2-  O174  1  0.37493607  0.75199109  0.16389526  1
  O2-  O175  1  0.37592951  0.75155276  0.66623491  1
  O2-  O176  1  0.62431492  -0.00315122  0.16234846  1
  O2-  O177  1  0.62423414  -0.00029644  0.66780517  1
  O2-  O178  1  0.62487369  0.25056077  0.16251762  1
  O2-  O179  1  0.62439865  0.25082845  0.66683539  1
  O2-  O180  1  0.62538509  0.49906691  0.16358341  1
  O2-  O181  1  0.62460625  0.49949399  0.66349934  1
  O2-  O182  1  0.62461296  0.75322378  0.16278733  1
  O2-  O183  1  0.62378485  0.75052278  0.66600983  1
  O2-  O184  1  0.87551379  -0.00107394  0.16521064  1
  O2-  O185  1  0.87449031  -0.00111909  0.66412138  1
  O2-  O186  1  0.87547370  0.25028634  0.16673297  1
  O2-  O187  1  0.87493265  0.25316987  0.66574378  1
  O2-  O188  1  0.87517028  0.50075791  0.17004662  1
  O2-  O189  1  0.87431063  0.50010442  0.66211277  1
  O2-  O190  1  0.87548968  0.75004465  0.16642099  1
  O2-  O191  1  0.87498983  0.74826020  0.66294523  1
  O2-  O192  1  0.00125957  0.12494022  0.16875524  1
  O2-  O193  1  0.00190808  0.12498403  0.66543469  1
  O2-  O194  1  0.00127573  0.37454205  0.16908292  1
  O2-  O195  1  -0.00130256  0.37629372  0.66404127  1
  O2-  O196  1  -0.00206672  0.62516574  0.17283995  1
  O2-  O197  1  -0.00174152  0.62469365  0.66108199  1
  O2-  O198  1  -0.00010655  0.87521708  0.16728922  1
  O2-  O199  1  0.00094740  0.87481418  0.66245788  1
  O2-  O200  1  0.25165292  0.12467516  0.16343062  1
  O2-  O201  1  0.24943908  0.12522819  0.66794481  1
  O2-  O202  1  0.25130967  0.37491318  0.16298117  1
  O2-  O203  1  0.24948542  0.37495139  0.66699227  1
  O2-  O204  1  0.24979852  0.62525863  0.16540080  1
  O2-  O205  1  0.25078360  0.62552556  0.66683271  1
  O2-  O206  1  0.25172627  0.87484324  0.16443152  1
  O2-  O207  1  0.25155003  0.87493190  0.66670897  1
  O2-  O208  1  0.49663239  0.12438011  0.15981766  1
  O2-  O209  1  0.49862964  0.12483299  0.66838115  1
  O2-  O210  1  0.49875480  0.37473629  0.15735539  1
  O2-  O211  1  0.50028356  0.37483468  0.66686635  1
  O2-  O212  1  0.49963925  0.62561672  0.16118888  1
  O2-  O213  1  0.49971672  0.62525978  0.66728665  1
  O2-  O214  1  0.49973278  0.87500800  0.15832759  1
  O2-  O215  1  0.49801359  0.87556717  0.66687698  1
  O2-  O216  1  0.75049242  0.12496806  0.16540432  1
  O2-  O217  1  0.75042972  0.12515028  0.66584126  1
  O2-  O218  1  0.74863147  0.37472317  0.16602211  1
  O2-  O219  1  0.75165882  0.37604491  0.66228694  1
  O2-  O220  1  0.75242365  0.62545933  0.16750373  1
  O2-  O221  1  0.75093446  0.62549430  0.66354892  1
  O2-  O222  1  0.74897352  0.87447028  0.16026157  1
  O2-  O223  1  0.74941871  0.87432462  0.66507602  1
  O2-  O224  1  0.12593427  -0.00034779  0.35008780  1
  O2-  O225  1  0.12640633  -0.00013676  0.84566096  1
  O2-  O226  1  0.12572840  0.25037845  0.34956359  1
  O2-  O227  1  0.12606942  0.24934374  0.84676920  1
  O2-  O228  1  0.12505246  0.50123059  0.34807476  1
  O2-  O229  1  0.12507079  0.49802909  0.84677259  1
  O2-  O230  1  0.12567133  0.74871291  0.34740456  1
  O2-  O231  1  0.12557225  0.75240481  0.84660756  1
  O2-  O232  1  0.37499809  -0.00140896  0.34646656  1
  O2-  O233  1  0.37488164  -0.00033861  0.85120403  1
  O2-  O234  1  0.37479195  0.25012484  0.34021224  1
  O2-  O235  1  0.37405043  0.25013158  0.85197921  1
  O2-  O236  1  0.37543733  0.49933209  0.34499524  1
  O2-  O237  1  0.37470906  0.49830677  0.84833585  1
  O2-  O238  1  0.37541749  0.75162569  0.34970566  1
  O2-  O239  1  0.37486281  0.75175133  0.84900463  1
  O2-  O240  1  0.62396003  -0.00152495  0.34429318  1
  O2-  O241  1  0.62418267  -0.00258224  0.85100431  1
  O2-  O242  1  0.62488789  0.25155134  0.34482219  1
  O2-  O243  1  0.62463520  0.25106082  0.84848396  1
  O2-  O244  1  0.62467530  0.50000498  0.34470221  1
  O2-  O245  1  0.62472675  0.49809082  0.84631915  1
  O2-  O246  1  0.62436820  0.74988386  0.34351228  1
  O2-  O247  1  0.62465870  0.75322255  0.85000159  1
  O2-  O248  1  0.87477654  -0.00151382  0.34775650  1
  O2-  O249  1  0.87511089  -0.00163485  0.84632784  1
  O2-  O250  1  0.87475750  0.25308646  0.35076795  1
  O2-  O251  1  0.87519059  0.24904028  0.84891483  1
  O2-  O252  1  0.87476041  0.50028598  0.35323744  1
  O2-  O253  1  0.87564094  0.50261880  0.84727381  1
  O2-  O254  1  0.87414226  0.74836622  0.34787530  1
  O2-  O255  1  0.87500525  0.75016132  0.84671318  1
  O2-  O256  1  0.00124457  0.12515304  0.35268895  1
  O2-  O257  1  0.00149780  0.12460665  0.84490783  1
  O2-  O258  1  -0.00187585  0.37571076  0.35407503  1
  O2-  O259  1  0.00146524  0.37502446  0.84570314  1
  O2-  O260  1  -0.00243026  0.62507681  0.35424539  1
  O2-  O261  1  -0.00153533  0.62530277  0.84519027  1
  O2-  O262  1  -0.00129590  0.87421262  0.35142657  1
  O2-  O263  1  0.00024321  0.87457114  0.84265828  1
  O2-  O264  1  0.25110553  0.12446379  0.34648673  1
  O2-  O265  1  0.25111972  0.12440471  0.84889171  1
  O2-  O266  1  0.25094778  0.37534447  0.34710153  1
  O2-  O267  1  0.25113946  0.37460859  0.84850676  1
  O2-  O268  1  0.24999575  0.62515788  0.34879014  1
  O2-  O269  1  0.25206158  0.62535957  0.84708379  1
  O2-  O270  1  0.25228647  0.87476861  0.35056939  1
  O2-  O271  1  0.25122396  0.87571231  0.84825371  1
  O2-  O272  1  0.49846290  0.12442126  0.34079804  1
  O2-  O273  1  0.49625080  0.12455345  0.85263660  1
  O2-  O274  1  0.50056577  0.37510193  0.33807512  1
  O2-  O275  1  0.49817210  0.37432123  0.85028723  1
  O2-  O276  1  0.50120882  0.62544785  0.34400050  1
  O2-  O277  1  0.49736411  0.62568969  0.84860007  1
  O2-  O278  1  0.49903769  0.87474363  0.34210324  1
  O2-  O279  1  0.49930078  0.87539694  0.85271745  1
  O2-  O280  1  0.74945073  0.12519601  0.34826038  1
  O2-  O281  1  0.75119876  0.12436483  0.84959147  1
  O2-  O282  1  0.75042620  0.37597547  0.34874138  1
  O2-  O283  1  0.74940184  0.37547313  0.84613475  1
  O2-  O284  1  0.75056672  0.62484130  0.34749205  1
  O2-  O285  1  0.75235017  0.62548394  0.84836425  1
  O2-  O286  1  0.74916151  0.87450683  0.34165426  1
  O2-  O287  1  0.74967937  0.87439493  0.84920574  1
