# generated using pymatgen
data_BaYFeCuO5
_symmetry_space_group_name_H-M   'P 1'
_cell_length_a   15.68844162
_cell_length_b   15.68307891
_cell_length_c   15.53104760
_cell_angle_alpha   90.00846985
_cell_angle_beta   90.00253752
_cell_angle_gamma   89.99231392
_symmetry_Int_Tables_number   1
_chemical_formula_structural   BaYFeCuO5
_chemical_formula_sum   'Ba32 Y32 Fe32 Cu32 O160'
_cell_volume   3821.30651938
_cell_formula_units_Z   32
loop_
 _symmetry_equiv_pos_site_id
 _symmetry_equiv_pos_as_xyz
  1  'x, y, z'
loop_
 _atom_type_symbol
 _atom_type_oxidation_number
  Ba2+  2.0
  Y3+  3.0
  Fe3+  3.0
  Cu2+  2.0
  O2-  -2.0
loop_
 _atom_site_type_symbol
 _atom_site_label
 _atom_site_symmetry_multiplicity
 _atom_site_fract_x
 _atom_site_fract_y
 _atom_site_fract_z
 _atom_site_occupancy
  Ba2+  Ba0  1  0.00041755  -0.00835745  0.00558460  1
  Ba2+  Ba1  1  0.00065323  0.00039509  0.52360097  1
  Ba2+  Ba2  1  0.00133273  0.25767754  0.01408817  1
  Ba2+  Ba3  1  -0.00050863  0.24808562  0.52765588  1
  Ba2+  Ba4  1  -0.00118908  0.50119192  0.02224632  1
  Ba2+  Ba5  1  -0.00735718  0.49737958  0.51632094  1
  Ba2+  Ba6  1  -0.00225923  0.75011297  0.01234473  1
  Ba2+  Ba7  1  -0.00559002  0.75576153  0.51180818  1
  Ba2+  Ba8  1  0.24688325  -0.00644830  0.01179231  1
  Ba2+  Ba9  1  0.24570299  -0.00061415  0.51222381  1
  Ba2+  Ba10  1  0.24585753  0.25580345  0.01189646  1
  Ba2+  Ba11  1  0.24326629  0.24224443  0.52331510  1
  Ba2+  Ba12  1  0.25210191  0.50508976  0.01402217  1
  Ba2+  Ba13  1  0.24291188  0.49415675  0.51163576  1
  Ba2+  Ba14  1  0.25262148  0.74542719  0.01366281  1
  Ba2+  Ba15  1  0.24648686  0.76253304  0.50177944  1
  Ba2+  Ba16  1  0.50388238  -0.00724754  0.01232601  1
  Ba2+  Ba17  1  0.50376404  -0.00231586  0.51175333  1
  Ba2+  Ba18  1  0.50357170  0.25634576  -0.00922350  1
  Ba2+  Ba19  1  0.50098253  0.23816069  0.51725799  1
  Ba2+  Ba20  1  0.49783535  0.50463484  -0.00142998  1
  Ba2+  Ba21  1  0.50527940  0.50347711  0.50236597  1
  Ba2+  Ba22  1  0.49864438  0.74599314  0.02481334  1
  Ba2+  Ba23  1  0.50723898  0.75865254  0.49865427  1
  Ba2+  Ba24  1  0.74899230  -0.00828744  0.00667224  1
  Ba2+  Ba25  1  0.74993635  -0.00179626  0.52367576  1
  Ba2+  Ba26  1  0.74855579  0.25769568  -0.00257001  1
  Ba2+  Ba27  1  0.75661651  0.24346045  0.52366618  1
  Ba2+  Ba28  1  0.75167422  0.50034634  0.01327412  1
  Ba2+  Ba29  1  0.75704648  0.50678330  0.50638096  1
  Ba2+  Ba30  1  0.75092798  0.74921391  0.02303045  1
  Ba2+  Ba31  1  0.75084704  0.75250983  0.50540130  1
  Y3+  Y32  1  0.00086298  -0.00122380  0.25325291  1
  Y3+  Y33  1  -0.00062564  -0.00389234  0.76000467  1
  Y3+  Y34  1  0.00059115  0.25104939  0.25004970  1
  Y3+  Y35  1  -0.00157320  0.25163926  0.76044690  1
  Y3+  Y36  1  -0.00243360  0.50123818  0.25692578  1
  Y3+  Y37  1  -0.00315184  0.49974302  0.75512500  1
  Y3+  Y38  1  -0.00269821  0.74978548  0.25885735  1
  Y3+  Y39  1  -0.00153621  0.75226080  0.75583213  1
  Y3+  Y40  1  0.24872482  -0.00214328  0.25786500  1
  Y3+  Y41  1  0.24810694  -0.00161501  0.75673404  1
  Y3+  Y42  1  0.24787422  0.24873333  0.25349461  1
  Y3+  Y43  1  0.24958494  0.24937569  0.75859695  1
  Y3+  Y44  1  0.24887328  0.50184205  0.25720613  1
  Y3+  Y45  1  0.25111728  0.50108393  0.75795956  1
  Y3+  Y46  1  0.25101540  0.75152485  0.25904103  1
  Y3+  Y47  1  0.24891336  0.75101552  0.75737631  1
  Y3+  Y48  1  0.50066553  -0.00384582  0.25823529  1
  Y3+  Y49  1  0.50274137  0.00036122  0.75667956  1
  Y3+  Y50  1  0.50030764  0.24832155  0.25865755  1
  Y3+  Y51  1  0.50130408  0.24833958  0.75755373  1
  Y3+  Y52  1  0.50082131  0.50405277  0.25873552  1
  Y3+  Y53  1  0.49898076  0.50064995  0.75801087  1
  Y3+  Y54  1  0.50189357  0.75151144  0.26046428  1
  Y3+  Y55  1  0.50003304  0.74985463  0.75598204  1
  Y3+  Y56  1  0.75001381  -0.00288710  0.25345266  1
  Y3+  Y57  1  0.74955629  -0.00169720  0.76003912  1
  Y3+  Y58  1  0.75203344  0.25115070  0.25298050  1
  Y3+  Y59  1  0.75066977  0.25030772  0.76141927  1
  Y3+  Y60  1  0.75220698  0.50274335  0.25864151  1
  Y3+  Y61  1  0.75308009  0.49966822  0.75670349  1
  Y3+  Y62  1  0.75002506  0.74936813  0.26027308  1
  Y3+  Y63  1  0.75235885  0.75164743  0.75360555  1
  Fe3+  Fe64  1  0.62813327  0.12451746  0.37643885  1
  Fe3+  Fe65  1  0.87583297  0.37229579  0.37621932  1
  Fe3+  Fe66  1  0.12500517  0.12440474  0.87858602  1
  Fe3+  Fe67  1  0.62692211  0.37293077  0.38228435  1
  Fe3+  Fe68  1  0.12481603  0.37780475  0.87553027  1
  Fe3+  Fe69  1  0.87508282  0.12446780  0.87934125  1
  Fe3+  Fe70  1  0.37412772  0.62574191  0.38136263  1
  Fe3+  Fe71  1  0.12231326  0.12518031  0.37362832  1
  Fe3+  Fe72  1  0.12417966  0.62548542  0.87530975  1
  Fe3+  Fe73  1  0.87541329  0.87812192  0.37564945  1
  Fe3+  Fe74  1  0.37482908  0.12369094  0.87973100  1
  Fe3+  Fe75  1  0.37547245  0.87328472  0.87760683  1
  Fe3+  Fe76  1  0.37424023  0.37264280  0.38225187  1
  Fe3+  Fe77  1  0.62612794  0.62630530  0.87606341  1
  Fe3+  Fe78  1  0.12298186  0.62559393  0.38025394  1
  Fe3+  Fe79  1  0.87512326  0.62569049  0.87600342  1
  Fe3+  Fe80  1  0.62473588  0.87194172  0.87616109  1
  Fe3+  Fe81  1  0.12367384  0.37305679  0.37632878  1
  Fe3+  Fe82  1  0.87602369  0.12509060  0.37386760  1
  Fe3+  Fe83  1  0.37378043  0.12448804  0.37670366  1
  Fe3+  Fe84  1  0.37544041  0.37413618  0.63484414  1
  Fe3+  Fe85  1  0.62597384  0.37506427  0.63522300  1
  Fe3+  Fe86  1  0.37472308  0.62613904  0.63237641  1
  Fe3+  Fe87  1  0.12494668  0.87296944  0.13943049  1
  Fe3+  Fe88  1  0.62542371  0.62574038  0.63541805  1
  Fe3+  Fe89  1  0.37582273  0.12459344  0.13310117  1
  Fe3+  Fe90  1  0.62348067  0.37624399  0.13981487  1
  Fe3+  Fe91  1  0.37701522  0.37585798  0.13954494  1
  Fe3+  Fe92  1  0.87473898  0.12455205  0.13079178  1
  Fe3+  Fe93  1  0.37542460  0.87571845  0.63718503  1
  Fe3+  Fe94  1  0.12435422  0.62579558  0.63345716  1
  Fe3+  Fe95  1  0.62435455  0.12572962  0.13377471  1
  Cu2+  Cu96  1  0.87620117  0.37718122  0.87340284  1
  Cu2+  Cu97  1  0.62762857  0.87745828  0.37162707  1
  Cu2+  Cu98  1  0.37479934  0.87668541  0.36434634  1
  Cu2+  Cu99  1  0.62487383  0.12420824  0.86733787  1
  Cu2+  Cu100  1  0.12246805  0.87674461  0.37234586  1
  Cu2+  Cu101  1  0.62517886  0.37709423  0.85813961  1
  Cu2+  Cu102  1  0.62577178  0.62498097  0.36610518  1
  Cu2+  Cu103  1  0.37477991  0.62653461  0.87115865  1
  Cu2+  Cu104  1  0.87589640  0.62513211  0.37336739  1
  Cu2+  Cu105  1  0.87418801  0.87270574  0.87362429  1
  Cu2+  Cu106  1  0.12528443  0.87366303  0.86266126  1
  Cu2+  Cu107  1  0.37386918  0.37512469  0.86025794  1
  Cu2+  Cu108  1  0.87452541  0.87560760  0.65264442  1
  Cu2+  Cu109  1  0.12390419  0.12433584  0.65875620  1
  Cu2+  Cu110  1  0.87517567  0.12399240  0.65981971  1
  Cu2+  Cu111  1  0.87364402  0.37559589  0.13991497  1
  Cu2+  Cu112  1  0.87394991  0.37445011  0.65297283  1
  Cu2+  Cu113  1  0.62504802  0.87422407  0.15291597  1
  Cu2+  Cu114  1  0.12490243  0.87437690  0.64167425  1
  Cu2+  Cu115  1  0.87473283  0.62605158  0.63999545  1
  Cu2+  Cu116  1  0.87473598  0.62572752  0.15340190  1
  Cu2+  Cu117  1  0.37513390  0.87455111  0.15341730  1
  Cu2+  Cu118  1  0.87496837  0.87448352  0.14134188  1
  Cu2+  Cu119  1  0.37466085  0.12410886  0.65397341  1
  Cu2+  Cu120  1  0.12546653  0.12402117  0.14270847  1
  Cu2+  Cu121  1  0.62513491  0.62461165  0.15583602  1
  Cu2+  Cu122  1  0.62604306  0.12495956  0.65609789  1
  Cu2+  Cu123  1  0.62481259  0.87453490  0.64220674  1
  Cu2+  Cu124  1  0.12604057  0.37663949  0.15154136  1
  Cu2+  Cu125  1  0.12472328  0.62607244  0.15611953  1
  Cu2+  Cu126  1  0.37534593  0.62462863  0.14713489  1
  Cu2+  Cu127  1  0.12502098  0.37548336  0.65251028  1
  O2-  O128  1  0.12805940  0.12498429  -0.00214459  1
  O2-  O129  1  0.12180826  0.12619113  0.49350031  1
  O2-  O130  1  0.12654072  0.37982271  -0.00457394  1
  O2-  O131  1  0.12349861  0.36966993  0.49596421  1
  O2-  O132  1  0.12492383  0.62381294  -0.00492805  1
  O2-  O133  1  0.12430550  0.62516114  0.50649762  1
  O2-  O134  1  0.12652697  0.87118753  0.01884545  1
  O2-  O135  1  0.12303218  0.87771963  0.50807332  1
  O2-  O136  1  0.37637445  0.12561684  0.00634515  1
  O2-  O137  1  0.37246788  0.12521671  0.49628144  1
  O2-  O138  1  0.37800918  0.37722981  0.01988183  1
  O2-  O139  1  0.37352276  0.37062254  0.50772827  1
  O2-  O140  1  0.37535121  0.62471789  0.00719254  1
  O2-  O141  1  0.37441139  0.62583940  0.50758825  1
  O2-  O142  1  0.37612094  0.87158988  -0.00225299  1
  O2-  O143  1  0.37494621  0.87845966  0.51699141  1
  O2-  O144  1  0.62162799  0.12769228  0.01441696  1
  O2-  O145  1  0.62867439  0.12466607  0.49644696  1
  O2-  O146  1  0.62135311  0.37744112  0.02025859  1
  O2-  O147  1  0.62794737  0.37187524  0.50848356  1
  O2-  O148  1  0.62565555  0.62570520  -0.00437846  1
  O2-  O149  1  0.62484365  0.62484061  0.51541570  1
  O2-  O150  1  0.62335256  0.86999823  -0.00369147  1
  O2-  O151  1  0.62693309  0.87829732  0.50684862  1
  O2-  O152  1  0.87423697  0.12524795  0.00500998  1
  O2-  O153  1  0.87720402  0.12519398  0.49339328  1
  O2-  O154  1  0.87459581  0.37717394  0.00667954  1
  O2-  O155  1  0.87592026  0.36969902  0.49604653  1
  O2-  O156  1  0.87491081  0.62485508  -0.00407652  1
  O2-  O157  1  0.87629734  0.62536805  0.50658671  1
  O2-  O158  1  0.87437721  0.87298934  0.00633230  1
  O2-  O159  1  0.87511659  0.88061748  0.49601280  1
  O2-  O160  1  0.12620855  -0.00159371  0.16376803  1
  O2-  O161  1  0.12463594  0.00091717  0.66811382  1
  O2-  O162  1  0.12674441  0.25060593  0.15769096  1
  O2-  O163  1  0.12487963  0.24991162  0.66710586  1
  O2-  O164  1  0.12568362  0.50169520  0.16875224  1
  O2-  O165  1  0.12657451  0.50147002  0.65760641  1
  O2-  O166  1  0.12570470  0.75008118  0.17190613  1
  O2-  O167  1  0.12559397  0.74663202  0.66267857  1
  O2-  O168  1  0.37546945  0.00121650  0.15974547  1
  O2-  O169  1  0.37490164  0.00011090  0.66962497  1
  O2-  O170  1  0.37539962  0.24883191  0.16470019  1
  O2-  O171  1  0.37517369  0.25070561  0.66555904  1
  O2-  O172  1  0.37513436  0.49855063  0.17415795  1
  O2-  O173  1  0.37521730  0.49983075  0.65924676  1
  O2-  O174  1  0.37531985  0.75082384  0.17037242  1
  O2-  O175  1  0.37484583  0.74838445  0.66251546  1
  O2-  O176  1  0.62391407  0.00013607  0.16026479  1
  O2-  O177  1  0.62555976  0.00124552  0.66768558  1
  O2-  O178  1  0.62373223  0.24984810  0.16856057  1
  O2-  O179  1  0.62481556  0.25137338  0.66501931  1
  O2-  O180  1  0.62400928  0.50011861  0.17207986  1
  O2-  O181  1  0.62369254  0.49852882  0.66178094  1
  O2-  O182  1  0.62475764  0.74953518  0.16731299  1
  O2-  O183  1  0.62393739  0.74814904  0.66300504  1
  O2-  O184  1  0.87491302  0.00279377  0.15854449  1
  O2-  O185  1  0.87481285  -0.00086486  0.66824537  1
  O2-  O186  1  0.87417771  0.24703155  0.15921456  1
  O2-  O187  1  0.87485946  0.24957762  0.66811376  1
  O2-  O188  1  0.87488004  0.50185376  0.16753827  1
  O2-  O189  1  0.87417955  0.49822045  0.66162595  1
  O2-  O190  1  0.87434035  0.74896147  0.16782146  1
  O2-  O191  1  0.87522434  0.75286707  0.66156236  1
  O2-  O192  1  -0.00109882  0.12551339  0.15678575  1
  O2-  O193  1  -0.00052199  0.12479212  0.66831222  1
  O2-  O194  1  0.00191344  0.37582011  0.16034335  1
  O2-  O195  1  -0.00050027  0.37491333  0.66367219  1
  O2-  O196  1  -0.00028698  0.62542820  0.16391677  1
  O2-  O197  1  0.00214793  0.62420772  0.66125735  1
  O2-  O198  1  0.00122340  0.87390946  0.16396614  1
  O2-  O199  1  -0.00229780  0.87565104  0.66568551  1
  O2-  O200  1  0.25259063  0.12520207  0.16099773  1
  O2-  O201  1  0.24864005  0.12530235  0.66522227  1
  O2-  O202  1  0.25115089  0.37570631  0.16741483  1
  O2-  O203  1  0.25234675  0.37439087  0.66174865  1
  O2-  O204  1  0.24919265  0.62510279  0.16860513  1
  O2-  O205  1  0.25087808  0.62384567  0.66144548  1
  O2-  O206  1  0.25005958  0.87411437  0.16753896  1
  O2-  O207  1  0.25227385  0.87520228  0.66641484  1
  O2-  O208  1  0.49895679  0.12472035  0.16794047  1
  O2-  O209  1  0.50078337  0.12551522  0.66378684  1
  O2-  O210  1  0.50001030  0.37525416  0.17829924  1
  O2-  O211  1  0.50019916  0.37383787  0.66052698  1
  O2-  O212  1  0.50112791  0.62547162  0.17072199  1
  O2-  O213  1  0.49808211  0.62376409  0.66373938  1
  O2-  O214  1  0.49997932  0.87423440  0.16693825  1
  O2-  O215  1  0.49818892  0.87575718  0.66545357  1
  O2-  O216  1  0.74978879  0.12510653  0.16127036  1
  O2-  O217  1  0.75084962  0.12541524  0.66757996  1
  O2-  O218  1  0.74712916  0.37590618  0.16743167  1
  O2-  O219  1  0.74797666  0.37382719  0.66487562  1
  O2-  O220  1  0.74997124  0.62427301  0.16517312  1
  O2-  O221  1  0.74844529  0.62446150  0.66442858  1
  O2-  O222  1  0.74880838  0.87499561  0.16269726  1
  O2-  O223  1  0.75154351  0.87578273  0.66465129  1
  O2-  O224  1  0.12455651  0.00215674  0.34401540  1
  O2-  O225  1  0.12495615  -0.00056186  0.85122848  1
  O2-  O226  1  0.12509455  0.25016496  0.33859333  1
  O2-  O227  1  0.12606106  0.25025609  0.84899361  1
  O2-  O228  1  0.12617617  0.50023187  0.35217039  1
  O2-  O229  1  0.12526351  0.50094763  0.83917843  1
  O2-  O230  1  0.12519225  0.74792598  0.35468746  1
  O2-  O231  1  0.12533338  0.74981154  0.84462675  1
  O2-  O232  1  0.37500804  0.00154680  0.34353764  1
  O2-  O233  1  0.37541106  0.00043323  0.85183125  1
  O2-  O234  1  0.37474597  0.25068225  0.34492514  1
  O2-  O235  1  0.37477489  0.24802622  0.85107089  1
  O2-  O236  1  0.37530024  0.49918175  0.35774682  1
  O2-  O237  1  0.37503610  0.49889860  0.84406464  1
  O2-  O238  1  0.37457030  0.74910064  0.35504891  1
  O2-  O239  1  0.37452462  0.75223456  0.84241516  1
  O2-  O240  1  0.62569839  0.00314258  0.34157518  1
  O2-  O241  1  0.62435645  -0.00205148  0.85066784  1
  O2-  O242  1  0.62450343  0.25084025  0.34702839  1
  O2-  O243  1  0.62433338  0.25177800  0.85014286  1
  O2-  O244  1  0.62413975  0.49674089  0.35517519  1
  O2-  O245  1  0.62401233  0.50126757  0.84370408  1
  O2-  O246  1  0.62539627  0.74976706  0.35208159  1
  O2-  O247  1  0.62469308  0.74926080  0.84060115  1
  O2-  O248  1  0.87515870  0.00167239  0.33839681  1
  O2-  O249  1  0.87510902  0.00183714  0.85227081  1
  O2-  O250  1  0.87577662  0.25011743  0.33825968  1
  O2-  O251  1  0.87466759  0.24779073  0.85174892  1
  O2-  O252  1  0.87476104  0.49710969  0.35018781  1
  O2-  O253  1  0.87535367  0.50266728  0.84304511  1
  O2-  O254  1  0.87525714  0.75204618  0.35091108  1
  O2-  O255  1  0.87513163  0.74775246  0.84309105  1
  O2-  O256  1  -0.00033369  0.12583862  0.33717774  1
  O2-  O257  1  -0.00029214  0.12517301  0.85082222  1
  O2-  O258  1  0.00035946  0.37482858  0.34148844  1
  O2-  O259  1  0.00235953  0.37539568  0.84581616  1
  O2-  O260  1  0.00278701  0.62409133  0.34727954  1
  O2-  O261  1  0.00007757  0.62563641  0.84259128  1
  O2-  O262  1  -0.00226280  0.87604558  0.34365939  1
  O2-  O263  1  0.00153563  0.87400901  0.84979061  1
  O2-  O264  1  0.24915187  0.12543768  0.34295248  1
  O2-  O265  1  0.25110681  0.12446586  0.84822301  1
  O2-  O266  1  0.25120266  0.37501821  0.34930516  1
  O2-  O267  1  0.24886802  0.37546079  0.84439136  1
  O2-  O268  1  0.25012419  0.62452142  0.35241698  1
  O2-  O269  1  0.24810067  0.62513404  0.84406918  1
  O2-  O270  1  0.25025317  0.87597873  0.35059067  1
  O2-  O271  1  0.25063426  0.87520367  0.84754075  1
  O2-  O272  1  0.50028425  0.12583713  0.34929546  1
  O2-  O273  1  0.49789321  0.12593921  0.84852524  1
  O2-  O274  1  0.49958955  0.37356498  0.35965977  1
  O2-  O275  1  0.49925714  0.37502108  0.84567253  1
  O2-  O276  1  0.49797401  0.62491950  0.35436275  1
  O2-  O277  1  0.50178948  0.62398397  0.84491031  1
  O2-  O278  1  0.49967346  0.87621207  0.35135223  1
  O2-  O279  1  0.50013235  0.87494640  0.84384022  1
  O2-  O280  1  0.75118850  0.12684997  0.34094487  1
  O2-  O281  1  0.75117414  0.12550001  0.85185014  1
  O2-  O282  1  0.74935960  0.37368607  0.34821349  1
  O2-  O283  1  0.74906080  0.37565505  0.84891274  1
  O2-  O284  1  0.74929182  0.62429496  0.34947513  1
  O2-  O285  1  0.75022854  0.62427973  0.84384335  1
  O2-  O286  1  0.75275076  0.87598018  0.34418639  1
  O2-  O287  1  0.74764912  0.87456240  0.84641238  1
