# generated using pymatgen
data_BaYFeCuO5
_symmetry_space_group_name_H-M   'P 1'
_cell_length_a   15.65407936
_cell_length_b   15.65466956
_cell_length_c   15.45395834
_cell_angle_alpha   90.00189964
_cell_angle_beta   89.99846774
_cell_angle_gamma   89.99552642
_symmetry_Int_Tables_number   1
_chemical_formula_structural   BaYFeCuO5
_chemical_formula_sum   'Ba32 Y32 Fe32 Cu32 O160'
_cell_volume   3787.13835509
_cell_formula_units_Z   32
loop_
 _symmetry_equiv_pos_site_id
 _symmetry_equiv_pos_as_xyz
  1  'x, y, z'
loop_
 _atom_type_symbol
 _atom_type_oxidation_number
  Ba2+  2.0
  Y3+  3.0
  Fe3+  3.0
  Cu2+  2.0
  O2-  -2.0
loop_
 _atom_site_type_symbol
 _atom_site_label
 _atom_site_symmetry_multiplicity
 _atom_site_fract_x
 _atom_site_fract_y
 _atom_site_fract_z
 _atom_site_occupancy
  Ba2+  Ba0  1  0.00109452  0.00331877  0.01611559  1
  Ba2+  Ba1  1  0.00316752  -0.00215537  0.51142283  1
  Ba2+  Ba2  1  -0.00008728  0.23679950  0.00514093  1
  Ba2+  Ba3  1  -0.00143595  0.25619357  0.51904318  1
  Ba2+  Ba4  1  -0.00488151  0.50507184  0.01172965  1
  Ba2+  Ba5  1  0.00675624  0.49325638  0.50749224  1
  Ba2+  Ba6  1  -0.00317039  0.75702361  0.02267680  1
  Ba2+  Ba7  1  0.01109852  0.75101117  0.50153396  1
  Ba2+  Ba8  1  0.24965699  -0.00066440  0.01567004  1
  Ba2+  Ba9  1  0.25214182  -0.00675645  0.51669178  1
  Ba2+  Ba10  1  0.25276372  0.24233738  0.01672156  1
  Ba2+  Ba11  1  0.24688923  0.25360581  0.51188346  1
  Ba2+  Ba12  1  0.26146547  0.50233292  0.01151377  1
  Ba2+  Ba13  1  0.24709005  0.50488277  0.50020679  1
  Ba2+  Ba14  1  0.25816500  0.75526034  0.01087736  1
  Ba2+  Ba15  1  0.25221822  0.74941815  0.50715973  1
  Ba2+  Ba16  1  0.49308033  0.00179591  0.01632839  1
  Ba2+  Ba17  1  0.49762160  -0.00670091  0.51636664  1
  Ba2+  Ba18  1  0.50153946  0.25164281  0.02097087  1
  Ba2+  Ba19  1  0.49980053  0.25042417  0.50665680  1
  Ba2+  Ba20  1  0.50042852  0.50018422  0.01718615  1
  Ba2+  Ba21  1  0.50049758  0.50708057  0.49635638  1
  Ba2+  Ba22  1  0.49222749  0.74632013  0.01126662  1
  Ba2+  Ba23  1  0.49772338  0.74968426  0.50734234  1
  Ba2+  Ba24  1  0.75615917  0.00547674  0.01629526  1
  Ba2+  Ba25  1  0.74700842  -0.00239299  0.51095247  1
  Ba2+  Ba26  1  0.74526454  0.24585958  0.01139075  1
  Ba2+  Ba27  1  0.75451820  0.25383526  0.51453037  1
  Ba2+  Ba28  1  0.74139127  0.50052092  0.01552867  1
  Ba2+  Ba29  1  0.74559389  0.49612942  0.49980601  1
  Ba2+  Ba30  1  0.75344239  0.74625584  0.02354018  1
  Ba2+  Ba31  1  0.73893827  0.75130767  0.50168206  1
  Y3+  Y32  1  0.00209088  0.00016839  0.25533183  1
  Y3+  Y33  1  0.00050037  0.00209532  0.75783131  1
  Y3+  Y34  1  0.00189505  0.24811768  0.25550555  1
  Y3+  Y35  1  -0.00078483  0.24770545  0.75865205  1
  Y3+  Y36  1  0.00220393  0.50009561  0.25875469  1
  Y3+  Y37  1  0.00048298  0.49757545  0.75700814  1
  Y3+  Y38  1  0.00243556  0.75232719  0.25926860  1
  Y3+  Y39  1  0.00204944  0.75136560  0.75455044  1
  Y3+  Y40  1  0.24880964  -0.00149962  0.25457404  1
  Y3+  Y41  1  0.25059023  -0.00205878  0.75788840  1
  Y3+  Y42  1  0.24918078  0.25001157  0.25714837  1
  Y3+  Y43  1  0.24810966  0.24906456  0.75653668  1
  Y3+  Y44  1  0.25184663  0.50166142  0.25882173  1
  Y3+  Y45  1  0.25206563  0.50138527  0.75663962  1
  Y3+  Y46  1  0.25126398  0.75067125  0.25792208  1
  Y3+  Y47  1  0.25398920  0.75061210  0.75725981  1
  Y3+  Y48  1  0.49972561  -0.00094865  0.25659830  1
  Y3+  Y49  1  0.49801425  -0.00335759  0.75588868  1
  Y3+  Y50  1  0.50088607  0.25136408  0.25617212  1
  Y3+  Y51  1  0.50022445  0.25035758  0.75695375  1
  Y3+  Y52  1  0.50012687  0.50192687  0.25594179  1
  Y3+  Y53  1  0.49830007  0.50204277  0.76074650  1
  Y3+  Y54  1  0.49866288  0.74841524  0.25804392  1
  Y3+  Y55  1  0.49617634  0.75041594  0.75714052  1
  Y3+  Y56  1  0.75005077  0.00061151  0.25698274  1
  Y3+  Y57  1  0.75066284  0.00065756  0.75523670  1
  Y3+  Y58  1  0.74811316  0.24977137  0.25468224  1
  Y3+  Y59  1  0.75189489  0.24942890  0.76017302  1
  Y3+  Y60  1  0.74638749  0.50012036  0.25534486  1
  Y3+  Y61  1  0.74875343  0.49755298  0.76019400  1
  Y3+  Y62  1  0.74781930  0.75013494  0.25957785  1
  Y3+  Y63  1  0.74765114  0.75137450  0.75400807  1
  Fe3+  Fe64  1  0.62476385  0.87484578  0.88074355  1
  Fe3+  Fe65  1  0.37572984  0.37387932  0.87752408  1
  Fe3+  Fe66  1  0.12536986  0.12508963  0.37973286  1
  Fe3+  Fe67  1  0.87546576  0.62454141  0.37901849  1
  Fe3+  Fe68  1  0.87521672  0.37408524  0.37402275  1
  Fe3+  Fe69  1  0.37453056  0.12435625  0.37826490  1
  Fe3+  Fe70  1  0.87483357  0.62690296  0.87625943  1
  Fe3+  Fe71  1  0.62385963  0.12385444  0.87627043  1
  Fe3+  Fe72  1  0.12481579  0.87515185  0.87747721  1
  Fe3+  Fe73  1  0.87452769  0.37461330  0.88066947  1
  Fe3+  Fe74  1  0.37495309  0.12464431  0.87450817  1
  Fe3+  Fe75  1  0.37493679  0.87560314  0.37472661  1
  Fe3+  Fe76  1  0.37507277  0.37515183  0.37798674  1
  Fe3+  Fe77  1  0.62482456  0.62611219  0.87849393  1
  Fe3+  Fe78  1  0.62494083  0.12510886  0.37910588  1
  Fe3+  Fe79  1  0.87513441  0.87565064  0.37848870  1
  Fe3+  Fe80  1  0.12542455  0.62609498  0.88148808  1
  Fe3+  Fe81  1  0.87434619  0.87466668  0.87587996  1
  Fe3+  Fe82  1  0.87556444  0.12575543  0.37835388  1
  Fe3+  Fe83  1  0.12582990  0.37469081  0.88110380  1
  Fe3+  Fe84  1  0.37498310  0.37650478  0.63413949  1
  Fe3+  Fe85  1  0.12541853  0.12453629  0.63598011  1
  Fe3+  Fe86  1  0.62462617  0.12508149  0.63484848  1
  Fe3+  Fe87  1  0.62453763  0.87506093  0.13536368  1
  Fe3+  Fe88  1  0.62413630  0.37612365  0.63789514  1
  Fe3+  Fe89  1  0.87531479  0.37452424  0.13476425  1
  Fe3+  Fe90  1  0.62406683  0.62419918  0.63768367  1
  Fe3+  Fe91  1  0.87454145  0.62372818  0.63219823  1
  Fe3+  Fe92  1  0.12557134  0.37519154  0.13402339  1
  Fe3+  Fe93  1  0.87536537  0.87372563  0.63281310  1
  Fe3+  Fe94  1  0.12591356  0.62466207  0.63892514  1
  Fe3+  Fe95  1  0.12595644  0.62590035  0.13598100  1
  Cu2+  Cu96  1  0.12503907  0.62532842  0.36205060  1
  Cu2+  Cu97  1  0.62356376  0.87650150  0.37218779  1
  Cu2+  Cu98  1  0.12635136  0.87673905  0.37288477  1
  Cu2+  Cu99  1  0.62492489  0.37414316  0.36307199  1
  Cu2+  Cu100  1  0.87445509  0.12324402  0.87136382  1
  Cu2+  Cu101  1  0.37489053  0.62512835  0.87280333  1
  Cu2+  Cu102  1  0.12606421  0.12392356  0.87112352  1
  Cu2+  Cu103  1  0.37483044  0.62591596  0.37194337  1
  Cu2+  Cu104  1  0.12491726  0.37368752  0.37152968  1
  Cu2+  Cu105  1  0.62510748  0.62520273  0.36205256  1
  Cu2+  Cu106  1  0.37530930  0.87554762  0.87277838  1
  Cu2+  Cu107  1  0.62378136  0.37433161  0.87480170  1
  Cu2+  Cu108  1  0.62459491  0.12408028  0.15197827  1
  Cu2+  Cu109  1  0.37530228  0.87492847  0.14281784  1
  Cu2+  Cu110  1  0.87528375  0.12585872  0.14403410  1
  Cu2+  Cu111  1  0.87574106  0.62442271  0.15593493  1
  Cu2+  Cu112  1  0.37500197  0.12548491  0.64491875  1
  Cu2+  Cu113  1  0.37473561  0.62551121  0.14468750  1
  Cu2+  Cu114  1  0.12579318  0.37593891  0.64412344  1
  Cu2+  Cu115  1  0.37474011  0.87408302  0.65123525  1
  Cu2+  Cu116  1  0.37510371  0.12517452  0.15472311  1
  Cu2+  Cu117  1  0.37436391  0.37519022  0.15304296  1
  Cu2+  Cu118  1  0.37541009  0.62402560  0.64057894  1
  Cu2+  Cu119  1  0.62459487  0.37509090  0.14279463  1
  Cu2+  Cu120  1  0.12541855  0.87394454  0.64159965  1
  Cu2+  Cu121  1  0.12547103  0.12480860  0.14256522  1
  Cu2+  Cu122  1  0.87491142  0.12477288  0.64611010  1
  Cu2+  Cu123  1  0.87422910  0.37610584  0.65453489  1
  Cu2+  Cu124  1  0.12547629  0.87466521  0.14993269  1
  Cu2+  Cu125  1  0.87452306  0.87543124  0.15566483  1
  Cu2+  Cu126  1  0.62453250  0.87400309  0.64122522  1
  Cu2+  Cu127  1  0.62443634  0.62633262  0.15222274  1
  O2-  O128  1  0.12620660  0.12368033  0.00706749  1
  O2-  O129  1  0.12460705  0.12603690  0.50697371  1
  O2-  O130  1  0.12569656  0.37469127  0.00749030  1
  O2-  O131  1  0.12546387  0.37462383  0.50741101  1
  O2-  O132  1  0.12390761  0.62692607  0.00789063  1
  O2-  O133  1  0.12456204  0.62346694  0.51773589  1
  O2-  O134  1  0.12301844  0.87548102  -0.00183589  1
  O2-  O135  1  0.12543148  0.87531827  0.50664265  1
  O2-  O136  1  0.37629006  0.12615087  -0.00482244  1
  O2-  O137  1  0.37489905  0.12410484  0.49826985  1
  O2-  O138  1  0.37556595  0.37247744  -0.00199570  1
  O2-  O139  1  0.37509119  0.37633774  0.50628920  1
  O2-  O140  1  0.37488403  0.62455853  0.00862731  1
  O2-  O141  1  0.37490191  0.62457779  0.50672322  1
  O2-  O142  1  0.37602349  0.87643371  0.00724889  1
  O2-  O143  1  0.37517745  0.87502756  0.49621502  1
  O2-  O144  1  0.62333546  0.12324360  -0.00314149  1
  O2-  O145  1  0.62550493  0.12583565  0.50628322  1
  O2-  O146  1  0.62460439  0.37452790  0.00849277  1
  O2-  O147  1  0.62505309  0.37571444  0.51731371  1
  O2-  O148  1  0.62638697  0.62746176  -0.00080856  1
  O2-  O149  1  0.62547486  0.62285026  0.51684964  1
  O2-  O150  1  0.62665401  0.87480048  0.00668372  1
  O2-  O151  1  0.62451490  0.87584354  0.50624126  1
  O2-  O152  1  0.87408343  0.12428398  0.00648488  1
  O2-  O153  1  0.87577648  0.12762928  0.49843177  1
  O2-  O154  1  0.87483152  0.37514881  0.00737061  1
  O2-  O155  1  0.87507850  0.37522299  0.49488688  1
  O2-  O156  1  0.87551569  0.62830610  -0.00371564  1
  O2-  O157  1  0.87518665  0.62278314  0.50599658  1
  O2-  O158  1  0.87376959  0.87379605  -0.00410347  1
  O2-  O159  1  0.87496596  0.87437609  0.50533199  1
  O2-  O160  1  0.12470411  -0.00168373  0.16537636  1
  O2-  O161  1  0.12474310  0.00199406  0.66120626  1
  O2-  O162  1  0.12552757  0.25351861  0.16436907  1
  O2-  O163  1  0.12453826  0.24732994  0.66459548  1
  O2-  O164  1  0.12426596  0.50007240  0.16164157  1
  O2-  O165  1  0.12434316  0.50188806  0.67205570  1
  O2-  O166  1  0.12420234  0.74897775  0.16477444  1
  O2-  O167  1  0.12475468  0.74799122  0.66706818  1
  O2-  O168  1  0.37519852  0.00137312  0.16382434  1
  O2-  O169  1  0.37536079  -0.00132908  0.66172465  1
  O2-  O170  1  0.37452750  0.25006876  0.16664835  1
  O2-  O171  1  0.37492713  0.25265636  0.65990977  1
  O2-  O172  1  0.37479647  0.49920966  0.16666558  1
  O2-  O173  1  0.37555120  0.49686796  0.66708719  1
  O2-  O174  1  0.37470355  0.75013851  0.16605736  1
  O2-  O175  1  0.37497129  0.75131557  0.66498515  1
  O2-  O176  1  0.62571918  -0.00139575  0.16372820  1
  O2-  O177  1  0.62502810  0.00222386  0.66188669  1
  O2-  O178  1  0.62468879  0.24814416  0.16587493  1
  O2-  O179  1  0.62531997  0.24952322  0.66356376  1
  O2-  O180  1  0.62479353  0.50213627  0.16475463  1
  O2-  O181  1  0.62526066  0.49971180  0.67147391  1
  O2-  O182  1  0.62623401  0.75175163  0.16509654  1
  O2-  O183  1  0.62537995  0.74794150  0.66572472  1
  O2-  O184  1  0.87489861  -0.00044826  0.16724809  1
  O2-  O185  1  0.87465134  -0.00213837  0.65912133  1
  O2-  O186  1  0.87562937  0.25326156  0.16338354  1
  O2-  O187  1  0.87486854  0.25086551  0.66543938  1
  O2-  O188  1  0.87609771  0.49806519  0.16264211  1
  O2-  O189  1  0.87496153  0.50181084  0.66683784  1
  O2-  O190  1  0.87514451  0.74981253  0.16875720  1
  O2-  O191  1  0.87492059  0.74848918  0.65882005  1
  O2-  O192  1  0.00033132  0.12518941  0.16643638  1
  O2-  O193  1  0.00123826  0.12535192  0.66348135  1
  O2-  O194  1  0.00085566  0.37606962  0.16125931  1
  O2-  O195  1  -0.00138015  0.37521218  0.66730888  1
  O2-  O196  1  0.00212969  0.62499525  0.16493254  1
  O2-  O197  1  -0.00177554  0.62422177  0.66524669  1
  O2-  O198  1  -0.00050217  0.87471248  0.16564299  1
  O2-  O199  1  -0.00316313  0.87396794  0.66214532  1
  O2-  O200  1  0.25129835  0.12553642  0.16635890  1
  O2-  O201  1  0.24883113  0.12528857  0.66185509  1
  O2-  O202  1  0.24813147  0.37592470  0.16416262  1
  O2-  O203  1  0.25280223  0.37500374  0.66457059  1
  O2-  O204  1  0.24703238  0.62440291  0.16448548  1
  O2-  O205  1  0.24936645  0.62437098  0.66773574  1
  O2-  O206  1  0.24927756  0.87511389  0.16373401  1
  O2-  O207  1  0.25173337  0.87452855  0.66489067  1
  O2-  O208  1  0.49952485  0.12535860  0.16646310  1
  O2-  O209  1  0.50152075  0.12546231  0.65985313  1
  O2-  O210  1  0.49836432  0.37491981  0.16716006  1
  O2-  O211  1  0.49943080  0.37415701  0.66406487  1
  O2-  O212  1  0.50048334  0.62530919  0.16554283  1
  O2-  O213  1  0.50141271  0.62472249  0.66663586  1
  O2-  O214  1  0.50293821  0.87546469  0.16296301  1
  O2-  O215  1  0.49802753  0.87450728  0.66539675  1
  O2-  O216  1  0.74909311  0.12516248  0.16626673  1
  O2-  O217  1  0.74838085  0.12545267  0.66163586  1
  O2-  O218  1  0.75269831  0.37546503  0.16338394  1
  O2-  O219  1  0.74881839  0.37480020  0.66759128  1
  O2-  O220  1  0.75079935  0.62514608  0.16645117  1
  O2-  O221  1  0.75106063  0.62440209  0.66354512  1
  O2-  O222  1  0.74845351  0.87502636  0.16536218  1
  O2-  O223  1  0.75333844  0.87427407  0.66244770  1
  O2-  O224  1  0.12498662  0.00402683  0.34918413  1
  O2-  O225  1  0.12475007  -0.00233710  0.84380145  1
  O2-  O226  1  0.12480264  0.24644864  0.34765077  1
  O2-  O227  1  0.12419563  0.25314929  0.84901578  1
  O2-  O228  1  0.12484385  0.50083389  0.34674308  1
  O2-  O229  1  0.12405243  0.49984764  0.85519264  1
  O2-  O230  1  0.12434564  0.74956708  0.34984991  1
  O2-  O231  1  0.12400552  0.74889317  0.84845562  1
  O2-  O232  1  0.37498749  0.00108725  0.34489853  1
  O2-  O233  1  0.37515260  0.00133138  0.84481830  1
  O2-  O234  1  0.37544646  0.25052534  0.35030899  1
  O2-  O235  1  0.37457638  0.24982871  0.84164550  1
  O2-  O236  1  0.37496789  0.49815137  0.35092897  1
  O2-  O237  1  0.37396311  0.49827777  0.84909779  1
  O2-  O238  1  0.37502254  0.75137428  0.34816617  1
  O2-  O239  1  0.37496122  0.74974818  0.84969503  1
  O2-  O240  1  0.62553249  0.00408150  0.34781749  1
  O2-  O241  1  0.62534477  -0.00197503  0.84522854  1
  O2-  O242  1  0.62518715  0.24776933  0.35004854  1
  O2-  O243  1  0.62503568  0.24777822  0.84565307  1
  O2-  O244  1  0.62597172  0.49980114  0.34967136  1
  O2-  O245  1  0.62580215  0.50207617  0.85137262  1
  O2-  O246  1  0.62546966  0.74935929  0.34957049  1
  O2-  O247  1  0.62562867  0.75141612  0.84725966  1
  O2-  O248  1  0.87453036  0.00021868  0.35067340  1
  O2-  O249  1  0.87437636  -0.00314508  0.84215044  1
  O2-  O250  1  0.87480449  0.24927103  0.34373744  1
  O2-  O251  1  0.87568314  0.25246227  0.85043273  1
  O2-  O252  1  0.87490967  0.50121012  0.34697993  1
  O2-  O253  1  0.87546717  0.49956724  0.85039695  1
  O2-  O254  1  0.87535834  0.74963106  0.35425345  1
  O2-  O255  1  0.87497002  0.75030671  0.83964901  1
  O2-  O256  1  0.00066783  0.12506689  0.34895621  1
  O2-  O257  1  0.00017170  0.12446569  0.84782673  1
  O2-  O258  1  -0.00183891  0.37521190  0.34370737  1
  O2-  O259  1  -0.00005351  0.37586265  0.85275322  1
  O2-  O260  1  -0.00161362  0.62492572  0.35002436  1
  O2-  O261  1  0.00097639  0.62444627  0.84734381  1
  O2-  O262  1  -0.00293107  0.87555061  0.35017437  1
  O2-  O263  1  -0.00021223  0.87426299  0.84343321  1
  O2-  O264  1  0.24946478  0.12628127  0.34953954  1
  O2-  O265  1  0.25157711  0.12559273  0.84449490  1
  O2-  O266  1  0.25292860  0.37466030  0.34904304  1
  O2-  O267  1  0.24880658  0.37500797  0.84756314  1
  O2-  O268  1  0.24842877  0.62486883  0.34804697  1
  O2-  O269  1  0.24669603  0.62450225  0.85110587  1
  O2-  O270  1  0.25213463  0.87563227  0.34602428  1
  O2-  O271  1  0.24841814  0.87424434  0.84799097  1
  O2-  O272  1  0.50053302  0.12586987  0.35027312  1
  O2-  O273  1  0.49992729  0.12428017  0.84124795  1
  O2-  O274  1  0.49898899  0.37461925  0.35217514  1
  O2-  O275  1  0.49787996  0.37459343  0.84467646  1
  O2-  O276  1  0.50158499  0.62478628  0.34927651  1
  O2-  O277  1  0.50150001  0.62547902  0.84825862  1
  O2-  O278  1  0.49781886  0.87593708  0.34496272  1
  O2-  O279  1  0.50298743  0.87499398  0.84957655  1
  O2-  O280  1  0.74965945  0.12540065  0.34966940  1
  O2-  O281  1  0.74787766  0.12393431  0.84487281  1
  O2-  O282  1  0.75035942  0.37514964  0.34650348  1
  O2-  O283  1  0.75293898  0.37488671  0.85104678  1
  O2-  O284  1  0.75183587  0.62516789  0.35148328  1
  O2-  O285  1  0.75032126  0.62552789  0.84365614  1
  O2-  O286  1  0.75312476  0.87512243  0.34980831  1
  O2-  O287  1  0.74836493  0.87459352  0.84474617  1
