# generated using pymatgen
data_BaYFeCuO5
_symmetry_space_group_name_H-M   'P 1'
_cell_length_a   15.67713946
_cell_length_b   15.67456760
_cell_length_c   15.50189538
_cell_angle_alpha   90.00212464
_cell_angle_beta   89.99819151
_cell_angle_gamma   90.00021170
_symmetry_Int_Tables_number   1
_chemical_formula_structural   BaYFeCuO5
_chemical_formula_sum   'Ba32 Y32 Fe32 Cu32 O160'
_cell_volume   3809.31767516
_cell_formula_units_Z   32
loop_
 _symmetry_equiv_pos_site_id
 _symmetry_equiv_pos_as_xyz
  1  'x, y, z'
loop_
 _atom_type_symbol
 _atom_type_oxidation_number
  Ba2+  2.0
  Y3+  3.0
  Fe3+  3.0
  Cu2+  2.0
  O2-  -2.0
loop_
 _atom_site_type_symbol
 _atom_site_label
 _atom_site_symmetry_multiplicity
 _atom_site_fract_x
 _atom_site_fract_y
 _atom_site_fract_z
 _atom_site_occupancy
  Ba2+  Ba0  1  0.00376983  0.00317442  0.01046942  1
  Ba2+  Ba1  1  -0.00055869  -0.00111090  0.52663518  1
  Ba2+  Ba2  1  0.00240884  0.24791580  0.01298580  1
  Ba2+  Ba3  1  0.00107264  0.25114714  0.51237535  1
  Ba2+  Ba4  1  -0.00352018  0.50174720  0.01169234  1
  Ba2+  Ba5  1  -0.00011342  0.49853834  0.51187071  1
  Ba2+  Ba6  1  -0.00198293  0.74718337  0.01035676  1
  Ba2+  Ba7  1  -0.00214546  0.74999635  0.52753593  1
  Ba2+  Ba8  1  0.25191784  0.00299210  0.01215898  1
  Ba2+  Ba9  1  0.24288561  0.00313899  0.51306966  1
  Ba2+  Ba10  1  0.24617671  0.24047725  0.01125431  1
  Ba2+  Ba11  1  0.24121915  0.24824158  0.50684273  1
  Ba2+  Ba12  1  0.24023853  0.49877162  0.01898456  1
  Ba2+  Ba13  1  0.23729963  0.49837563  0.51086710  1
  Ba2+  Ba14  1  0.24765826  0.75752437  0.01640588  1
  Ba2+  Ba15  1  0.23842307  0.75118579  0.51697289  1
  Ba2+  Ba16  1  0.49351852  0.00093069  0.00682207  1
  Ba2+  Ba17  1  0.50068184  -0.00029655  0.50606546  1
  Ba2+  Ba18  1  0.50129488  0.24186797  0.00897346  1
  Ba2+  Ba19  1  0.50319259  0.25227352  0.50258366  1
  Ba2+  Ba20  1  0.50952060  0.49875582  0.00725176  1
  Ba2+  Ba21  1  0.51220596  0.49885118  0.51178928  1
  Ba2+  Ba22  1  0.50183017  0.75824635  0.00553160  1
  Ba2+  Ba23  1  0.51074238  0.75064991  0.51819472  1
  Ba2+  Ba24  1  0.74971782  0.00116176  0.00665781  1
  Ba2+  Ba25  1  0.75659897  -0.00544438  0.52199908  1
  Ba2+  Ba26  1  0.75086984  0.25051004  0.00674250  1
  Ba2+  Ba27  1  0.75391051  0.25626826  0.50565050  1
  Ba2+  Ba28  1  0.75444526  0.50147252  0.00156536  1
  Ba2+  Ba29  1  0.75099122  0.49972751  0.51290241  1
  Ba2+  Ba30  1  0.75288647  0.74746881  0.00213326  1
  Ba2+  Ba31  1  0.75308328  0.74917063  0.52782353  1
  Y3+  Y32  1  0.00135834  0.00158977  0.25091424  1
  Y3+  Y33  1  0.00068178  0.00091322  0.75980804  1
  Y3+  Y34  1  0.00185329  0.25107001  0.25729290  1
  Y3+  Y35  1  0.00170919  0.24927060  0.75729147  1
  Y3+  Y36  1  0.00032854  0.49887468  0.25609574  1
  Y3+  Y37  1  -0.00152278  0.50017553  0.75814461  1
  Y3+  Y38  1  -0.00009268  0.74858679  0.24974152  1
  Y3+  Y39  1  -0.00246344  0.74949759  0.76106686  1
  Y3+  Y40  1  0.25119318  0.00162841  0.25323025  1
  Y3+  Y41  1  0.24986245  0.00245746  0.76239727  1
  Y3+  Y42  1  0.24862394  0.24773838  0.25775519  1
  Y3+  Y43  1  0.24806262  0.24805254  0.75852066  1
  Y3+  Y44  1  0.24697661  0.49879275  0.25920827  1
  Y3+  Y45  1  0.24792622  0.49833593  0.75483830  1
  Y3+  Y46  1  0.24947029  0.75201536  0.25391769  1
  Y3+  Y47  1  0.24976729  0.75145950  0.75843496  1
  Y3+  Y48  1  0.49712145  0.00190559  0.25527292  1
  Y3+  Y49  1  0.49821762  -0.00112215  0.76046071  1
  Y3+  Y50  1  0.49930990  0.24791637  0.25985711  1
  Y3+  Y51  1  0.50034026  0.25067643  0.75789347  1
  Y3+  Y52  1  0.50207784  0.49950308  0.25931528  1
  Y3+  Y53  1  0.50242517  0.49799957  0.75629306  1
  Y3+  Y54  1  0.49964065  0.75059292  0.25413888  1
  Y3+  Y55  1  0.50069856  0.75240325  0.75969404  1
  Y3+  Y56  1  0.75095325  0.00208568  0.25437267  1
  Y3+  Y57  1  0.75143346  -0.00235821  0.75878579  1
  Y3+  Y58  1  0.75022185  0.25058271  0.25950142  1
  Y3+  Y59  1  0.75007238  0.25246019  0.75691394  1
  Y3+  Y60  1  0.75089948  0.49994733  0.25727917  1
  Y3+  Y61  1  0.75067835  0.49945925  0.75880010  1
  Y3+  Y62  1  0.75128704  0.74741963  0.25089988  1
  Y3+  Y63  1  0.75157461  0.75060834  0.76154624  1
  Fe3+  Fe64  1  0.62506153  0.12480127  0.87482651  1
  Fe3+  Fe65  1  0.87646933  0.12339525  0.37714945  1
  Fe3+  Fe66  1  0.62637177  0.12341753  0.37983484  1
  Fe3+  Fe67  1  0.62692280  0.62691321  0.37540302  1
  Fe3+  Fe68  1  0.12435171  0.37464061  0.87738327  1
  Fe3+  Fe69  1  0.37463074  0.62618450  0.38101301  1
  Fe3+  Fe70  1  0.37436058  0.37483407  0.88103167  1
  Fe3+  Fe71  1  0.12473885  0.87553031  0.87678534  1
  Fe3+  Fe72  1  0.12224845  0.87506476  0.37425925  1
  Fe3+  Fe73  1  0.37419369  0.87443395  0.38056046  1
  Fe3+  Fe74  1  0.12355886  0.12309544  0.37513124  1
  Fe3+  Fe75  1  0.37393993  0.62410395  0.87954227  1
  Fe3+  Fe76  1  0.62762034  0.87419046  0.37644013  1
  Fe3+  Fe77  1  0.37416989  0.37559047  0.38038655  1
  Fe3+  Fe78  1  0.87569548  0.62653404  0.37612617  1
  Fe3+  Fe79  1  0.87602398  0.87398296  0.37457909  1
  Fe3+  Fe80  1  0.12561183  0.62461352  0.87600134  1
  Fe3+  Fe81  1  0.12283618  0.62696393  0.37466025  1
  Fe3+  Fe82  1  0.62442735  0.62511345  0.87577460  1
  Fe3+  Fe83  1  0.87560098  0.12596844  0.87604188  1
  Fe3+  Fe84  1  0.62516463  0.37429423  0.13910305  1
  Fe3+  Fe85  1  0.37492826  0.12540790  0.63638047  1
  Fe3+  Fe86  1  0.62586210  0.12485073  0.63512006  1
  Fe3+  Fe87  1  0.87489737  0.87592057  0.13316091  1
  Fe3+  Fe88  1  0.37445857  0.37452637  0.63441822  1
  Fe3+  Fe89  1  0.62504867  0.87607934  0.13588602  1
  Fe3+  Fe90  1  0.37414103  0.87546084  0.63522760  1
  Fe3+  Fe91  1  0.87555235  0.37479172  0.64032741  1
  Fe3+  Fe92  1  0.37498146  0.62456645  0.63382579  1
  Fe3+  Fe93  1  0.37487837  0.37419272  0.13575010  1
  Fe3+  Fe94  1  0.37591870  0.62421616  0.13393510  1
  Fe3+  Fe95  1  0.87501333  0.37429080  0.13881923  1
  Cu2+  Cu96  1  0.12480744  0.12547939  0.87178406  1
  Cu2+  Cu97  1  0.62529766  0.87585268  0.86471328  1
  Cu2+  Cu98  1  0.87569903  0.37551613  0.36321340  1
  Cu2+  Cu99  1  0.37494797  0.12610485  0.87191413  1
  Cu2+  Cu100  1  0.87575416  0.37422805  0.86412579  1
  Cu2+  Cu101  1  0.87590709  0.87597636  0.86805107  1
  Cu2+  Cu102  1  0.37414420  0.12411150  0.36861035  1
  Cu2+  Cu103  1  0.62607219  0.37567335  0.37427592  1
  Cu2+  Cu104  1  0.87573599  0.62436894  0.87230144  1
  Cu2+  Cu105  1  0.12396570  0.37480283  0.37295892  1
  Cu2+  Cu106  1  0.37363594  0.87493896  0.87328802  1
  Cu2+  Cu107  1  0.62513324  0.37442641  0.86415396  1
  Cu2+  Cu108  1  0.12490269  0.62494995  0.65409095  1
  Cu2+  Cu109  1  0.62454209  0.62432223  0.14732101  1
  Cu2+  Cu110  1  0.12450854  0.37426644  0.64281949  1
  Cu2+  Cu111  1  0.12566065  0.87533939  0.65640959  1
  Cu2+  Cu112  1  0.37529915  0.12627624  0.14370406  1
  Cu2+  Cu113  1  0.87454279  0.12634436  0.14880553  1
  Cu2+  Cu114  1  0.62537745  0.37397392  0.64260365  1
  Cu2+  Cu115  1  0.12564496  0.62479933  0.14953439  1
  Cu2+  Cu116  1  0.87481835  0.12547662  0.65222308  1
  Cu2+  Cu117  1  0.12532208  0.37426580  0.15145447  1
  Cu2+  Cu118  1  0.62494992  0.62515644  0.65580837  1
  Cu2+  Cu119  1  0.12513872  0.12476302  0.65392251  1
  Cu2+  Cu120  1  0.12498220  0.87571907  0.14707852  1
  Cu2+  Cu121  1  0.62435362  0.87605972  0.65452112  1
  Cu2+  Cu122  1  0.12506601  0.12531876  0.14201246  1
  Cu2+  Cu123  1  0.87421275  0.62355056  0.13959719  1
  Cu2+  Cu124  1  0.62505454  0.12561968  0.15318715  1
  Cu2+  Cu125  1  0.87485074  0.62426752  0.65618742  1
  Cu2+  Cu126  1  0.87573915  0.87467421  0.65840110  1
  Cu2+  Cu127  1  0.37560050  0.87565990  0.14211010  1
  O2-  O128  1  0.12453270  0.12523877  0.00704776  1
  O2-  O129  1  0.12214286  0.12198839  0.49568651  1
  O2-  O130  1  0.12550695  0.37524521  -0.00261581  1
  O2-  O131  1  0.12358529  0.37474619  0.50712791  1
  O2-  O132  1  0.12742352  0.62433833  -0.00394369  1
  O2-  O133  1  0.12174049  0.62820921  0.49481660  1
  O2-  O134  1  0.12563159  0.87486152  -0.00299284  1
  O2-  O135  1  0.12145829  0.87450317  0.49414913  1
  O2-  O136  1  0.37579299  0.12651324  0.00770889  1
  O2-  O137  1  0.37422615  0.12355398  0.51656363  1
  O2-  O138  1  0.37475234  0.37503503  0.00820471  1
  O2-  O139  1  0.37431844  0.37631408  0.50773386  1
  O2-  O140  1  0.37484662  0.62366206  0.00632273  1
  O2-  O141  1  0.37489858  0.62565532  0.50652862  1
  O2-  O142  1  0.37484721  0.87439896  0.00710883  1
  O2-  O143  1  0.37420876  0.87396776  0.50723861  1
  O2-  O144  1  0.62514679  0.12515946  -0.00485790  1
  O2-  O145  1  0.62672369  0.12320959  0.50701440  1
  O2-  O146  1  0.62471522  0.37339987  0.01893216  1
  O2-  O147  1  0.62619863  0.37508933  0.50800323  1
  O2-  O148  1  0.62300664  0.62455532  -0.00372911  1
  O2-  O149  1  0.62780173  0.62823823  0.49561487  1
  O2-  O150  1  0.62432908  0.87742745  0.01566677  1
  O2-  O151  1  0.62856440  0.87301158  0.49660310  1
  O2-  O152  1  0.87415564  0.12642649  -0.00364324  1
  O2-  O153  1  0.87635914  0.12132140  0.49662417  1
  O2-  O154  1  0.87389305  0.37416279  0.01860488  1
  O2-  O155  1  0.87570828  0.37609305  0.51948709  1
  O2-  O156  1  0.87454555  0.62380128  0.00600806  1
  O2-  O157  1  0.87560585  0.62807845  0.49583481  1
  O2-  O158  1  0.87378831  0.87608141  0.01308737  1
  O2-  O159  1  0.87641275  0.87308796  0.49463479  1
  O2-  O160  1  0.12598102  -0.00058102  0.16223796  1
  O2-  O161  1  0.12557201  -0.00013532  0.66535292  1
  O2-  O162  1  0.12585705  0.25099106  0.16747159  1
  O2-  O163  1  0.12592570  0.24844201  0.66513302  1
  O2-  O164  1  0.12675073  0.49968310  0.16536370  1
  O2-  O165  1  0.12583388  0.50114650  0.66366157  1
  O2-  O166  1  0.12659154  0.75005076  0.16013659  1
  O2-  O167  1  0.12711377  0.74997935  0.66417605  1
  O2-  O168  1  0.37557960  0.00080299  0.16581957  1
  O2-  O169  1  0.37492400  -0.00084070  0.66481425  1
  O2-  O170  1  0.37562099  0.25345530  0.16770678  1
  O2-  O171  1  0.37486167  0.25059612  0.66528818  1
  O2-  O172  1  0.37471482  0.49938880  0.16346121  1
  O2-  O173  1  0.37538775  0.50021837  0.66355560  1
  O2-  O174  1  0.37547616  0.74680880  0.16281664  1
  O2-  O175  1  0.37432577  0.74976504  0.66223000  1
  O2-  O176  1  0.62501498  0.00067604  0.16673084  1
  O2-  O177  1  0.62378860  0.00152760  0.66226072  1
  O2-  O178  1  0.62351207  0.25060479  0.17026629  1
  O2-  O179  1  0.62453627  0.24653659  0.66367765  1
  O2-  O180  1  0.62364480  0.49890542  0.16666203  1
  O2-  O181  1  0.62354941  0.50096211  0.66485473  1
  O2-  O182  1  0.62353106  0.75003550  0.16082124  1
  O2-  O183  1  0.62364822  0.75077194  0.66593007  1
  O2-  O184  1  0.87389233  0.00072220  0.16185650  1
  O2-  O185  1  0.87532767  0.00004049  0.66428256  1
  O2-  O186  1  0.87483630  0.25050668  0.16916756  1
  O2-  O187  1  0.87478025  0.24985235  0.66538533  1
  O2-  O188  1  0.87507446  0.49786570  0.16750528  1
  O2-  O189  1  0.87502978  0.50008543  0.66687543  1
  O2-  O190  1  0.87475217  0.75138807  0.15949908  1
  O2-  O191  1  0.87454104  0.74926207  0.66693908  1
  O2-  O192  1  -0.00127330  0.12551614  0.16115106  1
  O2-  O193  1  0.00044893  0.12513283  0.66438609  1
  O2-  O194  1  0.00058099  0.37463595  0.16380821  1
  O2-  O195  1  -0.00126822  0.37487728  0.66785791  1
  O2-  O196  1  0.00181088  0.62435233  0.15972324  1
  O2-  O197  1  0.00047461  0.62543799  0.66618642  1
  O2-  O198  1  -0.00043357  0.87565231  0.15964224  1
  O2-  O199  1  0.00079962  0.87420251  0.66618970  1
  O2-  O200  1  0.25026025  0.12593208  0.16597542  1
  O2-  O201  1  0.25076079  0.12486491  0.66618267  1
  O2-  O202  1  0.25149974  0.37566227  0.16469143  1
  O2-  O203  1  0.25288129  0.37543706  0.66368022  1
  O2-  O204  1  0.25244756  0.62416190  0.16472506  1
  O2-  O205  1  0.25215058  0.62414845  0.66112699  1
  O2-  O206  1  0.24890279  0.87475756  0.16617889  1
  O2-  O207  1  0.25177580  0.87473862  0.66149852  1
  O2-  O208  1  0.50108404  0.12606361  0.16927591  1
  O2-  O209  1  0.50040102  0.12507053  0.66367267  1
  O2-  O210  1  0.49868116  0.37560456  0.16816786  1
  O2-  O211  1  0.49650541  0.37488339  0.66512604  1
  O2-  O212  1  0.49784537  0.62342219  0.16601604  1
  O2-  O213  1  0.49764816  0.62536459  0.66305647  1
  O2-  O214  1  0.50214413  0.87536179  0.17013128  1
  O2-  O215  1  0.49694197  0.87443510  0.66332447  1
  O2-  O216  1  0.74959680  0.12653050  0.16493185  1
  O2-  O217  1  0.74854560  0.12383013  0.66266902  1
  O2-  O218  1  0.74937606  0.37402765  0.16975793  1
  O2-  O219  1  0.75186859  0.37533825  0.66866947  1
  O2-  O220  1  0.74824913  0.62400037  0.16286785  1
  O2-  O221  1  0.74932950  0.62493042  0.66668939  1
  O2-  O222  1  0.74978178  0.87569517  0.16499138  1
  O2-  O223  1  0.75011149  0.87521554  0.66589198  1
  O2-  O224  1  0.12542698  -0.00069199  0.34222490  1
  O2-  O225  1  0.12516728  -0.00056932  0.84838704  1
  O2-  O226  1  0.12561401  0.24770853  0.34965660  1
  O2-  O227  1  0.12570871  0.25190713  0.84720467  1
  O2-  O228  1  0.12563380  0.50268216  0.34835301  1
  O2-  O229  1  0.12615957  0.49955295  0.84462115  1
  O2-  O230  1  0.12564484  0.75033909  0.34049531  1
  O2-  O231  1  0.12584292  0.74917073  0.84585606  1
  O2-  O232  1  0.37558828  -0.00314434  0.35039348  1
  O2-  O233  1  0.37509070  0.00076963  0.84822124  1
  O2-  O234  1  0.37502128  0.25148501  0.35311831  1
  O2-  O235  1  0.37562898  0.25391760  0.84883545  1
  O2-  O236  1  0.37513642  0.50171263  0.34974398  1
  O2-  O237  1  0.37510426  0.49965701  0.84957706  1
  O2-  O238  1  0.37490878  0.74997731  0.34754444  1
  O2-  O239  1  0.37520913  0.74579530  0.84778639  1
  O2-  O240  1  0.62420228  0.00028204  0.34875480  1
  O2-  O241  1  0.62507634  0.00046884  0.84548003  1
  O2-  O242  1  0.62492457  0.24645142  0.35345171  1
  O2-  O243  1  0.62430908  0.25005827  0.84605246  1
  O2-  O244  1  0.62410808  0.50317596  0.34770187  1
  O2-  O245  1  0.62409596  0.49975981  0.84825746  1
  O2-  O246  1  0.62462896  0.75037351  0.34018604  1
  O2-  O247  1  0.62332192  0.75005895  0.84927855  1
  O2-  O248  1  0.87517007  -0.00053737  0.34193038  1
  O2-  O249  1  0.87454651  0.00138902  0.84728658  1
  O2-  O250  1  0.87470516  0.24973764  0.35190156  1
  O2-  O251  1  0.87433977  0.24995576  0.84673502  1
  O2-  O252  1  0.87531297  0.50052101  0.34932130  1
  O2-  O253  1  0.87460288  0.49780463  0.84940270  1
  O2-  O254  1  0.87509536  0.74995056  0.33865141  1
  O2-  O255  1  0.87517034  0.75113671  0.85070158  1
  O2-  O256  1  -0.00004734  0.12487019  0.34177202  1
  O2-  O257  1  -0.00131208  0.12566576  0.84725771  1
  O2-  O258  1  -0.00149674  0.37531660  0.34643109  1
  O2-  O259  1  0.00062994  0.37507126  0.84885047  1
  O2-  O260  1  -0.00042575  0.62531587  0.34075765  1
  O2-  O261  1  0.00209804  0.62413578  0.84911268  1
  O2-  O262  1  -0.00029684  0.87457426  0.33873092  1
  O2-  O263  1  0.00115723  0.87515271  0.84860733  1
  O2-  O264  1  0.24909942  0.12409552  0.34863104  1
  O2-  O265  1  0.25002726  0.12627771  0.84912103  1
  O2-  O266  1  0.25318798  0.37610670  0.34935916  1
  O2-  O267  1  0.25092048  0.37576930  0.84694307  1
  O2-  O268  1  0.25116267  0.62561913  0.34895719  1
  O2-  O269  1  0.25135856  0.62392656  0.84411901  1
  O2-  O270  1  0.25073723  0.87401711  0.34952198  1
  O2-  O271  1  0.24774783  0.87431577  0.84413774  1
  O2-  O272  1  0.50115290  0.12447894  0.35376090  1
  O2-  O273  1  0.50146897  0.12548632  0.84519533  1
  O2-  O274  1  0.49668536  0.37574219  0.35171333  1
  O2-  O275  1  0.49786065  0.37608657  0.84999844  1
  O2-  O276  1  0.49865435  0.62598704  0.34954125  1
  O2-  O277  1  0.49826492  0.62383217  0.84696915  1
  O2-  O278  1  0.49914916  0.87401938  0.35271675  1
  O2-  O279  1  0.50043304  0.87495117  0.84762666  1
  O2-  O280  1  0.74986204  0.12433438  0.34772832  1
  O2-  O281  1  0.74984408  0.12558491  0.84482851  1
  O2-  O282  1  0.75194765  0.37519422  0.35072063  1
  O2-  O283  1  0.75043117  0.37444343  0.85169341  1
  O2-  O284  1  0.75085562  0.62532591  0.34322491  1
  O2-  O285  1  0.74834087  0.62503693  0.84990329  1
  O2-  O286  1  0.75060187  0.87544874  0.34281758  1
  O2-  O287  1  0.75035763  0.87508418  0.85047117  1
