# generated using pymatgen
data_BaYFeCuO5
_symmetry_space_group_name_H-M   'P 1'
_cell_length_a   15.66815594
_cell_length_b   15.66913651
_cell_length_c   15.48065000
_cell_angle_alpha   89.99761970
_cell_angle_beta   90.00237665
_cell_angle_gamma   89.99679870
_symmetry_Int_Tables_number   1
_chemical_formula_structural   BaYFeCuO5
_chemical_formula_sum   'Ba32 Y32 Fe32 Cu32 O160'
_cell_volume   3800.59978782
_cell_formula_units_Z   32
loop_
 _symmetry_equiv_pos_site_id
 _symmetry_equiv_pos_as_xyz
  1  'x, y, z'
loop_
 _atom_type_symbol
 _atom_type_oxidation_number
  Ba2+  2.0
  Y3+  3.0
  Fe3+  3.0
  Cu2+  2.0
  O2-  -2.0
loop_
 _atom_site_type_symbol
 _atom_site_label
 _atom_site_symmetry_multiplicity
 _atom_site_fract_x
 _atom_site_fract_y
 _atom_site_fract_z
 _atom_site_occupancy
  Ba2+  Ba0  1  -0.01079974  -0.00093883  0.01800458  1
  Ba2+  Ba1  1  -0.00286079  -0.00338957  0.50063451  1
  Ba2+  Ba2  1  -0.00565656  0.25813702  0.01596748  1
  Ba2+  Ba3  1  -0.00544655  0.25607849  0.50628888  1
  Ba2+  Ba4  1  -0.00407268  0.50083354  0.01772937  1
  Ba2+  Ba5  1  -0.00729779  0.49638375  0.51127465  1
  Ba2+  Ba6  1  -0.00666954  0.74259019  0.01656286  1
  Ba2+  Ba7  1  -0.00669919  0.74988244  0.50692136  1
  Ba2+  Ba8  1  0.26098353  -0.00300468  0.01144135  1
  Ba2+  Ba9  1  0.25514906  -0.00232538  0.51361044  1
  Ba2+  Ba10  1  0.25261803  0.25554670  0.00948323  1
  Ba2+  Ba11  1  0.25417665  0.25382783  0.52300513  1
  Ba2+  Ba12  1  0.24704742  0.50184148  0.01778897  1
  Ba2+  Ba13  1  0.25280313  0.49565697  0.51200747  1
  Ba2+  Ba14  1  0.25643914  0.74692487  0.01678072  1
  Ba2+  Ba15  1  0.25314493  0.75345078  0.50031010  1
  Ba2+  Ba16  1  0.50270869  -0.00678607  0.00560832  1
  Ba2+  Ba17  1  0.49818168  -0.00501160  0.51841594  1
  Ba2+  Ba18  1  0.49840976  0.24551057  0.00193742  1
  Ba2+  Ba19  1  0.49637379  0.25342334  0.52358986  1
  Ba2+  Ba20  1  0.49806412  0.50634869  0.01273413  1
  Ba2+  Ba21  1  0.49719743  0.49633594  0.51277201  1
  Ba2+  Ba22  1  0.50236942  0.75411041  0.01631843  1
  Ba2+  Ba23  1  0.50009113  0.75645182  0.50690795  1
  Ba2+  Ba24  1  0.74599973  -0.00467988  0.01146641  1
  Ba2+  Ba25  1  0.74990551  -0.00611037  0.50696961  1
  Ba2+  Ba26  1  0.75661724  0.24890207  0.00758043  1
  Ba2+  Ba27  1  0.75491628  0.25533021  0.50692653  1
  Ba2+  Ba28  1  0.75891059  0.50489650  0.01033532  1
  Ba2+  Ba29  1  0.75733748  0.49704495  0.51147219  1
  Ba2+  Ba30  1  0.74939743  0.74942625  0.01921497  1
  Ba2+  Ba31  1  0.75320673  0.75315283  0.51229802  1
  Y3+  Y32  1  -0.00172744  0.00077151  0.25790995  1
  Y3+  Y33  1  -0.00044780  -0.00103094  0.75650629  1
  Y3+  Y34  1  -0.00375257  0.25178535  0.25717592  1
  Y3+  Y35  1  -0.00149580  0.25362163  0.75685956  1
  Y3+  Y36  1  -0.00338634  0.50014527  0.25817404  1
  Y3+  Y37  1  -0.00480811  0.49940363  0.75664862  1
  Y3+  Y38  1  -0.00191430  0.74733552  0.25870244  1
  Y3+  Y39  1  -0.00343752  0.74752005  0.75542698  1
  Y3+  Y40  1  0.25135228  -0.00081779  0.25477888  1
  Y3+  Y41  1  0.25262882  -0.00137214  0.75904742  1
  Y3+  Y42  1  0.24936532  0.24963337  0.25317806  1
  Y3+  Y43  1  0.25078011  0.25167142  0.75844565  1
  Y3+  Y44  1  0.24922068  0.50249447  0.25666312  1
  Y3+  Y45  1  0.24979357  0.49814742  0.75683860  1
  Y3+  Y46  1  0.25158866  0.74907467  0.25601045  1
  Y3+  Y47  1  0.25110055  0.75116177  0.75848152  1
  Y3+  Y48  1  0.50097496  -0.00261205  0.25430828  1
  Y3+  Y49  1  0.50141234  -0.00349989  0.76000616  1
  Y3+  Y50  1  0.50053844  0.24840244  0.25432484  1
  Y3+  Y51  1  0.50036839  0.25054829  0.75955061  1
  Y3+  Y52  1  0.50015783  0.50397438  0.25742932  1
  Y3+  Y53  1  0.50079174  0.49851648  0.75770460  1
  Y3+  Y54  1  0.50129484  0.75105410  0.25625816  1
  Y3+  Y55  1  0.50162371  0.75426958  0.75841607  1
  Y3+  Y56  1  0.74908016  -0.00152122  0.25776802  1
  Y3+  Y57  1  0.74668854  -0.00285918  0.75727551  1
  Y3+  Y58  1  0.75356875  0.25046437  0.25816207  1
  Y3+  Y59  1  0.75049769  0.25245894  0.75822623  1
  Y3+  Y60  1  0.75358529  0.50151173  0.25835531  1
  Y3+  Y61  1  0.75433907  0.49968701  0.75693095  1
  Y3+  Y62  1  0.74891630  0.74946506  0.25902296  1
  Y3+  Y63  1  0.75067865  0.75040540  0.75602079  1
  Fe3+  Fe64  1  0.62638544  0.62594885  0.87638337  1
  Fe3+  Fe65  1  0.12387584  0.62507304  0.87683488  1
  Fe3+  Fe66  1  0.12413652  0.87409354  0.88198752  1
  Fe3+  Fe67  1  0.87461422  0.12451915  0.87641466  1
  Fe3+  Fe68  1  0.62413324  0.12485781  0.38129769  1
  Fe3+  Fe69  1  0.37521268  0.37432653  0.37344650  1
  Fe3+  Fe70  1  0.87455684  0.87350206  0.87678979  1
  Fe3+  Fe71  1  0.12387990  0.37641352  0.87665106  1
  Fe3+  Fe72  1  0.12364879  0.12458628  0.88076210  1
  Fe3+  Fe73  1  0.12565237  0.37432621  0.37613586  1
  Fe3+  Fe74  1  0.62500540  0.62511139  0.38015949  1
  Fe3+  Fe75  1  0.37522075  0.12464348  0.87597075  1
  Fe3+  Fe76  1  0.37542627  0.87588524  0.37347090  1
  Fe3+  Fe77  1  0.87456249  0.87476182  0.37418386  1
  Fe3+  Fe78  1  0.12604032  0.12556500  0.37907313  1
  Fe3+  Fe79  1  0.62601234  0.37603785  0.87994082  1
  Fe3+  Fe80  1  0.37561600  0.12603260  0.37659615  1
  Fe3+  Fe81  1  0.12490787  0.62477513  0.37939409  1
  Fe3+  Fe82  1  0.37522215  0.62486772  0.87597546  1
  Fe3+  Fe83  1  0.62428496  0.37456420  0.37661562  1
  Fe3+  Fe84  1  0.12490480  0.62445167  0.63358887  1
  Fe3+  Fe85  1  0.62621881  0.37606496  0.13414267  1
  Fe3+  Fe86  1  0.62526678  0.62466222  0.63449800  1
  Fe3+  Fe87  1  0.12438558  0.12535109  0.13358104  1
  Fe3+  Fe88  1  0.12475657  0.12513261  0.63475146  1
  Fe3+  Fe89  1  0.87484662  0.12400670  0.63626458  1
  Fe3+  Fe90  1  0.62512272  0.12522828  0.63639098  1
  Fe3+  Fe91  1  0.12479074  0.87434983  0.63685489  1
  Fe3+  Fe92  1  0.37513665  0.62620234  0.63606361  1
  Fe3+  Fe93  1  0.12399714  0.87414078  0.13540199  1
  Fe3+  Fe94  1  0.37620102  0.37541266  0.13570153  1
  Fe3+  Fe95  1  0.62554784  0.12532312  0.13698862  1
  Cu2+  Cu96  1  0.37505437  0.37623541  0.86617709  1
  Cu2+  Cu97  1  0.62603315  0.12477322  0.86423172  1
  Cu2+  Cu98  1  0.87451827  0.12496764  0.36672180  1
  Cu2+  Cu99  1  0.37516879  0.87338008  0.87333041  1
  Cu2+  Cu100  1  0.62626293  0.87355839  0.87208196  1
  Cu2+  Cu101  1  0.37535531  0.62483292  0.36659196  1
  Cu2+  Cu102  1  0.87492258  0.62553519  0.87082969  1
  Cu2+  Cu103  1  0.87469579  0.37526325  0.36974767  1
  Cu2+  Cu104  1  0.62431398  0.87549238  0.37297772  1
  Cu2+  Cu105  1  0.12545140  0.87533046  0.36190769  1
  Cu2+  Cu106  1  0.87436067  0.62483896  0.37419108  1
  Cu2+  Cu107  1  0.87527795  0.37561608  0.87244360  1
  Cu2+  Cu108  1  0.87477829  0.62521741  0.64065590  1
  Cu2+  Cu109  1  0.62558861  0.62450871  0.15207425  1
  Cu2+  Cu110  1  0.87467380  0.37359607  0.64413155  1
  Cu2+  Cu111  1  0.87424117  0.62534860  0.14639695  1
  Cu2+  Cu112  1  0.37424968  0.87413583  0.65451707  1
  Cu2+  Cu113  1  0.12430067  0.62523879  0.15307356  1
  Cu2+  Cu114  1  0.62517262  0.87438231  0.64074347  1
  Cu2+  Cu115  1  0.87555825  0.87595113  0.65129753  1
  Cu2+  Cu116  1  0.87412980  0.12473499  0.15302197  1
  Cu2+  Cu117  1  0.12441256  0.37553622  0.15171805  1
  Cu2+  Cu118  1  0.37571746  0.87475698  0.14219105  1
  Cu2+  Cu119  1  0.12432500  0.37519928  0.64939580  1
  Cu2+  Cu120  1  0.87367676  0.37593540  0.14363998  1
  Cu2+  Cu121  1  0.37564898  0.62498076  0.15284397  1
  Cu2+  Cu122  1  0.37563906  0.12494750  0.14726504  1
  Cu2+  Cu123  1  0.37525113  0.12435609  0.65394196  1
  Cu2+  Cu124  1  0.87479235  0.87443526  0.15359146  1
  Cu2+  Cu125  1  0.62577403  0.87470021  0.14392152  1
  Cu2+  Cu126  1  0.62577758  0.37539858  0.65194827  1
  Cu2+  Cu127  1  0.37521954  0.37590435  0.65700397  1
  O2-  O128  1  0.12380664  0.12444289  0.00616847  1
  O2-  O129  1  0.12672559  0.12565106  0.50680321  1
  O2-  O130  1  0.12459305  0.37683490  -0.00316623  1
  O2-  O131  1  0.12800487  0.37222224  0.49614005  1
  O2-  O132  1  0.12475475  0.62483191  -0.00329176  1
  O2-  O133  1  0.12625988  0.62517047  0.50657943  1
  O2-  O134  1  0.12370799  0.87419271  0.00764828  1
  O2-  O135  1  0.12659377  0.87663584  0.51687648  1
  O2-  O136  1  0.37415680  0.12573366  -0.00338746  1
  O2-  O137  1  0.37450979  0.12691338  0.49630552  1
  O2-  O138  1  0.37567374  0.37682053  0.01507754  1
  O2-  O139  1  0.37523735  0.37289985  0.49379235  1
  O2-  O140  1  0.37428308  0.62385096  -0.00336675  1
  O2-  O141  1  0.37412735  0.62520227  0.51574736  1
  O2-  O142  1  0.37497095  0.87336709  0.00718053  1
  O2-  O143  1  0.37403468  0.87674552  0.49466543  1
  O2-  O144  1  0.62606897  0.12509963  0.01676223  1
  O2-  O145  1  0.62293716  0.12625681  0.50806622  1
  O2-  O146  1  0.62565705  0.37592296  0.00711923  1
  O2-  O147  1  0.62207577  0.37341424  0.49662636  1
  O2-  O148  1  0.62516839  0.62556250  -0.00324451  1
  O2-  O149  1  0.62384397  0.62381012  0.50715293  1
  O2-  O150  1  0.62619282  0.87385443  0.00817649  1
  O2-  O151  1  0.62352386  0.87636137  0.50761844  1
  O2-  O152  1  0.87581607  0.12472827  -0.00295875  1
  O2-  O153  1  0.87612931  0.12439416  0.51610465  1
  O2-  O154  1  0.87479490  0.37570037  0.00815502  1
  O2-  O155  1  0.87468793  0.37383715  0.50828427  1
  O2-  O156  1  0.87507786  0.62585222  0.00756485  1
  O2-  O157  1  0.87530269  0.62497474  0.50715036  1
  O2-  O158  1  0.87481578  0.87358051  -0.00260734  1
  O2-  O159  1  0.87611595  0.87622693  0.49587799  1
  O2-  O160  1  0.12398166  0.00019838  0.16227644  1
  O2-  O161  1  0.12622228  0.00123816  0.66722837  1
  O2-  O162  1  0.12478052  0.24821937  0.16082715  1
  O2-  O163  1  0.12551299  0.24821408  0.66512218  1
  O2-  O164  1  0.12492823  0.50057552  0.16625691  1
  O2-  O165  1  0.12578441  0.50107043  0.65903861  1
  O2-  O166  1  0.12467345  0.75148167  0.16466496  1
  O2-  O167  1  0.12517371  0.74869156  0.66431015  1
  O2-  O168  1  0.37478568  0.00126016  0.16365064  1
  O2-  O169  1  0.37384705  -0.00121920  0.66485547  1
  O2-  O170  1  0.37467791  0.25078891  0.16215975  1
  O2-  O171  1  0.37493152  0.25096614  0.66595906  1
  O2-  O172  1  0.37531388  0.49966027  0.16635602  1
  O2-  O173  1  0.37479719  0.50097427  0.66373368  1
  O2-  O174  1  0.37463404  0.74832228  0.16547993  1
  O2-  O175  1  0.37441347  0.74939390  0.66496421  1
  O2-  O176  1  0.62553824  0.00173592  0.16778981  1
  O2-  O177  1  0.62428550  0.00243737  0.66441186  1
  O2-  O178  1  0.62539387  0.25159444  0.16462026  1
  O2-  O179  1  0.62427322  0.24873630  0.66605196  1
  O2-  O180  1  0.62399091  0.49889448  0.16399144  1
  O2-  O181  1  0.62483659  0.50108795  0.66275569  1
  O2-  O182  1  0.62566288  0.74826222  0.16749281  1
  O2-  O183  1  0.62430326  0.74720249  0.66148916  1
  O2-  O184  1  0.87575216  -0.00040745  0.16419073  1
  O2-  O185  1  0.87558848  0.00084643  0.66688324  1
  O2-  O186  1  0.87461615  0.24923320  0.16533378  1
  O2-  O187  1  0.87537013  0.24695286  0.66788068  1
  O2-  O188  1  0.87498965  0.50089420  0.16686760  1
  O2-  O189  1  0.87476998  0.49936401  0.66464010  1
  O2-  O190  1  0.87502049  0.75065135  0.16686175  1
  O2-  O191  1  0.87602973  0.75203787  0.66181837  1
  O2-  O192  1  0.00106758  0.12503853  0.16446128  1
  O2-  O193  1  0.00167020  0.12416461  0.66428006  1
  O2-  O194  1  0.00059013  0.37505899  0.16617190  1
  O2-  O195  1  0.00082435  0.37423067  0.66436681  1
  O2-  O196  1  0.00060449  0.62520204  0.16809424  1
  O2-  O197  1  0.00271005  0.62472825  0.66220333  1
  O2-  O198  1  0.00133740  0.87525591  0.16358774  1
  O2-  O199  1  0.00128138  0.87599322  0.66671411  1
  O2-  O200  1  0.24790777  0.12453846  0.16125787  1
  O2-  O201  1  0.24890959  0.12504798  0.66381450  1
  O2-  O202  1  0.25050370  0.37519480  0.16242511  1
  O2-  O203  1  0.25007242  0.37442689  0.66408839  1
  O2-  O204  1  0.24964082  0.62498152  0.16473984  1
  O2-  O205  1  0.24892855  0.62477080  0.66411832  1
  O2-  O206  1  0.24664583  0.87540878  0.16208053  1
  O2-  O207  1  0.24898663  0.87508807  0.66861115  1
  O2-  O208  1  0.50093040  0.12582512  0.16554000  1
  O2-  O209  1  0.50088115  0.12539850  0.66384351  1
  O2-  O210  1  0.50166714  0.37503211  0.16209666  1
  O2-  O211  1  0.50014091  0.37503199  0.66626086  1
  O2-  O212  1  0.50058006  0.62515065  0.16522469  1
  O2-  O213  1  0.50067219  0.62381273  0.66365527  1
  O2-  O214  1  0.50054752  0.87448030  0.16483908  1
  O2-  O215  1  0.49790544  0.87515447  0.66572325  1
  O2-  O216  1  0.74971498  0.12524058  0.16934229  1
  O2-  O217  1  0.74877124  0.12510801  0.66320303  1
  O2-  O218  1  0.74693996  0.37561729  0.16568495  1
  O2-  O219  1  0.74915042  0.37398825  0.66721561  1
  O2-  O220  1  0.74889602  0.62488403  0.16818250  1
  O2-  O221  1  0.74768469  0.62492801  0.66223600  1
  O2-  O222  1  0.75147126  0.87495078  0.16716982  1
  O2-  O223  1  0.75176716  0.87528680  0.66317901  1
  O2-  O224  1  0.12554761  0.00258743  0.34794698  1
  O2-  O225  1  0.12464999  0.00004470  0.85145928  1
  O2-  O226  1  0.12529654  0.24862117  0.34468423  1
  O2-  O227  1  0.12503268  0.24860080  0.84935182  1
  O2-  O228  1  0.12607760  0.50051049  0.35007491  1
  O2-  O229  1  0.12486968  0.50035616  0.84210161  1
  O2-  O230  1  0.12569313  0.74847022  0.35073754  1
  O2-  O231  1  0.12483701  0.75109815  0.84667647  1
  O2-  O232  1  0.37402921  0.00127931  0.34436163  1
  O2-  O233  1  0.37465527  0.00122850  0.84822122  1
  O2-  O234  1  0.37484341  0.24978040  0.34079345  1
  O2-  O235  1  0.37474756  0.24963126  0.84935245  1
  O2-  O236  1  0.37488130  0.49903820  0.34835819  1
  O2-  O237  1  0.37512907  0.50103434  0.84495275  1
  O2-  O238  1  0.37445076  0.75063764  0.34865672  1
  O2-  O239  1  0.37445454  0.74771942  0.84550696  1
  O2-  O240  1  0.62490288  0.00328793  0.35072050  1
  O2-  O241  1  0.62505126  0.00032136  0.84876818  1
  O2-  O242  1  0.62433742  0.24865238  0.34657714  1
  O2-  O243  1  0.62516038  0.25204558  0.85135156  1
  O2-  O244  1  0.62414526  0.50070011  0.34819367  1
  O2-  O245  1  0.62494644  0.49894139  0.84686358  1
  O2-  O246  1  0.62395746  0.74790568  0.35196096  1
  O2-  O247  1  0.62553726  0.74839760  0.84354820  1
  O2-  O248  1  0.87549107  -0.00034975  0.34720036  1
  O2-  O249  1  0.87608162  -0.00044776  0.84658421  1
  O2-  O250  1  0.87537244  0.24935301  0.34895753  1
  O2-  O251  1  0.87518223  0.24841762  0.84862664  1
  O2-  O252  1  0.87466629  0.49960707  0.34962546  1
  O2-  O253  1  0.87505110  0.50015714  0.84830431  1
  O2-  O254  1  0.87575029  0.75154342  0.34884977  1
  O2-  O255  1  0.87560677  0.75155682  0.84406946  1
  O2-  O256  1  0.00206234  0.12475994  0.35090180  1
  O2-  O257  1  0.00136577  0.12450100  0.84590907  1
  O2-  O258  1  0.00161505  0.37425154  0.34884110  1
  O2-  O259  1  0.00112369  0.37464405  0.84607730  1
  O2-  O260  1  0.00260188  0.62495936  0.35173403  1
  O2-  O261  1  0.00128716  0.62551707  0.84459070  1
  O2-  O262  1  0.00015006  0.87624505  0.34716947  1
  O2-  O263  1  0.00142743  0.87534656  0.84803012  1
  O2-  O264  1  0.24955617  0.12538074  0.34511150  1
  O2-  O265  1  0.24784610  0.12494397  0.84793885  1
  O2-  O266  1  0.25022034  0.37439125  0.34241258  1
  O2-  O267  1  0.24866134  0.37468956  0.84718736  1
  O2-  O268  1  0.24832112  0.62535549  0.34955944  1
  O2-  O269  1  0.24929972  0.62489873  0.84429362  1
  O2-  O270  1  0.25074017  0.87527265  0.34447388  1
  O2-  O271  1  0.24617872  0.87541006  0.85117182  1
  O2-  O272  1  0.50050472  0.12561391  0.34705240  1
  O2-  O273  1  0.50011107  0.12564943  0.84826227  1
  O2-  O274  1  0.49977941  0.37490068  0.34169803  1
  O2-  O275  1  0.50221262  0.37478197  0.85119013  1
  O2-  O276  1  0.50168203  0.62452743  0.35009302  1
  O2-  O277  1  0.50045108  0.62436708  0.84491253  1
  O2-  O278  1  0.49824235  0.87558202  0.34624326  1
  O2-  O279  1  0.50078243  0.87464922  0.84984962  1
  O2-  O280  1  0.74796285  0.12600704  0.35381879  1
  O2-  O281  1  0.75082804  0.12476424  0.84572419  1
  O2-  O282  1  0.74806332  0.37423563  0.34812466  1
  O2-  O283  1  0.74802347  0.37499226  0.85059210  1
  O2-  O284  1  0.74711395  0.62476562  0.35149162  1
  O2-  O285  1  0.74907245  0.62448210  0.84487608  1
  O2-  O286  1  0.75074114  0.87556853  0.34950574  1
  O2-  O287  1  0.75177204  0.87538944  0.84584584  1
