# generated using pymatgen
data_BaYFeCuO5
_symmetry_space_group_name_H-M   'P 1'
_cell_length_a   15.66471398
_cell_length_b   15.66417867
_cell_length_c   15.46931530
_cell_angle_alpha   90.00450086
_cell_angle_beta   89.99801139
_cell_angle_gamma   90.00162252
_symmetry_Int_Tables_number   1
_chemical_formula_structural   BaYFeCuO5
_chemical_formula_sum   'Ba32 Y32 Fe32 Cu32 O160'
_cell_volume   3795.78134729
_cell_formula_units_Z   32
loop_
 _symmetry_equiv_pos_site_id
 _symmetry_equiv_pos_as_xyz
  1  'x, y, z'
loop_
 _atom_type_symbol
 _atom_type_oxidation_number
  Ba2+  2.0
  Y3+  3.0
  Fe3+  3.0
  Cu2+  2.0
  O2-  -2.0
loop_
 _atom_site_type_symbol
 _atom_site_label
 _atom_site_symmetry_multiplicity
 _atom_site_fract_x
 _atom_site_fract_y
 _atom_site_fract_z
 _atom_site_occupancy
  Ba2+  Ba0  1  0.00585174  0.00776469  -0.00261827  1
  Ba2+  Ba1  1  -0.00142567  -0.00660764  0.51701170  1
  Ba2+  Ba2  1  0.00388943  0.25016134  0.00523722  1
  Ba2+  Ba3  1  -0.00054322  0.24877903  0.51592587  1
  Ba2+  Ba4  1  -0.00503744  0.49355791  0.01244553  1
  Ba2+  Ba5  1  -0.00100411  0.50167630  0.51675256  1
  Ba2+  Ba6  1  -0.00256150  0.74710951  0.00209310  1
  Ba2+  Ba7  1  -0.00204966  0.75674186  0.51755128  1
  Ba2+  Ba8  1  0.24512278  -0.00078650  0.00153132  1
  Ba2+  Ba9  1  0.25487671  -0.00403365  0.51194985  1
  Ba2+  Ba10  1  0.24113242  0.25194368  0.01155921  1
  Ba2+  Ba11  1  0.25837397  0.25048232  0.51646471  1
  Ba2+  Ba12  1  0.24769427  0.48817041  0.01097758  1
  Ba2+  Ba13  1  0.25631144  0.49694983  0.52170680  1
  Ba2+  Ba14  1  0.25182368  0.76077727  0.00259312  1
  Ba2+  Ba15  1  0.25294743  0.75637256  0.51754647  1
  Ba2+  Ba16  1  0.49652361  -0.00094596  0.01148844  1
  Ba2+  Ba17  1  0.49739955  0.00204806  0.51098535  1
  Ba2+  Ba18  1  0.50527099  0.25557700  0.01772136  1
  Ba2+  Ba19  1  0.49980414  0.24950859  0.50526158  1
  Ba2+  Ba20  1  0.50641921  0.49341239  0.01572251  1
  Ba2+  Ba21  1  0.50205058  0.49705551  0.51105830  1
  Ba2+  Ba22  1  0.49772536  0.75152102  0.01057117  1
  Ba2+  Ba23  1  0.49969689  0.75121386  0.51897035  1
  Ba2+  Ba24  1  0.75082622  0.01038009  0.00726225  1
  Ba2+  Ba25  1  0.74928794  -0.00195123  0.51886299  1
  Ba2+  Ba26  1  0.74878301  0.25445460  0.01316185  1
  Ba2+  Ba27  1  0.74191288  0.24830191  0.50605235  1
  Ba2+  Ba28  1  0.75055057  0.49773695  0.01735381  1
  Ba2+  Ba29  1  0.74190986  0.50190865  0.50514074  1
  Ba2+  Ba30  1  0.75228177  0.73857235  0.01123119  1
  Ba2+  Ba31  1  0.74986880  0.75098098  0.51959145  1
  Y3+  Y32  1  0.00337707  0.00005127  0.25932065  1
  Y3+  Y33  1  0.00161755  0.00118983  0.75757451  1
  Y3+  Y34  1  0.00205492  0.25040613  0.25542497  1
  Y3+  Y35  1  0.00157896  0.24953231  0.75859215  1
  Y3+  Y36  1  -0.00121853  0.49952256  0.25472965  1
  Y3+  Y37  1  -0.00043325  0.49949226  0.75907148  1
  Y3+  Y38  1  0.00045000  0.74984774  0.25731796  1
  Y3+  Y39  1  -0.00073345  0.75024437  0.75796306  1
  Y3+  Y40  1  0.25012235  0.00060846  0.25770146  1
  Y3+  Y41  1  0.25006263  -0.00064622  0.75791556  1
  Y3+  Y42  1  0.24991183  0.24873144  0.25560444  1
  Y3+  Y43  1  0.24900649  0.24995737  0.75781523  1
  Y3+  Y44  1  0.24938135  0.49779941  0.25393555  1
  Y3+  Y45  1  0.24980976  0.49742128  0.75765489  1
  Y3+  Y46  1  0.24957253  0.75268920  0.25646442  1
  Y3+  Y47  1  0.25082506  0.75334870  0.75841624  1
  Y3+  Y48  1  0.49857452  0.00276766  0.25674144  1
  Y3+  Y49  1  0.49689732  -0.00048791  0.75752179  1
  Y3+  Y50  1  0.50186774  0.25000061  0.25937896  1
  Y3+  Y51  1  0.50036015  0.25195435  0.75415150  1
  Y3+  Y52  1  0.50390982  0.49828371  0.25689949  1
  Y3+  Y53  1  0.50111458  0.49715172  0.75606111  1
  Y3+  Y54  1  0.50028181  0.74908877  0.25330083  1
  Y3+  Y55  1  0.49792146  0.75173015  0.75972791  1
  Y3+  Y56  1  0.74816356  0.00246408  0.25673002  1
  Y3+  Y57  1  0.75182851  0.00124181  0.75799284  1
  Y3+  Y58  1  0.74605229  0.25142176  0.25866671  1
  Y3+  Y59  1  0.74906586  0.25100579  0.75638136  1
  Y3+  Y60  1  0.74768229  0.49977580  0.25644026  1
  Y3+  Y61  1  0.74956202  0.49934418  0.75799431  1
  Y3+  Y62  1  0.74964459  0.74611552  0.25420050  1
  Y3+  Y63  1  0.75220198  0.74849700  0.75969010  1
  Fe3+  Fe64  1  0.37533832  0.62497752  0.37579795  1
  Fe3+  Fe65  1  0.12595336  0.12458544  0.38130339  1
  Fe3+  Fe66  1  0.12536652  0.37570299  0.37910204  1
  Fe3+  Fe67  1  0.37590280  0.87447800  0.37402993  1
  Fe3+  Fe68  1  0.62473369  0.62340888  0.87812332  1
  Fe3+  Fe69  1  0.87388520  0.87476511  0.37475426  1
  Fe3+  Fe70  1  0.87493803  0.12436232  0.37933141  1
  Fe3+  Fe71  1  0.37601661  0.37383837  0.87680434  1
  Fe3+  Fe72  1  0.37468728  0.37537132  0.37421727  1
  Fe3+  Fe73  1  0.12551756  0.62395089  0.87926581  1
  Fe3+  Fe74  1  0.62417152  0.12669806  0.87770745  1
  Fe3+  Fe75  1  0.87488742  0.87591451  0.87983988  1
  Fe3+  Fe76  1  0.62515308  0.87409708  0.37473728  1
  Fe3+  Fe77  1  0.62573147  0.87544892  0.87978706  1
  Fe3+  Fe78  1  0.12618704  0.62546541  0.38070586  1
  Fe3+  Fe79  1  0.87471674  0.62560259  0.37776779  1
  Fe3+  Fe80  1  0.87492446  0.37501590  0.37952309  1
  Fe3+  Fe81  1  0.37515790  0.12649329  0.87951998  1
  Fe3+  Fe82  1  0.37496639  0.62350713  0.87944913  1
  Fe3+  Fe83  1  0.87406155  0.37437783  0.87504857  1
  Fe3+  Fe84  1  0.87357201  0.37512072  0.63486931  1
  Fe3+  Fe85  1  0.62434067  0.62536779  0.63980050  1
  Fe3+  Fe86  1  0.12576043  0.62551929  0.63693643  1
  Fe3+  Fe87  1  0.87542832  0.87624593  0.13344919  1
  Fe3+  Fe88  1  0.37407988  0.12572693  0.13491466  1
  Fe3+  Fe89  1  0.62425940  0.12438449  0.63898541  1
  Fe3+  Fe90  1  0.12499072  0.62502886  0.13350108  1
  Fe3+  Fe91  1  0.87613137  0.12584216  0.13827834  1
  Fe3+  Fe92  1  0.12415652  0.87605281  0.13714496  1
  Fe3+  Fe93  1  0.12592461  0.12473167  0.63635923  1
  Fe3+  Fe94  1  0.62593111  0.87554233  0.13314787  1
  Fe3+  Fe95  1  0.37398164  0.62397249  0.13276714  1
  Cu2+  Cu96  1  0.12414507  0.87471727  0.86212570  1
  Cu2+  Cu97  1  0.87491510  0.62316741  0.87320455  1
  Cu2+  Cu98  1  0.12470432  0.37530317  0.87006218  1
  Cu2+  Cu99  1  0.37549892  0.87619961  0.87359724  1
  Cu2+  Cu100  1  0.87487010  0.12634498  0.86205728  1
  Cu2+  Cu101  1  0.12509306  0.87429737  0.37505286  1
  Cu2+  Cu102  1  0.12611396  0.12619867  0.87029749  1
  Cu2+  Cu103  1  0.62467766  0.37540209  0.37311967  1
  Cu2+  Cu104  1  0.62421164  0.62645136  0.36295143  1
  Cu2+  Cu105  1  0.62515568  0.37470844  0.87124775  1
  Cu2+  Cu106  1  0.37442555  0.12519949  0.37265013  1
  Cu2+  Cu107  1  0.62473914  0.12363963  0.36397771  1
  Cu2+  Cu108  1  0.62447564  0.62469855  0.14777362  1
  Cu2+  Cu109  1  0.37426153  0.87592588  0.14042705  1
  Cu2+  Cu110  1  0.62538472  0.37488168  0.64061306  1
  Cu2+  Cu111  1  0.62587222  0.37463189  0.14445371  1
  Cu2+  Cu112  1  0.87494157  0.12555998  0.64891700  1
  Cu2+  Cu113  1  0.87481110  0.62442791  0.65033223  1
  Cu2+  Cu114  1  0.37548632  0.12490521  0.64252789  1
  Cu2+  Cu115  1  0.37555417  0.87533297  0.65564156  1
  Cu2+  Cu116  1  0.12542786  0.87522276  0.64386042  1
  Cu2+  Cu117  1  0.87484966  0.37354324  0.15437786  1
  Cu2+  Cu118  1  0.62494206  0.87503256  0.65667693  1
  Cu2+  Cu119  1  0.12375004  0.37429687  0.14242879  1
  Cu2+  Cu120  1  0.12455978  0.12437447  0.14354213  1
  Cu2+  Cu121  1  0.37509174  0.37429595  0.14975621  1
  Cu2+  Cu122  1  0.87622214  0.62418647  0.14061134  1
  Cu2+  Cu123  1  0.87470572  0.87505457  0.65741602  1
  Cu2+  Cu124  1  0.37524393  0.62498552  0.65324336  1
  Cu2+  Cu125  1  0.62480533  0.12517890  0.14939322  1
  Cu2+  Cu126  1  0.12466816  0.37492861  0.64817070  1
  Cu2+  Cu127  1  0.37569626  0.37473974  0.65257939  1
  O2-  O128  1  0.12516412  0.12532447  0.00653109  1
  O2-  O129  1  0.12590983  0.12449958  0.50799128  1
  O2-  O130  1  0.12315397  0.37520724  0.00687250  1
  O2-  O131  1  0.12570427  0.37751939  0.49889512  1
  O2-  O132  1  0.12555681  0.62446289  0.00653553  1
  O2-  O133  1  0.12630830  0.62570569  0.50734226  1
  O2-  O134  1  0.12256853  0.87563744  0.01672874  1
  O2-  O135  1  0.12536287  0.87392252  0.50889495  1
  O2-  O136  1  0.37437863  0.12670972  0.00638667  1
  O2-  O137  1  0.37514222  0.12439550  0.50735559  1
  O2-  O138  1  0.37622848  0.37372411  -0.00298030  1
  O2-  O139  1  0.37464294  0.37674902  0.49491433  1
  O2-  O140  1  0.37367780  0.62341560  0.00546537  1
  O2-  O141  1  0.37505606  0.62612450  0.49593408  1
  O2-  O142  1  0.37538420  0.87618687  0.00649132  1
  O2-  O143  1  0.37759470  0.87291925  0.49467161  1
  O2-  O144  1  0.62471991  0.12689198  -0.00183109  1
  O2-  O145  1  0.62440726  0.12195463  0.51788682  1
  O2-  O146  1  0.62655742  0.37476835  0.00799311  1
  O2-  O147  1  0.62467694  0.37548541  0.50660607  1
  O2-  O148  1  0.62450739  0.62320074  -0.00132856  1
  O2-  O149  1  0.62371257  0.62760024  0.51871455  1
  O2-  O150  1  0.62651601  0.87579486  0.00576017  1
  O2-  O151  1  0.62545574  0.87341249  0.49497099  1
  O2-  O152  1  0.87653755  0.12676922  0.01776855  1
  O2-  O153  1  0.87488074  0.12197929  0.49940128  1
  O2-  O154  1  0.87418331  0.37360034  -0.00397571  1
  O2-  O155  1  0.87475766  0.37589438  0.50613655  1
  O2-  O156  1  0.87632249  0.62318366  0.00714255  1
  O2-  O157  1  0.87547461  0.62786018  0.49786411  1
  O2-  O158  1  0.87568278  0.87657823  0.00676791  1
  O2-  O159  1  0.87229586  0.87404745  0.49530682  1
  O2-  O160  1  0.12473730  -0.00157661  0.16910786  1
  O2-  O161  1  0.12465029  0.00249710  0.66508249  1
  O2-  O162  1  0.12456032  0.24968329  0.16719819  1
  O2-  O163  1  0.12516837  0.24873415  0.66227769  1
  O2-  O164  1  0.12446112  0.50229373  0.16306485  1
  O2-  O165  1  0.12527443  0.50179779  0.66362209  1
  O2-  O166  1  0.12490134  0.74924255  0.16442188  1
  O2-  O167  1  0.12550099  0.74724505  0.66678709  1
  O2-  O168  1  0.37532070  0.00299593  0.16399850  1
  O2-  O169  1  0.37501572  -0.00144730  0.66741928  1
  O2-  O170  1  0.37489736  0.24879717  0.16354331  1
  O2-  O171  1  0.37482859  0.25203716  0.66366827  1
  O2-  O172  1  0.37381212  0.50104905  0.15981657  1
  O2-  O173  1  0.37488385  0.49864583  0.66397140  1
  O2-  O174  1  0.37382243  0.74677595  0.15931242  1
  O2-  O175  1  0.37489545  0.75087021  0.66775771  1
  O2-  O176  1  0.62531493  -0.00153849  0.16167598  1
  O2-  O177  1  0.62537594  -0.00051876  0.66886501  1
  O2-  O178  1  0.62539028  0.24909107  0.16768209  1
  O2-  O179  1  0.62535252  0.24854374  0.66367055  1
  O2-  O180  1  0.62547780  0.50075539  0.16552964  1
  O2-  O181  1  0.62441465  0.50152967  0.66481172  1
  O2-  O182  1  0.62592201  0.75146896  0.15885597  1
  O2-  O183  1  0.62499776  0.75022981  0.66968771  1
  O2-  O184  1  0.87432502  -0.00105430  0.16435994  1
  O2-  O185  1  0.87531497  -0.00021520  0.66751788  1
  O2-  O186  1  0.87457998  0.24977945  0.16975077  1
  O2-  O187  1  0.87504436  0.25201533  0.66060044  1
  O2-  O188  1  0.87572343  0.49729726  0.16541640  1
  O2-  O189  1  0.87555569  0.49845918  0.66183864  1
  O2-  O190  1  0.87511984  0.75359425  0.16023743  1
  O2-  O191  1  0.87519921  0.74994002  0.66805803  1
  O2-  O192  1  -0.00143861  0.12471643  0.17031041  1
  O2-  O193  1  0.00166064  0.12526310  0.66264881  1
  O2-  O194  1  -0.00196832  0.37461742  0.16722894  1
  O2-  O195  1  -0.00222236  0.37555905  0.66208326  1
  O2-  O196  1  0.00345971  0.62515269  0.16563059  1
  O2-  O197  1  0.00149190  0.62519036  0.66357936  1
  O2-  O198  1  -0.00103980  0.87501393  0.16749890  1
  O2-  O199  1  -0.00143631  0.87425242  0.66637297  1
  O2-  O200  1  0.25201653  0.12521642  0.16404578  1
  O2-  O201  1  0.24796404  0.12519896  0.66462933  1
  O2-  O202  1  0.25075995  0.37491521  0.16285933  1
  O2-  O203  1  0.25105129  0.37551362  0.66432290  1
  O2-  O204  1  0.24919322  0.62430167  0.16238193  1
  O2-  O205  1  0.24952829  0.62473778  0.66487129  1
  O2-  O206  1  0.24792928  0.87485604  0.16594198  1
  O2-  O207  1  0.25173353  0.87488790  0.66564128  1
  O2-  O208  1  0.49856084  0.12555052  0.16179718  1
  O2-  O209  1  0.50136152  0.12410474  0.66824695  1
  O2-  O210  1  0.49931516  0.37499918  0.16460682  1
  O2-  O211  1  0.49870190  0.37518709  0.66397608  1
  O2-  O212  1  0.49791435  0.62469120  0.16019285  1
  O2-  O213  1  0.49966263  0.62625558  0.66843514  1
  O2-  O214  1  0.50300463  0.87450765  0.15884051  1
  O2-  O215  1  0.49975908  0.87452370  0.66705193  1
  O2-  O216  1  0.75050944  0.12525950  0.16569523  1
  O2-  O217  1  0.74937585  0.12382188  0.66652304  1
  O2-  O218  1  0.75160048  0.37475998  0.16710402  1
  O2-  O219  1  0.75236830  0.37551749  0.66370373  1
  O2-  O220  1  0.74923022  0.62399471  0.16420537  1
  O2-  O221  1  0.74952325  0.62602141  0.66668528  1
  O2-  O222  1  0.75018202  0.87549236  0.15885909  1
  O2-  O223  1  0.75048618  0.87484582  0.66758462  1
  O2-  O224  1  0.12486190  0.00234135  0.35143611  1
  O2-  O225  1  0.12495705  -0.00099829  0.84909494  1
  O2-  O226  1  0.12430880  0.24980213  0.35062590  1
  O2-  O227  1  0.12493421  0.25068737  0.84618406  1
  O2-  O228  1  0.12484986  0.50133507  0.34667836  1
  O2-  O229  1  0.12566280  0.50254128  0.84772573  1
  O2-  O230  1  0.12484070  0.74646693  0.34734833  1
  O2-  O231  1  0.12521863  0.74820435  0.85182017  1
  O2-  O232  1  0.37521660  -0.00170568  0.34650968  1
  O2-  O233  1  0.37484434  0.00331482  0.85126069  1
  O2-  O234  1  0.37452891  0.25191921  0.34669759  1
  O2-  O235  1  0.37543991  0.24898377  0.84604478  1
  O2-  O236  1  0.37449411  0.50032921  0.34157658  1
  O2-  O237  1  0.37456524  0.50061386  0.84752154  1
  O2-  O238  1  0.37514270  0.74942516  0.34024329  1
  O2-  O239  1  0.37441016  0.74727220  0.85229905  1
  O2-  O240  1  0.62499785  -0.00132507  0.34472827  1
  O2-  O241  1  0.62599170  -0.00049743  0.85136613  1
  O2-  O242  1  0.62474884  0.24805286  0.35195892  1
  O2-  O243  1  0.62462032  0.24849261  0.84495383  1
  O2-  O244  1  0.62511662  0.50209000  0.34953535  1
  O2-  O245  1  0.62453445  0.50120099  0.84593933  1
  O2-  O246  1  0.62485444  0.75081487  0.34104111  1
  O2-  O247  1  0.62545337  0.75104788  0.85202281  1
  O2-  O248  1  0.87480272  0.00013743  0.34442795  1
  O2-  O249  1  0.87520323  -0.00051653  0.85290271  1
  O2-  O250  1  0.87592230  0.25076045  0.35265841  1
  O2-  O251  1  0.87538483  0.25038361  0.84384404  1
  O2-  O252  1  0.87536692  0.49950144  0.34936251  1
  O2-  O253  1  0.87527323  0.49784790  0.84415232  1
  O2-  O254  1  0.87489189  0.74923017  0.34150339  1
  O2-  O255  1  0.87534466  0.75274516  0.85259458  1
  O2-  O256  1  0.00125330  0.12490640  0.35127227  1
  O2-  O257  1  -0.00083246  0.12522779  0.84721974  1
  O2-  O258  1  -0.00056515  0.37593840  0.34953648  1
  O2-  O259  1  -0.00148777  0.37509381  0.84574033  1
  O2-  O260  1  0.00103671  0.62460057  0.34890199  1
  O2-  O261  1  0.00310976  0.62519750  0.84898498  1
  O2-  O262  1  -0.00238186  0.87416468  0.34806173  1
  O2-  O263  1  -0.00185741  0.87516796  0.85093954  1
  O2-  O264  1  0.24670398  0.12523759  0.34762885  1
  O2-  O265  1  0.25310807  0.12546397  0.84869729  1
  O2-  O266  1  0.24890117  0.37553809  0.34379169  1
  O2-  O267  1  0.25190796  0.37512586  0.84777431  1
  O2-  O268  1  0.24905371  0.62492629  0.34559223  1
  O2-  O269  1  0.25026240  0.62496629  0.85030598  1
  O2-  O270  1  0.25195523  0.87423565  0.34702702  1
  O2-  O271  1  0.24829179  0.87510843  0.84945798  1
  O2-  O272  1  0.50123562  0.12442495  0.34694579  1
  O2-  O273  1  0.49880660  0.12457462  0.84950221  1
  O2-  O274  1  0.49879116  0.37551255  0.34707368  1
  O2-  O275  1  0.49866914  0.37513731  0.84627489  1
  O2-  O276  1  0.49923709  0.62542485  0.34407071  1
  O2-  O277  1  0.49852559  0.62533392  0.85040313  1
  O2-  O278  1  0.50020098  0.87464210  0.34037148  1
  O2-  O279  1  0.50366008  0.87529216  0.85106252  1
  O2-  O280  1  0.75070659  0.12489481  0.34828748  1
  O2-  O281  1  0.74932110  0.12513557  0.84895745  1
  O2-  O282  1  0.75261204  0.37506827  0.35131416  1
  O2-  O283  1  0.75093050  0.37431147  0.84546627  1
  O2-  O284  1  0.75032875  0.62516046  0.34806246  1
  O2-  O285  1  0.74816071  0.62517496  0.84838326  1
  O2-  O286  1  0.75012450  0.87458423  0.34004426  1
  O2-  O287  1  0.75046601  0.87564466  0.85181074  1
