# generated using pymatgen
data_BaYFeCuO5
_symmetry_space_group_name_H-M   'P 1'
_cell_length_a   15.66835806
_cell_length_b   15.66947214
_cell_length_c   15.48083691
_cell_angle_alpha   89.99884164
_cell_angle_beta   90.00254666
_cell_angle_gamma   89.99599047
_symmetry_Int_Tables_number   1
_chemical_formula_structural   BaYFeCuO5
_chemical_formula_sum   'Ba32 Y32 Fe32 Cu32 O160'
_cell_volume   3800.77611342
_cell_formula_units_Z   32
loop_
 _symmetry_equiv_pos_site_id
 _symmetry_equiv_pos_as_xyz
  1  'x, y, z'
loop_
 _atom_type_symbol
 _atom_type_oxidation_number
  Ba2+  2.0
  Y3+  3.0
  Fe3+  3.0
  Cu2+  2.0
  O2-  -2.0
loop_
 _atom_site_type_symbol
 _atom_site_label
 _atom_site_symmetry_multiplicity
 _atom_site_fract_x
 _atom_site_fract_y
 _atom_site_fract_z
 _atom_site_occupancy
  Ba2+  Ba0  1  -0.00799067  -0.00340568  0.00710010  1
  Ba2+  Ba1  1  -0.00476013  0.00289437  0.51303298  1
  Ba2+  Ba2  1  -0.01071476  0.24739222  0.01130087  1
  Ba2+  Ba3  1  -0.00440027  0.24702809  0.51287519  1
  Ba2+  Ba4  1  -0.00230229  0.50757955  0.01636236  1
  Ba2+  Ba5  1  -0.00342686  0.50336148  0.51238378  1
  Ba2+  Ba6  1  0.00201913  0.74882664  0.01198244  1
  Ba2+  Ba7  1  -0.00413274  0.74646239  0.51124930  1
  Ba2+  Ba8  1  0.25447220  -0.00693098  -0.00018708  1
  Ba2+  Ba9  1  0.25744014  0.00028086  0.50686509  1
  Ba2+  Ba10  1  0.25466978  0.24457131  0.01176328  1
  Ba2+  Ba11  1  0.25684440  0.24934679  0.50671806  1
  Ba2+  Ba12  1  0.25015775  0.51345035  0.00745221  1
  Ba2+  Ba13  1  0.25552238  0.50224019  0.51834907  1
  Ba2+  Ba14  1  0.25073506  0.74752555  -0.00364206  1
  Ba2+  Ba15  1  0.25629993  0.74830142  0.51683413  1
  Ba2+  Ba16  1  0.50222110  -0.00248904  0.01872235  1
  Ba2+  Ba17  1  0.50083705  -0.00025960  0.51575643  1
  Ba2+  Ba18  1  0.50186986  0.23992647  0.01812773  1
  Ba2+  Ba19  1  0.49716863  0.24537093  0.51166514  1
  Ba2+  Ba20  1  0.50068082  0.51314026  0.00669222  1
  Ba2+  Ba21  1  0.49362237  0.50159621  0.50664169  1
  Ba2+  Ba22  1  0.50015122  0.74738975  0.00639119  1
  Ba2+  Ba23  1  0.49784840  0.75399488  0.51188747  1
  Ba2+  Ba24  1  0.75069610  -0.00013286  0.02105269  1
  Ba2+  Ba25  1  0.74721856  0.00049085  0.51945028  1
  Ba2+  Ba26  1  0.75497054  0.24253475  0.01551616  1
  Ba2+  Ba27  1  0.75097110  0.24358440  0.51634355  1
  Ba2+  Ba28  1  0.75155472  0.50698446  0.01647979  1
  Ba2+  Ba29  1  0.75263760  0.50489692  0.49946542  1
  Ba2+  Ba30  1  0.74763555  0.75051759  0.02174757  1
  Ba2+  Ba31  1  0.74867796  0.75136927  0.50643194  1
  Y3+  Y32  1  -0.00066032  0.00039253  0.25636677  1
  Y3+  Y33  1  -0.00216803  -0.00058623  0.75874667  1
  Y3+  Y34  1  -0.00066916  0.24904795  0.25555146  1
  Y3+  Y35  1  -0.00320521  0.24949828  0.75876276  1
  Y3+  Y36  1  -0.00062341  0.50188920  0.25524993  1
  Y3+  Y37  1  0.00151655  0.50143951  0.75827385  1
  Y3+  Y38  1  -0.00066092  0.74839897  0.25587933  1
  Y3+  Y39  1  0.00257589  0.74982541  0.75830822  1
  Y3+  Y40  1  0.25092247  -0.00049755  0.26016623  1
  Y3+  Y41  1  0.25151484  -0.00368391  0.75586966  1
  Y3+  Y42  1  0.25066658  0.25007164  0.25916399  1
  Y3+  Y43  1  0.25186702  0.25166438  0.75638848  1
  Y3+  Y44  1  0.25146884  0.50136657  0.25585001  1
  Y3+  Y45  1  0.25121645  0.50335024  0.75937778  1
  Y3+  Y46  1  0.25142836  0.74872916  0.25660157  1
  Y3+  Y47  1  0.25116666  0.74885461  0.75932522  1
  Y3+  Y48  1  0.50110909  -0.00005203  0.25988191  1
  Y3+  Y49  1  0.50011669  -0.00191506  0.75273395  1
  Y3+  Y50  1  0.50065077  0.24908244  0.26036323  1
  Y3+  Y51  1  0.50020134  0.24983930  0.75318200  1
  Y3+  Y52  1  0.50000396  0.50238724  0.25637324  1
  Y3+  Y53  1  0.49843310  0.50170120  0.75915975  1
  Y3+  Y54  1  0.50107525  0.74898859  0.25648985  1
  Y3+  Y55  1  0.49808278  0.75039226  0.75868706  1
  Y3+  Y56  1  0.74871698  0.00065898  0.25636214  1
  Y3+  Y57  1  0.75003642  0.00085084  0.75440525  1
  Y3+  Y58  1  0.74993256  0.24798497  0.25623616  1
  Y3+  Y59  1  0.75093838  0.24805699  0.75590827  1
  Y3+  Y60  1  0.74972247  0.50277025  0.25594043  1
  Y3+  Y61  1  0.74863081  0.50011651  0.75828214  1
  Y3+  Y62  1  0.74859861  0.74818198  0.25716618  1
  Y3+  Y63  1  0.74755502  0.75150822  0.75600970  1
  Fe3+  Fe64  1  0.37589659  0.12449622  0.37496400  1
  Fe3+  Fe65  1  0.62476292  0.37486808  0.37910230  1
  Fe3+  Fe66  1  0.12486262  0.37498045  0.88108873  1
  Fe3+  Fe67  1  0.12536601  0.62480751  0.37826130  1
  Fe3+  Fe68  1  0.62514208  0.87555471  0.87653250  1
  Fe3+  Fe69  1  0.62467012  0.87531186  0.37669012  1
  Fe3+  Fe70  1  0.12536174  0.37525972  0.37942670  1
  Fe3+  Fe71  1  0.37606793  0.37464855  0.88083660  1
  Fe3+  Fe72  1  0.12460478  0.12453914  0.88007938  1
  Fe3+  Fe73  1  0.87378458  0.37574668  0.87782935  1
  Fe3+  Fe74  1  0.87384729  0.62654271  0.87666793  1
  Fe3+  Fe75  1  0.87311217  0.87436074  0.87590229  1
  Fe3+  Fe76  1  0.12512657  0.87492981  0.38135481  1
  Fe3+  Fe77  1  0.87492402  0.87463347  0.37628956  1
  Fe3+  Fe78  1  0.62539601  0.12388707  0.87520469  1
  Fe3+  Fe79  1  0.62486323  0.37444288  0.88112161  1
  Fe3+  Fe80  1  0.87461043  0.12445676  0.37531216  1
  Fe3+  Fe81  1  0.37511843  0.62562730  0.37571016  1
  Fe3+  Fe82  1  0.37686147  0.12396646  0.87523863  1
  Fe3+  Fe83  1  0.87515139  0.37513350  0.37574398  1
  Fe3+  Fe84  1  0.37569563  0.37543894  0.13430507  1
  Fe3+  Fe85  1  0.12458934  0.87437623  0.63567171  1
  Fe3+  Fe86  1  0.12475933  0.37540589  0.63590711  1
  Fe3+  Fe87  1  0.12512259  0.37529497  0.13385034  1
  Fe3+  Fe88  1  0.37495510  0.87415322  0.13881390  1
  Fe3+  Fe89  1  0.62519625  0.37624171  0.63449126  1
  Fe3+  Fe90  1  0.62520205  0.37503348  0.13475463  1
  Fe3+  Fe91  1  0.12584997  0.12506288  0.63835882  1
  Fe3+  Fe92  1  0.62380977  0.62505241  0.63678149  1
  Fe3+  Fe93  1  0.12587751  0.87456783  0.13781460  1
  Fe3+  Fe94  1  0.87397547  0.62525698  0.63907746  1
  Fe3+  Fe95  1  0.12580042  0.12338947  0.13468272  1
  Cu2+  Cu96  1  0.37577407  0.62570581  0.87087585  1
  Cu2+  Cu97  1  0.37628621  0.87564157  0.86215669  1
  Cu2+  Cu98  1  0.12456992  0.87548052  0.86382751  1
  Cu2+  Cu99  1  0.37504292  0.37587669  0.37219713  1
  Cu2+  Cu100  1  0.37540475  0.87432161  0.37309411  1
  Cu2+  Cu101  1  0.62631439  0.62593049  0.87229946  1
  Cu2+  Cu102  1  0.12428633  0.12512784  0.36543351  1
  Cu2+  Cu103  1  0.87539578  0.62528411  0.36119491  1
  Cu2+  Cu104  1  0.87350839  0.12402491  0.87168807  1
  Cu2+  Cu105  1  0.12356240  0.62499152  0.87247781  1
  Cu2+  Cu106  1  0.62600311  0.12483726  0.37349263  1
  Cu2+  Cu107  1  0.62449593  0.62518223  0.36583123  1
  Cu2+  Cu108  1  0.87472756  0.37524655  0.14905350  1
  Cu2+  Cu109  1  0.87519151  0.87410335  0.64988990  1
  Cu2+  Cu110  1  0.37542025  0.37564872  0.64149896  1
  Cu2+  Cu111  1  0.87605487  0.12472498  0.65353733  1
  Cu2+  Cu112  1  0.87499077  0.62582378  0.15253319  1
  Cu2+  Cu113  1  0.37427492  0.12411467  0.15266695  1
  Cu2+  Cu114  1  0.37500741  0.62616575  0.14269755  1
  Cu2+  Cu115  1  0.37570927  0.62517074  0.65489089  1
  Cu2+  Cu116  1  0.62479107  0.87399133  0.64916830  1
  Cu2+  Cu117  1  0.62408709  0.62533767  0.14278325  1
  Cu2+  Cu118  1  0.87594989  0.12386030  0.14321689  1
  Cu2+  Cu119  1  0.37372293  0.12486659  0.65265298  1
  Cu2+  Cu120  1  0.87511605  0.87455510  0.15224967  1
  Cu2+  Cu121  1  0.62457730  0.87500475  0.15216653  1
  Cu2+  Cu122  1  0.37452968  0.87458931  0.64158792  1
  Cu2+  Cu123  1  0.62434827  0.12517257  0.64038096  1
  Cu2+  Cu124  1  0.12612505  0.62613104  0.14249310  1
  Cu2+  Cu125  1  0.62462799  0.12484473  0.15361413  1
  Cu2+  Cu126  1  0.87441459  0.37612222  0.64971758  1
  Cu2+  Cu127  1  0.12532790  0.62515701  0.64938768  1
  O2-  O128  1  0.12519984  0.12343802  0.00754618  1
  O2-  O129  1  0.12473825  0.12644966  0.51826920  1
  O2-  O130  1  0.12497842  0.37470658  0.00717013  1
  O2-  O131  1  0.12480296  0.37483516  0.50713677  1
  O2-  O132  1  0.12346000  0.62595812  0.00664929  1
  O2-  O133  1  0.12515172  0.62345973  0.49816109  1
  O2-  O134  1  0.12635928  0.87583335  0.01762783  1
  O2-  O135  1  0.12395950  0.87522134  0.50828303  1
  O2-  O136  1  0.37712566  0.12357679  -0.00423453  1
  O2-  O137  1  0.37471551  0.12561391  0.49638696  1
  O2-  O138  1  0.37581233  0.37430000  0.00726334  1
  O2-  O139  1  0.37435817  0.37522825  0.50749039  1
  O2-  O140  1  0.37503637  0.62686086  0.00649057  1
  O2-  O141  1  0.37456337  0.62450549  0.49661536  1
  O2-  O142  1  0.37473254  0.87462259  0.01814291  1
  O2-  O143  1  0.37474165  0.87498356  0.50814933  1
  O2-  O144  1  0.62504295  0.12356647  -0.00432338  1
  O2-  O145  1  0.62564745  0.12568222  0.50709926  1
  O2-  O146  1  0.62501551  0.37381053  0.00724289  1
  O2-  O147  1  0.62537421  0.37604439  0.50676867  1
  O2-  O148  1  0.62685489  0.62573103  0.00764319  1
  O2-  O149  1  0.62451029  0.62338070  0.51673093  1
  O2-  O150  1  0.62618811  0.87667098  -0.00338239  1
  O2-  O151  1  0.62552131  0.87521813  0.49726868  1
  O2-  O152  1  0.87482829  0.12336730  0.00721835  1
  O2-  O153  1  0.87572198  0.12532667  0.49597238  1
  O2-  O154  1  0.87379142  0.37542266  -0.00209361  1
  O2-  O155  1  0.87561725  0.37519485  0.49591615  1
  O2-  O156  1  0.87436796  0.62736324  -0.00271197  1
  O2-  O157  1  0.87435827  0.62414664  0.51795657  1
  O2-  O158  1  0.87289262  0.87374190  -0.00384246  1
  O2-  O159  1  0.87530025  0.87533271  0.49640849  1
  O2-  O160  1  0.12580367  0.00070160  0.16760435  1
  O2-  O161  1  0.12437709  -0.00108540  0.66521932  1
  O2-  O162  1  0.12538882  0.25007567  0.16088938  1
  O2-  O163  1  0.12462839  0.25144157  0.66791983  1
  O2-  O164  1  0.12547594  0.49708585  0.16297712  1
  O2-  O165  1  0.12486443  0.49901881  0.66392397  1
  O2-  O166  1  0.12473488  0.75190198  0.16916001  1
  O2-  O167  1  0.12497782  0.75083832  0.66201643  1
  O2-  O168  1  0.37430476  -0.00040616  0.16668546  1
  O2-  O169  1  0.37357391  0.00160633  0.66271474  1
  O2-  O170  1  0.37445672  0.25141222  0.16120151  1
  O2-  O171  1  0.37392767  0.24844860  0.66607210  1
  O2-  O172  1  0.37497013  0.49684485  0.16269853  1
  O2-  O173  1  0.37494360  0.50227240  0.66763590  1
  O2-  O174  1  0.37533685  0.75183579  0.16880323  1
  O2-  O175  1  0.37459330  0.74778429  0.66498457  1
  O2-  O176  1  0.62483728  0.00069283  0.16412198  1
  O2-  O177  1  0.62457146  -0.00164279  0.66171978  1
  O2-  O178  1  0.62472768  0.25123969  0.16372259  1
  O2-  O179  1  0.62523000  0.25301252  0.66353865  1
  O2-  O180  1  0.62490640  0.49666361  0.16479654  1
  O2-  O181  1  0.62447819  0.49955648  0.66801809  1
  O2-  O182  1  0.62508706  0.75112664  0.16646691  1
  O2-  O183  1  0.62439879  0.74925518  0.66442659  1
  O2-  O184  1  0.87586854  -0.00156972  0.16484237  1
  O2-  O185  1  0.87675938  -0.00074488  0.66265974  1
  O2-  O186  1  0.87573709  0.25061453  0.16402133  1
  O2-  O187  1  0.87566561  0.25067398  0.66436829  1
  O2-  O188  1  0.87504002  0.50043058  0.16397030  1
  O2-  O189  1  0.87516880  0.50120142  0.66767886  1
  O2-  O190  1  0.87541765  0.75029524  0.16616491  1
  O2-  O191  1  0.87506981  0.74911843  0.66412719  1
  O2-  O192  1  0.00416012  0.12510446  0.16369951  1
  O2-  O193  1  0.00091315  0.12568191  0.66845120  1
  O2-  O194  1  0.00186312  0.37471837  0.16248019  1
  O2-  O195  1  0.00149360  0.37537167  0.66362964  1
  O2-  O196  1  -0.00079651  0.62460971  0.16419690  1
  O2-  O197  1  -0.00082523  0.62467604  0.66558483  1
  O2-  O198  1  0.00080379  0.87554099  0.16572614  1
  O2-  O199  1  0.00179426  0.87449897  0.66373514  1
  O2-  O200  1  0.24779355  0.12612756  0.16394958  1
  O2-  O201  1  0.24932349  0.12572739  0.66955481  1
  O2-  O202  1  0.25028353  0.37387823  0.16281579  1
  O2-  O203  1  0.24669791  0.37554130  0.66734431  1
  O2-  O204  1  0.25063453  0.62453988  0.16595190  1
  O2-  O205  1  0.25139358  0.62421911  0.66534039  1
  O2-  O206  1  0.25002178  0.87552113  0.17174580  1
  O2-  O207  1  0.24657195  0.87453378  0.66527032  1
  O2-  O208  1  0.49948357  0.12567346  0.16393753  1
  O2-  O209  1  0.49708137  0.12591556  0.66248613  1
  O2-  O210  1  0.49995707  0.37366058  0.16276432  1
  O2-  O211  1  0.50312587  0.37538113  0.66572301  1
  O2-  O212  1  0.49953509  0.62428299  0.16458256  1
  O2-  O213  1  0.49986759  0.62420811  0.66688229  1
  O2-  O214  1  0.49984806  0.87602103  0.16590898  1
  O2-  O215  1  0.50058543  0.87458494  0.66388796  1
  O2-  O216  1  0.74901653  0.12537683  0.16398426  1
  O2-  O217  1  0.75238525  0.12545390  0.66257325  1
  O2-  O218  1  0.74829064  0.37455779  0.16267408  1
  O2-  O219  1  0.74818248  0.37558498  0.66299477  1
  O2-  O220  1  0.75084950  0.62475635  0.16536399  1
  O2-  O221  1  0.74881410  0.62457727  0.66641276  1
  O2-  O222  1  0.74973478  0.87510559  0.16337473  1
  O2-  O223  1  0.75031098  0.87480530  0.66118343  1
  O2-  O224  1  0.12409260  -0.00153635  0.35149757  1
  O2-  O225  1  0.12593896  0.00209966  0.84940969  1
  O2-  O226  1  0.12479344  0.25196870  0.34709826  1
  O2-  O227  1  0.12487397  0.25016025  0.85214815  1
  O2-  O228  1  0.12488594  0.49910491  0.34685973  1
  O2-  O229  1  0.12566223  0.49586119  0.84863440  1
  O2-  O230  1  0.12482908  0.75063472  0.35105189  1
  O2-  O231  1  0.12511937  0.75179871  0.84710675  1
  O2-  O232  1  0.37436397  0.00120873  0.34804795  1
  O2-  O233  1  0.37395068  0.00099439  0.84538512  1
  O2-  O234  1  0.37444148  0.24858877  0.34507439  1
  O2-  O235  1  0.37519579  0.25089225  0.84851464  1
  O2-  O236  1  0.37505844  0.50233502  0.34485423  1
  O2-  O237  1  0.37468824  0.49612162  0.85088115  1
  O2-  O238  1  0.37437989  0.74819152  0.34845958  1
  O2-  O239  1  0.37476632  0.75207844  0.84868122  1
  O2-  O240  1  0.62571442  -0.00162347  0.34661489  1
  O2-  O241  1  0.62473966  0.00005369  0.84250650  1
  O2-  O242  1  0.62564922  0.25299974  0.34832150  1
  O2-  O243  1  0.62451590  0.25122497  0.84703610  1
  O2-  O244  1  0.62554947  0.49883376  0.34974947  1
  O2-  O245  1  0.62463787  0.49644937  0.85126366  1
  O2-  O246  1  0.62567191  0.75002591  0.34937592  1
  O2-  O247  1  0.62466857  0.75225422  0.84629309  1
  O2-  O248  1  0.87612458  -0.00037719  0.34539721  1
  O2-  O249  1  0.87497875  -0.00206573  0.84565973  1
  O2-  O250  1  0.87573953  0.25047368  0.34468176  1
  O2-  O251  1  0.87487263  0.25208908  0.84761725  1
  O2-  O252  1  0.87534759  0.49994360  0.34738720  1
  O2-  O253  1  0.87491109  0.49978361  0.84726218  1
  O2-  O254  1  0.87569714  0.74979778  0.34966802  1
  O2-  O255  1  0.87513276  0.75046343  0.84343232  1
  O2-  O256  1  -0.00111775  0.12574642  0.34597962  1
  O2-  O257  1  0.00250449  0.12516647  0.85151427  1
  O2-  O258  1  0.00108730  0.37512756  0.34675390  1
  O2-  O259  1  0.00090569  0.37457568  0.84822054  1
  O2-  O260  1  0.00157028  0.62434118  0.34717729  1
  O2-  O261  1  -0.00247469  0.62463186  0.84665149  1
  O2-  O262  1  0.00111469  0.87468801  0.34818508  1
  O2-  O263  1  -0.00094030  0.87557047  0.84741465  1
  O2-  O264  1  0.24988061  0.12559373  0.34748475  1
  O2-  O265  1  0.24910690  0.12643010  0.85214344  1
  O2-  O266  1  0.24689861  0.37454838  0.34767954  1
  O2-  O267  1  0.25050419  0.37313376  0.85308394  1
  O2-  O268  1  0.24923407  0.62423846  0.34555467  1
  O2-  O269  1  0.25011710  0.62500234  0.84997353  1
  O2-  O270  1  0.24704766  0.87576790  0.35287533  1
  O2-  O271  1  0.25053706  0.87548244  0.85029291  1
  O2-  O272  1  0.49923959  0.12585097  0.34722888  1
  O2-  O273  1  0.50054067  0.12575590  0.84329261  1
  O2-  O274  1  0.50283774  0.37553657  0.34777617  1
  O2-  O275  1  0.49975560  0.37438432  0.85075483  1
  O2-  O276  1  0.49946676  0.62424697  0.34680122  1
  O2-  O277  1  0.50042154  0.62450686  0.84973759  1
  O2-  O278  1  0.50138837  0.87447462  0.34737522  1
  O2-  O279  1  0.50054584  0.87597225  0.84688072  1
  O2-  O280  1  0.75248740  0.12560855  0.34565049  1
  O2-  O281  1  0.74768845  0.12584883  0.84412423  1
  O2-  O282  1  0.74954384  0.37604212  0.34714434  1
  O2-  O283  1  0.74849654  0.37468799  0.84673176  1
  O2-  O284  1  0.75019964  0.62411711  0.35012614  1
  O2-  O285  1  0.75184534  0.62432670  0.84480488  1
  O2-  O286  1  0.75050473  0.87411570  0.34543915  1
  O2-  O287  1  0.74942781  0.87546325  0.84229773  1
