# generated using pymatgen
data_BaYFeCuO5
_symmetry_space_group_name_H-M   'P 1'
_cell_length_a   15.67910861
_cell_length_b   15.67894757
_cell_length_c   15.49339296
_cell_angle_alpha   89.99282567
_cell_angle_beta   90.00650186
_cell_angle_gamma   90.00085562
_symmetry_Int_Tables_number   1
_chemical_formula_structural   BaYFeCuO5
_chemical_formula_sum   'Ba32 Y32 Fe32 Cu32 O160'
_cell_volume   3808.77051148
_cell_formula_units_Z   32
loop_
 _symmetry_equiv_pos_site_id
 _symmetry_equiv_pos_as_xyz
  1  'x, y, z'
loop_
 _atom_type_symbol
 _atom_type_oxidation_number
  Ba2+  2.0
  Y3+  3.0
  Fe3+  3.0
  Cu2+  2.0
  O2-  -2.0
loop_
 _atom_site_type_symbol
 _atom_site_label
 _atom_site_symmetry_multiplicity
 _atom_site_fract_x
 _atom_site_fract_y
 _atom_site_fract_z
 _atom_site_occupancy
  Ba2+  Ba0  1  0.00664124  0.00276326  0.02312733  1
  Ba2+  Ba1  1  0.00746970  0.00634988  0.51003639  1
  Ba2+  Ba2  1  0.00305360  0.24999255  0.01638761  1
  Ba2+  Ba3  1  0.00112699  0.24681924  0.51230943  1
  Ba2+  Ba4  1  0.00280013  0.50064044  0.00627754  1
  Ba2+  Ba5  1  -0.00758329  0.49482140  0.50713490  1
  Ba2+  Ba6  1  0.00606348  0.74566166  0.01468375  1
  Ba2+  Ba7  1  -0.00012320  0.75090982  0.50696296  1
  Ba2+  Ba8  1  0.25375855  0.00197423  0.01148028  1
  Ba2+  Ba9  1  0.24224773  0.00714842  0.51069862  1
  Ba2+  Ba10  1  0.25382023  0.25016305  0.01576749  1
  Ba2+  Ba11  1  0.25040449  0.24867316  0.50598649  1
  Ba2+  Ba12  1  0.25008993  0.49921957  0.02363532  1
  Ba2+  Ba13  1  0.25191732  0.48684570  0.50176030  1
  Ba2+  Ba14  1  0.24962867  0.74934473  0.02260352  1
  Ba2+  Ba15  1  0.24354343  0.75669986  0.50665694  1
  Ba2+  Ba16  1  0.50008778  0.00140290  0.00115823  1
  Ba2+  Ba17  1  0.50031223  0.01284092  0.51874507  1
  Ba2+  Ba18  1  0.49357442  0.24410931  0.00631815  1
  Ba2+  Ba19  1  0.49924219  0.25096705  0.52542989  1
  Ba2+  Ba20  1  0.49151834  0.50329731  0.01729108  1
  Ba2+  Ba21  1  0.49974555  0.48568648  0.51109391  1
  Ba2+  Ba22  1  0.50001286  0.75272204  0.01326503  1
  Ba2+  Ba23  1  0.50061234  0.75032222  0.50676827  1
  Ba2+  Ba24  1  0.74100057  0.00186864  0.01030237  1
  Ba2+  Ba25  1  0.75054725  0.01259060  0.51899765  1
  Ba2+  Ba26  1  0.75118452  0.24304359  0.00607246  1
  Ba2+  Ba27  1  0.74934544  0.25070127  0.53037200  1
  Ba2+  Ba28  1  0.75498637  0.50421371  0.00036475  1
  Ba2+  Ba29  1  0.75487094  0.49373713  0.51799639  1
  Ba2+  Ba30  1  0.74274864  0.74932355  0.00804013  1
  Ba2+  Ba31  1  0.75674940  0.74292432  0.50702953  1
  Y3+  Y32  1  0.00333058  0.00167479  0.26049729  1
  Y3+  Y33  1  0.00280115  0.00059119  0.75255316  1
  Y3+  Y34  1  0.00401962  0.24854558  0.25684344  1
  Y3+  Y35  1  -0.00061174  0.24997862  0.75740363  1
  Y3+  Y36  1  0.00107217  0.49874798  0.25937328  1
  Y3+  Y37  1  -0.00314187  0.50027235  0.75695259  1
  Y3+  Y38  1  0.00069067  0.75047214  0.26219778  1
  Y3+  Y39  1  -0.00066652  0.74949450  0.75337423  1
  Y3+  Y40  1  0.24744379  0.00256383  0.25919844  1
  Y3+  Y41  1  0.25008084  0.00226537  0.75540816  1
  Y3+  Y42  1  0.25019664  0.25039096  0.25640857  1
  Y3+  Y43  1  0.25313387  0.24903033  0.75779666  1
  Y3+  Y44  1  0.25077558  0.49530776  0.25891925  1
  Y3+  Y45  1  0.25168695  0.49624116  0.75600984  1
  Y3+  Y46  1  0.24741542  0.75084128  0.26166485  1
  Y3+  Y47  1  0.24859288  0.75283121  0.75304031  1
  Y3+  Y48  1  0.50133746  0.00296790  0.25119247  1
  Y3+  Y49  1  0.49912416  0.00257988  0.76347935  1
  Y3+  Y50  1  0.49681993  0.24993524  0.25067127  1
  Y3+  Y51  1  0.49687004  0.24921232  0.76326446  1
  Y3+  Y52  1  0.49802338  0.49769550  0.25683369  1
  Y3+  Y53  1  0.49738226  0.49551896  0.75733089  1
  Y3+  Y54  1  0.50227401  0.74983455  0.25701479  1
  Y3+  Y55  1  0.50001584  0.75247220  0.75763528  1
  Y3+  Y56  1  0.74853344  0.00129586  0.25104865  1
  Y3+  Y57  1  0.74786043  0.00081405  0.76264144  1
  Y3+  Y58  1  0.74911870  0.24737004  0.24852311  1
  Y3+  Y59  1  0.74988986  0.24984866  0.76338512  1
  Y3+  Y60  1  0.75021558  0.50149641  0.25780722  1
  Y3+  Y61  1  0.75402292  0.49948971  0.75789118  1
  Y3+  Y62  1  0.74980234  0.75000172  0.25780938  1
  Y3+  Y63  1  0.75213803  0.74953211  0.75817745  1
  Fe3+  Fe64  1  0.62571374  0.87790187  0.38099801  1
  Fe3+  Fe65  1  0.62327666  0.62467932  0.87422777  1
  Fe3+  Fe66  1  0.12453312  0.62282567  0.38007437  1
  Fe3+  Fe67  1  0.37629293  0.87797747  0.38076221  1
  Fe3+  Fe68  1  0.12541368  0.12487377  0.87666732  1
  Fe3+  Fe69  1  0.87690981  0.87489959  0.88049490  1
  Fe3+  Fe70  1  0.62507841  0.12759145  0.37413090  1
  Fe3+  Fe71  1  0.62425627  0.37607268  0.87974830  1
  Fe3+  Fe72  1  0.62593888  0.37122436  0.37436542  1
  Fe3+  Fe73  1  0.62550047  0.62276781  0.38035129  1
  Fe3+  Fe74  1  0.12672684  0.62524707  0.87378733  1
  Fe3+  Fe75  1  0.87380182  0.87777775  0.37978078  1
  Fe3+  Fe76  1  0.37661492  0.12620859  0.37568865  1
  Fe3+  Fe77  1  0.37279776  0.62606491  0.87423566  1
  Fe3+  Fe78  1  0.12554066  0.87470168  0.87576984  1
  Fe3+  Fe79  1  0.87325874  0.12662628  0.37418710  1
  Fe3+  Fe80  1  0.87794705  0.12311203  0.87796766  1
  Fe3+  Fe81  1  0.12567213  0.37490073  0.87753527  1
  Fe3+  Fe82  1  0.87288766  0.37171209  0.37428405  1
  Fe3+  Fe83  1  0.37550597  0.62415859  0.38048719  1
  Fe3+  Fe84  1  0.37527932  0.87695245  0.63403280  1
  Fe3+  Fe85  1  0.37459886  0.87553334  0.14120747  1
  Fe3+  Fe86  1  0.12498431  0.62312714  0.63277570  1
  Fe3+  Fe87  1  0.62450905  0.62343356  0.63451258  1
  Fe3+  Fe88  1  0.62568765  0.87582264  0.63461068  1
  Fe3+  Fe89  1  0.37464217  0.62428506  0.63175773  1
  Fe3+  Fe90  1  0.12460585  0.37417403  0.63739136  1
  Fe3+  Fe91  1  0.87456293  0.87682090  0.63472750  1
  Fe3+  Fe92  1  0.62513233  0.37629940  0.13173905  1
  Fe3+  Fe93  1  0.87570011  0.62516428  0.13964121  1
  Fe3+  Fe94  1  0.87548355  0.37529669  0.13493412  1
  Fe3+  Fe95  1  0.87571077  0.87496909  0.13564383  1
  Cu2+  Cu96  1  0.62457821  0.87374731  0.87202279  1
  Cu2+  Cu97  1  0.62464497  0.12543546  0.87294102  1
  Cu2+  Cu98  1  0.12462754  0.87651292  0.37426387  1
  Cu2+  Cu99  1  0.87633908  0.37461187  0.86823693  1
  Cu2+  Cu100  1  0.12535964  0.12660657  0.37135289  1
  Cu2+  Cu101  1  0.87445403  0.62358023  0.37446720  1
  Cu2+  Cu102  1  0.37704717  0.37223071  0.37142468  1
  Cu2+  Cu103  1  0.37325293  0.87408011  0.86065624  1
  Cu2+  Cu104  1  0.87642605  0.62646760  0.86277603  1
  Cu2+  Cu105  1  0.37260380  0.12455136  0.87268203  1
  Cu2+  Cu106  1  0.37319454  0.37603127  0.87486262  1
  Cu2+  Cu107  1  0.12447160  0.37381471  0.36465256  1
  Cu2+  Cu108  1  0.62492273  0.37462783  0.65820183  1
  Cu2+  Cu109  1  0.37492983  0.12506436  0.65370169  1
  Cu2+  Cu110  1  0.37420750  0.37373157  0.64340087  1
  Cu2+  Cu111  1  0.87531500  0.37364456  0.65655198  1
  Cu2+  Cu112  1  0.87486578  0.12474936  0.65574086  1
  Cu2+  Cu113  1  0.37418677  0.62613069  0.15920754  1
  Cu2+  Cu114  1  0.37413201  0.12394599  0.14205798  1
  Cu2+  Cu115  1  0.12601020  0.12531847  0.15194387  1
  Cu2+  Cu116  1  0.37461854  0.37482924  0.14181699  1
  Cu2+  Cu117  1  0.62371497  0.12546160  0.13814763  1
  Cu2+  Cu118  1  0.12493191  0.87495720  0.15594682  1
  Cu2+  Cu119  1  0.62448851  0.12532495  0.66005296  1
  Cu2+  Cu120  1  0.12442869  0.37511220  0.15204775  1
  Cu2+  Cu121  1  0.87622111  0.12418672  0.14654671  1
  Cu2+  Cu122  1  0.62518107  0.62405964  0.15334068  1
  Cu2+  Cu123  1  0.12447421  0.62445540  0.15868884  1
  Cu2+  Cu124  1  0.62457506  0.87440938  0.14199997  1
  Cu2+  Cu125  1  0.12466322  0.87592757  0.63939661  1
  Cu2+  Cu126  1  0.12551926  0.12729085  0.64280813  1
  Cu2+  Cu127  1  0.87512770  0.62497009  0.64027980  1
  O2-  O128  1  0.12504688  0.12347018  -0.00303710  1
  O2-  O129  1  0.12454405  0.12800352  0.50730970  1
  O2-  O130  1  0.12558685  0.37731061  -0.00219419  1
  O2-  O131  1  0.12307413  0.37390519  0.51683710  1
  O2-  O132  1  0.12831641  0.62684045  -0.00623486  1
  O2-  O133  1  0.12330023  0.62188988  0.50649290  1
  O2-  O134  1  0.12551099  0.87223164  -0.00439663  1
  O2-  O135  1  0.12370911  0.87613089  0.50650520  1
  O2-  O136  1  0.37292438  0.12275310  0.00665689  1
  O2-  O137  1  0.37809827  0.12714141  0.49611263  1
  O2-  O138  1  0.37317537  0.37827998  0.00777166  1
  O2-  O139  1  0.37684385  0.37208001  0.50676612  1
  O2-  O140  1  0.37165119  0.62804871  -0.00581790  1
  O2-  O141  1  0.37660050  0.62299153  0.50602775  1
  O2-  O142  1  0.37384667  0.87214986  0.02060053  1
  O2-  O143  1  0.37713636  0.87913194  0.50729735  1
  O2-  O144  1  0.62446379  0.12474851  0.00547535  1
  O2-  O145  1  0.62618842  0.12897070  0.49407689  1
  O2-  O146  1  0.62415470  0.37967189  0.00564623  1
  O2-  O147  1  0.62763921  0.37009718  0.49441243  1
  O2-  O148  1  0.62248567  0.62562724  -0.00571278  1
  O2-  O149  1  0.62554156  0.62233280  0.50671914  1
  O2-  O150  1  0.62406338  0.87196526  0.00687066  1
  O2-  O151  1  0.62725225  0.87861836  0.50733937  1
  O2-  O152  1  0.87969524  0.12156587  -0.00215886  1
  O2-  O153  1  0.87127274  0.12862874  0.49408653  1
  O2-  O154  1  0.87776970  0.37893266  0.01483573  1
  O2-  O155  1  0.87090814  0.36994369  0.49463272  1
  O2-  O156  1  0.87666330  0.62646551  0.01926786  1
  O2-  O157  1  0.87406443  0.62317945  0.50755186  1
  O2-  O158  1  0.87725073  0.87345908  0.00718961  1
  O2-  O159  1  0.87247620  0.87856948  0.50675885  1
  O2-  O160  1  0.12481265  0.00004839  0.16604392  1
  O2-  O161  1  0.12507345  0.00089148  0.66258196  1
  O2-  O162  1  0.12514041  0.25006016  0.16171594  1
  O2-  O163  1  0.12433629  0.25221199  0.66891556  1
  O2-  O164  1  0.12475172  0.50031511  0.16779296  1
  O2-  O165  1  0.12524755  0.50039092  0.66476653  1
  O2-  O166  1  0.12450028  0.74940752  0.17037446  1
  O2-  O167  1  0.12497941  0.74712607  0.65823079  1
  O2-  O168  1  0.37396361  -0.00169893  0.16807700  1
  O2-  O169  1  0.37676206  -0.00116365  0.66400584  1
  O2-  O170  1  0.37421784  0.24956192  0.16033449  1
  O2-  O171  1  0.37593134  0.24816838  0.66888909  1
  O2-  O172  1  0.37458129  0.50210115  0.16752299  1
  O2-  O173  1  0.37569736  0.50305805  0.66274351  1
  O2-  O174  1  0.37409473  0.75056101  0.17432988  1
  O2-  O175  1  0.37588983  0.75034581  0.65610060  1
  O2-  O176  1  0.62511689  0.00022478  0.16441004  1
  O2-  O177  1  0.62467526  -0.00154487  0.66412683  1
  O2-  O178  1  0.62575475  0.25367598  0.15577294  1
  O2-  O179  1  0.62545660  0.24991844  0.67047600  1
  O2-  O180  1  0.62481785  0.49893209  0.16589766  1
  O2-  O181  1  0.62393866  0.50067102  0.66140744  1
  O2-  O182  1  0.62559905  0.74772004  0.17134953  1
  O2-  O183  1  0.62506714  0.75071015  0.65635432  1
  O2-  O184  1  0.87618329  -0.00204476  0.16338997  1
  O2-  O185  1  0.87371013  -0.00088459  0.66292813  1
  O2-  O186  1  0.87488774  0.25017891  0.15766733  1
  O2-  O187  1  0.87387338  0.24892475  0.66827487  1
  O2-  O188  1  0.87560453  0.50025386  0.16938754  1
  O2-  O189  1  0.87445993  0.49817462  0.66478022  1
  O2-  O190  1  0.87594683  0.75106826  0.17038093  1
  O2-  O191  1  0.87350518  0.75389871  0.66189760  1
  O2-  O192  1  0.00136660  0.12448107  0.16576067  1
  O2-  O193  1  -0.00165989  0.12491992  0.66259252  1
  O2-  O194  1  -0.00063559  0.37510386  0.16662528  1
  O2-  O195  1  -0.00038240  0.37525231  0.66505029  1
  O2-  O196  1  -0.00036370  0.62586708  0.16853045  1
  O2-  O197  1  0.00290770  0.62498863  0.66363494  1
  O2-  O198  1  -0.00054645  0.87416986  0.16494473  1
  O2-  O199  1  -0.00320428  0.87522244  0.66272282  1
  O2-  O200  1  0.24862012  0.12448929  0.16712196  1
  O2-  O201  1  0.25176267  0.12489493  0.66334296  1
  O2-  O202  1  0.24839505  0.37594543  0.16724644  1
  O2-  O203  1  0.24892970  0.37518353  0.66370399  1
  O2-  O204  1  0.24870370  0.62564732  0.17037881  1
  O2-  O205  1  0.25035904  0.62561494  0.65560614  1
  O2-  O206  1  0.24920098  0.87347831  0.17010775  1
  O2-  O207  1  0.25345849  0.87513960  0.66009295  1
  O2-  O208  1  0.49919771  0.12495882  0.16279260  1
  O2-  O209  1  0.50000562  0.12486169  0.66628007  1
  O2-  O210  1  0.50245762  0.37682451  0.16198165  1
  O2-  O211  1  0.50038955  0.37448234  0.66623812  1
  O2-  O212  1  0.49977873  0.62590022  0.16679290  1
  O2-  O213  1  0.50012495  0.62648056  0.65875695  1
  O2-  O214  1  0.49847221  0.87311374  0.17061281  1
  O2-  O215  1  0.50082782  0.87429373  0.66092600  1
  O2-  O216  1  0.75142492  0.12377589  0.15895340  1
  O2-  O217  1  0.74957464  0.12411149  0.66818768  1
  O2-  O218  1  0.74963353  0.37660658  0.15962650  1
  O2-  O219  1  0.75035837  0.37509066  0.66873555  1
  O2-  O220  1  0.75145251  0.62589514  0.16705835  1
  O2-  O221  1  0.74608472  0.62489850  0.66513967  1
  O2-  O222  1  0.75318439  0.87389638  0.16377318  1
  O2-  O223  1  0.74902376  0.87575404  0.66514412  1
  O2-  O224  1  0.12497334  0.00098445  0.34989470  1
  O2-  O225  1  0.12485423  -0.00082998  0.84372422  1
  O2-  O226  1  0.12535433  0.25115395  0.34573562  1
  O2-  O227  1  0.12392456  0.24977256  0.84902288  1
  O2-  O228  1  0.12563485  0.50035307  0.35186787  1
  O2-  O229  1  0.12473469  0.50074913  0.84470741  1
  O2-  O230  1  0.12468161  0.74710049  0.35448047  1
  O2-  O231  1  0.12460787  0.75030139  0.83932786  1
  O2-  O232  1  0.37678764  -0.00028988  0.34835553  1
  O2-  O233  1  0.37398731  -0.00226214  0.84865977  1
  O2-  O234  1  0.37575722  0.24782059  0.34167711  1
  O2-  O235  1  0.37411003  0.25040418  0.85228496  1
  O2-  O236  1  0.37602919  0.50241124  0.35135793  1
  O2-  O237  1  0.37434100  0.50239521  0.84419383  1
  O2-  O238  1  0.37620192  0.74995041  0.35828028  1
  O2-  O239  1  0.37443037  0.74952442  0.83886000  1
  O2-  O240  1  0.62518565  -0.00040421  0.34730572  1
  O2-  O241  1  0.62473823  -0.00045149  0.84885543  1
  O2-  O242  1  0.62506298  0.24890636  0.33552534  1
  O2-  O243  1  0.62558045  0.25332503  0.85415423  1
  O2-  O244  1  0.62518734  0.50018416  0.34955425  1
  O2-  O245  1  0.62559600  0.49970880  0.84448776  1
  O2-  O246  1  0.62540351  0.75079897  0.35711476  1
  O2-  O247  1  0.62511300  0.74741603  0.84001665  1
  O2-  O248  1  0.87336059  0.00004266  0.34664386  1
  O2-  O249  1  0.87587275  -0.00232005  0.84577907  1
  O2-  O250  1  0.87446250  0.24928705  0.33714804  1
  O2-  O251  1  0.87585906  0.24838868  0.85157679  1
  O2-  O252  1  0.87356742  0.49693918  0.34915531  1
  O2-  O253  1  0.87548993  0.50119238  0.84956437  1
  O2-  O254  1  0.87392861  0.75339506  0.35442117  1
  O2-  O255  1  0.87594242  0.75222122  0.84598148  1
  O2-  O256  1  -0.00185048  0.12492935  0.34869881  1
  O2-  O257  1  0.00110270  0.12374120  0.84282288  1
  O2-  O258  1  -0.00118606  0.37473282  0.34909754  1
  O2-  O259  1  0.00128438  0.37615258  0.84680161  1
  O2-  O260  1  0.00251667  0.62428028  0.35090057  1
  O2-  O261  1  0.00117236  0.62595051  0.84663113  1
  O2-  O262  1  -0.00381486  0.87574847  0.34999089  1
  O2-  O263  1  -0.00018409  0.87399451  0.84558010  1
  O2-  O264  1  0.25199643  0.12489438  0.34967503  1
  O2-  O265  1  0.24730644  0.12423662  0.84491259  1
  O2-  O266  1  0.24937575  0.37486645  0.35217401  1
  O2-  O267  1  0.24755525  0.37538193  0.84406245  1
  O2-  O268  1  0.25043912  0.62527574  0.35535319  1
  O2-  O269  1  0.24946311  0.62605580  0.83618718  1
  O2-  O270  1  0.25403333  0.87462903  0.35311940  1
  O2-  O271  1  0.24856878  0.87420343  0.84268337  1
  O2-  O272  1  0.50110108  0.12451490  0.34250583  1
  O2-  O273  1  0.49883505  0.12451524  0.85088294  1
  O2-  O274  1  0.50286764  0.37526000  0.34378372  1
  O2-  O275  1  0.50189816  0.37626286  0.85024545  1
  O2-  O276  1  0.50102155  0.62583549  0.35195882  1
  O2-  O277  1  0.49872294  0.62556815  0.84083363  1
  O2-  O278  1  0.50133528  0.87360520  0.35392451  1
  O2-  O279  1  0.49763019  0.87380911  0.84620367  1
  O2-  O280  1  0.74896132  0.12428524  0.33911512  1
  O2-  O281  1  0.75287415  0.12389932  0.85099229  1
  O2-  O282  1  0.74911778  0.37408006  0.33808538  1
  O2-  O283  1  0.74928659  0.37654039  0.85333442  1
  O2-  O284  1  0.74618665  0.62588180  0.34901518  1
  O2-  O285  1  0.75048930  0.62584325  0.84910400  1
  O2-  O286  1  0.74886493  0.87519883  0.34847515  1
  O2-  O287  1  0.75380900  0.87375513  0.85021913  1
