# generated using pymatgen
data_BaYFeCuO5
_symmetry_space_group_name_H-M   'P 1'
_cell_length_a   15.67411891
_cell_length_b   15.67065603
_cell_length_c   15.48762810
_cell_angle_alpha   89.99973344
_cell_angle_beta   90.00125001
_cell_angle_gamma   90.00456028
_symmetry_Int_Tables_number   1
_chemical_formula_structural   BaYFeCuO5
_chemical_formula_sum   'Ba32 Y32 Fe32 Cu32 O160'
_cell_volume   3804.12890763
_cell_formula_units_Z   32
loop_
 _symmetry_equiv_pos_site_id
 _symmetry_equiv_pos_as_xyz
  1  'x, y, z'
loop_
 _atom_type_symbol
 _atom_type_oxidation_number
  Ba2+  2.0
  Y3+  3.0
  Fe3+  3.0
  Cu2+  2.0
  O2-  -2.0
loop_
 _atom_site_type_symbol
 _atom_site_label
 _atom_site_symmetry_multiplicity
 _atom_site_fract_x
 _atom_site_fract_y
 _atom_site_fract_z
 _atom_site_occupancy
  Ba2+  Ba0  1  -0.00402999  0.00186433  0.00248626  1
  Ba2+  Ba1  1  -0.00024186  0.00120944  0.52833165  1
  Ba2+  Ba2  1  -0.00228319  0.24885526  0.00296637  1
  Ba2+  Ba3  1  -0.00041286  0.24805056  0.52797246  1
  Ba2+  Ba4  1  0.00348205  0.50955250  0.00246337  1
  Ba2+  Ba5  1  -0.00864207  0.49727720  0.51641903  1
  Ba2+  Ba6  1  0.00228472  0.73971851  0.00212586  1
  Ba2+  Ba7  1  -0.00840550  0.75322439  0.51698018  1
  Ba2+  Ba8  1  0.25974986  -0.00225985  0.00608694  1
  Ba2+  Ba9  1  0.24932704  0.00325314  0.52603108  1
  Ba2+  Ba10  1  0.25983465  0.25496867  0.01134772  1
  Ba2+  Ba11  1  0.25250508  0.24915555  0.52127517  1
  Ba2+  Ba12  1  0.25829532  0.50703539  0.00836580  1
  Ba2+  Ba13  1  0.25181998  0.48783421  0.51073332  1
  Ba2+  Ba14  1  0.25612840  0.74028727  0.00265540  1
  Ba2+  Ba15  1  0.25009194  0.76132884  0.51743492  1
  Ba2+  Ba16  1  0.49953387  -0.00954025  0.00582961  1
  Ba2+  Ba17  1  0.50026124  0.00177143  0.52590712  1
  Ba2+  Ba18  1  0.49054456  0.25397469  0.01325136  1
  Ba2+  Ba19  1  0.50033099  0.25383430  0.51519028  1
  Ba2+  Ba20  1  0.49387003  0.50804191  0.00924092  1
  Ba2+  Ba21  1  0.50717063  0.49382255  0.50563152  1
  Ba2+  Ba22  1  0.50126758  0.74555146  0.00133341  1
  Ba2+  Ba23  1  0.50778406  0.75231213  0.51556252  1
  Ba2+  Ba24  1  0.74482551  -0.00545638  0.00314833  1
  Ba2+  Ba25  1  0.75055021  0.00027363  0.52781401  1
  Ba2+  Ba26  1  0.75193520  0.24778806  0.00301308  1
  Ba2+  Ba27  1  0.74794796  0.25176345  0.52265523  1
  Ba2+  Ba28  1  0.74570114  0.51096853  0.00215647  1
  Ba2+  Ba29  1  0.74670200  0.50240880  0.51034670  1
  Ba2+  Ba30  1  0.73930385  0.74623263  0.00374865  1
  Ba2+  Ba31  1  0.74976834  0.74566875  0.51559033  1
  Y3+  Y32  1  -0.00029866  -0.00043935  0.25274037  1
  Y3+  Y33  1  -0.00125700  -0.00002404  0.76015292  1
  Y3+  Y34  1  -0.00003797  0.25004935  0.25307667  1
  Y3+  Y35  1  -0.00068188  0.25050125  0.75990440  1
  Y3+  Y36  1  -0.00013830  0.50345012  0.25898669  1
  Y3+  Y37  1  -0.00059409  0.50249336  0.75699481  1
  Y3+  Y38  1  -0.00044813  0.74707642  0.25837615  1
  Y3+  Y39  1  -0.00090849  0.74667922  0.75710070  1
  Y3+  Y40  1  0.25169177  0.00068492  0.25397019  1
  Y3+  Y41  1  0.25196796  -0.00154390  0.75750295  1
  Y3+  Y42  1  0.25458047  0.25218758  0.25594096  1
  Y3+  Y43  1  0.25297433  0.25307581  0.75682384  1
  Y3+  Y44  1  0.25273535  0.50012496  0.25637634  1
  Y3+  Y45  1  0.25293517  0.49938155  0.75921186  1
  Y3+  Y46  1  0.24968819  0.74715459  0.25614287  1
  Y3+  Y47  1  0.25170964  0.74868770  0.75914356  1
  Y3+  Y48  1  0.50019840  -0.00041639  0.25294839  1
  Y3+  Y49  1  0.50081258  -0.00296284  0.75897271  1
  Y3+  Y50  1  0.49786520  0.25356851  0.25892609  1
  Y3+  Y51  1  0.49877665  0.25330690  0.75497668  1
  Y3+  Y52  1  0.50057026  0.50014405  0.26043838  1
  Y3+  Y53  1  0.50025941  0.49997026  0.75596374  1
  Y3+  Y54  1  0.50353175  0.74724316  0.25597274  1
  Y3+  Y55  1  0.50207650  0.74908061  0.75853699  1
  Y3+  Y56  1  0.74809104  -0.00189459  0.25213170  1
  Y3+  Y57  1  0.74884371  -0.00116120  0.76125887  1
  Y3+  Y58  1  0.74756602  0.25149427  0.25661198  1
  Y3+  Y59  1  0.74920698  0.25063428  0.75805907  1
  Y3+  Y60  1  0.74683766  0.50353147  0.26331301  1
  Y3+  Y61  1  0.74781731  0.50333037  0.75372340  1
  Y3+  Y62  1  0.74718539  0.74715015  0.25938609  1
  Y3+  Y63  1  0.74698233  0.74699915  0.75690401  1
  Fe3+  Fe64  1  0.12462472  0.12503428  0.37419078  1
  Fe3+  Fe65  1  0.12388028  0.37274140  0.37604698  1
  Fe3+  Fe66  1  0.62524511  0.87713706  0.37681558  1
  Fe3+  Fe67  1  0.87437066  0.87215232  0.87839245  1
  Fe3+  Fe68  1  0.37533669  0.12411158  0.37652422  1
  Fe3+  Fe69  1  0.37613561  0.12542078  0.87567147  1
  Fe3+  Fe70  1  0.62321910  0.37643899  0.88010681  1
  Fe3+  Fe71  1  0.87448384  0.87689007  0.37553860  1
  Fe3+  Fe72  1  0.62535721  0.12410376  0.37595409  1
  Fe3+  Fe73  1  0.12663584  0.37656101  0.87955007  1
  Fe3+  Fe74  1  0.87511471  0.37318885  0.37601509  1
  Fe3+  Fe75  1  0.62332625  0.12596484  0.87879109  1
  Fe3+  Fe76  1  0.12608522  0.87353215  0.87900563  1
  Fe3+  Fe77  1  0.12512339  0.62510663  0.38262053  1
  Fe3+  Fe78  1  0.12459031  0.87728034  0.37564333  1
  Fe3+  Fe79  1  0.87484736  0.12422794  0.37465658  1
  Fe3+  Fe80  1  0.87405977  0.37743448  0.87907229  1
  Fe3+  Fe81  1  0.37527667  0.87635767  0.37740643  1
  Fe3+  Fe82  1  0.37485486  0.62575646  0.38197600  1
  Fe3+  Fe83  1  0.12683813  0.12549690  0.87858863  1
  Fe3+  Fe84  1  0.87401438  0.12499755  0.13286906  1
  Fe3+  Fe85  1  0.62315631  0.12557728  0.13212596  1
  Fe3+  Fe86  1  0.37557104  0.62462269  0.63477498  1
  Fe3+  Fe87  1  0.12679677  0.12519440  0.13055279  1
  Fe3+  Fe88  1  0.87435456  0.37732305  0.13255832  1
  Fe3+  Fe89  1  0.12534439  0.37713759  0.13287047  1
  Fe3+  Fe90  1  0.87434959  0.87249954  0.13188747  1
  Fe3+  Fe91  1  0.12596591  0.62448728  0.63518623  1
  Fe3+  Fe92  1  0.37576051  0.87210293  0.13669573  1
  Fe3+  Fe93  1  0.87380627  0.62491684  0.13847716  1
  Fe3+  Fe94  1  0.62491577  0.37699803  0.13417766  1
  Fe3+  Fe95  1  0.12515922  0.87309994  0.13137331  1
  Cu2+  Cu96  1  0.37640349  0.62449996  0.86588575  1
  Cu2+  Cu97  1  0.37610926  0.37601531  0.87257124  1
  Cu2+  Cu98  1  0.62428377  0.87342718  0.87200749  1
  Cu2+  Cu99  1  0.87431789  0.12504041  0.86573282  1
  Cu2+  Cu100  1  0.37465640  0.37435078  0.37283153  1
  Cu2+  Cu101  1  0.62423733  0.62598908  0.37473622  1
  Cu2+  Cu102  1  0.12659858  0.62409347  0.87077255  1
  Cu2+  Cu103  1  0.62366475  0.62380034  0.86961052  1
  Cu2+  Cu104  1  0.87412993  0.62480469  0.86208194  1
  Cu2+  Cu105  1  0.87513528  0.62587859  0.37548400  1
  Cu2+  Cu106  1  0.62578561  0.37337843  0.37233466  1
  Cu2+  Cu107  1  0.37517745  0.87379816  0.86249010  1
  Cu2+  Cu108  1  0.12547001  0.12543909  0.65951656  1
  Cu2+  Cu109  1  0.87433065  0.62476222  0.64321750  1
  Cu2+  Cu110  1  0.87421249  0.87465627  0.65881309  1
  Cu2+  Cu111  1  0.37585228  0.12460430  0.14781534  1
  Cu2+  Cu112  1  0.37584857  0.12506075  0.65517289  1
  Cu2+  Cu113  1  0.87451689  0.37530791  0.65712099  1
  Cu2+  Cu114  1  0.12429128  0.87426702  0.65772894  1
  Cu2+  Cu115  1  0.62470337  0.12521552  0.65678606  1
  Cu2+  Cu116  1  0.62568917  0.87487714  0.65528391  1
  Cu2+  Cu117  1  0.62481828  0.87304085  0.13980455  1
  Cu2+  Cu118  1  0.12468117  0.37576322  0.65576316  1
  Cu2+  Cu119  1  0.37590226  0.37749549  0.14295757  1
  Cu2+  Cu120  1  0.62364525  0.62448851  0.64270516  1
  Cu2+  Cu121  1  0.12538393  0.62467278  0.14240975  1
  Cu2+  Cu122  1  0.62533282  0.37547580  0.64443294  1
  Cu2+  Cu123  1  0.87428681  0.12510485  0.65960628  1
  Cu2+  Cu124  1  0.37590180  0.87400434  0.65398421  1
  Cu2+  Cu125  1  0.37581037  0.37608136  0.64273426  1
  Cu2+  Cu126  1  0.62473689  0.62407845  0.14404964  1
  Cu2+  Cu127  1  0.37612837  0.62569634  0.14889588  1
  O2-  O128  1  0.12704365  0.12502393  0.00452173  1
  O2-  O129  1  0.12294830  0.12440120  0.49399071  1
  O2-  O130  1  0.12636778  0.37775408  0.00602335  1
  O2-  O131  1  0.12200455  0.36906615  0.49573817  1
  O2-  O132  1  0.12577003  0.62450467  0.00662948  1
  O2-  O133  1  0.12513257  0.62565978  0.50815450  1
  O2-  O134  1  0.12610663  0.87264565  0.00534741  1
  O2-  O135  1  0.12359190  0.88066631  0.49520869  1
  O2-  O136  1  0.37520453  0.12508264  -0.00398495  1
  O2-  O137  1  0.37390392  0.12282750  0.49644477  1
  O2-  O138  1  0.37526018  0.37692589  0.00763919  1
  O2-  O139  1  0.37396946  0.37242087  0.50780541  1
  O2-  O140  1  0.37635433  0.62661391  0.00737203  1
  O2-  O141  1  0.37365188  0.62568570  0.50801615  1
  O2-  O142  1  0.37483046  0.87110545  0.01611181  1
  O2-  O143  1  0.37345990  0.88046503  0.49738088  1
  O2-  O144  1  0.62278956  0.12600474  0.00523396  1
  O2-  O145  1  0.62715747  0.12289121  0.49569437  1
  O2-  O146  1  0.62376034  0.37648637  0.00708755  1
  O2-  O147  1  0.62759446  0.37206144  0.50778634  1
  O2-  O148  1  0.62356466  0.62375248  0.00790242  1
  O2-  O149  1  0.62466896  0.62642242  0.50836523  1
  O2-  O150  1  0.62439307  0.87387516  0.00548583  1
  O2-  O151  1  0.62662835  0.88032095  0.49667907  1
  O2-  O152  1  0.87514208  0.12583697  0.01298454  1
  O2-  O153  1  0.87645041  0.12343465  0.49434911  1
  O2-  O154  1  0.87449634  0.37796900  0.00667370  1
  O2-  O155  1  0.87681806  0.36961058  0.49600920  1
  O2-  O156  1  0.87452564  0.62489869  0.01790057  1
  O2-  O157  1  0.87659792  0.62585076  0.50917233  1
  O2-  O158  1  0.87461528  0.87155490  0.00586899  1
  O2-  O159  1  0.87605930  0.88052916  0.49548066  1
  O2-  O160  1  0.12503802  -0.00019755  0.15464710  1
  O2-  O161  1  0.12468968  -0.00025496  0.67047846  1
  O2-  O162  1  0.12419622  0.25020800  0.15467385  1
  O2-  O163  1  0.12434526  0.25055177  0.67018598  1
  O2-  O164  1  0.12418410  0.49711385  0.16834299  1
  O2-  O165  1  0.12530592  0.50162186  0.66293307  1
  O2-  O166  1  0.12389623  0.75293569  0.16688114  1
  O2-  O167  1  0.12467932  0.74835574  0.66351038  1
  O2-  O168  1  0.37458758  -0.00136417  0.16003524  1
  O2-  O169  1  0.37475590  -0.00055207  0.66714558  1
  O2-  O170  1  0.37538143  0.24912476  0.16199211  1
  O2-  O171  1  0.37499722  0.24928665  0.66579692  1
  O2-  O172  1  0.37503954  0.50185401  0.16917458  1
  O2-  O173  1  0.37368585  0.50287949  0.66486018  1
  O2-  O174  1  0.37446553  0.75046296  0.17108898  1
  O2-  O175  1  0.37404486  0.74862768  0.66255402  1
  O2-  O176  1  0.62541171  0.00265342  0.15676366  1
  O2-  O177  1  0.62596639  0.00007850  0.66912042  1
  O2-  O178  1  0.62504796  0.25065705  0.15829317  1
  O2-  O179  1  0.62546042  0.24888358  0.66922587  1
  O2-  O180  1  0.62646324  0.49713986  0.16785634  1
  O2-  O181  1  0.62513068  0.50005498  0.66591841  1
  O2-  O182  1  0.62561691  0.74902387  0.16667619  1
  O2-  O183  1  0.62510252  0.75130310  0.66468137  1
  O2-  O184  1  0.87532934  -0.00086573  0.15680807  1
  O2-  O185  1  0.87485152  -0.00003818  0.67024259  1
  O2-  O186  1  0.87596447  0.25119394  0.15801698  1
  O2-  O187  1  0.87533597  0.25006293  0.66922545  1
  O2-  O188  1  0.87496069  0.49853513  0.16790720  1
  O2-  O189  1  0.87532097  0.49884971  0.66650859  1
  O2-  O190  1  0.87608239  0.75066798  0.16695494  1
  O2-  O191  1  0.87583756  0.75108509  0.66615310  1
  O2-  O192  1  0.00134259  0.12473087  0.15827767  1
  O2-  O193  1  0.00002039  0.12485566  0.67012319  1
  O2-  O194  1  -0.00049084  0.37458055  0.15663881  1
  O2-  O195  1  -0.00026156  0.37496455  0.67012369  1
  O2-  O196  1  -0.00236416  0.62453255  0.16685499  1
  O2-  O197  1  0.00337247  0.62465037  0.66516822  1
  O2-  O198  1  -0.00022119  0.87600199  0.15703008  1
  O2-  O199  1  -0.00060774  0.87563907  0.66995950  1
  O2-  O200  1  0.24830946  0.12520299  0.16043864  1
  O2-  O201  1  0.25036869  0.12502778  0.66574252  1
  O2-  O202  1  0.24771297  0.37522099  0.16251228  1
  O2-  O203  1  0.24887988  0.37465634  0.66612701  1
  O2-  O204  1  0.25088078  0.62505978  0.16693670  1
  O2-  O205  1  0.24984441  0.62588646  0.66314867  1
  O2-  O206  1  0.24857752  0.87493104  0.16287438  1
  O2-  O207  1  0.24956406  0.87491777  0.66589090  1
  O2-  O208  1  0.50180223  0.12544545  0.16187058  1
  O2-  O209  1  0.50011797  0.12458290  0.66497072  1
  O2-  O210  1  0.50287045  0.37561727  0.16541312  1
  O2-  O211  1  0.50022315  0.37506543  0.66571521  1
  O2-  O212  1  0.49999354  0.62393391  0.16817797  1
  O2-  O213  1  0.49706475  0.62533422  0.66335516  1
  O2-  O214  1  0.49890224  0.87479473  0.16571889  1
  O2-  O215  1  0.50097619  0.87579944  0.66431138  1
  O2-  O216  1  0.74891314  0.12599355  0.15963432  1
  O2-  O217  1  0.74969576  0.12539707  0.66936156  1
  O2-  O218  1  0.75031190  0.37316613  0.15923996  1
  O2-  O219  1  0.75117067  0.37411426  0.67041805  1
  O2-  O220  1  0.75174512  0.62468209  0.16847396  1
  O2-  O221  1  0.74893735  0.62511789  0.66521464  1
  O2-  O222  1  0.75282273  0.87505326  0.15994025  1
  O2-  O223  1  0.75005419  0.87566369  0.66846591  1
  O2-  O224  1  0.12461892  0.00090662  0.33592878  1
  O2-  O225  1  0.12479176  -0.00039450  0.85520567  1
  O2-  O226  1  0.12474371  0.24871356  0.33673874  1
  O2-  O227  1  0.12479743  0.25050284  0.85482025  1
  O2-  O228  1  0.12428665  0.50073384  0.35212000  1
  O2-  O229  1  0.12466571  0.49716491  0.84748627  1
  O2-  O230  1  0.12526563  0.74993137  0.35035043  1
  O2-  O231  1  0.12519544  0.75224726  0.84840810  1
  O2-  O232  1  0.37479780  0.00002050  0.33949667  1
  O2-  O233  1  0.37496542  0.00028288  0.85041088  1
  O2-  O234  1  0.37462076  0.24798772  0.34481786  1
  O2-  O235  1  0.37478335  0.24868699  0.84833066  1
  O2-  O236  1  0.37352513  0.50275389  0.35275845  1
  O2-  O237  1  0.37541271  0.50058077  0.84767125  1
  O2-  O238  1  0.37248563  0.74987340  0.35215511  1
  O2-  O239  1  0.37483400  0.74988240  0.84690651  1
  O2-  O240  1  0.62488721  0.00026763  0.33701484  1
  O2-  O241  1  0.62469323  0.00263484  0.85328118  1
  O2-  O242  1  0.62524781  0.24699004  0.34102358  1
  O2-  O243  1  0.62572334  0.25089424  0.85314053  1
  O2-  O244  1  0.62479588  0.50020683  0.35185387  1
  O2-  O245  1  0.62523832  0.49740195  0.84906205  1
  O2-  O246  1  0.62502836  0.75292763  0.34875730  1
  O2-  O247  1  0.62448773  0.74825739  0.84830776  1
  O2-  O248  1  0.87541687  0.00039545  0.33600316  1
  O2-  O249  1  0.87564285  -0.00266102  0.85430559  1
  O2-  O250  1  0.87527313  0.24856616  0.33779827  1
  O2-  O251  1  0.87508055  0.25308415  0.85349180  1
  O2-  O252  1  0.87634049  0.49832350  0.35011714  1
  O2-  O253  1  0.87544696  0.49886279  0.85011297  1
  O2-  O254  1  0.87607391  0.75291049  0.34861842  1
  O2-  O255  1  0.87641282  0.75005550  0.85000598  1
  O2-  O256  1  -0.00021186  0.12475555  0.33763586  1
  O2-  O257  1  0.00258674  0.12525806  0.85396244  1
  O2-  O258  1  0.00000919  0.37392970  0.33804869  1
  O2-  O259  1  0.00017159  0.37503727  0.85544604  1
  O2-  O260  1  0.00387937  0.62573776  0.34887516  1
  O2-  O261  1  -0.00099286  0.62457942  0.84914849  1
  O2-  O262  1  0.00050719  0.87589391  0.33874522  1
  O2-  O263  1  0.00041753  0.87476150  0.85428617  1
  O2-  O264  1  0.24995688  0.12462431  0.34191081  1
  O2-  O265  1  0.24923071  0.12437221  0.84827814  1
  O2-  O266  1  0.24721617  0.37495543  0.34483570  1
  O2-  O267  1  0.24829462  0.37502922  0.85001998  1
  O2-  O268  1  0.24901434  0.62492562  0.35010666  1
  O2-  O269  1  0.25197463  0.62470591  0.84642524  1
  O2-  O270  1  0.24939967  0.87587576  0.34289178  1
  O2-  O271  1  0.24855508  0.87500601  0.85044297  1
  O2-  O272  1  0.49986061  0.12457854  0.34383460  1
  O2-  O273  1  0.50107703  0.12556975  0.84733330  1
  O2-  O274  1  0.49978301  0.37447757  0.34958540  1
  O2-  O275  1  0.50254345  0.37461237  0.84880001  1
  O2-  O276  1  0.49656231  0.62599266  0.35126420  1
  O2-  O277  1  0.49936213  0.62444007  0.84620254  1
  O2-  O278  1  0.49974385  0.87557005  0.34586756  1
  O2-  O279  1  0.49863188  0.87436686  0.84849252  1
  O2-  O280  1  0.75039478  0.12439769  0.33988942  1
  O2-  O281  1  0.74746273  0.12561362  0.85375375  1
  O2-  O282  1  0.75249453  0.37409581  0.34222444  1
  O2-  O283  1  0.74940459  0.37501112  0.85555734  1
  O2-  O284  1  0.74947218  0.62553884  0.35086030  1
  O2-  O285  1  0.75042781  0.62452692  0.84926049  1
  O2-  O286  1  0.74994197  0.87642774  0.34134520  1
  O2-  O287  1  0.75249900  0.87404161  0.85219669  1
