# generated using pymatgen
data_BaYFeCuO5
_symmetry_space_group_name_H-M   'P 1'
_cell_length_a   15.66479256
_cell_length_b   15.66435677
_cell_length_c   15.46916634
_cell_angle_alpha   89.99916664
_cell_angle_beta   89.99467143
_cell_angle_gamma   90.00091343
_symmetry_Int_Tables_number   1
_chemical_formula_structural   BaYFeCuO5
_chemical_formula_sum   'Ba32 Y32 Fe32 Cu32 O160'
_cell_volume   3795.80699483
_cell_formula_units_Z   32
loop_
 _symmetry_equiv_pos_site_id
 _symmetry_equiv_pos_as_xyz
  1  'x, y, z'
loop_
 _atom_type_symbol
 _atom_type_oxidation_number
  Ba2+  2.0
  Y3+  3.0
  Fe3+  3.0
  Cu2+  2.0
  O2-  -2.0
loop_
 _atom_site_type_symbol
 _atom_site_label
 _atom_site_symmetry_multiplicity
 _atom_site_fract_x
 _atom_site_fract_y
 _atom_site_fract_z
 _atom_site_occupancy
  Ba2+  Ba0  1  0.00100276  0.00327464  0.00628760  1
  Ba2+  Ba1  1  0.00645172  0.00585692  0.51610524  1
  Ba2+  Ba2  1  0.00013057  0.23828714  0.00642133  1
  Ba2+  Ba3  1  0.00269377  0.24921539  0.52312878  1
  Ba2+  Ba4  1  0.00340059  0.50941700  0.01091607  1
  Ba2+  Ba5  1  0.00121045  0.49824182  0.51883814  1
  Ba2+  Ba6  1  0.00548163  0.75027489  0.01238313  1
  Ba2+  Ba7  1  0.00538861  0.74670517  0.51270685  1
  Ba2+  Ba8  1  0.24734299  0.00083439  0.01165085  1
  Ba2+  Ba9  1  0.24893922  0.00328074  0.51645634  1
  Ba2+  Ba10  1  0.25361862  0.24399396  0.01779133  1
  Ba2+  Ba11  1  0.24477076  0.24118876  0.50950166  1
  Ba2+  Ba12  1  0.25437554  0.50832205  0.01035066  1
  Ba2+  Ba13  1  0.24327621  0.50300689  0.51270858  1
  Ba2+  Ba14  1  0.24928126  0.74706478  0.00704310  1
  Ba2+  Ba15  1  0.24822644  0.75250955  0.51879090  1
  Ba2+  Ba16  1  0.49765442  0.00744694  0.00706632  1
  Ba2+  Ba17  1  0.49420141  -0.00381535  0.51219730  1
  Ba2+  Ba18  1  0.50164567  0.24823401  0.02330428  1
  Ba2+  Ba19  1  0.49597649  0.24613817  0.50967385  1
  Ba2+  Ba20  1  0.49261274  0.49625600  0.01869544  1
  Ba2+  Ba21  1  0.49937290  0.49995649  0.50633436  1
  Ba2+  Ba22  1  0.48841531  0.74916099  0.00123262  1
  Ba2+  Ba23  1  0.49724531  0.75718676  0.50702282  1
  Ba2+  Ba24  1  0.75362812  0.00820086  0.00181809  1
  Ba2+  Ba25  1  0.74833910  -0.00239314  0.51196299  1
  Ba2+  Ba26  1  0.74512219  0.24123447  0.01064875  1
  Ba2+  Ba27  1  0.75628427  0.25445882  0.52299256  1
  Ba2+  Ba28  1  0.74776671  0.49782695  0.01628776  1
  Ba2+  Ba29  1  0.75655810  0.49554353  0.51125228  1
  Ba2+  Ba30  1  0.75868585  0.75205380  0.00719685  1
  Ba2+  Ba31  1  0.74883190  0.75188648  0.50139253  1
  Y3+  Y32  1  0.00253357  0.00251462  0.25433376  1
  Y3+  Y33  1  0.00055343  0.00320929  0.75988051  1
  Y3+  Y34  1  0.00144158  0.24555393  0.25328217  1
  Y3+  Y35  1  0.00103515  0.24673037  0.75952871  1
  Y3+  Y36  1  0.00003163  0.50320690  0.25360713  1
  Y3+  Y37  1  0.00304536  0.49951526  0.75967924  1
  Y3+  Y38  1  0.00104651  0.74867536  0.25464982  1
  Y3+  Y39  1  0.00251019  0.75050558  0.76004745  1
  Y3+  Y40  1  0.24828306  0.00358140  0.25866751  1
  Y3+  Y41  1  0.24983861  0.00050244  0.75580185  1
  Y3+  Y42  1  0.25001667  0.24602304  0.25875900  1
  Y3+  Y43  1  0.24795967  0.24693445  0.75452677  1
  Y3+  Y44  1  0.25148605  0.50217624  0.25370999  1
  Y3+  Y45  1  0.24873743  0.50226351  0.76049381  1
  Y3+  Y46  1  0.24972709  0.74813956  0.25396677  1
  Y3+  Y47  1  0.25045217  0.75020163  0.76147334  1
  Y3+  Y48  1  0.50032745  0.00152591  0.26091808  1
  Y3+  Y49  1  0.49936482  -0.00086566  0.75521776  1
  Y3+  Y50  1  0.49904617  0.24771627  0.25810405  1
  Y3+  Y51  1  0.50073530  0.24808776  0.75417616  1
  Y3+  Y52  1  0.49740814  0.50019428  0.25722443  1
  Y3+  Y53  1  0.49889317  0.50033151  0.75704546  1
  Y3+  Y54  1  0.49847429  0.75027051  0.25971814  1
  Y3+  Y55  1  0.49791959  0.75264965  0.75701831  1
  Y3+  Y56  1  0.74898604  0.00090221  0.25699608  1
  Y3+  Y57  1  0.75018169  0.00149974  0.75931921  1
  Y3+  Y58  1  0.74934577  0.24772317  0.25234951  1
  Y3+  Y59  1  0.75069160  0.24820757  0.75993704  1
  Y3+  Y60  1  0.75113624  0.50085429  0.25660829  1
  Y3+  Y61  1  0.74919984  0.49759422  0.75625620  1
  Y3+  Y62  1  0.75060694  0.75054316  0.25967898  1
  Y3+  Y63  1  0.74925219  0.75298228  0.75715668  1
  Fe3+  Fe64  1  0.12490660  0.87565987  0.37625851  1
  Fe3+  Fe65  1  0.87508348  0.37469370  0.87977706  1
  Fe3+  Fe66  1  0.87718164  0.37388093  0.37302950  1
  Fe3+  Fe67  1  0.87571722  0.12594227  0.37823308  1
  Fe3+  Fe68  1  0.62411307  0.62460554  0.88013220  1
  Fe3+  Fe69  1  0.62634054  0.37388673  0.37679966  1
  Fe3+  Fe70  1  0.12547270  0.87611512  0.87638515  1
  Fe3+  Fe71  1  0.62323056  0.37405608  0.87689651  1
  Fe3+  Fe72  1  0.37286439  0.37509840  0.37865716  1
  Fe3+  Fe73  1  0.37509046  0.37322953  0.87570514  1
  Fe3+  Fe74  1  0.12504462  0.62474877  0.37472754  1
  Fe3+  Fe75  1  0.62450482  0.87585655  0.88052051  1
  Fe3+  Fe76  1  0.12652569  0.37390676  0.88035863  1
  Fe3+  Fe77  1  0.37534605  0.12567688  0.87432625  1
  Fe3+  Fe78  1  0.62493436  0.62429971  0.37919396  1
  Fe3+  Fe79  1  0.87693097  0.87552131  0.38011885  1
  Fe3+  Fe80  1  0.62619990  0.12536325  0.38035138  1
  Fe3+  Fe81  1  0.12351420  0.37446958  0.37421977  1
  Fe3+  Fe82  1  0.87424152  0.62475639  0.87720911  1
  Fe3+  Fe83  1  0.37243994  0.87505681  0.37650556  1
  Fe3+  Fe84  1  0.37327936  0.37488507  0.63373608  1
  Fe3+  Fe85  1  0.87543200  0.62553165  0.63840797  1
  Fe3+  Fe86  1  0.12615046  0.37466893  0.13296265  1
  Fe3+  Fe87  1  0.62510063  0.62529481  0.63519708  1
  Fe3+  Fe88  1  0.62404346  0.62678510  0.13537369  1
  Fe3+  Fe89  1  0.87571980  0.37391369  0.13252885  1
  Fe3+  Fe90  1  0.37467854  0.87623630  0.13766223  1
  Fe3+  Fe91  1  0.87554478  0.87628381  0.13817131  1
  Fe3+  Fe92  1  0.37438488  0.62533438  0.63739108  1
  Fe3+  Fe93  1  0.87628972  0.87541263  0.63640477  1
  Fe3+  Fe94  1  0.62544002  0.12469183  0.63561337  1
  Fe3+  Fe95  1  0.62443556  0.87560084  0.13487648  1
  Cu2+  Cu96  1  0.12528301  0.62518634  0.87268350  1
  Cu2+  Cu97  1  0.87484500  0.12532592  0.87097518  1
  Cu2+  Cu98  1  0.37367985  0.62501335  0.36747505  1
  Cu2+  Cu99  1  0.37476464  0.87638583  0.86494862  1
  Cu2+  Cu100  1  0.87613504  0.62453507  0.36514510  1
  Cu2+  Cu101  1  0.87542347  0.87528481  0.86377391  1
  Cu2+  Cu102  1  0.62310480  0.12558056  0.87050413  1
  Cu2+  Cu103  1  0.37598983  0.62413990  0.87130587  1
  Cu2+  Cu104  1  0.12696813  0.12510501  0.87217419  1
  Cu2+  Cu105  1  0.62488711  0.87560158  0.37429431  1
  Cu2+  Cu106  1  0.12344572  0.12519458  0.37109079  1
  Cu2+  Cu107  1  0.37439854  0.12460180  0.37424265  1
  Cu2+  Cu108  1  0.62457629  0.12283134  0.14316069  1
  Cu2+  Cu109  1  0.87466458  0.12373741  0.14220955  1
  Cu2+  Cu110  1  0.12594069  0.37499429  0.65407317  1
  Cu2+  Cu111  1  0.12476244  0.12448093  0.64548917  1
  Cu2+  Cu112  1  0.12507910  0.62546990  0.65580697  1
  Cu2+  Cu113  1  0.87383833  0.62577934  0.15002617  1
  Cu2+  Cu114  1  0.12554839  0.87545643  0.14990538  1
  Cu2+  Cu115  1  0.12601873  0.62536917  0.14082285  1
  Cu2+  Cu116  1  0.62462971  0.37512242  0.15188997  1
  Cu2+  Cu117  1  0.37381498  0.87471433  0.65257043  1
  Cu2+  Cu118  1  0.37623596  0.62663639  0.14372118  1
  Cu2+  Cu119  1  0.62550805  0.87447995  0.64151724  1
  Cu2+  Cu120  1  0.62417269  0.37529694  0.64712548  1
  Cu2+  Cu121  1  0.87484697  0.12466972  0.65159206  1
  Cu2+  Cu122  1  0.12559205  0.12454264  0.14070946  1
  Cu2+  Cu123  1  0.37489055  0.12457675  0.64072576  1
  Cu2+  Cu124  1  0.37537452  0.12365939  0.15549627  1
  Cu2+  Cu125  1  0.87626414  0.37517394  0.65766316  1
  Cu2+  Cu126  1  0.12439850  0.87500715  0.65267508  1
  Cu2+  Cu127  1  0.37435099  0.37386079  0.15382388  1
  O2-  O128  1  0.12740597  0.12473878  0.00665066  1
  O2-  O129  1  0.12295718  0.12552390  0.50750753  1
  O2-  O130  1  0.12773602  0.37444360  0.00617711  1
  O2-  O131  1  0.12197704  0.37624476  0.49450017  1
  O2-  O132  1  0.12588535  0.62557259  0.00664574  1
  O2-  O133  1  0.12370441  0.62394940  0.49538668  1
  O2-  O134  1  0.12482194  0.87520973  -0.00280706  1
  O2-  O135  1  0.12467122  0.87439292  0.49661628  1
  O2-  O136  1  0.37653251  0.12705440  -0.00487319  1
  O2-  O137  1  0.37532002  0.12474795  0.50702307  1
  O2-  O138  1  0.37679234  0.37206058  -0.00445851  1
  O2-  O139  1  0.37213931  0.37665959  0.50571154  1
  O2-  O140  1  0.37728837  0.62473284  0.00718140  1
  O2-  O141  1  0.37388539  0.62472897  0.51691564  1
  O2-  O142  1  0.37611983  0.87671004  0.01705786  1
  O2-  O143  1  0.37176564  0.87405200  0.49767187  1
  O2-  O144  1  0.62292640  0.12443154  0.00696678  1
  O2-  O145  1  0.62753538  0.12593734  0.50701695  1
  O2-  O146  1  0.62183581  0.37548540  -0.00315993  1
  O2-  O147  1  0.62863282  0.37602349  0.49668406  1
  O2-  O148  1  0.62420239  0.62538609  0.00701230  1
  O2-  O149  1  0.62586966  0.62419625  0.50758611  1
  O2-  O150  1  0.62461593  0.87501862  0.00807410  1
  O2-  O151  1  0.62610522  0.87402219  0.50808342  1
  O2-  O152  1  0.87412015  0.12483375  0.00634677  1
  O2-  O153  1  0.87535365  0.12796974  0.49839788  1
  O2-  O154  1  0.87359147  0.37528586  0.00547888  1
  O2-  O155  1  0.87795359  0.37462018  0.49342727  1
  O2-  O156  1  0.87201031  0.62397703  -0.00229336  1
  O2-  O157  1  0.87589900  0.62488185  0.51802440  1
  O2-  O158  1  0.87462541  0.87579308  0.01768352  1
  O2-  O159  1  0.87655017  0.87425046  0.50795175  1
  O2-  O160  1  0.12548299  -0.00061075  0.16518054  1
  O2-  O161  1  0.12433102  -0.00122349  0.66541376  1
  O2-  O162  1  0.12550375  0.25267439  0.16258740  1
  O2-  O163  1  0.12446548  0.25096059  0.66583956  1
  O2-  O164  1  0.12536010  0.49713154  0.16179041  1
  O2-  O165  1  0.12506220  0.50010764  0.66660612  1
  O2-  O166  1  0.12491268  0.75088929  0.16441652  1
  O2-  O167  1  0.12417333  0.75014543  0.66535653  1
  O2-  O168  1  0.37576396  -0.00044538  0.16726442  1
  O2-  O169  1  0.37512451  -0.00170192  0.66414073  1
  O2-  O170  1  0.37585041  0.24852497  0.16640705  1
  O2-  O171  1  0.37528120  0.25286067  0.65946441  1
  O2-  O172  1  0.37641378  0.49896713  0.16480619  1
  O2-  O173  1  0.37455830  0.49949945  0.66449779  1
  O2-  O174  1  0.37622075  0.75281624  0.16745621  1
  O2-  O175  1  0.37516871  0.74925098  0.66734221  1
  O2-  O176  1  0.62488063  -0.00369671  0.16720968  1
  O2-  O177  1  0.62617627  0.00258372  0.66441036  1
  O2-  O178  1  0.62424257  0.25081985  0.16471818  1
  O2-  O179  1  0.62512778  0.24887391  0.66115749  1
  O2-  O180  1  0.62482858  0.50190483  0.16248766  1
  O2-  O181  1  0.62519319  0.50195960  0.66362030  1
  O2-  O182  1  0.62543915  0.75073542  0.16472692  1
  O2-  O183  1  0.62528177  0.74638388  0.66759762  1
  O2-  O184  1  0.87446743  -0.00201246  0.17035704  1
  O2-  O185  1  0.87488198  -0.00144798  0.66250631  1
  O2-  O186  1  0.87478363  0.25235066  0.16057916  1
  O2-  O187  1  0.87525883  0.25070731  0.66521680  1
  O2-  O188  1  0.87392309  0.49844326  0.16114444  1
  O2-  O189  1  0.87519036  0.50057305  0.66656879  1
  O2-  O190  1  0.87373260  0.75135492  0.16829881  1
  O2-  O191  1  0.87515955  0.75061966  0.66622333  1
  O2-  O192  1  -0.00006261  0.12437766  0.16163416  1
  O2-  O193  1  -0.00123316  0.12539421  0.66770731  1
  O2-  O194  1  0.00000879  0.37569597  0.15553245  1
  O2-  O195  1  0.00127435  0.37571294  0.66884682  1
  O2-  O196  1  -0.00152991  0.62545058  0.16100310  1
  O2-  O197  1  0.00007419  0.62446861  0.66713935  1
  O2-  O198  1  0.00070234  0.87448319  0.16457564  1
  O2-  O199  1  -0.00144680  0.87434697  0.66347848  1
  O2-  O200  1  0.25170689  0.12509586  0.16545247  1
  O2-  O201  1  0.24973650  0.12480750  0.66378280  1
  O2-  O202  1  0.24931035  0.37460307  0.16297062  1
  O2-  O203  1  0.25128255  0.37580326  0.66269696  1
  O2-  O204  1  0.25137568  0.62500337  0.16338817  1
  O2-  O205  1  0.24990478  0.62515446  0.66647786  1
  O2-  O206  1  0.24991052  0.87532911  0.16288867  1
  O2-  O207  1  0.24889072  0.87424767  0.66433349  1
  O2-  O208  1  0.49896287  0.12427604  0.16934708  1
  O2-  O209  1  0.50273729  0.12444646  0.66064889  1
  O2-  O210  1  0.49930101  0.37492205  0.16859624  1
  O2-  O211  1  0.49735643  0.37663514  0.65820031  1
  O2-  O212  1  0.50321795  0.62541382  0.16814825  1
  O2-  O213  1  0.50066020  0.62458842  0.66406999  1
  O2-  O214  1  0.50143242  0.87480477  0.16718746  1
  O2-  O215  1  0.49867834  0.87431516  0.66529617  1
  O2-  O216  1  0.74979643  0.12416717  0.16579828  1
  O2-  O217  1  0.74893501  0.12568806  0.66500219  1
  O2-  O218  1  0.75163635  0.37555181  0.16091525  1
  O2-  O219  1  0.75028104  0.37551489  0.66534283  1
  O2-  O220  1  0.74722365  0.62553996  0.16533702  1
  O2-  O221  1  0.74939868  0.62454443  0.66585342  1
  O2-  O222  1  0.74835511  0.87409053  0.16710309  1
  O2-  O223  1  0.75380957  0.87449325  0.66615586  1
  O2-  O224  1  0.12391664  -0.00115388  0.34744223  1
  O2-  O225  1  0.12510215  -0.00086381  0.84780222  1
  O2-  O226  1  0.12445540  0.25117216  0.34466061  1
  O2-  O227  1  0.12520020  0.25234143  0.84923358  1
  O2-  O228  1  0.12465534  0.49999840  0.34265601  1
  O2-  O229  1  0.12536239  0.49697885  0.85094549  1
  O2-  O230  1  0.12439148  0.74993425  0.34552808  1
  O2-  O231  1  0.12506304  0.75181699  0.84825320  1
  O2-  O232  1  0.37513883  -0.00156032  0.34836456  1
  O2-  O233  1  0.37644142  0.00077641  0.84712491  1
  O2-  O234  1  0.37487868  0.25291675  0.35093084  1
  O2-  O235  1  0.37523992  0.25029917  0.83974684  1
  O2-  O236  1  0.37511334  0.49845836  0.34943279  1
  O2-  O237  1  0.37584967  0.49748309  0.84583786  1
  O2-  O238  1  0.37500685  0.75004938  0.34858008  1
  O2-  O239  1  0.37616022  0.75135586  0.85092635  1
  O2-  O240  1  0.62600462  0.00321286  0.35075958  1
  O2-  O241  1  0.62489516  -0.00299950  0.84938727  1
  O2-  O242  1  0.62564826  0.24925687  0.34736570  1
  O2-  O243  1  0.62487555  0.25202840  0.84382846  1
  O2-  O244  1  0.62505659  0.50047028  0.34707126  1
  O2-  O245  1  0.62475420  0.50071456  0.84710654  1
  O2-  O246  1  0.62551798  0.74658770  0.34963599  1
  O2-  O247  1  0.62569099  0.75035252  0.85261374  1
  O2-  O248  1  0.87413351  -0.00051587  0.35197654  1
  O2-  O249  1  0.87408184  -0.00088298  0.84714445  1
  O2-  O250  1  0.87462719  0.24973168  0.34094059  1
  O2-  O251  1  0.87480680  0.25358046  0.84934303  1
  O2-  O252  1  0.87500072  0.49920905  0.34450471  1
  O2-  O253  1  0.87393123  0.49852384  0.84816250  1
  O2-  O254  1  0.87455289  0.75113039  0.35270738  1
  O2-  O255  1  0.87303048  0.74896456  0.84797576  1
  O2-  O256  1  -0.00232791  0.12495728  0.34368971  1
  O2-  O257  1  0.00036218  0.12520227  0.85136437  1
  O2-  O258  1  -0.00005076  0.37523212  0.33671827  1
  O2-  O259  1  0.00023879  0.37566389  0.85437198  1
  O2-  O260  1  0.00109316  0.62490683  0.34394010  1
  O2-  O261  1  -0.00223391  0.62453205  0.84950112  1
  O2-  O262  1  -0.00101619  0.87432582  0.34680407  1
  O2-  O263  1  0.00014111  0.87500919  0.84705231  1
  O2-  O264  1  0.24900502  0.12550620  0.34970335  1
  O2-  O265  1  0.25239343  0.12522121  0.84521744  1
  O2-  O266  1  0.25012621  0.37553838  0.34671281  1
  O2-  O267  1  0.24947479  0.37484607  0.84619746  1
  O2-  O268  1  0.24874368  0.62410729  0.34557532  1
  O2-  O269  1  0.25072807  0.62455567  0.84992605  1
  O2-  O270  1  0.24896510  0.87451120  0.34335758  1
  O2-  O271  1  0.25016927  0.87537443  0.84805023  1
  O2-  O272  1  0.50329223  0.12585939  0.35315461  1
  O2-  O273  1  0.49822017  0.12503716  0.84206337  1
  O2-  O274  1  0.49924457  0.37570908  0.35265705  1
  O2-  O275  1  0.49996810  0.37493481  0.84007338  1
  O2-  O276  1  0.50119690  0.62423262  0.35300863  1
  O2-  O277  1  0.50379733  0.62549390  0.84714470  1
  O2-  O278  1  0.49788178  0.87407320  0.34957237  1
  O2-  O279  1  0.50168396  0.87417730  0.85017617  1
  O2-  O280  1  0.74948743  0.12542067  0.34757968  1
  O2-  O281  1  0.74933034  0.12515680  0.84898654  1
  O2-  O282  1  0.75049156  0.37572976  0.34286994  1
  O2-  O283  1  0.75016836  0.37567850  0.84940023  1
  O2-  O284  1  0.74875280  0.62428779  0.35087240  1
  O2-  O285  1  0.74772626  0.62473996  0.84803455  1
  O2-  O286  1  0.75344785  0.87406789  0.35099236  1
  O2-  O287  1  0.74834272  0.87456466  0.85111170  1
