# generated using pymatgen
data_BaYFeCuO5
_symmetry_space_group_name_H-M   'P 1'
_cell_length_a   15.67091783
_cell_length_b   15.67388246
_cell_length_c   15.49265397
_cell_angle_alpha   90.00715939
_cell_angle_beta   90.00273382
_cell_angle_gamma   90.00462502
_symmetry_Int_Tables_number   1
_chemical_formula_structural   BaYFeCuO5
_chemical_formula_sum   'Ba32 Y32 Fe32 Cu32 O160'
_cell_volume   3805.36951517
_cell_formula_units_Z   32
loop_
 _symmetry_equiv_pos_site_id
 _symmetry_equiv_pos_as_xyz
  1  'x, y, z'
loop_
 _atom_type_symbol
 _atom_type_oxidation_number
  Ba2+  2.0
  Y3+  3.0
  Fe3+  3.0
  Cu2+  2.0
  O2-  -2.0
loop_
 _atom_site_type_symbol
 _atom_site_label
 _atom_site_symmetry_multiplicity
 _atom_site_fract_x
 _atom_site_fract_y
 _atom_site_fract_z
 _atom_site_occupancy
  Ba2+  Ba0  1  0.00487943  0.00468601  0.02316447  1
  Ba2+  Ba1  1  -0.00831505  0.00316077  0.50100726  1
  Ba2+  Ba2  1  0.00198625  0.25269746  0.02259576  1
  Ba2+  Ba3  1  -0.00599392  0.24279912  0.50635183  1
  Ba2+  Ba4  1  0.00374204  0.49538481  0.01161342  1
  Ba2+  Ba5  1  -0.00974595  0.49978243  0.51776273  1
  Ba2+  Ba6  1  0.00507484  0.74549828  0.01293594  1
  Ba2+  Ba7  1  -0.01090510  0.75346250  0.51121646  1
  Ba2+  Ba8  1  0.25068338  -0.00016500  0.01749227  1
  Ba2+  Ba9  1  0.25378984  0.00182448  0.51233528  1
  Ba2+  Ba10  1  0.24821730  0.25335997  -0.00051108  1
  Ba2+  Ba11  1  0.24896855  0.24169952  0.50632102  1
  Ba2+  Ba12  1  0.25035345  0.49983005  0.00667207  1
  Ba2+  Ba13  1  0.25613952  0.50669973  0.50676606  1
  Ba2+  Ba14  1  0.25247474  0.74794962  0.02150915  1
  Ba2+  Ba15  1  0.26134302  0.74945798  0.51089719  1
  Ba2+  Ba16  1  0.50149908  0.00210049  0.01146962  1
  Ba2+  Ba17  1  0.49789389  -0.00703366  0.52267601  1
  Ba2+  Ba18  1  0.50187105  0.24906624  -0.00920645  1
  Ba2+  Ba19  1  0.49692687  0.24582715  0.51186803  1
  Ba2+  Ba20  1  0.49663805  0.50162453  0.00033505  1
  Ba2+  Ba21  1  0.50192874  0.51271748  0.50638679  1
  Ba2+  Ba22  1  0.49733544  0.74898026  0.02113289  1
  Ba2+  Ba23  1  0.50261805  0.74691440  0.51617326  1
  Ba2+  Ba24  1  0.74293008  0.00649791  0.01599693  1
  Ba2+  Ba25  1  0.75728007  -0.00556402  0.51106587  1
  Ba2+  Ba26  1  0.74783952  0.24853754  0.01306752  1
  Ba2+  Ba27  1  0.75999098  0.24775095  0.51252111  1
  Ba2+  Ba28  1  0.74947695  0.49762685  0.00628761  1
  Ba2+  Ba29  1  0.75052784  0.50782902  0.51724521  1
  Ba2+  Ba30  1  0.74484376  0.74628976  0.01231270  1
  Ba2+  Ba31  1  0.74779568  0.75100194  0.51781234  1
  Y3+  Y32  1  -0.00144230  0.00231922  0.26032644  1
  Y3+  Y33  1  -0.00264612  -0.00070729  0.75339312  1
  Y3+  Y34  1  -0.00022783  0.24819153  0.25804168  1
  Y3+  Y35  1  -0.00108402  0.25058427  0.75606328  1
  Y3+  Y36  1  0.00163709  0.49809258  0.25433947  1
  Y3+  Y37  1  -0.00140191  0.49971902  0.75970104  1
  Y3+  Y38  1  0.00041539  0.75178076  0.25741024  1
  Y3+  Y39  1  -0.00340827  0.75003760  0.75691817  1
  Y3+  Y40  1  0.24797556  -0.00042479  0.25660940  1
  Y3+  Y41  1  0.25244465  0.00067181  0.75681157  1
  Y3+  Y42  1  0.24664749  0.25032039  0.25764329  1
  Y3+  Y43  1  0.25076070  0.25054093  0.75848746  1
  Y3+  Y44  1  0.25056804  0.50227068  0.25599112  1
  Y3+  Y45  1  0.25199808  0.49998173  0.76022895  1
  Y3+  Y46  1  0.25190820  0.74878100  0.25626803  1
  Y3+  Y47  1  0.25337801  0.74819395  0.75577291  1
  Y3+  Y48  1  0.50244541  -0.00179895  0.25245934  1
  Y3+  Y49  1  0.49973283  0.00051699  0.75955357  1
  Y3+  Y50  1  0.50201386  0.24947186  0.25900036  1
  Y3+  Y51  1  0.50000085  0.24873562  0.75856540  1
  Y3+  Y52  1  0.49957260  0.50550640  0.25898287  1
  Y3+  Y53  1  0.49917970  0.50236005  0.75702193  1
  Y3+  Y54  1  0.50016033  0.74708112  0.25734350  1
  Y3+  Y55  1  0.49903735  0.74831408  0.75476837  1
  Y3+  Y56  1  0.75076469  0.00152528  0.25705407  1
  Y3+  Y57  1  0.75059887  -0.00064555  0.75631564  1
  Y3+  Y58  1  0.75183588  0.24799563  0.25643700  1
  Y3+  Y59  1  0.75046246  0.24859327  0.75814266  1
  Y3+  Y60  1  0.74785571  0.50115266  0.25729059  1
  Y3+  Y61  1  0.75080064  0.50177869  0.75759141  1
  Y3+  Y62  1  0.74714341  0.75027839  0.25802001  1
  Y3+  Y63  1  0.75050859  0.74974509  0.75556381  1
  Fe3+  Fe64  1  0.12508331  0.87501973  0.37944612  1
  Fe3+  Fe65  1  0.62547761  0.12388794  0.38118620  1
  Fe3+  Fe66  1  0.62553022  0.37549625  0.38267516  1
  Fe3+  Fe67  1  0.37627134  0.12315226  0.37702399  1
  Fe3+  Fe68  1  0.12381552  0.12421255  0.87596104  1
  Fe3+  Fe69  1  0.87589350  0.12421720  0.87822919  1
  Fe3+  Fe70  1  0.12399730  0.62553827  0.38025822  1
  Fe3+  Fe71  1  0.62467820  0.62584979  0.87611269  1
  Fe3+  Fe72  1  0.37468519  0.87405535  0.87690730  1
  Fe3+  Fe73  1  0.87514906  0.37410391  0.87644722  1
  Fe3+  Fe74  1  0.62492363  0.87483225  0.37635520  1
  Fe3+  Fe75  1  0.87436519  0.62563138  0.37497537  1
  Fe3+  Fe76  1  0.12449264  0.37542321  0.38128939  1
  Fe3+  Fe77  1  0.62472055  0.87468557  0.87682216  1
  Fe3+  Fe78  1  0.12518656  0.87517746  0.87588733  1
  Fe3+  Fe79  1  0.37659359  0.87512853  0.37487653  1
  Fe3+  Fe80  1  0.12534225  0.62568395  0.87492138  1
  Fe3+  Fe81  1  0.87523525  0.87511896  0.88145678  1
  Fe3+  Fe82  1  0.37547650  0.37532458  0.38181830  1
  Fe3+  Fe83  1  0.87428960  0.37606284  0.37611027  1
  Fe3+  Fe84  1  0.62552561  0.37524105  0.63522161  1
  Fe3+  Fe85  1  0.12461143  0.62527790  0.63365485  1
  Fe3+  Fe86  1  0.37592801  0.37446325  0.13983974  1
  Fe3+  Fe87  1  0.12520024  0.87470507  0.63259529  1
  Fe3+  Fe88  1  0.37502890  0.37521523  0.63552702  1
  Fe3+  Fe89  1  0.62313620  0.37544220  0.13928450  1
  Fe3+  Fe90  1  0.87477038  0.62403838  0.13611798  1
  Fe3+  Fe91  1  0.37527105  0.12743397  0.13780070  1
  Fe3+  Fe92  1  0.62582842  0.12399590  0.63531620  1
  Fe3+  Fe93  1  0.87447857  0.87522277  0.13504324  1
  Fe3+  Fe94  1  0.12454446  0.37505668  0.63390089  1
  Fe3+  Fe95  1  0.12440808  0.12439649  0.63627715  1
  Cu2+  Cu96  1  0.62574105  0.37542633  0.85932931  1
  Cu2+  Cu97  1  0.37499719  0.62626241  0.37180007  1
  Cu2+  Cu98  1  0.62592356  0.62604088  0.37275544  1
  Cu2+  Cu99  1  0.37437879  0.12396451  0.86434677  1
  Cu2+  Cu100  1  0.87339495  0.12518015  0.37009754  1
  Cu2+  Cu101  1  0.12415775  0.37461765  0.87119317  1
  Cu2+  Cu102  1  0.37494052  0.62654145  0.87255788  1
  Cu2+  Cu103  1  0.62629072  0.12399612  0.87097595  1
  Cu2+  Cu104  1  0.87370295  0.87417104  0.36963128  1
  Cu2+  Cu105  1  0.12537179  0.12461186  0.36584601  1
  Cu2+  Cu106  1  0.37556383  0.37518979  0.86096088  1
  Cu2+  Cu107  1  0.87494537  0.62555755  0.86709544  1
  Cu2+  Cu108  1  0.62511694  0.62403178  0.14986935  1
  Cu2+  Cu109  1  0.12671183  0.37519556  0.14308048  1
  Cu2+  Cu110  1  0.62485980  0.87515250  0.65200847  1
  Cu2+  Cu111  1  0.87473991  0.37443992  0.65133040  1
  Cu2+  Cu112  1  0.87515623  0.87523378  0.64249882  1
  Cu2+  Cu113  1  0.37505043  0.12557440  0.65224052  1
  Cu2+  Cu114  1  0.87561809  0.62520522  0.65401362  1
  Cu2+  Cu115  1  0.87494943  0.12431839  0.64373565  1
  Cu2+  Cu116  1  0.87432234  0.37519063  0.15211575  1
  Cu2+  Cu117  1  0.37520161  0.62366252  0.14172667  1
  Cu2+  Cu118  1  0.62360065  0.12713821  0.14319833  1
  Cu2+  Cu119  1  0.87501417  0.12530780  0.14963062  1
  Cu2+  Cu120  1  0.12435414  0.87502155  0.15349856  1
  Cu2+  Cu121  1  0.62523935  0.62490529  0.64366774  1
  Cu2+  Cu122  1  0.37463690  0.87463324  0.65205377  1
  Cu2+  Cu123  1  0.37511635  0.87552419  0.15095802  1
  Cu2+  Cu124  1  0.12467663  0.62489293  0.15323108  1
  Cu2+  Cu125  1  0.12590866  0.12560787  0.15447532  1
  Cu2+  Cu126  1  0.62555851  0.87476779  0.14862687  1
  Cu2+  Cu127  1  0.37476202  0.62382471  0.64293917  1
  O2-  O128  1  0.12476388  0.12459475  -0.00391077  1
  O2-  O129  1  0.12521872  0.12408542  0.51581042  1
  O2-  O130  1  0.12555042  0.37475097  0.00712838  1
  O2-  O131  1  0.12415567  0.37515063  0.50746948  1
  O2-  O132  1  0.12576762  0.62557578  -0.00446254  1
  O2-  O133  1  0.12334504  0.62527957  0.50644010  1
  O2-  O134  1  0.12541173  0.87530844  -0.00441504  1
  O2-  O135  1  0.12498328  0.87531329  0.50584551  1
  O2-  O136  1  0.37472780  0.12860067  0.01759258  1
  O2-  O137  1  0.37663890  0.12167649  0.49749501  1
  O2-  O138  1  0.37644237  0.37297117  0.01987899  1
  O2-  O139  1  0.37477880  0.37548489  0.50882794  1
  O2-  O140  1  0.37436362  0.62512614  0.00768579  1
  O2-  O141  1  0.37494057  0.62568018  0.50739978  1
  O2-  O142  1  0.37309181  0.87454477  -0.00299605  1
  O2-  O143  1  0.37656437  0.87604746  0.49506471  1
  O2-  O144  1  0.62376160  0.12643649  0.00654170  1
  O2-  O145  1  0.62508816  0.12302762  0.50729258  1
  O2-  O146  1  0.62242427  0.37448968  0.01918197  1
  O2-  O147  1  0.62645333  0.37543767  0.50877271  1
  O2-  O148  1  0.62426074  0.62474190  -0.00322073  1
  O2-  O149  1  0.62698043  0.62615056  0.50827562  1
  O2-  O150  1  0.62472902  0.87486413  -0.00311804  1
  O2-  O151  1  0.62461874  0.87540642  0.49646737  1
  O2-  O152  1  0.87686816  0.12493713  -0.00162930  1
  O2-  O153  1  0.87365309  0.12428596  0.50556526  1
  O2-  O154  1  0.87538486  0.37364475  -0.00339027  1
  O2-  O155  1  0.87456495  0.37630300  0.49632623  1
  O2-  O156  1  0.87524024  0.62440413  0.01568874  1
  O2-  O157  1  0.87464463  0.62571801  0.49566618  1
  O2-  O158  1  0.87627530  0.87608593  0.00702855  1
  O2-  O159  1  0.87459418  0.87420428  0.50631472  1
  O2-  O160  1  0.12495512  0.00021660  0.16502056  1
  O2-  O161  1  0.12595272  -0.00135551  0.66257848  1
  O2-  O162  1  0.12473088  0.24914325  0.17002073  1
  O2-  O163  1  0.12529392  0.25130615  0.66262950  1
  O2-  O164  1  0.12543710  0.50132227  0.16823348  1
  O2-  O165  1  0.12345727  0.49958890  0.66009482  1
  O2-  O166  1  0.12434825  0.75005774  0.16542252  1
  O2-  O167  1  0.12577214  0.74975217  0.65801970  1
  O2-  O168  1  0.37442967  0.00075250  0.16254679  1
  O2-  O169  1  0.37487804  -0.00006600  0.66395001  1
  O2-  O170  1  0.37484909  0.25026692  0.17590491  1
  O2-  O171  1  0.37451896  0.25250880  0.66256457  1
  O2-  O172  1  0.37483922  0.49856256  0.17007628  1
  O2-  O173  1  0.37504820  0.49626703  0.66548315  1
  O2-  O174  1  0.37434190  0.75135976  0.16332109  1
  O2-  O175  1  0.37401189  0.75040695  0.66222067  1
  O2-  O176  1  0.62559643  -0.00053418  0.16327149  1
  O2-  O177  1  0.62431566  0.00118572  0.66264500  1
  O2-  O178  1  0.62497168  0.25259619  0.17380044  1
  O2-  O179  1  0.62519144  0.24967409  0.66028371  1
  O2-  O180  1  0.62463769  0.49946183  0.17012076  1
  O2-  O181  1  0.62512655  0.49673351  0.66439129  1
  O2-  O182  1  0.62555367  0.74951160  0.16260186  1
  O2-  O183  1  0.62563081  0.75142205  0.66377601  1
  O2-  O184  1  0.87506203  -0.00120026  0.16345933  1
  O2-  O185  1  0.87508006  0.00004248  0.66564590  1
  O2-  O186  1  0.87529985  0.25014375  0.16614155  1
  O2-  O187  1  0.87493610  0.25022133  0.66298739  1
  O2-  O188  1  0.87524529  0.50047769  0.16574260  1
  O2-  O189  1  0.87577843  0.50002791  0.66379868  1
  O2-  O190  1  0.87574111  0.75101649  0.16203318  1
  O2-  O191  1  0.87504774  0.74915608  0.66616428  1
  O2-  O192  1  0.00083600  0.12509452  0.16512886  1
  O2-  O193  1  0.00169626  0.12482548  0.66450076  1
  O2-  O194  1  -0.00120523  0.37525302  0.16481315  1
  O2-  O195  1  0.00126970  0.37467040  0.66138473  1
  O2-  O196  1  -0.00060429  0.62511034  0.16591189  1
  O2-  O197  1  0.00191883  0.62570344  0.66261408  1
  O2-  O198  1  -0.00183299  0.87543025  0.16502815  1
  O2-  O199  1  0.00369735  0.87412834  0.66397167  1
  O2-  O200  1  0.25067731  0.12535317  0.16816848  1
  O2-  O201  1  0.24931704  0.12548010  0.66439051  1
  O2-  O202  1  0.25226330  0.37514198  0.17229272  1
  O2-  O203  1  0.24936140  0.37534053  0.66199917  1
  O2-  O204  1  0.24816477  0.62516697  0.16792169  1
  O2-  O205  1  0.24644999  0.62346848  0.66223392  1
  O2-  O206  1  0.24902779  0.87499062  0.16662577  1
  O2-  O207  1  0.24851074  0.87501502  0.65995070  1
  O2-  O208  1  0.49797803  0.12553959  0.16996629  1
  O2-  O209  1  0.50163607  0.12576860  0.66270499  1
  O2-  O210  1  0.49948667  0.37553499  0.17611682  1
  O2-  O211  1  0.50017016  0.37337921  0.66126648  1
  O2-  O212  1  0.50179366  0.62489889  0.16647272  1
  O2-  O213  1  0.49964362  0.62460494  0.66474462  1
  O2-  O214  1  0.50082379  0.87550757  0.16238393  1
  O2-  O215  1  0.49920967  0.87484350  0.66365197  1
  O2-  O216  1  0.75054192  0.12615719  0.16444130  1
  O2-  O217  1  0.74742262  0.12460570  0.66411024  1
  O2-  O218  1  0.74932820  0.37521122  0.16551037  1
  O2-  O219  1  0.74887585  0.37441564  0.66273079  1
  O2-  O220  1  0.75045751  0.62470511  0.16418556  1
  O2-  O221  1  0.75189079  0.62469917  0.66543194  1
  O2-  O222  1  0.75176463  0.87491347  0.16128287  1
  O2-  O223  1  0.74896066  0.87535411  0.66646144  1
  O2-  O224  1  0.12493964  -0.00177262  0.35007901  1
  O2-  O225  1  0.12457551  -0.00063533  0.84232896  1
  O2-  O226  1  0.12504640  0.25207399  0.35410391  1
  O2-  O227  1  0.12534677  0.24759579  0.84445029  1
  O2-  O228  1  0.12519650  0.49983952  0.35243681  1
  O2-  O229  1  0.12506205  0.50164685  0.84449398  1
  O2-  O230  1  0.12460507  0.75009683  0.35045805  1
  O2-  O231  1  0.12418291  0.75090124  0.84071476  1
  O2-  O232  1  0.37527811  -0.00021588  0.34266381  1
  O2-  O233  1  0.37465839  -0.00131457  0.84715117  1
  O2-  O234  1  0.37525785  0.25101158  0.35602070  1
  O2-  O235  1  0.37531895  0.24991982  0.84744559  1
  O2-  O236  1  0.37470144  0.49713435  0.35277543  1
  O2-  O237  1  0.37501632  0.49919343  0.84914319  1
  O2-  O238  1  0.37410139  0.75220710  0.34554230  1
  O2-  O239  1  0.37488792  0.75190984  0.84380841  1
  O2-  O240  1  0.62476862  0.00143868  0.34635510  1
  O2-  O241  1  0.62574185  -0.00260302  0.84497500  1
  O2-  O242  1  0.62453747  0.24997533  0.35645933  1
  O2-  O243  1  0.62484575  0.25129566  0.84495624  1
  O2-  O244  1  0.62443414  0.49742104  0.35287356  1
  O2-  O245  1  0.62555656  0.50056902  0.84739556  1
  O2-  O246  1  0.62507048  0.75146684  0.34577136  1
  O2-  O247  1  0.62540218  0.75049212  0.84445699  1
  O2-  O248  1  0.87453900  0.00016714  0.34742497  1
  O2-  O249  1  0.87524352  -0.00178325  0.84717136  1
  O2-  O250  1  0.87495531  0.25232496  0.34896470  1
  O2-  O251  1  0.87504742  0.24899593  0.84443975  1
  O2-  O252  1  0.87578505  0.50007466  0.34531842  1
  O2-  O253  1  0.87459004  0.49971296  0.84778467  1
  O2-  O254  1  0.87579696  0.74821485  0.34335208  1
  O2-  O255  1  0.87576287  0.75217006  0.85050751  1
  O2-  O256  1  0.00085265  0.12509939  0.34979433  1
  O2-  O257  1  -0.00074422  0.12391253  0.84288545  1
  O2-  O258  1  0.00135070  0.37538632  0.34847906  1
  O2-  O259  1  -0.00228108  0.37518137  0.84371080  1
  O2-  O260  1  0.00161464  0.62505678  0.34769994  1
  O2-  O261  1  0.00055181  0.62549947  0.84594777  1
  O2-  O262  1  0.00261603  0.87499033  0.34996972  1
  O2-  O263  1  -0.00151588  0.87482169  0.84648185  1
  O2-  O264  1  0.25151027  0.12516764  0.35009255  1
  O2-  O265  1  0.24922852  0.12493375  0.84664824  1
  O2-  O266  1  0.24966708  0.37473230  0.35564658  1
  O2-  O267  1  0.25151947  0.37455033  0.84683060  1
  O2-  O268  1  0.24657120  0.62510963  0.35219860  1
  O2-  O269  1  0.24869994  0.62518692  0.84428965  1
  O2-  O270  1  0.24898428  0.87538696  0.35010708  1
  O2-  O271  1  0.24967779  0.87492211  0.84188597  1
  O2-  O272  1  0.50159421  0.12584108  0.34999776  1
  O2-  O273  1  0.49883598  0.12504921  0.84760511  1
  O2-  O274  1  0.50015903  0.37397684  0.35768423  1
  O2-  O275  1  0.50059715  0.37475255  0.84652195  1
  O2-  O276  1  0.49981240  0.62561260  0.35030440  1
  O2-  O277  1  0.50160515  0.62423715  0.84635013  1
  O2-  O278  1  0.50046663  0.87535048  0.34357334  1
  O2-  O279  1  0.49976654  0.87545713  0.84585715  1
  O2-  O280  1  0.74615953  0.12547614  0.34793057  1
  O2-  O281  1  0.75292429  0.12453575  0.84636065  1
  O2-  O282  1  0.74856629  0.37508400  0.34780095  1
  O2-  O283  1  0.75091286  0.37469326  0.84614408  1
  O2-  O284  1  0.75160078  0.62463088  0.34518155  1
  O2-  O285  1  0.74927062  0.62544251  0.84849402  1
  O2-  O286  1  0.74775602  0.87574138  0.34392037  1
  O2-  O287  1  0.75185471  0.87445287  0.84959703  1
