# generated using pymatgen
data_BaYFeCuO5
_symmetry_space_group_name_H-M   'P 1'
_cell_length_a   15.67179959
_cell_length_b   15.67848628
_cell_length_c   15.50530549
_cell_angle_alpha   89.99130204
_cell_angle_beta   89.99710450
_cell_angle_gamma   89.99677459
_symmetry_Int_Tables_number   1
_chemical_formula_structural   BaYFeCuO5
_chemical_formula_sum   'Ba32 Y32 Fe32 Cu32 O160'
_cell_volume   3809.81002871
_cell_formula_units_Z   32
loop_
 _symmetry_equiv_pos_site_id
 _symmetry_equiv_pos_as_xyz
  1  'x, y, z'
loop_
 _atom_type_symbol
 _atom_type_oxidation_number
  Ba2+  2.0
  Y3+  3.0
  Fe3+  3.0
  Cu2+  2.0
  O2-  -2.0
loop_
 _atom_site_type_symbol
 _atom_site_label
 _atom_site_symmetry_multiplicity
 _atom_site_fract_x
 _atom_site_fract_y
 _atom_site_fract_z
 _atom_site_occupancy
  Ba2+  Ba0  1  -0.00149334  -0.00173863  0.02138823  1
  Ba2+  Ba1  1  0.00031405  0.01014608  0.50672816  1
  Ba2+  Ba2  1  -0.00006146  0.25441274  0.01584053  1
  Ba2+  Ba3  1  -0.00308469  0.25420111  0.51293300  1
  Ba2+  Ba4  1  -0.00327908  0.49745456  0.01110128  1
  Ba2+  Ba5  1  -0.00683882  0.49244669  0.50698798  1
  Ba2+  Ba6  1  -0.00482041  0.74906434  0.01633422  1
  Ba2+  Ba7  1  -0.00365303  0.74441969  0.50247704  1
  Ba2+  Ba8  1  0.24969309  0.00017420  0.00546096  1
  Ba2+  Ba9  1  0.25364378  0.00502023  0.51153815  1
  Ba2+  Ba10  1  0.24731336  0.25289276  0.00090425  1
  Ba2+  Ba11  1  0.24438309  0.24668031  0.51386910  1
  Ba2+  Ba12  1  0.24571827  0.49804029  0.01158942  1
  Ba2+  Ba13  1  0.24953216  0.49867094  0.51677567  1
  Ba2+  Ba14  1  0.24853515  0.74891114  0.01773946  1
  Ba2+  Ba15  1  0.25855470  0.74983957  0.51729686  1
  Ba2+  Ba16  1  0.50015071  0.00011178  0.00554981  1
  Ba2+  Ba17  1  0.49646768  0.00447830  0.51187733  1
  Ba2+  Ba18  1  0.50025082  0.25000930  0.00608285  1
  Ba2+  Ba19  1  0.50570429  0.24754482  0.51368832  1
  Ba2+  Ba20  1  0.50110944  0.50062892  0.01767035  1
  Ba2+  Ba21  1  0.50542809  0.50256942  0.51127435  1
  Ba2+  Ba22  1  0.50167466  0.74982083  0.01766669  1
  Ba2+  Ba23  1  0.49643732  0.74561676  0.51242780  1
  Ba2+  Ba24  1  0.75163103  -0.00234400  0.02141364  1
  Ba2+  Ba25  1  0.74933471  0.01001022  0.50663692  1
  Ba2+  Ba26  1  0.75178818  0.25199890  0.02054257  1
  Ba2+  Ba27  1  0.75274896  0.25500355  0.51235746  1
  Ba2+  Ba28  1  0.75514898  0.50006944  0.01562823  1
  Ba2+  Ba29  1  0.75288235  0.49601158  0.50005585  1
  Ba2+  Ba30  1  0.75546140  0.74952324  0.01561619  1
  Ba2+  Ba31  1  0.74887706  0.73968549  0.49482838  1
  Y3+  Y32  1  -0.00082397  0.00139147  0.25542189  1
  Y3+  Y33  1  -0.00073703  0.00006138  0.75781534  1
  Y3+  Y34  1  -0.00224905  0.25120289  0.25498568  1
  Y3+  Y35  1  0.00015480  0.25451726  0.75924503  1
  Y3+  Y36  1  -0.00249326  0.49827040  0.25405247  1
  Y3+  Y37  1  -0.00207613  0.49605965  0.76165137  1
  Y3+  Y38  1  -0.00140213  0.74889348  0.25445937  1
  Y3+  Y39  1  -0.00354213  0.74966513  0.76087860  1
  Y3+  Y40  1  0.24841299  0.00125505  0.25634474  1
  Y3+  Y41  1  0.25185895  0.00013303  0.75810431  1
  Y3+  Y42  1  0.24768334  0.24972804  0.25460979  1
  Y3+  Y43  1  0.24842232  0.25179461  0.76028334  1
  Y3+  Y44  1  0.24812398  0.50010718  0.25376739  1
  Y3+  Y45  1  0.24901202  0.49789743  0.75976178  1
  Y3+  Y46  1  0.24885983  0.74863865  0.25586045  1
  Y3+  Y47  1  0.25229399  0.75060719  0.75644283  1
  Y3+  Y48  1  0.50144326  0.00111686  0.25627244  1
  Y3+  Y49  1  0.49836923  -0.00003838  0.75793068  1
  Y3+  Y50  1  0.50149779  0.24942131  0.25549724  1
  Y3+  Y51  1  0.50029914  0.25034136  0.75895603  1
  Y3+  Y52  1  0.50237595  0.50118717  0.25580948  1
  Y3+  Y53  1  0.50016080  0.49933395  0.75741179  1
  Y3+  Y54  1  0.50188173  0.74764275  0.25648526  1
  Y3+  Y55  1  0.49843080  0.75099364  0.75642452  1
  Y3+  Y56  1  0.75088855  0.00108366  0.25537531  1
  Y3+  Y57  1  0.75047001  -0.00043914  0.75792285  1
  Y3+  Y58  1  0.75303472  0.25116355  0.25636542  1
  Y3+  Y59  1  0.75112872  0.25311533  0.75669036  1
  Y3+  Y60  1  0.75244248  0.49976136  0.25528329  1
  Y3+  Y61  1  0.75346273  0.49774836  0.75984879  1
  Y3+  Y62  1  0.75061992  0.74766143  0.25385907  1
  Y3+  Y63  1  0.75268633  0.74971744  0.76198158  1
  Fe3+  Fe64  1  0.37471854  0.37359898  0.37976362  1
  Fe3+  Fe65  1  0.37533579  0.62502784  0.87716527  1
  Fe3+  Fe66  1  0.62642738  0.12496345  0.87695650  1
  Fe3+  Fe67  1  0.12468061  0.87421571  0.87621824  1
  Fe3+  Fe68  1  0.37513919  0.87558477  0.37696357  1
  Fe3+  Fe69  1  0.12485844  0.62397644  0.37938281  1
  Fe3+  Fe70  1  0.87474253  0.12514735  0.87886057  1
  Fe3+  Fe71  1  0.12469618  0.37514722  0.37627703  1
  Fe3+  Fe72  1  0.62559992  0.37578002  0.87804177  1
  Fe3+  Fe73  1  0.12421480  0.62553425  0.87635152  1
  Fe3+  Fe74  1  0.62466388  0.87453085  0.37924933  1
  Fe3+  Fe75  1  0.87473764  0.87559007  0.37935151  1
  Fe3+  Fe76  1  0.62527503  0.87451721  0.87700803  1
  Fe3+  Fe77  1  0.62511906  0.37516509  0.37505117  1
  Fe3+  Fe78  1  0.12360852  0.12459127  0.87681136  1
  Fe3+  Fe79  1  0.12450458  0.12605250  0.37524670  1
  Fe3+  Fe80  1  0.62565959  0.62502424  0.87868691  1
  Fe3+  Fe81  1  0.12536104  0.87473255  0.37979733  1
  Fe3+  Fe82  1  0.37451526  0.62330326  0.37597275  1
  Fe3+  Fe83  1  0.62529662  0.12586981  0.37511840  1
  Fe3+  Fe84  1  0.62671595  0.62452990  0.63839865  1
  Fe3+  Fe85  1  0.37481841  0.12633622  0.64053639  1
  Fe3+  Fe86  1  0.37449476  0.12529258  0.13707819  1
  Fe3+  Fe87  1  0.37486226  0.37487883  0.13776498  1
  Fe3+  Fe88  1  0.37553222  0.37492779  0.63547026  1
  Fe3+  Fe89  1  0.87525111  0.12614917  0.63858592  1
  Fe3+  Fe90  1  0.12391632  0.62434335  0.63475641  1
  Fe3+  Fe91  1  0.87455676  0.62424413  0.63855257  1
  Fe3+  Fe92  1  0.62591526  0.87476645  0.63291862  1
  Fe3+  Fe93  1  0.37509611  0.87524208  0.13820601  1
  Fe3+  Fe94  1  0.87425179  0.87437546  0.63267392  1
  Fe3+  Fe95  1  0.12423105  0.87524345  0.63285213  1
  Cu2+  Cu96  1  0.12426784  0.37575940  0.87395637  1
  Cu2+  Cu97  1  0.37505784  0.87404283  0.86456075  1
  Cu2+  Cu98  1  0.87506513  0.62444059  0.87426925  1
  Cu2+  Cu99  1  0.37590988  0.37606167  0.86425085  1
  Cu2+  Cu100  1  0.37510706  0.12535392  0.86516099  1
  Cu2+  Cu101  1  0.87595915  0.62452623  0.36100631  1
  Cu2+  Cu102  1  0.87420114  0.37380631  0.87388534  1
  Cu2+  Cu103  1  0.87504883  0.12553021  0.36235655  1
  Cu2+  Cu104  1  0.87527294  0.37431038  0.36995377  1
  Cu2+  Cu105  1  0.62501150  0.62436605  0.36115039  1
  Cu2+  Cu106  1  0.37485992  0.12590857  0.36319719  1
  Cu2+  Cu107  1  0.87512049  0.87647525  0.87440857  1
  Cu2+  Cu108  1  0.87545450  0.62437636  0.14378193  1
  Cu2+  Cu109  1  0.37545939  0.87583032  0.65020921  1
  Cu2+  Cu110  1  0.62582303  0.62461481  0.14873455  1
  Cu2+  Cu111  1  0.62474110  0.37487131  0.15002820  1
  Cu2+  Cu112  1  0.12517967  0.87502573  0.15245117  1
  Cu2+  Cu113  1  0.62476574  0.87497274  0.15262557  1
  Cu2+  Cu114  1  0.62544554  0.37582754  0.65123124  1
  Cu2+  Cu115  1  0.62562706  0.12525387  0.65238691  1
  Cu2+  Cu116  1  0.87518117  0.12516202  0.14933151  1
  Cu2+  Cu117  1  0.87484399  0.37609608  0.64363412  1
  Cu2+  Cu118  1  0.12516451  0.37481617  0.14200316  1
  Cu2+  Cu119  1  0.12417504  0.62455334  0.15077683  1
  Cu2+  Cu120  1  0.12436949  0.12538133  0.65329389  1
  Cu2+  Cu121  1  0.37476236  0.62467314  0.15018563  1
  Cu2+  Cu122  1  0.62458278  0.12510593  0.14864834  1
  Cu2+  Cu123  1  0.12484216  0.37561442  0.65147703  1
  Cu2+  Cu124  1  0.87495430  0.37489796  0.14323854  1
  Cu2+  Cu125  1  0.37507022  0.62381310  0.65178035  1
  Cu2+  Cu126  1  0.87498775  0.87490322  0.14550057  1
  Cu2+  Cu127  1  0.12538027  0.12525288  0.14792292  1
  O2-  O128  1  0.12429094  0.12261391  -0.00320299  1
  O2-  O129  1  0.12548917  0.12556973  0.49554920  1
  O2-  O130  1  0.12585967  0.37546168  0.00694067  1
  O2-  O131  1  0.12565963  0.37504683  0.49654755  1
  O2-  O132  1  0.12555818  0.62749000  -0.00355673  1
  O2-  O133  1  0.12551571  0.62375110  0.50636450  1
  O2-  O134  1  0.12510278  0.87406677  -0.00375691  1
  O2-  O135  1  0.12575217  0.87543181  0.50569757  1
  O2-  O136  1  0.37476048  0.12476527  0.01710251  1
  O2-  O137  1  0.37508557  0.12692462  0.51962796  1
  O2-  O138  1  0.37549895  0.37480763  0.01757259  1
  O2-  O139  1  0.37497100  0.37415262  0.50721146  1
  O2-  O140  1  0.37535495  0.62620135  -0.00286808  1
  O2-  O141  1  0.37441890  0.62331211  0.49626575  1
  O2-  O142  1  0.37511409  0.87517430  0.01793758  1
  O2-  O143  1  0.37534955  0.87537201  0.49726647  1
  O2-  O144  1  0.62584055  0.12346845  -0.00317480  1
  O2-  O145  1  0.62415722  0.12565618  0.49532998  1
  O2-  O146  1  0.62381294  0.37518554  -0.00202853  1
  O2-  O147  1  0.62436506  0.37487723  0.49538583  1
  O2-  O148  1  0.62385677  0.62610961  -0.00146689  1
  O2-  O149  1  0.62581442  0.62453616  0.51789933  1
  O2-  O150  1  0.62469741  0.87521280  -0.00305243  1
  O2-  O151  1  0.62466712  0.87423501  0.50576112  1
  O2-  O152  1  0.87455639  0.12336981  -0.00097409  1
  O2-  O153  1  0.87497486  0.12623756  0.51763092  1
  O2-  O154  1  0.87399838  0.37384323  0.00886594  1
  O2-  O155  1  0.87459382  0.37469313  0.50770333  1
  O2-  O156  1  0.87562333  0.62532010  0.00901042  1
  O2-  O157  1  0.87396126  0.62467689  0.51832900  1
  O2-  O158  1  0.87527436  0.87621184  0.00771624  1
  O2-  O159  1  0.87414833  0.87436821  0.50699284  1
  O2-  O160  1  0.12490664  0.00007265  0.16643107  1
  O2-  O161  1  0.12409812  -0.00242294  0.66064409  1
  O2-  O162  1  0.12564029  0.24880521  0.16403635  1
  O2-  O163  1  0.12550254  0.25070111  0.66472472  1
  O2-  O164  1  0.12520725  0.50100836  0.16565788  1
  O2-  O165  1  0.12508067  0.50222704  0.66285562  1
  O2-  O166  1  0.12505037  0.74966928  0.16807612  1
  O2-  O167  1  0.12630842  0.75034257  0.65729338  1
  O2-  O168  1  0.37492730  0.00009966  0.16889869  1
  O2-  O169  1  0.37528699  0.00157713  0.66570756  1
  O2-  O170  1  0.37519039  0.24961691  0.16914206  1
  O2-  O171  1  0.37469027  0.25168254  0.66656645  1
  O2-  O172  1  0.37526947  0.50019195  0.16613106  1
  O2-  O173  1  0.37544029  0.49766180  0.66199384  1
  O2-  O174  1  0.37466313  0.74986713  0.16637959  1
  O2-  O175  1  0.37482120  0.74990550  0.66072397  1
  O2-  O176  1  0.62499902  0.00006614  0.16663515  1
  O2-  O177  1  0.62485081  -0.00225538  0.65998764  1
  O2-  O178  1  0.62394619  0.24986384  0.16298507  1
  O2-  O179  1  0.62540294  0.25074055  0.66363363  1
  O2-  O180  1  0.62425138  0.49977697  0.16395871  1
  O2-  O181  1  0.62397633  0.50078023  0.66591444  1
  O2-  O182  1  0.62506262  0.74987433  0.16634297  1
  O2-  O183  1  0.62502848  0.75138196  0.66350059  1
  O2-  O184  1  0.87499420  0.00068019  0.16763338  1
  O2-  O185  1  0.87564795  -0.00196726  0.66232511  1
  O2-  O186  1  0.87482319  0.24877573  0.16434405  1
  O2-  O187  1  0.87479057  0.24938406  0.66603504  1
  O2-  O188  1  0.87516113  0.49959755  0.16519890  1
  O2-  O189  1  0.87615639  0.50206180  0.66862035  1
  O2-  O190  1  0.87518563  0.75012233  0.16713622  1
  O2-  O191  1  0.87437471  0.75127335  0.66632287  1
  O2-  O192  1  0.00057483  0.12413167  0.16456960  1
  O2-  O193  1  -0.00029931  0.12469014  0.66450217  1
  O2-  O194  1  0.00022070  0.37462135  0.16530467  1
  O2-  O195  1  0.00145988  0.37528787  0.66633731  1
  O2-  O196  1  0.00118276  0.62559061  0.16815865  1
  O2-  O197  1  0.00063311  0.62762047  0.66376510  1
  O2-  O198  1  0.00163631  0.87502261  0.16898838  1
  O2-  O199  1  -0.00094228  0.87363691  0.65925381  1
  O2-  O200  1  0.25064813  0.12427318  0.16628091  1
  O2-  O201  1  0.24966835  0.12493612  0.66626661  1
  O2-  O202  1  0.25177118  0.37565842  0.16732526  1
  O2-  O203  1  0.25147456  0.37553247  0.66331338  1
  O2-  O204  1  0.24902574  0.62530374  0.16508793  1
  O2-  O205  1  0.24863994  0.62498915  0.66144780  1
  O2-  O206  1  0.25067298  0.87429177  0.16732047  1
  O2-  O207  1  0.24842377  0.87547653  0.66178969  1
  O2-  O208  1  0.49901204  0.12447133  0.16566047  1
  O2-  O209  1  0.50017927  0.12565858  0.66641098  1
  O2-  O210  1  0.49910490  0.37541014  0.16735934  1
  O2-  O211  1  0.49867039  0.37455144  0.66190885  1
  O2-  O212  1  0.50066349  0.62539071  0.16470212  1
  O2-  O213  1  0.50058494  0.62559942  0.66409475  1
  O2-  O214  1  0.49929975  0.87430258  0.16750779  1
  O2-  O215  1  0.50188485  0.87502079  0.66169765  1
  O2-  O216  1  0.74942658  0.12428716  0.16460571  1
  O2-  O217  1  0.75051827  0.12373734  0.66434637  1
  O2-  O218  1  0.74848403  0.37475446  0.16547768  1
  O2-  O219  1  0.74880958  0.37604394  0.66547427  1
  O2-  O220  1  0.74932418  0.62508265  0.16604936  1
  O2-  O221  1  0.75052583  0.62548136  0.67016639  1
  O2-  O222  1  0.74842039  0.87518042  0.16854420  1
  O2-  O223  1  0.75054224  0.87552892  0.66147118  1
  O2-  O224  1  0.12481140  -0.00165743  0.34967346  1
  O2-  O225  1  0.12614857  -0.00029047  0.84280009  1
  O2-  O226  1  0.12500554  0.25034538  0.34505514  1
  O2-  O227  1  0.12552625  0.24837208  0.84817137  1
  O2-  O228  1  0.12569169  0.50097107  0.34860524  1
  O2-  O229  1  0.12576009  0.50202037  0.84622811  1
  O2-  O230  1  0.12505603  0.74996370  0.35309135  1
  O2-  O231  1  0.12528763  0.75007760  0.83985900  1
  O2-  O232  1  0.37482421  -0.00017772  0.34963609  1
  O2-  O233  1  0.37493500  -0.00063494  0.84896865  1
  O2-  O234  1  0.37504054  0.25149437  0.35090387  1
  O2-  O235  1  0.37565129  0.25113595  0.84951392  1
  O2-  O236  1  0.37399721  0.49817009  0.34842577  1
  O2-  O237  1  0.37497611  0.50132637  0.84500457  1
  O2-  O238  1  0.37465381  0.74979852  0.34747029  1
  O2-  O239  1  0.37525553  0.74868807  0.84387196  1
  O2-  O240  1  0.62527465  -0.00157432  0.34968547  1
  O2-  O241  1  0.62411356  0.00011969  0.84288687  1
  O2-  O242  1  0.62474470  0.25015826  0.34434939  1
  O2-  O243  1  0.62393530  0.24992179  0.84616938  1
  O2-  O244  1  0.62477212  0.49970410  0.34728388  1
  O2-  O245  1  0.62471673  0.50047466  0.84620557  1
  O2-  O246  1  0.62477344  0.75111931  0.35125524  1
  O2-  O247  1  0.62428647  0.74980724  0.84396127  1
  O2-  O248  1  0.87493206  -0.00205997  0.35194763  1
  O2-  O249  1  0.87466184  0.00251703  0.84295127  1
  O2-  O250  1  0.87522857  0.24889752  0.34728998  1
  O2-  O251  1  0.87485531  0.24798651  0.84714457  1
  O2-  O252  1  0.87546688  0.50121885  0.34847497  1
  O2-  O253  1  0.87472160  0.49883738  0.85104879  1
  O2-  O254  1  0.87557790  0.75175865  0.35152546  1
  O2-  O255  1  0.87521806  0.75060226  0.84900885  1
  O2-  O256  1  0.00031747  0.12385339  0.34786747  1
  O2-  O257  1  -0.00017016  0.12411367  0.84457790  1
  O2-  O258  1  0.00159088  0.37535451  0.34773388  1
  O2-  O259  1  -0.00086222  0.37498329  0.85000097  1
  O2-  O260  1  0.00240666  0.62583066  0.35238615  1
  O2-  O261  1  0.00112383  0.62546018  0.84559364  1
  O2-  O262  1  0.00041400  0.87456527  0.35409023  1
  O2-  O263  1  0.00242130  0.87549555  0.84225890  1
  O2-  O264  1  0.24904171  0.12469334  0.34744611  1
  O2-  O265  1  0.24981887  0.12480317  0.84894703  1
  O2-  O266  1  0.25055382  0.37455309  0.34840805  1
  O2-  O267  1  0.25182037  0.37536716  0.84838870  1
  O2-  O268  1  0.24860238  0.62513597  0.34766489  1
  O2-  O269  1  0.25026494  0.62552345  0.84371473  1
  O2-  O270  1  0.24860204  0.87470616  0.34900730  1
  O2-  O271  1  0.24950080  0.87465579  0.84574658  1
  O2-  O272  1  0.50074688  0.12455644  0.34700004  1
  O2-  O273  1  0.50049201  0.12462312  0.84893345  1
  O2-  O274  1  0.49869274  0.37512554  0.34879956  1
  O2-  O275  1  0.50123397  0.37543413  0.84558750  1
  O2-  O276  1  0.49856420  0.62461605  0.34769680  1
  O2-  O277  1  0.50042738  0.62509577  0.84465209  1
  O2-  O278  1  0.50124088  0.87487490  0.34925253  1
  O2-  O279  1  0.50071337  0.87530632  0.84588993  1
  O2-  O280  1  0.74969270  0.12405847  0.34801516  1
  O2-  O281  1  0.74970971  0.12465873  0.84416720  1
  O2-  O282  1  0.74900126  0.37523372  0.34807037  1
  O2-  O283  1  0.74809252  0.37438840  0.84723087  1
  O2-  O284  1  0.75059736  0.62578270  0.35074792  1
  O2-  O285  1  0.74842742  0.62580258  0.84911306  1
  O2-  O286  1  0.74971638  0.87426174  0.35345147  1
  O2-  O287  1  0.74747271  0.87541069  0.84389325  1
