# generated using pymatgen
data_BaYFeCuO5
_symmetry_space_group_name_H-M   'P 1'
_cell_length_a   15.67510535
_cell_length_b   15.67658916
_cell_length_c   15.50155415
_cell_angle_alpha   90.00513104
_cell_angle_beta   89.99656543
_cell_angle_gamma   90.00250473
_symmetry_Int_Tables_number   1
_chemical_formula_structural   BaYFeCuO5
_chemical_formula_sum   'Ba32 Y32 Fe32 Cu32 O160'
_cell_volume   3809.23077181
_cell_formula_units_Z   32
loop_
 _symmetry_equiv_pos_site_id
 _symmetry_equiv_pos_as_xyz
  1  'x, y, z'
loop_
 _atom_type_symbol
 _atom_type_oxidation_number
  Ba2+  2.0
  Y3+  3.0
  Fe3+  3.0
  Cu2+  2.0
  O2-  -2.0
loop_
 _atom_site_type_symbol
 _atom_site_label
 _atom_site_symmetry_multiplicity
 _atom_site_fract_x
 _atom_site_fract_y
 _atom_site_fract_z
 _atom_site_occupancy
  Ba2+  Ba0  1  0.00366175  0.00783528  0.00312070  1
  Ba2+  Ba1  1  0.00378723  0.00630825  0.51238399  1
  Ba2+  Ba2  1  0.00437764  0.24247331  0.00355805  1
  Ba2+  Ba3  1  -0.00470078  0.24890363  0.51762338  1
  Ba2+  Ba4  1  0.00544106  0.50392261  0.00092610  1
  Ba2+  Ba5  1  -0.00758838  0.49170416  0.50632165  1
  Ba2+  Ba6  1  0.00465606  0.74645927  -0.00017560  1
  Ba2+  Ba7  1  0.00182328  0.75362724  0.50295533  1
  Ba2+  Ba8  1  0.24303228  -0.00266972  0.00585773  1
  Ba2+  Ba9  1  0.24968680  0.00103885  0.52169837  1
  Ba2+  Ba10  1  0.24242402  0.25234660  -0.00333489  1
  Ba2+  Ba11  1  0.25226471  0.24862315  0.52188995  1
  Ba2+  Ba12  1  0.24950998  0.50122055  0.00789721  1
  Ba2+  Ba13  1  0.25289044  0.48839325  0.51042702  1
  Ba2+  Ba14  1  0.25139714  0.74786877  0.02297749  1
  Ba2+  Ba15  1  0.24913280  0.76165817  0.51016197  1
  Ba2+  Ba16  1  0.50414918  -0.00786836  0.01305336  1
  Ba2+  Ba17  1  0.50004728  0.00286627  0.52661877  1
  Ba2+  Ba18  1  0.49883984  0.25023372  0.00644073  1
  Ba2+  Ba19  1  0.49953223  0.24942532  0.52247523  1
  Ba2+  Ba20  1  0.49490150  0.50708511  0.01396070  1
  Ba2+  Ba21  1  0.50416623  0.49211982  0.51627076  1
  Ba2+  Ba22  1  0.50027706  0.75127819  0.02119743  1
  Ba2+  Ba23  1  0.50460815  0.75564574  0.52011775  1
  Ba2+  Ba24  1  0.74679312  0.00228660  0.01220539  1
  Ba2+  Ba25  1  0.74715068  0.00891266  0.51816694  1
  Ba2+  Ba26  1  0.75315905  0.24027648  0.01151483  1
  Ba2+  Ba27  1  0.75348630  0.24956052  0.51701632  1
  Ba2+  Ba28  1  0.75101428  0.50965397  0.00726364  1
  Ba2+  Ba29  1  0.75112345  0.49410153  0.51192852  1
  Ba2+  Ba30  1  0.74311015  0.75011379  0.00783601  1
  Ba2+  Ba31  1  0.74480399  0.74622143  0.51271887  1
  Y3+  Y32  1  -0.00046237  0.00327950  0.25813672  1
  Y3+  Y33  1  0.00138347  0.00310898  0.75864447  1
  Y3+  Y34  1  -0.00261049  0.24644976  0.25777546  1
  Y3+  Y35  1  0.00027991  0.24834606  0.75854231  1
  Y3+  Y36  1  -0.00233102  0.49929560  0.26176563  1
  Y3+  Y37  1  -0.00034652  0.49754118  0.75573961  1
  Y3+  Y38  1  0.00025592  0.75082912  0.26263494  1
  Y3+  Y39  1  0.00032218  0.75183335  0.75517341  1
  Y3+  Y40  1  0.24786596  -0.00052877  0.25598621  1
  Y3+  Y41  1  0.24693844  0.00033804  0.75716964  1
  Y3+  Y42  1  0.24967169  0.24922023  0.25641727  1
  Y3+  Y43  1  0.24834240  0.25144449  0.75780188  1
  Y3+  Y44  1  0.25088362  0.49956399  0.26016211  1
  Y3+  Y45  1  0.25092830  0.49507659  0.75531924  1
  Y3+  Y46  1  0.24947959  0.75072074  0.26120004  1
  Y3+  Y47  1  0.24886987  0.75367675  0.75230620  1
  Y3+  Y48  1  0.50137103  -0.00091483  0.25042733  1
  Y3+  Y49  1  0.50094167  -0.00138480  0.75928996  1
  Y3+  Y50  1  0.49934505  0.24968438  0.25499264  1
  Y3+  Y51  1  0.49840485  0.25158160  0.75774797  1
  Y3+  Y52  1  0.49912951  0.49967949  0.25830053  1
  Y3+  Y53  1  0.49933153  0.49774371  0.75536668  1
  Y3+  Y54  1  0.50064128  0.75049944  0.25441597  1
  Y3+  Y55  1  0.50245032  0.75255633  0.75575016  1
  Y3+  Y56  1  0.75078293  0.00262715  0.25390900  1
  Y3+  Y57  1  0.75071748  0.00135547  0.76081853  1
  Y3+  Y58  1  0.75343894  0.24661356  0.25712377  1
  Y3+  Y59  1  0.75320573  0.24858895  0.75739303  1
  Y3+  Y60  1  0.75204539  0.49990061  0.25986271  1
  Y3+  Y61  1  0.75047612  0.49937639  0.75599399  1
  Y3+  Y62  1  0.74922663  0.75039570  0.25704347  1
  Y3+  Y63  1  0.74876376  0.75131138  0.75879360  1
  Fe3+  Fe64  1  0.87550054  0.87505550  0.88020964  1
  Fe3+  Fe65  1  0.37441047  0.12451002  0.87833364  1
  Fe3+  Fe66  1  0.62448994  0.12500823  0.87697182  1
  Fe3+  Fe67  1  0.62354472  0.62545268  0.87459702  1
  Fe3+  Fe68  1  0.37444281  0.62621653  0.87222468  1
  Fe3+  Fe69  1  0.87331226  0.87721739  0.38097019  1
  Fe3+  Fe70  1  0.37662874  0.62518940  0.38085532  1
  Fe3+  Fe71  1  0.12601005  0.12529584  0.37762387  1
  Fe3+  Fe72  1  0.37405668  0.87325742  0.87623538  1
  Fe3+  Fe73  1  0.12472868  0.37191788  0.37855846  1
  Fe3+  Fe74  1  0.62462363  0.87742463  0.37611661  1
  Fe3+  Fe75  1  0.37596047  0.12447891  0.37535160  1
  Fe3+  Fe76  1  0.12506886  0.62391620  0.38170669  1
  Fe3+  Fe77  1  0.37677552  0.87770752  0.37623725  1
  Fe3+  Fe78  1  0.62375629  0.12470970  0.37466555  1
  Fe3+  Fe79  1  0.12746501  0.62575297  0.87178262  1
  Fe3+  Fe80  1  0.87515610  0.37530941  0.88065030  1
  Fe3+  Fe81  1  0.62524595  0.37578562  0.87986226  1
  Fe3+  Fe82  1  0.62439511  0.62489773  0.37672305  1
  Fe3+  Fe83  1  0.62509176  0.37214767  0.37432948  1
  Fe3+  Fe84  1  0.12503137  0.62383738  0.63303981  1
  Fe3+  Fe85  1  0.87681552  0.62595657  0.13939484  1
  Fe3+  Fe86  1  0.37322828  0.12421679  0.13130606  1
  Fe3+  Fe87  1  0.37368613  0.37490915  0.13584845  1
  Fe3+  Fe88  1  0.87639713  0.87492597  0.13513825  1
  Fe3+  Fe89  1  0.87606221  0.37515575  0.13408722  1
  Fe3+  Fe90  1  0.37552451  0.62548675  0.63264057  1
  Fe3+  Fe91  1  0.12372784  0.37546792  0.13812460  1
  Fe3+  Fe92  1  0.87444254  0.87661375  0.63614538  1
  Fe3+  Fe93  1  0.87478271  0.62511448  0.63743967  1
  Fe3+  Fe94  1  0.62627193  0.37563366  0.13293660  1
  Fe3+  Fe95  1  0.12303260  0.87432898  0.13938296  1
  Cu2+  Cu96  1  0.87369719  0.62579649  0.36930915  1
  Cu2+  Cu97  1  0.87402979  0.37252437  0.37173375  1
  Cu2+  Cu98  1  0.12524928  0.87760518  0.37491874  1
  Cu2+  Cu99  1  0.87417266  0.12420637  0.37364106  1
  Cu2+  Cu100  1  0.12578902  0.12506875  0.87017612  1
  Cu2+  Cu101  1  0.12519118  0.87407173  0.86174358  1
  Cu2+  Cu102  1  0.62461809  0.87462592  0.87274968  1
  Cu2+  Cu103  1  0.37601735  0.37252753  0.37328958  1
  Cu2+  Cu104  1  0.37540953  0.37573790  0.86663644  1
  Cu2+  Cu105  1  0.87529716  0.62540772  0.86212760  1
  Cu2+  Cu106  1  0.12434255  0.37614990  0.86189855  1
  Cu2+  Cu107  1  0.87506557  0.12479900  0.87325214  1
  Cu2+  Cu108  1  0.62411001  0.12613900  0.14617803  1
  Cu2+  Cu109  1  0.87650434  0.12434480  0.14064764  1
  Cu2+  Cu110  1  0.37526219  0.37443318  0.64294311  1
  Cu2+  Cu111  1  0.37551500  0.87564344  0.65173685  1
  Cu2+  Cu112  1  0.12496296  0.12603506  0.65334807  1
  Cu2+  Cu113  1  0.62667178  0.87437364  0.14056111  1
  Cu2+  Cu114  1  0.62501593  0.12586380  0.65759870  1
  Cu2+  Cu115  1  0.12562581  0.12538708  0.14218343  1
  Cu2+  Cu116  1  0.87543902  0.12466017  0.64454046  1
  Cu2+  Cu117  1  0.62693947  0.87654310  0.65316359  1
  Cu2+  Cu118  1  0.37478956  0.12478041  0.65755408  1
  Cu2+  Cu119  1  0.12401923  0.62429597  0.15869543  1
  Cu2+  Cu120  1  0.37415223  0.62424281  0.15653797  1
  Cu2+  Cu121  1  0.62526635  0.62440437  0.65110240  1
  Cu2+  Cu122  1  0.12296723  0.87596708  0.64141701  1
  Cu2+  Cu123  1  0.12402195  0.37481698  0.64971615  1
  Cu2+  Cu124  1  0.37359194  0.87476099  0.15016502  1
  Cu2+  Cu125  1  0.62587998  0.62344834  0.15295619  1
  Cu2+  Cu126  1  0.87499918  0.37426465  0.64612129  1
  Cu2+  Cu127  1  0.62602446  0.37390516  0.65613479  1
  O2-  O128  1  0.12723821  0.12481930  0.00568158  1
  O2-  O129  1  0.12761335  0.12617441  0.49794643  1
  O2-  O130  1  0.12479287  0.37866817  0.01788228  1
  O2-  O131  1  0.12481885  0.37132875  0.49888660  1
  O2-  O132  1  0.12869907  0.62614382  -0.00765700  1
  O2-  O133  1  0.12437445  0.62344151  0.50726171  1
  O2-  O134  1  0.12384482  0.87073683  0.01911053  1
  O2-  O135  1  0.12463370  0.87721908  0.50809077  1
  O2-  O136  1  0.37347058  0.12463850  0.00456549  1
  O2-  O137  1  0.37678231  0.12397239  0.49496802  1
  O2-  O138  1  0.37341092  0.37759712  0.01584223  1
  O2-  O139  1  0.37692434  0.37254439  0.50724441  1
  O2-  O140  1  0.37321908  0.62700318  -0.00760473  1
  O2-  O141  1  0.37782820  0.62511234  0.50595385  1
  O2-  O142  1  0.37303300  0.87025314  -0.00393613  1
  O2-  O143  1  0.37866132  0.87939401  0.49624952  1
  O2-  O144  1  0.62312353  0.12489022  -0.00263516  1
  O2-  O145  1  0.62200973  0.12579361  0.49434930  1
  O2-  O146  1  0.62522866  0.37803604  0.00600649  1
  O2-  O147  1  0.62520222  0.37105718  0.49469781  1
  O2-  O148  1  0.62232623  0.62518411  -0.00504525  1
  O2-  O149  1  0.62355895  0.62466662  0.49664436  1
  O2-  O150  1  0.62525284  0.87257810  0.00673117  1
  O2-  O151  1  0.62439350  0.87844639  0.49585577  1
  O2-  O152  1  0.87556761  0.12407335  0.00680702  1
  O2-  O153  1  0.87408015  0.12429121  0.50893689  1
  O2-  O154  1  0.87641239  0.37723239  0.00779891  1
  O2-  O155  1  0.87283435  0.37338701  0.50779477  1
  O2-  O156  1  0.87867024  0.62554376  0.01922968  1
  O2-  O157  1  0.87299040  0.62497442  0.51740749  1
  O2-  O158  1  0.87724198  0.87286132  0.00828744  1
  O2-  O159  1  0.87173697  0.87706220  0.50866546  1
  O2-  O160  1  0.12488066  -0.00166006  0.16404242  1
  O2-  O161  1  0.12429086  0.00204718  0.66669646  1
  O2-  O162  1  0.12491071  0.25213423  0.16393920  1
  O2-  O163  1  0.12503056  0.25006777  0.66711120  1
  O2-  O164  1  0.12473541  0.49955668  0.16991695  1
  O2-  O165  1  0.12511032  0.50174232  0.66270849  1
  O2-  O166  1  0.12437432  0.74948257  0.17141705  1
  O2-  O167  1  0.12436881  0.74668829  0.66005362  1
  O2-  O168  1  0.37442994  0.00085549  0.15704040  1
  O2-  O169  1  0.37539822  -0.00002277  0.66760821  1
  O2-  O170  1  0.37517514  0.24959021  0.16060225  1
  O2-  O171  1  0.37493540  0.24865918  0.66926048  1
  O2-  O172  1  0.37453983  0.49919688  0.16862291  1
  O2-  O173  1  0.37559612  0.50305130  0.66280073  1
  O2-  O174  1  0.37436202  0.74868387  0.16730870  1
  O2-  O175  1  0.37537912  0.74930181  0.65803185  1
  O2-  O176  1  0.62531912  0.00159622  0.16014563  1
  O2-  O177  1  0.62529719  0.00122251  0.66667901  1
  O2-  O178  1  0.62461287  0.25297478  0.15786810  1
  O2-  O179  1  0.62508671  0.24991421  0.66907906  1
  O2-  O180  1  0.62571397  0.49766496  0.16395607  1
  O2-  O181  1  0.62543639  0.49855740  0.66426546  1
  O2-  O182  1  0.62559277  0.74733659  0.16652174  1
  O2-  O183  1  0.62630265  0.75104908  0.66155394  1
  O2-  O184  1  0.87552910  -0.00268063  0.16293312  1
  O2-  O185  1  0.87464958  -0.00188182  0.66621369  1
  O2-  O186  1  0.87526345  0.25259724  0.16182498  1
  O2-  O187  1  0.87515249  0.24963805  0.66838356  1
  O2-  O188  1  0.87506496  0.49909535  0.16759536  1
  O2-  O189  1  0.87464200  0.50139208  0.66733798  1
  O2-  O190  1  0.87586049  0.75097334  0.16977449  1
  O2-  O191  1  0.87399758  0.75132128  0.66469057  1
  O2-  O192  1  0.00095712  0.12477101  0.16657572  1
  O2-  O193  1  0.00158209  0.12545028  0.66701165  1
  O2-  O194  1  -0.00166106  0.37618650  0.16711654  1
  O2-  O195  1  0.00066847  0.37507903  0.66776980  1
  O2-  O196  1  -0.00081692  0.62485545  0.17274869  1
  O2-  O197  1  0.00059774  0.62506425  0.66528115  1
  O2-  O198  1  -0.00126979  0.87404039  0.17125726  1
  O2-  O199  1  -0.00375898  0.87486042  0.66609416  1
  O2-  O200  1  0.25293257  0.12490472  0.16343881  1
  O2-  O201  1  0.24991896  0.12509332  0.66496403  1
  O2-  O202  1  0.24987500  0.37613161  0.16860078  1
  O2-  O203  1  0.24882877  0.37471229  0.66413679  1
  O2-  O204  1  0.24898927  0.62489111  0.16866400  1
  O2-  O205  1  0.25052364  0.62539663  0.65562588  1
  O2-  O206  1  0.24862793  0.87300602  0.16745661  1
  O2-  O207  1  0.25068086  0.87567394  0.66176695  1
  O2-  O208  1  0.49717078  0.12531355  0.15741254  1
  O2-  O209  1  0.49999866  0.12569540  0.66646152  1
  O2-  O210  1  0.50059839  0.37616285  0.16023788  1
  O2-  O211  1  0.50162639  0.37443846  0.66628571  1
  O2-  O212  1  0.50008621  0.62361231  0.16163044  1
  O2-  O213  1  0.49931789  0.62549711  0.66032567  1
  O2-  O214  1  0.49845348  0.87374999  0.15968776  1
  O2-  O215  1  0.50147094  0.87555738  0.66375730  1
  O2-  O216  1  0.74880213  0.12526022  0.16256665  1
  O2-  O217  1  0.74870216  0.12518555  0.66726133  1
  O2-  O218  1  0.75103616  0.37568031  0.15886251  1
  O2-  O219  1  0.74927498  0.37465147  0.66932252  1
  O2-  O220  1  0.75170011  0.62469021  0.16435951  1
  O2-  O221  1  0.75006518  0.62514365  0.66789247  1
  O2-  O222  1  0.75376638  0.87408141  0.16266008  1
  O2-  O223  1  0.75171123  0.87575217  0.66748594  1
  O2-  O224  1  0.12491375  0.00260857  0.34443180  1
  O2-  O225  1  0.12514358  -0.00205123  0.85061946  1
  O2-  O226  1  0.12523069  0.24884973  0.34274573  1
  O2-  O227  1  0.12493273  0.25249640  0.85130617  1
  O2-  O228  1  0.12462515  0.50052494  0.35202870  1
  O2-  O229  1  0.12536870  0.50087225  0.84519518  1
  O2-  O230  1  0.12526687  0.74713338  0.35451413  1
  O2-  O231  1  0.12465101  0.74920607  0.84145080  1
  O2-  O232  1  0.37574840  0.00025476  0.33860321  1
  O2-  O233  1  0.37442618  0.00037467  0.85085460  1
  O2-  O234  1  0.37544041  0.24723632  0.34092225  1
  O2-  O235  1  0.37535670  0.24938626  0.85395199  1
  O2-  O236  1  0.37581491  0.50294050  0.35189281  1
  O2-  O237  1  0.37482141  0.50050795  0.84558210  1
  O2-  O238  1  0.37521068  0.74928511  0.35099849  1
  O2-  O239  1  0.37453760  0.74996649  0.83830034  1
  O2-  O240  1  0.62471204  0.00010525  0.34039290  1
  O2-  O241  1  0.62486579  0.00158878  0.84915082  1
  O2-  O242  1  0.62487962  0.24847498  0.33896194  1
  O2-  O243  1  0.62468312  0.25192799  0.85237325  1
  O2-  O244  1  0.62501843  0.49974823  0.34618849  1
  O2-  O245  1  0.62540829  0.49914953  0.84738489  1
  O2-  O246  1  0.62512760  0.75096546  0.34785670  1
  O2-  O247  1  0.62502412  0.74814843  0.84435761  1
  O2-  O248  1  0.87427970  -0.00261382  0.34692830  1
  O2-  O249  1  0.87570319  -0.00304125  0.85041590  1
  O2-  O250  1  0.87434646  0.24848988  0.34546122  1
  O2-  O251  1  0.87507539  0.25328981  0.85226689  1
  O2-  O252  1  0.87414803  0.50080817  0.35092522  1
  O2-  O253  1  0.87473180  0.49876682  0.85112030  1
  O2-  O254  1  0.87400054  0.75259661  0.35346612  1
  O2-  O255  1  0.87609435  0.75157755  0.84851989  1
  O2-  O256  1  0.00129537  0.12458736  0.34929364  1
  O2-  O257  1  0.00054919  0.12498677  0.84991357  1
  O2-  O258  1  0.00160745  0.37486422  0.34849841  1
  O2-  O259  1  -0.00190028  0.37702912  0.85202103  1
  O2-  O260  1  0.00089680  0.62514902  0.35520546  1
  O2-  O261  1  0.00082114  0.62504267  0.84763591  1
  O2-  O262  1  -0.00313150  0.87469304  0.35432555  1
  O2-  O263  1  -0.00064175  0.87343273  0.85109168  1
  O2-  O264  1  0.25043470  0.12469391  0.34361469  1
  O2-  O265  1  0.25268732  0.12554141  0.84880510  1
  O2-  O266  1  0.24794135  0.37519363  0.34842413  1
  O2-  O267  1  0.24947033  0.37565378  0.84877707  1
  O2-  O268  1  0.25046812  0.62459335  0.35347881  1
  O2-  O269  1  0.25071373  0.62464466  0.83677186  1
  O2-  O270  1  0.25252188  0.87505675  0.34860056  1
  O2-  O271  1  0.24992384  0.87463314  0.84443271  1
  O2-  O272  1  0.50012656  0.12455057  0.33837452  1
  O2-  O273  1  0.49846416  0.12568968  0.84885462  1
  O2-  O274  1  0.50238932  0.37440157  0.34143109  1
  O2-  O275  1  0.50260539  0.37581289  0.85026570  1
  O2-  O276  1  0.49956421  0.62540003  0.34443498  1
  O2-  O277  1  0.49944330  0.62428619  0.84126390  1
  O2-  O278  1  0.50062658  0.87482499  0.34027850  1
  O2-  O279  1  0.49788474  0.87474141  0.84636434  1
  O2-  O280  1  0.74801107  0.12407594  0.34560214  1
  O2-  O281  1  0.74831887  0.12550890  0.84932865  1
  O2-  O282  1  0.74788160  0.37431872  0.34211017  1
  O2-  O283  1  0.75000763  0.37605711  0.85323219  1
  O2-  O284  1  0.74859067  0.62549272  0.34628542  1
  O2-  O285  1  0.74973344  0.62520931  0.85038217  1
  O2-  O286  1  0.74981866  0.87518257  0.34566160  1
  O2-  O287  1  0.75281258  0.87405224  0.85200568  1
