# generated using pymatgen
data_BaYFeCuO5
_symmetry_space_group_name_H-M   'P 1'
_cell_length_a   15.67185277
_cell_length_b   15.67245797
_cell_length_c   15.49035830
_cell_angle_alpha   89.99412038
_cell_angle_beta   90.00535950
_cell_angle_gamma   90.00960457
_symmetry_Int_Tables_number   1
_chemical_formula_structural   BaYFeCuO5
_chemical_formula_sum   'Ba32 Y32 Fe32 Cu32 O160'
_cell_volume   3804.68678435
_cell_formula_units_Z   32
loop_
 _symmetry_equiv_pos_site_id
 _symmetry_equiv_pos_as_xyz
  1  'x, y, z'
loop_
 _atom_type_symbol
 _atom_type_oxidation_number
  Ba2+  2.0
  Y3+  3.0
  Fe3+  3.0
  Cu2+  2.0
  O2-  -2.0
loop_
 _atom_site_type_symbol
 _atom_site_label
 _atom_site_symmetry_multiplicity
 _atom_site_fract_x
 _atom_site_fract_y
 _atom_site_fract_z
 _atom_site_occupancy
  Ba2+  Ba0  1  0.00317557  -0.00756175  0.00630054  1
  Ba2+  Ba1  1  -0.00043696  0.00225116  0.51859923  1
  Ba2+  Ba2  1  0.00426744  0.25555609  0.00128206  1
  Ba2+  Ba3  1  0.00145984  0.24755021  0.50806595  1
  Ba2+  Ba4  1  0.00194976  0.50246789  0.01935970  1
  Ba2+  Ba5  1  0.00193821  0.48888761  0.50285993  1
  Ba2+  Ba6  1  0.00019678  0.75024540  0.02210144  1
  Ba2+  Ba7  1  0.00117625  0.76146269  0.51076196  1
  Ba2+  Ba8  1  0.25045816  -0.00044573  0.01701114  1
  Ba2+  Ba9  1  0.24339228  0.00347839  0.51632909  1
  Ba2+  Ba10  1  0.25148025  0.25089667  0.00489773  1
  Ba2+  Ba11  1  0.24768777  0.25286555  0.51601749  1
  Ba2+  Ba12  1  0.24942561  0.50209315  0.02027799  1
  Ba2+  Ba13  1  0.25319352  0.49116231  0.51008189  1
  Ba2+  Ba14  1  0.24961938  0.74891393  0.02712136  1
  Ba2+  Ba15  1  0.24802242  0.75239338  0.50922426  1
  Ba2+  Ba16  1  0.49419053  0.00406830  0.02252230  1
  Ba2+  Ba17  1  0.50310418  -0.00258709  0.51083624  1
  Ba2+  Ba18  1  0.49909045  0.25031792  0.01923999  1
  Ba2+  Ba19  1  0.48930905  0.25149590  0.51133943  1
  Ba2+  Ba20  1  0.49857600  0.49977972  0.00420078  1
  Ba2+  Ba21  1  0.49612465  0.50379623  0.51210322  1
  Ba2+  Ba22  1  0.49414098  0.74451236  0.01341678  1
  Ba2+  Ba23  1  0.50793273  0.74622319  0.51102081  1
  Ba2+  Ba24  1  0.75315247  -0.00370668  0.01055453  1
  Ba2+  Ba25  1  0.75552229  -0.00362001  0.51430541  1
  Ba2+  Ba26  1  0.74461502  0.25462078  0.01362385  1
  Ba2+  Ba27  1  0.76182073  0.24651098  0.50187528  1
  Ba2+  Ba28  1  0.75041089  0.50045767  0.00470660  1
  Ba2+  Ba29  1  0.74699811  0.50314474  0.50366301  1
  Ba2+  Ba30  1  0.75726211  0.74685646  0.00682860  1
  Ba2+  Ba31  1  0.74265090  0.75480534  0.51148467  1
  Y3+  Y32  1  -0.00053248  -0.00175043  0.25695078  1
  Y3+  Y33  1  -0.00018850  0.00007349  0.75767569  1
  Y3+  Y34  1  -0.00033754  0.25105262  0.26115854  1
  Y3+  Y35  1  0.00183134  0.24860375  0.75580077  1
  Y3+  Y36  1  0.00121835  0.49850876  0.25991255  1
  Y3+  Y37  1  0.00059022  0.49805702  0.75576947  1
  Y3+  Y38  1  -0.00005825  0.75197684  0.25682341  1
  Y3+  Y39  1  -0.00088679  0.75384970  0.75569951  1
  Y3+  Y40  1  0.24906478  -0.00142925  0.25703324  1
  Y3+  Y41  1  0.24740328  0.00220977  0.75513952  1
  Y3+  Y42  1  0.24942385  0.25241606  0.25993008  1
  Y3+  Y43  1  0.24946812  0.25067234  0.75390211  1
  Y3+  Y44  1  0.24918319  0.49798088  0.26176775  1
  Y3+  Y45  1  0.25196226  0.49757207  0.75189579  1
  Y3+  Y46  1  0.24881757  0.75107206  0.25948806  1
  Y3+  Y47  1  0.24990898  0.75002900  0.75081660  1
  Y3+  Y48  1  0.50093726  -0.00011121  0.25815786  1
  Y3+  Y49  1  0.50045922  -0.00075680  0.75391587  1
  Y3+  Y50  1  0.49999800  0.25003576  0.25888701  1
  Y3+  Y51  1  0.49654819  0.25155432  0.75530622  1
  Y3+  Y52  1  0.50007874  0.49962469  0.26146665  1
  Y3+  Y53  1  0.49888579  0.50172236  0.75331120  1
  Y3+  Y54  1  0.50152148  0.74984199  0.26118539  1
  Y3+  Y55  1  0.50244286  0.74773553  0.75322283  1
  Y3+  Y56  1  0.75051853  -0.00060697  0.25759783  1
  Y3+  Y57  1  0.75265539  -0.00215365  0.75775505  1
  Y3+  Y58  1  0.75088869  0.24879373  0.25889430  1
  Y3+  Y59  1  0.75243352  0.24921609  0.75812271  1
  Y3+  Y60  1  0.74945916  0.50046296  0.26003006  1
  Y3+  Y61  1  0.74848057  0.50218187  0.75706477  1
  Y3+  Y62  1  0.74927172  0.75060360  0.25915030  1
  Y3+  Y63  1  0.74855172  0.75144473  0.75688409  1
  Fe3+  Fe64  1  0.62363200  0.37477785  0.87500030  1
  Fe3+  Fe65  1  0.12604945  0.62586897  0.87410672  1
  Fe3+  Fe66  1  0.62588968  0.12412458  0.37987461  1
  Fe3+  Fe67  1  0.37475331  0.62505237  0.37841430  1
  Fe3+  Fe68  1  0.12642418  0.37709081  0.87534528  1
  Fe3+  Fe69  1  0.37493105  0.12485397  0.87438880  1
  Fe3+  Fe70  1  0.87515256  0.62589775  0.38040923  1
  Fe3+  Fe71  1  0.37294941  0.62523442  0.87309738  1
  Fe3+  Fe72  1  0.37495002  0.87570592  0.37895711  1
  Fe3+  Fe73  1  0.12695601  0.87353391  0.87550107  1
  Fe3+  Fe74  1  0.87710105  0.62490179  0.87470004  1
  Fe3+  Fe75  1  0.62365119  0.12450196  0.87699067  1
  Fe3+  Fe76  1  0.62329888  0.87429905  0.87998471  1
  Fe3+  Fe77  1  0.87507524  0.87597422  0.37575640  1
  Fe3+  Fe78  1  0.37444152  0.87433854  0.87475124  1
  Fe3+  Fe79  1  0.87557977  0.12560417  0.88055561  1
  Fe3+  Fe80  1  0.12427860  0.62522491  0.37963883  1
  Fe3+  Fe81  1  0.62465116  0.37412480  0.38107280  1
  Fe3+  Fe82  1  0.12434487  0.12413900  0.37651004  1
  Fe3+  Fe83  1  0.37382154  0.12469281  0.37751749  1
  Fe3+  Fe84  1  0.87596320  0.12514989  0.13508623  1
  Fe3+  Fe85  1  0.62480394  0.87395591  0.13531156  1
  Fe3+  Fe86  1  0.62604328  0.12580190  0.63403021  1
  Fe3+  Fe87  1  0.87533971  0.62586846  0.63338853  1
  Fe3+  Fe88  1  0.62588434  0.37412869  0.63422032  1
  Fe3+  Fe89  1  0.12408899  0.62418754  0.63189537  1
  Fe3+  Fe90  1  0.37495634  0.37565547  0.14038275  1
  Fe3+  Fe91  1  0.62496178  0.62351634  0.13905262  1
  Fe3+  Fe92  1  0.12454338  0.12635931  0.13658767  1
  Fe3+  Fe93  1  0.37538145  0.87519936  0.63313883  1
  Fe3+  Fe94  1  0.87489990  0.37529123  0.13968541  1
  Fe3+  Fe95  1  0.87453536  0.37497698  0.63847813  1
  Cu2+  Cu96  1  0.62512732  0.62531012  0.37336724  1
  Cu2+  Cu97  1  0.62422412  0.62541358  0.86330074  1
  Cu2+  Cu98  1  0.12549212  0.37374084  0.37368477  1
  Cu2+  Cu99  1  0.87514936  0.37553318  0.86344430  1
  Cu2+  Cu100  1  0.37482356  0.37557735  0.86111299  1
  Cu2+  Cu101  1  0.37533630  0.37419484  0.37295928  1
  Cu2+  Cu102  1  0.12461064  0.87634673  0.37310901  1
  Cu2+  Cu103  1  0.87608485  0.12326440  0.37207024  1
  Cu2+  Cu104  1  0.87433346  0.37506428  0.36448366  1
  Cu2+  Cu105  1  0.12571055  0.12496869  0.86503607  1
  Cu2+  Cu106  1  0.62537602  0.87589177  0.37304308  1
  Cu2+  Cu107  1  0.87567437  0.87397553  0.87361723  1
  Cu2+  Cu108  1  0.87477809  0.12528584  0.64374335  1
  Cu2+  Cu109  1  0.12481415  0.37444364  0.15421886  1
  Cu2+  Cu110  1  0.62501094  0.37560497  0.15628037  1
  Cu2+  Cu111  1  0.37559504  0.62409347  0.15807706  1
  Cu2+  Cu112  1  0.62649991  0.62448976  0.64159794  1
  Cu2+  Cu113  1  0.12485323  0.87565684  0.64062539  1
  Cu2+  Cu114  1  0.87418518  0.87466777  0.14133173  1
  Cu2+  Cu115  1  0.37447241  0.62568656  0.64395973  1
  Cu2+  Cu116  1  0.37388480  0.12599773  0.15536530  1
  Cu2+  Cu117  1  0.37504684  0.12432475  0.64729056  1
  Cu2+  Cu118  1  0.37547003  0.37494128  0.64153381  1
  Cu2+  Cu119  1  0.87432662  0.62432104  0.15651103  1
  Cu2+  Cu120  1  0.12429194  0.12548512  0.65185053  1
  Cu2+  Cu121  1  0.62562332  0.12493577  0.15214871  1
  Cu2+  Cu122  1  0.62528808  0.87582861  0.64286278  1
  Cu2+  Cu123  1  0.37590134  0.87439396  0.15477250  1
  Cu2+  Cu124  1  0.12377903  0.37492438  0.64176689  1
  Cu2+  Cu125  1  0.12503350  0.62462217  0.15782510  1
  Cu2+  Cu126  1  0.87484922  0.87489140  0.65224226  1
  Cu2+  Cu127  1  0.12520460  0.87544401  0.15352123  1
  O2-  O128  1  0.12537267  0.12667491  0.01636229  1
  O2-  O129  1  0.12431783  0.12453427  0.49715862  1
  O2-  O130  1  0.12680197  0.37867059  -0.00417350  1
  O2-  O131  1  0.12421415  0.37341534  0.50699616  1
  O2-  O132  1  0.12622863  0.62594217  -0.00623899  1
  O2-  O133  1  0.12355572  0.62449826  0.50529135  1
  O2-  O134  1  0.12860772  0.87166159  -0.00419521  1
  O2-  O135  1  0.12493727  0.87686401  0.50607586  1
  O2-  O136  1  0.37581693  0.12472396  -0.00529595  1
  O2-  O137  1  0.37342265  0.12337069  0.49738305  1
  O2-  O138  1  0.37502868  0.37641603  0.01966067  1
  O2-  O139  1  0.37577065  0.37408174  0.50756565  1
  O2-  O140  1  0.37190119  0.62564284  -0.00660822  1
  O2-  O141  1  0.37461352  0.62639669  0.49842316  1
  O2-  O142  1  0.37396630  0.87386077  -0.00541726  1
  O2-  O143  1  0.37563455  0.87607232  0.50526881  1
  O2-  O144  1  0.62183105  0.12549899  -0.00349096  1
  O2-  O145  1  0.62664998  0.12516570  0.50643657  1
  O2-  O146  1  0.62269614  0.37511126  -0.00447621  1
  O2-  O147  1  0.62601442  0.37279079  0.50773421  1
  O2-  O148  1  0.62438734  0.62340142  0.01862855  1
  O2-  O149  1  0.62634902  0.62460813  0.50785080  1
  O2-  O150  1  0.62210809  0.87373555  0.00699094  1
  O2-  O151  1  0.62541018  0.87721501  0.50713821  1
  O2-  O152  1  0.87514289  0.12660078  0.00802016  1
  O2-  O153  1  0.87581584  0.12351790  0.50797911  1
  O2-  O154  1  0.87450466  0.37644835  0.01948166  1
  O2-  O155  1  0.87403606  0.37416468  0.51822383  1
  O2-  O156  1  0.87813378  0.62404887  -0.00474094  1
  O2-  O157  1  0.87523621  0.62603196  0.50680976  1
  O2-  O158  1  0.87542208  0.87344164  0.00669842  1
  O2-  O159  1  0.87501147  0.87654281  0.49656779  1
  O2-  O160  1  0.12546613  0.00042467  0.16282734  1
  O2-  O161  1  0.12435700  0.00148902  0.66591760  1
  O2-  O162  1  0.12461939  0.24973102  0.16692235  1
  O2-  O163  1  0.12425438  0.24905573  0.66566798  1
  O2-  O164  1  0.12460790  0.49972411  0.16802595  1
  O2-  O165  1  0.12413399  0.50275674  0.66121102  1
  O2-  O166  1  0.12526933  0.75031783  0.16693256  1
  O2-  O167  1  0.12435862  0.74713378  0.65881964  1
  O2-  O168  1  0.37564145  0.00047696  0.16351975  1
  O2-  O169  1  0.37582612  -0.00137529  0.66083149  1
  O2-  O170  1  0.37542817  0.25107240  0.16724292  1
  O2-  O171  1  0.37512367  0.24803498  0.66457764  1
  O2-  O172  1  0.37488912  0.49944724  0.16968169  1
  O2-  O173  1  0.37556012  0.50171532  0.66236663  1
  O2-  O174  1  0.37562668  0.74882542  0.16671902  1
  O2-  O175  1  0.37506710  0.75182122  0.65844124  1
  O2-  O176  1  0.62451171  -0.00170856  0.16258324  1
  O2-  O177  1  0.62519961  0.00306246  0.66362113  1
  O2-  O178  1  0.62530083  0.25000070  0.16585836  1
  O2-  O179  1  0.62549740  0.24995367  0.66221775  1
  O2-  O180  1  0.62522239  0.50045663  0.17165530  1
  O2-  O181  1  0.62596414  0.49687305  0.66158216  1
  O2-  O182  1  0.62424343  0.75023412  0.16657719  1
  O2-  O183  1  0.62565093  0.75046143  0.66479020  1
  O2-  O184  1  0.87424766  0.00268808  0.16068922  1
  O2-  O185  1  0.87459628  -0.00158898  0.66765691  1
  O2-  O186  1  0.87464236  0.24890867  0.16677226  1
  O2-  O187  1  0.87439071  0.25171452  0.66941877  1
  O2-  O188  1  0.87484179  0.49936191  0.17093919  1
  O2-  O189  1  0.87455521  0.50145973  0.66346455  1
  O2-  O190  1  0.87448027  0.74825853  0.16606935  1
  O2-  O191  1  0.87533207  0.74945831  0.65996548  1
  O2-  O192  1  -0.00105244  0.12496572  0.16527134  1
  O2-  O193  1  0.00066122  0.12475334  0.66769375  1
  O2-  O194  1  -0.00011953  0.37557827  0.16711896  1
  O2-  O195  1  -0.00212855  0.37517048  0.66683819  1
  O2-  O196  1  -0.00015840  0.62464515  0.16659164  1
  O2-  O197  1  -0.00076855  0.62520141  0.66013799  1
  O2-  O198  1  0.00087820  0.87436275  0.16367688  1
  O2-  O199  1  -0.00108163  0.87587323  0.66448927  1
  O2-  O200  1  0.24917043  0.12484115  0.16537628  1
  O2-  O201  1  0.24948549  0.12488302  0.66174148  1
  O2-  O202  1  0.24970343  0.37571051  0.16752434  1
  O2-  O203  1  0.24974967  0.37481856  0.66192854  1
  O2-  O204  1  0.25025630  0.62467370  0.16684808  1
  O2-  O205  1  0.24789818  0.62519537  0.65712908  1
  O2-  O206  1  0.25097517  0.87457614  0.16615702  1
  O2-  O207  1  0.25272144  0.87558620  0.65906042  1
  O2-  O208  1  0.49943831  0.12544972  0.16651129  1
  O2-  O209  1  0.50224836  0.12523046  0.65898868  1
  O2-  O210  1  0.50014981  0.37457283  0.16887472  1
  O2-  O211  1  0.50314367  0.37444894  0.66194802  1
  O2-  O212  1  0.50061609  0.62459213  0.16735644  1
  O2-  O213  1  0.49934063  0.62526880  0.66303778  1
  O2-  O214  1  0.50177255  0.87498499  0.16510346  1
  O2-  O215  1  0.49739435  0.87523962  0.66287419  1
  O2-  O216  1  0.75224616  0.12563182  0.16440628  1
  O2-  O217  1  0.74719919  0.12493319  0.66680173  1
  O2-  O218  1  0.75005958  0.37450871  0.16895625  1
  O2-  O219  1  0.74896364  0.37462887  0.66771860  1
  O2-  O220  1  0.74902118  0.62459493  0.16882797  1
  O2-  O221  1  0.75385943  0.62563315  0.66580720  1
  O2-  O222  1  0.74638744  0.87455873  0.16299414  1
  O2-  O223  1  0.75121388  0.87547577  0.66855163  1
  O2-  O224  1  0.12494462  0.00171497  0.34386969  1
  O2-  O225  1  0.12573069  -0.00039899  0.84919585  1
  O2-  O226  1  0.12472506  0.24797685  0.34779662  1
  O2-  O227  1  0.12536573  0.25096075  0.84926281  1
  O2-  O228  1  0.12434619  0.50229714  0.35224751  1
  O2-  O229  1  0.12544239  0.50072898  0.84125033  1
  O2-  O230  1  0.12467356  0.74739563  0.35132919  1
  O2-  O231  1  0.12588386  0.74989749  0.83882892  1
  O2-  O232  1  0.37556053  -0.00045633  0.34668803  1
  O2-  O233  1  0.37555102  -0.00056768  0.84222390  1
  O2-  O234  1  0.37599892  0.24783096  0.34821899  1
  O2-  O235  1  0.37519727  0.25020091  0.84761498  1
  O2-  O236  1  0.37509486  0.50122932  0.35086997  1
  O2-  O237  1  0.37541537  0.50047524  0.84486453  1
  O2-  O238  1  0.37483259  0.75113072  0.35014221  1
  O2-  O239  1  0.37533223  0.75025878  0.83951418  1
  O2-  O240  1  0.62500559  0.00307877  0.34717056  1
  O2-  O241  1  0.62440596  -0.00113076  0.84702166  1
  O2-  O242  1  0.62561273  0.24902490  0.35119092  1
  O2-  O243  1  0.62493887  0.24934608  0.84356134  1
  O2-  O244  1  0.62554367  0.49714772  0.35425860  1
  O2-  O245  1  0.62449772  0.49964452  0.84541571  1
  O2-  O246  1  0.62517118  0.75011662  0.34934448  1
  O2-  O247  1  0.62432100  0.75156253  0.84901490  1
  O2-  O248  1  0.87453401  -0.00180466  0.34261051  1
  O2-  O249  1  0.87463128  0.00322143  0.85208421  1
  O2-  O250  1  0.87424768  0.25109209  0.34998600  1
  O2-  O251  1  0.87450355  0.24870701  0.85255174  1
  O2-  O252  1  0.87469657  0.50157526  0.35464337  1
  O2-  O253  1  0.87452865  0.50082341  0.84453260  1
  O2-  O254  1  0.87513913  0.74906544  0.34903698  1
  O2-  O255  1  0.87456204  0.74768813  0.84273995  1
  O2-  O256  1  0.00115252  0.12494334  0.34629014  1
  O2-  O257  1  -0.00138245  0.12577214  0.85238012  1
  O2-  O258  1  -0.00193974  0.37497219  0.35022613  1
  O2-  O259  1  0.00065821  0.37523837  0.84835272  1
  O2-  O260  1  -0.00063604  0.62467581  0.35142721  1
  O2-  O261  1  0.00137604  0.62495968  0.84077897  1
  O2-  O262  1  -0.00198171  0.87439448  0.34590453  1
  O2-  O263  1  0.00277262  0.87499979  0.84699183  1
  O2-  O264  1  0.24986661  0.12447185  0.34579835  1
  O2-  O265  1  0.25121053  0.12539400  0.84504899  1
  O2-  O266  1  0.25063335  0.37475179  0.34987179  1
  O2-  O267  1  0.25004099  0.37509884  0.84450313  1
  O2-  O268  1  0.24872858  0.62540510  0.35010373  1
  O2-  O269  1  0.24973049  0.62516002  0.83753819  1
  O2-  O270  1  0.25301542  0.87496058  0.35002909  1
  O2-  O271  1  0.25053045  0.87496822  0.83918590  1
  O2-  O272  1  0.50131388  0.12453993  0.35075276  1
  O2-  O273  1  0.49990627  0.12476740  0.84014755  1
  O2-  O274  1  0.50320652  0.37396834  0.35156857  1
  O2-  O275  1  0.49992457  0.37546603  0.84432121  1
  O2-  O276  1  0.49855795  0.62538392  0.34885048  1
  O2-  O277  1  0.49895246  0.62514403  0.84653450  1
  O2-  O278  1  0.49707595  0.87572419  0.34929849  1
  O2-  O279  1  0.50068013  0.87482520  0.84524313  1
  O2-  O280  1  0.74793276  0.12503159  0.34954039  1
  O2-  O281  1  0.75040028  0.12498225  0.84996382  1
  O2-  O282  1  0.74812331  0.37410230  0.35254485  1
  O2-  O283  1  0.74930436  0.37535749  0.84905778  1
  O2-  O284  1  0.75289241  0.62505120  0.35164512  1
  O2-  O285  1  0.74999206  0.62473027  0.84971316  1
  O2-  O286  1  0.75189817  0.87512134  0.34519019  1
  O2-  O287  1  0.74644741  0.87509247  0.85278692  1
