# generated using pymatgen
data_BaYFeCuO5
_symmetry_space_group_name_H-M   'P 1'
_cell_length_a   15.66906166
_cell_length_b   15.66947240
_cell_length_c   15.47947844
_cell_angle_alpha   89.99508155
_cell_angle_beta   90.00403150
_cell_angle_gamma   89.99958696
_symmetry_Int_Tables_number   1
_chemical_formula_structural   BaYFeCuO5
_chemical_formula_sum   'Ba32 Y32 Fe32 Cu32 O160'
_cell_volume   3800.61330610
_cell_formula_units_Z   32
loop_
 _symmetry_equiv_pos_site_id
 _symmetry_equiv_pos_as_xyz
  1  'x, y, z'
loop_
 _atom_type_symbol
 _atom_type_oxidation_number
  Ba2+  2.0
  Y3+  3.0
  Fe3+  3.0
  Cu2+  2.0
  O2-  -2.0
loop_
 _atom_site_type_symbol
 _atom_site_label
 _atom_site_symmetry_multiplicity
 _atom_site_fract_x
 _atom_site_fract_y
 _atom_site_fract_z
 _atom_site_occupancy
  Ba2+  Ba0  1  0.00201509  0.01050572  0.00266755  1
  Ba2+  Ba1  1  -0.00213707  0.00259490  0.52223343  1
  Ba2+  Ba2  1  -0.00069197  0.24620610  0.00615267  1
  Ba2+  Ba3  1  -0.00416117  0.24826548  0.51557227  1
  Ba2+  Ba4  1  -0.00642180  0.49368629  0.01490631  1
  Ba2+  Ba5  1  0.00217991  0.49260265  0.50672517  1
  Ba2+  Ba6  1  -0.00202622  0.74942805  0.00720256  1
  Ba2+  Ba7  1  0.00488202  0.75578847  0.51219769  1
  Ba2+  Ba8  1  0.24311056  0.00885171  0.00652414  1
  Ba2+  Ba9  1  0.24552556  -0.00486738  0.52367432  1
  Ba2+  Ba10  1  0.24986319  0.25027728  0.00697474  1
  Ba2+  Ba11  1  0.24452068  0.25304016  0.52208881  1
  Ba2+  Ba12  1  0.25222865  0.48751194  0.00214002  1
  Ba2+  Ba13  1  0.25077608  0.50022223  0.51770695  1
  Ba2+  Ba14  1  0.24560627  0.75369156  0.00291687  1
  Ba2+  Ba15  1  0.25187525  0.75099765  0.51956461  1
  Ba2+  Ba16  1  0.50293103  0.01231913  0.01071575  1
  Ba2+  Ba17  1  0.50436161  -0.00548078  0.52308072  1
  Ba2+  Ba18  1  0.50359655  0.25439202  0.01196193  1
  Ba2+  Ba19  1  0.50034211  0.24900861  0.51604095  1
  Ba2+  Ba20  1  0.50749147  0.49149513  0.00671814  1
  Ba2+  Ba21  1  0.49416678  0.50449133  0.51282508  1
  Ba2+  Ba22  1  0.50732924  0.74243357  0.00705893  1
  Ba2+  Ba23  1  0.49758303  0.75150212  0.51962092  1
  Ba2+  Ba24  1  0.75122969  0.01400889  0.00670273  1
  Ba2+  Ba25  1  0.75248854  0.00211934  0.52214068  1
  Ba2+  Ba26  1  0.74807071  0.25029190  0.01329876  1
  Ba2+  Ba27  1  0.75883789  0.24542690  0.51006405  1
  Ba2+  Ba28  1  0.74583290  0.49610432  0.01919379  1
  Ba2+  Ba29  1  0.75275083  0.49711185  0.50216815  1
  Ba2+  Ba30  1  0.74895636  0.73822646  0.01203846  1
  Ba2+  Ba31  1  0.74529211  0.75618437  0.51218646  1
  Y3+  Y32  1  -0.00137263  0.00504439  0.25450955  1
  Y3+  Y33  1  -0.00007503  0.00331219  0.75982395  1
  Y3+  Y34  1  -0.00357963  0.24808217  0.25876108  1
  Y3+  Y35  1  -0.00067776  0.24854159  0.75646528  1
  Y3+  Y36  1  -0.00230647  0.49883230  0.26088715  1
  Y3+  Y37  1  -0.00054751  0.49552111  0.75469634  1
  Y3+  Y38  1  -0.00028110  0.74881270  0.25679297  1
  Y3+  Y39  1  0.00005135  0.75264342  0.75869330  1
  Y3+  Y40  1  0.24980223  0.00356156  0.25233030  1
  Y3+  Y41  1  0.24592952  0.00065946  0.76059755  1
  Y3+  Y42  1  0.25086679  0.24840377  0.25269209  1
  Y3+  Y43  1  0.24727086  0.25189165  0.76040352  1
  Y3+  Y44  1  0.25048583  0.49838552  0.25605576  1
  Y3+  Y45  1  0.25165730  0.49527115  0.75849583  1
  Y3+  Y46  1  0.24940740  0.74950681  0.25531381  1
  Y3+  Y47  1  0.24972562  0.75138302  0.75959865  1
  Y3+  Y48  1  0.50018061  0.00364945  0.25327541  1
  Y3+  Y49  1  0.50290355  0.00165098  0.75886431  1
  Y3+  Y50  1  0.50045558  0.25032351  0.25278646  1
  Y3+  Y51  1  0.50236267  0.25163876  0.76082594  1
  Y3+  Y52  1  0.50205983  0.49893435  0.25408180  1
  Y3+  Y53  1  0.50032240  0.49753697  0.76138119  1
  Y3+  Y54  1  0.50216942  0.74731563  0.25484448  1
  Y3+  Y55  1  0.50074297  0.74901115  0.75999569  1
  Y3+  Y56  1  0.75151583  0.00493048  0.25501731  1
  Y3+  Y57  1  0.75139253  0.00414313  0.75862216  1
  Y3+  Y58  1  0.75252108  0.24980376  0.25778060  1
  Y3+  Y59  1  0.75099922  0.24783314  0.75758263  1
  Y3+  Y60  1  0.74961135  0.49888305  0.25821881  1
  Y3+  Y61  1  0.74835646  0.49756661  0.75788873  1
  Y3+  Y62  1  0.74882317  0.74694580  0.25632733  1
  Y3+  Y63  1  0.74933537  0.75056022  0.75863771  1
  Fe3+  Fe64  1  0.87483900  0.87682452  0.37566016  1
  Fe3+  Fe65  1  0.37522905  0.62365290  0.87984047  1
  Fe3+  Fe66  1  0.37455029  0.12415585  0.38035743  1
  Fe3+  Fe67  1  0.62432103  0.87586547  0.37331508  1
  Fe3+  Fe68  1  0.62637968  0.87576295  0.88035715  1
  Fe3+  Fe69  1  0.62467275  0.12428409  0.37812998  1
  Fe3+  Fe70  1  0.37473331  0.37375122  0.37707601  1
  Fe3+  Fe71  1  0.12614148  0.37372136  0.37696749  1
  Fe3+  Fe72  1  0.12543581  0.12440806  0.37804084  1
  Fe3+  Fe73  1  0.87449695  0.62272096  0.87601673  1
  Fe3+  Fe74  1  0.12358659  0.62255117  0.88009004  1
  Fe3+  Fe75  1  0.62415290  0.37447540  0.37980816  1
  Fe3+  Fe76  1  0.37469085  0.62572925  0.37435875  1
  Fe3+  Fe77  1  0.12576311  0.87617807  0.37416817  1
  Fe3+  Fe78  1  0.37565345  0.87644976  0.87975026  1
  Fe3+  Fe79  1  0.87446867  0.87593836  0.87988620  1
  Fe3+  Fe80  1  0.87406541  0.37416104  0.87592533  1
  Fe3+  Fe81  1  0.87538252  0.62673590  0.37995656  1
  Fe3+  Fe82  1  0.37543262  0.12640527  0.87569313  1
  Fe3+  Fe83  1  0.37515347  0.87612201  0.37377740  1
  Fe3+  Fe84  1  0.37469741  0.12495933  0.63664484  1
  Fe3+  Fe85  1  0.12364670  0.87620085  0.13431146  1
  Fe3+  Fe86  1  0.12453301  0.62340872  0.13419040  1
  Fe3+  Fe87  1  0.62625808  0.87594891  0.13254728  1
  Fe3+  Fe88  1  0.37461906  0.62354484  0.13208727  1
  Fe3+  Fe89  1  0.62482098  0.62444939  0.63785947  1
  Fe3+  Fe90  1  0.87447236  0.87584399  0.13296359  1
  Fe3+  Fe91  1  0.12491234  0.62453209  0.63977228  1
  Fe3+  Fe92  1  0.37547734  0.87545112  0.13077751  1
  Fe3+  Fe93  1  0.87514429  0.62551412  0.63442214  1
  Fe3+  Fe94  1  0.62547488  0.37453496  0.63489985  1
  Fe3+  Fe95  1  0.12368393  0.37386401  0.13794263  1
  Cu2+  Cu96  1  0.87493205  0.12667636  0.87119850  1
  Cu2+  Cu97  1  0.12385830  0.87519886  0.86788849  1
  Cu2+  Cu98  1  0.12603270  0.62522469  0.36324770  1
  Cu2+  Cu99  1  0.12463149  0.12693301  0.87073246  1
  Cu2+  Cu100  1  0.62645333  0.62322927  0.87251190  1
  Cu2+  Cu101  1  0.12306764  0.37513803  0.86422153  1
  Cu2+  Cu102  1  0.62404252  0.62499463  0.36653259  1
  Cu2+  Cu103  1  0.87528977  0.12352973  0.37268724  1
  Cu2+  Cu104  1  0.62704855  0.37402970  0.87010169  1
  Cu2+  Cu105  1  0.87513156  0.37377426  0.37386853  1
  Cu2+  Cu106  1  0.37592456  0.37333200  0.87270854  1
  Cu2+  Cu107  1  0.62535190  0.12660332  0.87149900  1
  Cu2+  Cu108  1  0.62489164  0.12557972  0.65077042  1
  Cu2+  Cu109  1  0.62505663  0.62365245  0.14297951  1
  Cu2+  Cu110  1  0.12444899  0.87477657  0.65813582  1
  Cu2+  Cu111  1  0.12406938  0.12672558  0.14177986  1
  Cu2+  Cu112  1  0.37609801  0.37404470  0.65221556  1
  Cu2+  Cu113  1  0.37498096  0.62473444  0.65871992  1
  Cu2+  Cu114  1  0.87548929  0.62448045  0.15258381  1
  Cu2+  Cu115  1  0.37502248  0.12581480  0.14561461  1
  Cu2+  Cu116  1  0.12483151  0.37493958  0.65252788  1
  Cu2+  Cu117  1  0.87526520  0.12516533  0.64481090  1
  Cu2+  Cu118  1  0.37503238  0.37511674  0.14091637  1
  Cu2+  Cu119  1  0.37514193  0.87582319  0.65784562  1
  Cu2+  Cu120  1  0.12532746  0.12531442  0.65276217  1
  Cu2+  Cu121  1  0.87528117  0.37475543  0.15364418  1
  Cu2+  Cu122  1  0.87491484  0.87448253  0.65467253  1
  Cu2+  Cu123  1  0.87406395  0.37531528  0.64058495  1
  Cu2+  Cu124  1  0.62557344  0.87479478  0.65826716  1
  Cu2+  Cu125  1  0.62600757  0.37412657  0.14659432  1
  Cu2+  Cu126  1  0.62588629  0.12662430  0.14267440  1
  Cu2+  Cu127  1  0.87529685  0.12649672  0.14107911  1
  O2-  O128  1  0.12500645  0.12773338  0.00592327  1
  O2-  O129  1  0.12714212  0.12200785  0.49813111  1
  O2-  O130  1  0.12237233  0.37538337  0.01729939  1
  O2-  O131  1  0.12828412  0.37543673  0.49762159  1
  O2-  O132  1  0.12286478  0.62267765  0.00722139  1
  O2-  O133  1  0.12733815  0.62721491  0.51954085  1
  O2-  O134  1  0.12324693  0.87382209  0.01410776  1
  O2-  O135  1  0.12769854  0.87457306  0.49432474  1
  O2-  O136  1  0.37471466  0.12589041  -0.00355902  1
  O2-  O137  1  0.37420215  0.12223735  0.50633104  1
  O2-  O138  1  0.37556159  0.37440074  0.00590024  1
  O2-  O139  1  0.37401120  0.37490844  0.49690084  1
  O2-  O140  1  0.37499967  0.62337377  0.00595164  1
  O2-  O141  1  0.37360601  0.62818672  0.49470698  1
  O2-  O142  1  0.37520319  0.87621497  0.00498729  1
  O2-  O143  1  0.37515991  0.87479555  0.49375840  1
  O2-  O144  1  0.62463182  0.12713025  0.00684411  1
  O2-  O145  1  0.62284353  0.12126663  0.49826224  1
  O2-  O146  1  0.62733137  0.37389120  0.00841421  1
  O2-  O147  1  0.62294892  0.37551516  0.50718493  1
  O2-  O148  1  0.62615066  0.62329921  0.00747995  1
  O2-  O149  1  0.62210785  0.62736677  0.51748550  1
  O2-  O150  1  0.62689107  0.87543170  0.00612165  1
  O2-  O151  1  0.62250130  0.87459404  0.49359701  1
  O2-  O152  1  0.87561193  0.12697740  0.00693433  1
  O2-  O153  1  0.87577988  0.12166601  0.50871518  1
  O2-  O154  1  0.87341517  0.37586925  -0.00346351  1
  O2-  O155  1  0.87526058  0.37581615  0.50696894  1
  O2-  O156  1  0.87518026  0.62222103  -0.00359626  1
  O2-  O157  1  0.87643284  0.62884050  0.50722980  1
  O2-  O158  1  0.87446663  0.87485687  0.00625062  1
  O2-  O159  1  0.87483440  0.87509318  0.49582137  1
  O2-  O160  1  0.12504618  -0.00107988  0.16207068  1
  O2-  O161  1  0.12539700  -0.00088413  0.66572738  1
  O2-  O162  1  0.12473487  0.25166449  0.16773517  1
  O2-  O163  1  0.12557941  0.25070138  0.66280895  1
  O2-  O164  1  0.12455586  0.50116979  0.16639718  1
  O2-  O165  1  0.12591020  0.50032572  0.66709067  1
  O2-  O166  1  0.12483727  0.74890018  0.16165550  1
  O2-  O167  1  0.12548598  0.74940913  0.67050615  1
  O2-  O168  1  0.37548065  -0.00190887  0.16044029  1
  O2-  O169  1  0.37490392  0.00146709  0.66407762  1
  O2-  O170  1  0.37498152  0.24921505  0.16600700  1
  O2-  O171  1  0.37559164  0.24785802  0.65964449  1
  O2-  O172  1  0.37406797  0.50312046  0.16448079  1
  O2-  O173  1  0.37491035  0.49908887  0.66561752  1
  O2-  O174  1  0.37442356  0.74994124  0.15748352  1
  O2-  O175  1  0.37505362  0.75109088  0.66976789  1
  O2-  O176  1  0.62464786  -0.00259675  0.16062143  1
  O2-  O177  1  0.62501102  -0.00050550  0.66633261  1
  O2-  O178  1  0.62564306  0.25046832  0.16860086  1
  O2-  O179  1  0.62419973  0.25145792  0.66163974  1
  O2-  O180  1  0.62575913  0.49918115  0.16851092  1
  O2-  O181  1  0.62392637  0.49949912  0.66506572  1
  O2-  O182  1  0.62558903  0.75312020  0.16131993  1
  O2-  O183  1  0.62427131  0.74915649  0.66959019  1
  O2-  O184  1  0.87503708  -0.00248416  0.16053294  1
  O2-  O185  1  0.87494621  -0.00153130  0.66837236  1
  O2-  O186  1  0.87491338  0.25167659  0.16767945  1
  O2-  O187  1  0.87489324  0.25008359  0.66331229  1
  O2-  O188  1  0.87548310  0.50019881  0.16818160  1
  O2-  O189  1  0.87496315  0.50385442  0.66110104  1
  O2-  O190  1  0.87487901  0.75145509  0.16144562  1
  O2-  O191  1  0.87497947  0.74824000  0.66647383  1
  O2-  O192  1  -0.00026922  0.12574287  0.16539626  1
  O2-  O193  1  0.00195480  0.12425693  0.66611287  1
  O2-  O194  1  -0.00017149  0.37659788  0.16783851  1
  O2-  O195  1  0.00052265  0.37589273  0.66331861  1
  O2-  O196  1  0.00195597  0.62513390  0.16436549  1
  O2-  O197  1  -0.00092505  0.62608555  0.66573826  1
  O2-  O198  1  -0.00132851  0.87344508  0.16326599  1
  O2-  O199  1  -0.00028167  0.87385050  0.66628802  1
  O2-  O200  1  0.25086879  0.12503279  0.16248360  1
  O2-  O201  1  0.25122805  0.12450975  0.66437822  1
  O2-  O202  1  0.24803413  0.37559107  0.16306462  1
  O2-  O203  1  0.25090023  0.37500730  0.66671533  1
  O2-  O204  1  0.24926357  0.62581381  0.15859279  1
  O2-  O205  1  0.25003199  0.62545114  0.67116054  1
  O2-  O206  1  0.25096804  0.87442983  0.15908268  1
  O2-  O207  1  0.25002342  0.87420644  0.66787192  1
  O2-  O208  1  0.49924598  0.12547238  0.16394372  1
  O2-  O209  1  0.49852009  0.12379961  0.66333830  1
  O2-  O210  1  0.49981734  0.37515978  0.16505403  1
  O2-  O211  1  0.50192594  0.37524377  0.66443271  1
  O2-  O212  1  0.49704694  0.62546686  0.16157829  1
  O2-  O213  1  0.49997347  0.62549578  0.66787976  1
  O2-  O214  1  0.49985593  0.87441238  0.15636899  1
  O2-  O215  1  0.50025068  0.87490699  0.66795264  1
  O2-  O216  1  0.75039157  0.12565735  0.16549626  1
  O2-  O217  1  0.74853972  0.12424242  0.66554773  1
  O2-  O218  1  0.75230919  0.37585542  0.16876566  1
  O2-  O219  1  0.74670400  0.37594703  0.66213666  1
  O2-  O220  1  0.75150075  0.62448599  0.16801514  1
  O2-  O221  1  0.75052144  0.62637434  0.66213403  1
  O2-  O222  1  0.75045092  0.87450716  0.16070753  1
  O2-  O223  1  0.75005118  0.87396990  0.66591116  1
  O2-  O224  1  0.12601283  0.00016766  0.34115575  1
  O2-  O225  1  0.12461881  -0.00056969  0.85023559  1
  O2-  O226  1  0.12618766  0.24910986  0.34760238  1
  O2-  O227  1  0.12440084  0.25206755  0.84704842  1
  O2-  O228  1  0.12601892  0.49954809  0.34881334  1
  O2-  O229  1  0.12517314  0.50149915  0.84976073  1
  O2-  O230  1  0.12570493  0.75104087  0.34349505  1
  O2-  O231  1  0.12473142  0.74722334  0.85379754  1
  O2-  O232  1  0.37505541  0.00163167  0.34314986  1
  O2-  O233  1  0.37549219  -0.00120286  0.84774162  1
  O2-  O234  1  0.37559372  0.24788927  0.34939612  1
  O2-  O235  1  0.37494509  0.24854102  0.84323746  1
  O2-  O236  1  0.37494032  0.49942092  0.34644060  1
  O2-  O237  1  0.37448464  0.50215952  0.85013761  1
  O2-  O238  1  0.37517617  0.75089168  0.33946528  1
  O2-  O239  1  0.37454291  0.75033768  0.85448474  1
  O2-  O240  1  0.62421772  0.00040141  0.34048980  1
  O2-  O241  1  0.62487670  -0.00274523  0.85076998  1
  O2-  O242  1  0.62335713  0.25032247  0.35123166  1
  O2-  O243  1  0.62554857  0.25030439  0.84561401  1
  O2-  O244  1  0.62422055  0.49855496  0.35267523  1
  O2-  O245  1  0.62534565  0.49907552  0.84706126  1
  O2-  O246  1  0.62424062  0.75057793  0.34364810  1
  O2-  O247  1  0.62546279  0.75293018  0.85271067  1
  O2-  O248  1  0.87489196  -0.00179141  0.34167056  1
  O2-  O249  1  0.87498278  -0.00182113  0.85261919  1
  O2-  O250  1  0.87503529  0.24886183  0.35140274  1
  O2-  O251  1  0.87539789  0.25155488  0.84531117  1
  O2-  O252  1  0.87517269  0.50356518  0.35325170  1
  O2-  O253  1  0.87527927  0.49950154  0.84183034  1
  O2-  O254  1  0.87505812  0.74955519  0.34531346  1
  O2-  O255  1  0.87515671  0.75082639  0.85037980  1
  O2-  O256  1  0.00198158  0.12407040  0.34746985  1
  O2-  O257  1  -0.00030850  0.12554347  0.84933130  1
  O2-  O258  1  0.00217572  0.37567075  0.34929142  1
  O2-  O259  1  -0.00115912  0.37596496  0.84688245  1
  O2-  O260  1  -0.00109154  0.62642692  0.35019108  1
  O2-  O261  1  0.00061545  0.62508864  0.84807000  1
  O2-  O262  1  0.00045667  0.87400692  0.34415720  1
  O2-  O263  1  -0.00246335  0.87403974  0.85128871  1
  O2-  O264  1  0.25171777  0.12433905  0.34493627  1
  O2-  O265  1  0.25142818  0.12464430  0.84750745  1
  O2-  O266  1  0.25094331  0.37452047  0.34236160  1
  O2-  O267  1  0.24773602  0.37509046  0.85176368  1
  O2-  O268  1  0.25142307  0.62561611  0.34071665  1
  O2-  O269  1  0.24964966  0.62565568  0.85550353  1
  O2-  O270  1  0.25085227  0.87520738  0.33929144  1
  O2-  O271  1  0.25182214  0.87467217  0.85255757  1
  O2-  O272  1  0.49830441  0.12424143  0.34718041  1
  O2-  O273  1  0.49881630  0.12461499  0.84622596  1
  O2-  O274  1  0.50029575  0.37501256  0.34732458  1
  O2-  O275  1  0.50155999  0.37478245  0.84869826  1
  O2-  O276  1  0.49865929  0.62511145  0.34394199  1
  O2-  O277  1  0.49726752  0.62564829  0.85132015  1
  O2-  O278  1  0.49942863  0.87537902  0.33799503  1
  O2-  O279  1  0.50007547  0.87425144  0.85251723  1
  O2-  O280  1  0.74805145  0.12462083  0.34819472  1
  O2-  O281  1  0.75038894  0.12496097  0.84887639  1
  O2-  O282  1  0.74691222  0.37513333  0.35273274  1
  O2-  O283  1  0.75181871  0.37511573  0.84358378  1
  O2-  O284  1  0.75125976  0.62625190  0.35335324  1
  O2-  O285  1  0.75241261  0.62535350  0.84353355  1
  O2-  O286  1  0.74941715  0.87413348  0.34280615  1
  O2-  O287  1  0.75059782  0.87471993  0.85054607  1
