# generated using pymatgen
data_BaYFeCuO5
_symmetry_space_group_name_H-M   'P 1'
_cell_length_a   15.66137740
_cell_length_b   15.65795944
_cell_length_c   15.45923126
_cell_angle_alpha   90.00805634
_cell_angle_beta   90.00227832
_cell_angle_gamma   90.00225731
_symmetry_Int_Tables_number   1
_chemical_formula_structural   BaYFeCuO5
_chemical_formula_sum   'Ba32 Y32 Fe32 Cu32 O160'
_cell_volume   3790.99322349
_cell_formula_units_Z   32
loop_
 _symmetry_equiv_pos_site_id
 _symmetry_equiv_pos_as_xyz
  1  'x, y, z'
loop_
 _atom_type_symbol
 _atom_type_oxidation_number
  Ba2+  2.0
  Y3+  3.0
  Fe3+  3.0
  Cu2+  2.0
  O2-  -2.0
loop_
 _atom_site_type_symbol
 _atom_site_label
 _atom_site_symmetry_multiplicity
 _atom_site_fract_x
 _atom_site_fract_y
 _atom_site_fract_z
 _atom_site_occupancy
  Ba2+  Ba0  1  0.00355573  0.00457052  0.01201378  1
  Ba2+  Ba1  1  -0.00148491  -0.00364810  0.51766762  1
  Ba2+  Ba2  1  -0.00274902  0.24898763  0.00162166  1
  Ba2+  Ba3  1  -0.00713996  0.24555351  0.51708523  1
  Ba2+  Ba4  1  0.00197204  0.49947984  0.00647733  1
  Ba2+  Ba5  1  -0.01103589  0.50072449  0.50681777  1
  Ba2+  Ba6  1  0.00740305  0.74686775  0.01854409  1
  Ba2+  Ba7  1  -0.00564031  0.75801709  0.50521923  1
  Ba2+  Ba8  1  0.24357573  -0.00732230  0.01433969  1
  Ba2+  Ba9  1  0.24269399  -0.00674136  0.51493809  1
  Ba2+  Ba10  1  0.24547100  0.25652841  -0.00044841  1
  Ba2+  Ba11  1  0.24403321  0.24329732  0.51104984  1
  Ba2+  Ba12  1  0.25114831  0.50343709  0.00000353  1
  Ba2+  Ba13  1  0.25454727  0.50753545  0.50687771  1
  Ba2+  Ba14  1  0.24907021  0.74836618  0.01810678  1
  Ba2+  Ba15  1  0.25213954  0.75641596  0.51149630  1
  Ba2+  Ba16  1  0.50625914  -0.00258650  0.01454602  1
  Ba2+  Ba17  1  0.50560461  -0.00547099  0.52293206  1
  Ba2+  Ba18  1  0.50766887  0.25210363  0.00815393  1
  Ba2+  Ba19  1  0.50638936  0.24301633  0.51173110  1
  Ba2+  Ba20  1  0.49196003  0.49921755  0.00597702  1
  Ba2+  Ba21  1  0.49578934  0.50747854  0.50657370  1
  Ba2+  Ba22  1  0.49226820  0.75085559  0.01645138  1
  Ba2+  Ba23  1  0.49485181  0.75485025  0.51646638  1
  Ba2+  Ba24  1  0.74822822  0.00876345  0.00949079  1
  Ba2+  Ba25  1  0.75251722  -0.00178455  0.52367258  1
  Ba2+  Ba26  1  0.75142149  0.24568949  0.00676033  1
  Ba2+  Ba27  1  0.75697336  0.24600219  0.51713116  1
  Ba2+  Ba28  1  0.75429907  0.49494130  0.01270787  1
  Ba2+  Ba29  1  0.76089721  0.50022305  0.50639770  1
  Ba2+  Ba30  1  0.75022754  0.74960013  0.01644282  1
  Ba2+  Ba31  1  0.75830415  0.75621633  0.51015887  1
  Y3+  Y32  1  0.00076093  -0.00167167  0.25543350  1
  Y3+  Y33  1  -0.00005535  -0.00111986  0.75862465  1
  Y3+  Y34  1  -0.00214575  0.24816150  0.25708027  1
  Y3+  Y35  1  -0.00317129  0.24982199  0.75869586  1
  Y3+  Y36  1  -0.00305236  0.50175563  0.26144282  1
  Y3+  Y37  1  -0.00257359  0.49885293  0.75510424  1
  Y3+  Y38  1  -0.00011163  0.75149031  0.26079509  1
  Y3+  Y39  1  0.00034833  0.75261229  0.75408752  1
  Y3+  Y40  1  0.24681132  -0.00327748  0.25480159  1
  Y3+  Y41  1  0.24642825  -0.00335457  0.75701970  1
  Y3+  Y42  1  0.24880329  0.24809846  0.25845720  1
  Y3+  Y43  1  0.24903748  0.25070112  0.75691249  1
  Y3+  Y44  1  0.25144767  0.50440674  0.25966079  1
  Y3+  Y45  1  0.25199971  0.50227460  0.75717831  1
  Y3+  Y46  1  0.24944696  0.75076914  0.25805176  1
  Y3+  Y47  1  0.24997825  0.75105807  0.75662955  1
  Y3+  Y48  1  0.50158684  -0.00127210  0.25098332  1
  Y3+  Y49  1  0.50268464  -0.00034800  0.75959980  1
  Y3+  Y50  1  0.50269267  0.24899815  0.25539077  1
  Y3+  Y51  1  0.50213512  0.24865548  0.75916147  1
  Y3+  Y52  1  0.49895474  0.50223701  0.25795487  1
  Y3+  Y53  1  0.49711523  0.50287538  0.75712369  1
  Y3+  Y54  1  0.49743313  0.74969277  0.25550208  1
  Y3+  Y55  1  0.49714612  0.74937901  0.75651865  1
  Y3+  Y56  1  0.75064320  0.00067062  0.25113291  1
  Y3+  Y57  1  0.75143641  0.00185302  0.76100273  1
  Y3+  Y58  1  0.75054822  0.24887120  0.25432828  1
  Y3+  Y59  1  0.75247596  0.24776004  0.76031391  1
  Y3+  Y60  1  0.75244002  0.49975031  0.26044631  1
  Y3+  Y61  1  0.75347972  0.49971501  0.75425367  1
  Y3+  Y62  1  0.75277102  0.75019118  0.25843934  1
  Y3+  Y63  1  0.75241121  0.75117121  0.75392239  1
  Fe3+  Fe64  1  0.37580077  0.12224063  0.37924298  1
  Fe3+  Fe65  1  0.62570586  0.87615032  0.37467191  1
  Fe3+  Fe66  1  0.62525140  0.62709734  0.37949927  1
  Fe3+  Fe67  1  0.37387978  0.87486626  0.87707714  1
  Fe3+  Fe68  1  0.37572385  0.87701237  0.37480183  1
  Fe3+  Fe69  1  0.12459586  0.62601548  0.87398530  1
  Fe3+  Fe70  1  0.62612035  0.12256497  0.37633866  1
  Fe3+  Fe71  1  0.87405078  0.12269253  0.37519428  1
  Fe3+  Fe72  1  0.37493717  0.12423824  0.87926826  1
  Fe3+  Fe73  1  0.12386097  0.37450558  0.38229223  1
  Fe3+  Fe74  1  0.62586784  0.37682917  0.87502290  1
  Fe3+  Fe75  1  0.62570808  0.87314891  0.87736734  1
  Fe3+  Fe76  1  0.37533301  0.37307932  0.38181703  1
  Fe3+  Fe77  1  0.87659389  0.87438247  0.88054863  1
  Fe3+  Fe78  1  0.12462486  0.62672849  0.38042463  1
  Fe3+  Fe79  1  0.87524974  0.62572584  0.87728798  1
  Fe3+  Fe80  1  0.12362938  0.12313249  0.37722635  1
  Fe3+  Fe81  1  0.12554370  0.12463387  0.87567317  1
  Fe3+  Fe82  1  0.62590453  0.37418021  0.38046706  1
  Fe3+  Fe83  1  0.62522740  0.62519897  0.87863163  1
  Fe3+  Fe84  1  0.12451965  0.37536653  0.63504467  1
  Fe3+  Fe85  1  0.62556777  0.37538848  0.63417095  1
  Fe3+  Fe86  1  0.37341500  0.12546376  0.13337056  1
  Fe3+  Fe87  1  0.62600803  0.62600050  0.63373174  1
  Fe3+  Fe88  1  0.37408118  0.37513626  0.14028229  1
  Fe3+  Fe89  1  0.37569908  0.37405047  0.63471047  1
  Fe3+  Fe90  1  0.12521877  0.37611260  0.14122948  1
  Fe3+  Fe91  1  0.87564368  0.87493526  0.13460511  1
  Fe3+  Fe92  1  0.12400995  0.62595007  0.63393696  1
  Fe3+  Fe93  1  0.37452938  0.12321830  0.63560002  1
  Fe3+  Fe94  1  0.62498050  0.62350541  0.13542851  1
  Fe3+  Fe95  1  0.87575748  0.37484225  0.13929190  1
  Cu2+  Cu96  1  0.37469439  0.62672221  0.87237971  1
  Cu2+  Cu97  1  0.12426919  0.87598416  0.37187305  1
  Cu2+  Cu98  1  0.87396960  0.87816068  0.36885992  1
  Cu2+  Cu99  1  0.87432439  0.62674229  0.37273988  1
  Cu2+  Cu100  1  0.87478412  0.37579488  0.86322972  1
  Cu2+  Cu101  1  0.12442635  0.37609239  0.85831687  1
  Cu2+  Cu102  1  0.37552653  0.37456816  0.85991916  1
  Cu2+  Cu103  1  0.37563288  0.62751038  0.37384614  1
  Cu2+  Cu104  1  0.12433983  0.87362559  0.87313047  1
  Cu2+  Cu105  1  0.87577398  0.12437628  0.87318618  1
  Cu2+  Cu106  1  0.87442752  0.37206589  0.37287091  1
  Cu2+  Cu107  1  0.62470217  0.12498129  0.87228808  1
  Cu2+  Cu108  1  0.12389495  0.87447388  0.64229474  1
  Cu2+  Cu109  1  0.87568708  0.62610994  0.64173200  1
  Cu2+  Cu110  1  0.62485167  0.12598548  0.14039484  1
  Cu2+  Cu111  1  0.62569796  0.87433589  0.65372921  1
  Cu2+  Cu112  1  0.37496409  0.87618244  0.65317690  1
  Cu2+  Cu113  1  0.62500142  0.37638924  0.15285183  1
  Cu2+  Cu114  1  0.37419893  0.87515098  0.14864085  1
  Cu2+  Cu115  1  0.12385948  0.87378661  0.14265146  1
  Cu2+  Cu116  1  0.62588059  0.87319735  0.14731695  1
  Cu2+  Cu117  1  0.87528875  0.12421954  0.65619164  1
  Cu2+  Cu118  1  0.37380097  0.62398867  0.14260063  1
  Cu2+  Cu119  1  0.37439127  0.62598367  0.64137501  1
  Cu2+  Cu120  1  0.87619947  0.12586367  0.14001705  1
  Cu2+  Cu121  1  0.62567608  0.12510079  0.65339664  1
  Cu2+  Cu122  1  0.87467592  0.37444194  0.64299030  1
  Cu2+  Cu123  1  0.12446658  0.62315213  0.15670886  1
  Cu2+  Cu124  1  0.12553451  0.12663262  0.14970200  1
  Cu2+  Cu125  1  0.12436743  0.12501599  0.65218913  1
  Cu2+  Cu126  1  0.87555745  0.62434511  0.15099294  1
  Cu2+  Cu127  1  0.87520868  0.87576568  0.64577860  1
  O2-  O128  1  0.12803992  0.12726241  -0.00350947  1
  O2-  O129  1  0.12362609  0.12335959  0.49774900  1
  O2-  O130  1  0.12646226  0.37772951  0.02096793  1
  O2-  O131  1  0.12421927  0.37348372  0.50875102  1
  O2-  O132  1  0.12534923  0.62347360  -0.00506237  1
  O2-  O133  1  0.12452506  0.62646349  0.50723992  1
  O2-  O134  1  0.12435070  0.87267006  0.00831190  1
  O2-  O135  1  0.12448988  0.87526978  0.50724962  1
  O2-  O136  1  0.37346486  0.12697646  0.00616469  1
  O2-  O137  1  0.37624346  0.12208920  0.50646988  1
  O2-  O138  1  0.37263006  0.37510298  0.02005602  1
  O2-  O139  1  0.37647037  0.37238166  0.50841188  1
  O2-  O140  1  0.37409645  0.62419560  0.00723781  1
  O2-  O141  1  0.37623600  0.62637478  0.50722414  1
  O2-  O142  1  0.37428397  0.87474193  -0.00237093  1
  O2-  O143  1  0.37706771  0.87938470  0.49556214  1
  O2-  O144  1  0.62316219  0.12680542  0.00608336  1
  O2-  O145  1  0.62594328  0.12160020  0.49665158  1
  O2-  O146  1  0.62429989  0.37839941  -0.00439352  1
  O2-  O147  1  0.62528866  0.37342771  0.50704400  1
  O2-  O148  1  0.62468056  0.62288434  0.00602599  1
  O2-  O149  1  0.62533251  0.62758210  0.50635462  1
  O2-  O150  1  0.62444678  0.87096943  -0.00269292  1
  O2-  O151  1  0.62542194  0.87651102  0.49499905  1
  O2-  O152  1  0.87622053  0.12678145  0.00649420  1
  O2-  O153  1  0.87365649  0.12189484  0.49593092  1
  O2-  O154  1  0.87703328  0.37611377  0.01842938  1
  O2-  O155  1  0.87427351  0.37206954  0.50827152  1
  O2-  O156  1  0.87531936  0.62423517  -0.00247812  1
  O2-  O157  1  0.87395603  0.62680061  0.50648658  1
  O2-  O158  1  0.87634150  0.87286588  0.00682970  1
  O2-  O159  1  0.87369479  0.87870765  0.50662495  1
  O2-  O160  1  0.12535528  0.00183923  0.16110518  1
  O2-  O161  1  0.12470134  0.00114226  0.66617447  1
  O2-  O162  1  0.12631141  0.25168140  0.16963748  1
  O2-  O163  1  0.12623107  0.25148498  0.66299428  1
  O2-  O164  1  0.12515096  0.49963481  0.17421279  1
  O2-  O165  1  0.12623945  0.49951341  0.66054778  1
  O2-  O166  1  0.12454453  0.74649509  0.16639695  1
  O2-  O167  1  0.12511959  0.74784297  0.66255367  1
  O2-  O168  1  0.37445203  0.00151196  0.15819209  1
  O2-  O169  1  0.37577914  0.00170092  0.66499140  1
  O2-  O170  1  0.37460614  0.24912745  0.16928779  1
  O2-  O171  1  0.37522325  0.24938111  0.66245654  1
  O2-  O172  1  0.37514797  0.49810531  0.17210208  1
  O2-  O173  1  0.37561289  0.49639529  0.66287210  1
  O2-  O174  1  0.37435016  0.75109199  0.16384285  1
  O2-  O175  1  0.37520276  0.75232860  0.66311029  1
  O2-  O176  1  0.62416297  -0.00201572  0.15821223  1
  O2-  O177  1  0.62466679  -0.00015926  0.66610274  1
  O2-  O178  1  0.62392160  0.25214725  0.16677424  1
  O2-  O179  1  0.62428365  0.25151404  0.66236678  1
  O2-  O180  1  0.62464798  0.50206881  0.16987017  1
  O2-  O181  1  0.62356579  0.50018289  0.65943752  1
  O2-  O182  1  0.62537088  0.74714618  0.16236824  1
  O2-  O183  1  0.62516304  0.74865987  0.66210094  1
  O2-  O184  1  0.87557265  -0.00212094  0.15792858  1
  O2-  O185  1  0.87488466  0.00118116  0.66936249  1
  O2-  O186  1  0.87510415  0.25180331  0.16699002  1
  O2-  O187  1  0.87445010  0.24826765  0.66609173  1
  O2-  O188  1  0.87484166  0.49939276  0.17007856  1
  O2-  O189  1  0.87489165  0.50018763  0.66346354  1
  O2-  O190  1  0.87509926  0.75044389  0.16336951  1
  O2-  O191  1  0.87488395  0.75066006  0.66466924  1
  O2-  O192  1  0.00219527  0.12637526  0.16402675  1
  O2-  O193  1  -0.00020300  0.12561837  0.66488845  1
  O2-  O194  1  0.00021233  0.37588124  0.17132770  1
  O2-  O195  1  0.00287120  0.37446627  0.66435827  1
  O2-  O196  1  0.00065006  0.62352649  0.16668245  1
  O2-  O197  1  0.00280685  0.62396231  0.66382261  1
  O2-  O198  1  -0.00270184  0.87380513  0.16516334  1
  O2-  O199  1  -0.00053615  0.87576233  0.66681422  1
  O2-  O200  1  0.25178528  0.12581736  0.16677878  1
  O2-  O201  1  0.25168296  0.12528069  0.66145372  1
  O2-  O202  1  0.25018738  0.37507560  0.17595109  1
  O2-  O203  1  0.25067996  0.37384321  0.66079599  1
  O2-  O204  1  0.24802024  0.62418795  0.16830420  1
  O2-  O205  1  0.24733406  0.62440228  0.66212485  1
  O2-  O206  1  0.24999392  0.87438654  0.16555178  1
  O2-  O207  1  0.25101063  0.87586261  0.66394816  1
  O2-  O208  1  0.49644458  0.12594691  0.16318665  1
  O2-  O209  1  0.49848414  0.12554523  0.66355728  1
  O2-  O210  1  0.49932888  0.37500847  0.16871869  1
  O2-  O211  1  0.50010716  0.37385752  0.66086258  1
  O2-  O212  1  0.50214271  0.62429569  0.16386302  1
  O2-  O213  1  0.50273433  0.62533715  0.66383486  1
  O2-  O214  1  0.49998294  0.87417453  0.16130793  1
  O2-  O215  1  0.50043626  0.87522226  0.66374890  1
  O2-  O216  1  0.74968623  0.12575497  0.16161657  1
  O2-  O217  1  0.75014805  0.12478825  0.66656258  1
  O2-  O218  1  0.75024569  0.37628903  0.16547529  1
  O2-  O219  1  0.74659241  0.37541574  0.66357297  1
  O2-  O220  1  0.74849830  0.62384952  0.16231290  1
  O2-  O221  1  0.74733346  0.62475571  0.66485270  1
  O2-  O222  1  0.75221755  0.87371045  0.16067478  1
  O2-  O223  1  0.74915118  0.87524357  0.66753201  1
  O2-  O224  1  0.12551484  0.00165848  0.34393517  1
  O2-  O225  1  0.12563072  0.00107483  0.84910143  1
  O2-  O226  1  0.12618744  0.25001182  0.35106496  1
  O2-  O227  1  0.12631939  0.25087627  0.84721159  1
  O2-  O228  1  0.12631570  0.49963230  0.35721529  1
  O2-  O229  1  0.12523003  0.50042863  0.84411088  1
  O2-  O230  1  0.12472002  0.74865018  0.35082548  1
  O2-  O231  1  0.12440719  0.74815509  0.84410065  1
  O2-  O232  1  0.37551098  0.00182876  0.34095845  1
  O2-  O233  1  0.37466898  0.00104275  0.84841664  1
  O2-  O234  1  0.37534400  0.24860072  0.35325195  1
  O2-  O235  1  0.37511743  0.24832556  0.84823718  1
  O2-  O236  1  0.37550284  0.49637682  0.35518666  1
  O2-  O237  1  0.37526916  0.49893489  0.84761944  1
  O2-  O238  1  0.37588229  0.75316497  0.34656357  1
  O2-  O239  1  0.37526602  0.75222949  0.84553818  1
  O2-  O240  1  0.62420773  0.00058829  0.33928499  1
  O2-  O241  1  0.62504452  -0.00271010  0.84962668  1
  O2-  O242  1  0.62359115  0.24993823  0.35027740  1
  O2-  O243  1  0.62426122  0.25244666  0.84652622  1
  O2-  O244  1  0.62409202  0.49966960  0.35564650  1
  O2-  O245  1  0.62502227  0.50209834  0.84334669  1
  O2-  O246  1  0.62468298  0.74982115  0.34625137  1
  O2-  O247  1  0.62545778  0.74825564  0.84549842  1
  O2-  O248  1  0.87417050  0.00242897  0.33880382  1
  O2-  O249  1  0.87505949  -0.00317291  0.85258287  1
  O2-  O250  1  0.87440599  0.24666931  0.34717732  1
  O2-  O251  1  0.87493134  0.25175709  0.85046188  1
  O2-  O252  1  0.87395641  0.49909360  0.35345467  1
  O2-  O253  1  0.87448365  0.50102316  0.84637987  1
  O2-  O254  1  0.87439094  0.75163797  0.34825936  1
  O2-  O255  1  0.87486725  0.75060392  0.84667394  1
  O2-  O256  1  -0.00009376  0.12479225  0.34575144  1
  O2-  O257  1  0.00222228  0.12611397  0.84833955  1
  O2-  O258  1  0.00310610  0.37456804  0.35235129  1
  O2-  O259  1  -0.00065962  0.37557116  0.84901990  1
  O2-  O260  1  0.00248714  0.62469598  0.35115349  1
  O2-  O261  1  -0.00087430  0.62389146  0.84491433  1
  O2-  O262  1  -0.00043986  0.87602926  0.34832602  1
  O2-  O263  1  -0.00229650  0.87423798  0.84939964  1
  O2-  O264  1  0.25139408  0.12519253  0.35108428  1
  O2-  O265  1  0.25145872  0.12629077  0.84523357  1
  O2-  O266  1  0.25029648  0.37329678  0.35781991  1
  O2-  O267  1  0.25075541  0.37497799  0.84606427  1
  O2-  O268  1  0.24768253  0.62540255  0.35221985  1
  O2-  O269  1  0.24857543  0.62415953  0.84467819  1
  O2-  O270  1  0.25167199  0.87623308  0.34832382  1
  O2-  O271  1  0.25071046  0.87508995  0.84655911  1
  O2-  O272  1  0.49931581  0.12550304  0.34730882  1
  O2-  O273  1  0.49691358  0.12529408  0.84823281  1
  O2-  O274  1  0.50015503  0.37382398  0.35255618  1
  O2-  O275  1  0.50092965  0.37608918  0.84407686  1
  O2-  O276  1  0.50317782  0.62459410  0.34801201  1
  O2-  O277  1  0.50276087  0.62449479  0.84872079  1
  O2-  O278  1  0.50065649  0.87598207  0.34247112  1
  O2-  O279  1  0.50006324  0.87466811  0.84567762  1
  O2-  O280  1  0.74887875  0.12509963  0.34263617  1
  O2-  O281  1  0.75022949  0.12545474  0.85089367  1
  O2-  O282  1  0.74641204  0.37443371  0.34870132  1
  O2-  O283  1  0.74968296  0.37632348  0.84644377  1
  O2-  O284  1  0.74647139  0.62504578  0.34710309  1
  O2-  O285  1  0.74947701  0.62489687  0.84819384  1
  O2-  O286  1  0.74774048  0.87532975  0.34235251  1
  O2-  O287  1  0.75169823  0.87348586  0.85027419  1
