# generated using pymatgen
data_BaYFeCuO5
_symmetry_space_group_name_H-M   'P 1'
_cell_length_a   15.67443010
_cell_length_b   15.67447036
_cell_length_c   15.48490208
_cell_angle_alpha   90.00220756
_cell_angle_beta   90.00398671
_cell_angle_gamma   89.99618609
_symmetry_Int_Tables_number   1
_chemical_formula_structural   BaYFeCuO5
_chemical_formula_sum   'Ba32 Y32 Fe32 Cu32 O160'
_cell_volume   3804.46064011
_cell_formula_units_Z   32
loop_
 _symmetry_equiv_pos_site_id
 _symmetry_equiv_pos_as_xyz
  1  'x, y, z'
loop_
 _atom_type_symbol
 _atom_type_oxidation_number
  Ba2+  2.0
  Y3+  3.0
  Fe3+  3.0
  Cu2+  2.0
  O2-  -2.0
loop_
 _atom_site_type_symbol
 _atom_site_label
 _atom_site_symmetry_multiplicity
 _atom_site_fract_x
 _atom_site_fract_y
 _atom_site_fract_z
 _atom_site_occupancy
  Ba2+  Ba0  1  -0.00042106  -0.01078299  0.00760211  1
  Ba2+  Ba1  1  0.00049205  0.00661658  0.50664508  1
  Ba2+  Ba2  1  -0.00458510  0.25654345  0.01289317  1
  Ba2+  Ba3  1  0.00054050  0.25047493  0.50533138  1
  Ba2+  Ba4  1  -0.00623705  0.50774600  0.00766640  1
  Ba2+  Ba5  1  -0.00081155  0.49572171  0.51131743  1
  Ba2+  Ba6  1  -0.00310262  0.74480491  -0.00002852  1
  Ba2+  Ba7  1  -0.00147386  0.74741494  0.51140612  1
  Ba2+  Ba8  1  0.24448435  -0.00549413  0.01174197  1
  Ba2+  Ba9  1  0.24810411  0.00395288  0.51222468  1
  Ba2+  Ba10  1  0.25548478  0.25849638  0.00702907  1
  Ba2+  Ba11  1  0.24455674  0.25038206  0.51640570  1
  Ba2+  Ba12  1  0.25556387  0.50264558  0.00868441  1
  Ba2+  Ba13  1  0.24840180  0.49873444  0.51616023  1
  Ba2+  Ba14  1  0.24400869  0.74395207  0.01250939  1
  Ba2+  Ba15  1  0.25219650  0.74774991  0.51055580  1
  Ba2+  Ba16  1  0.50064300  -0.00029008  0.00625890  1
  Ba2+  Ba17  1  0.49977087  0.00102621  0.52891108  1
  Ba2+  Ba18  1  0.49896734  0.26276166  0.00977826  1
  Ba2+  Ba19  1  0.49975405  0.24799360  0.52666155  1
  Ba2+  Ba20  1  0.49857019  0.49795272  0.01306352  1
  Ba2+  Ba21  1  0.49353814  0.49728367  0.51532916  1
  Ba2+  Ba22  1  0.50100232  0.73909771  0.00646661  1
  Ba2+  Ba23  1  0.49363768  0.75256482  0.51646027  1
  Ba2+  Ba24  1  0.75585413  -0.00565361  0.00214384  1
  Ba2+  Ba25  1  0.75099563  0.00347786  0.52216740  1
  Ba2+  Ba26  1  0.74946987  0.26191395  0.01785015  1
  Ba2+  Ba27  1  0.75540974  0.24931383  0.51476148  1
  Ba2+  Ba28  1  0.75274639  0.50332679  0.01493561  1
  Ba2+  Ba29  1  0.75801057  0.49547696  0.51021907  1
  Ba2+  Ba30  1  0.75683683  0.74088048  -0.00409933  1
  Ba2+  Ba31  1  0.75525645  0.75265312  0.51644865  1
  Y3+  Y32  1  0.00211077  0.00030487  0.26127640  1
  Y3+  Y33  1  -0.00126926  0.00058807  0.75466754  1
  Y3+  Y34  1  -0.00038710  0.25076926  0.26408330  1
  Y3+  Y35  1  0.00047600  0.25089234  0.75130521  1
  Y3+  Y36  1  -0.00298028  0.49952809  0.26298562  1
  Y3+  Y37  1  0.00022039  0.50177529  0.75294444  1
  Y3+  Y38  1  -0.00022430  0.74927837  0.26029616  1
  Y3+  Y39  1  -0.00198149  0.74617037  0.75589570  1
  Y3+  Y40  1  0.24574868  -0.00070400  0.25849641  1
  Y3+  Y41  1  0.24857526  0.00143321  0.75590502  1
  Y3+  Y42  1  0.24760863  0.25179012  0.25864657  1
  Y3+  Y43  1  0.24938522  0.25264497  0.75601578  1
  Y3+  Y44  1  0.25125768  0.50010783  0.26016157  1
  Y3+  Y45  1  0.24955726  0.49954383  0.75484186  1
  Y3+  Y46  1  0.24928451  0.74923172  0.26041530  1
  Y3+  Y47  1  0.24926728  0.74628440  0.75382868  1
  Y3+  Y48  1  0.50015334  -0.00014822  0.25250544  1
  Y3+  Y49  1  0.50053948  -0.00022041  0.75945574  1
  Y3+  Y50  1  0.49953498  0.25365597  0.25207231  1
  Y3+  Y51  1  0.49928776  0.25319345  0.75883373  1
  Y3+  Y52  1  0.49739433  0.50013118  0.25737246  1
  Y3+  Y53  1  0.49822149  0.49893249  0.75582447  1
  Y3+  Y54  1  0.49840694  0.74626414  0.25974922  1
  Y3+  Y55  1  0.49969029  0.74814443  0.75437919  1
  Y3+  Y56  1  0.75199321  0.00110088  0.25772854  1
  Y3+  Y57  1  0.75266949  -0.00083595  0.75620515  1
  Y3+  Y58  1  0.75292006  0.25239307  0.26075399  1
  Y3+  Y59  1  0.75134510  0.25164702  0.75217857  1
  Y3+  Y60  1  0.75364956  0.49964066  0.26072536  1
  Y3+  Y61  1  0.75257624  0.50105851  0.75337809  1
  Y3+  Y62  1  0.75209649  0.74700359  0.26018510  1
  Y3+  Y63  1  0.75376104  0.74805926  0.75577919  1
  Fe3+  Fe64  1  0.87525832  0.37580961  0.87451607  1
  Fe3+  Fe65  1  0.62642927  0.37771543  0.87444717  1
  Fe3+  Fe66  1  0.37468807  0.62435460  0.87495557  1
  Fe3+  Fe67  1  0.12432281  0.37693122  0.87962502  1
  Fe3+  Fe68  1  0.62361908  0.37386681  0.37865279  1
  Fe3+  Fe69  1  0.37642015  0.12542670  0.37361419  1
  Fe3+  Fe70  1  0.62659066  0.12681902  0.87974183  1
  Fe3+  Fe71  1  0.62335849  0.12509876  0.37445028  1
  Fe3+  Fe72  1  0.12468860  0.87325296  0.87533891  1
  Fe3+  Fe73  1  0.87548824  0.12658784  0.87966930  1
  Fe3+  Fe74  1  0.37497298  0.37333171  0.37728525  1
  Fe3+  Fe75  1  0.62416281  0.87630797  0.37692910  1
  Fe3+  Fe76  1  0.87459456  0.87606830  0.37851122  1
  Fe3+  Fe77  1  0.37395344  0.87356318  0.87903769  1
  Fe3+  Fe78  1  0.37439546  0.12554592  0.87984666  1
  Fe3+  Fe79  1  0.62467329  0.62455989  0.38216575  1
  Fe3+  Fe80  1  0.12512330  0.62442279  0.37921119  1
  Fe3+  Fe81  1  0.37577145  0.87709788  0.37508112  1
  Fe3+  Fe82  1  0.12402472  0.12609277  0.88048595  1
  Fe3+  Fe83  1  0.62578491  0.87279563  0.87830432  1
  Fe3+  Fe84  1  0.62615627  0.12603919  0.13132154  1
  Fe3+  Fe85  1  0.12390473  0.37688062  0.13601556  1
  Fe3+  Fe86  1  0.87556119  0.12506825  0.13460470  1
  Fe3+  Fe87  1  0.12452049  0.87471050  0.63712997  1
  Fe3+  Fe88  1  0.62511859  0.62427040  0.63509208  1
  Fe3+  Fe89  1  0.37397076  0.12524004  0.13210207  1
  Fe3+  Fe90  1  0.62646513  0.87276909  0.13242973  1
  Fe3+  Fe91  1  0.62612766  0.62455744  0.13983714  1
  Fe3+  Fe92  1  0.87521333  0.87266702  0.13796474  1
  Fe3+  Fe93  1  0.12351555  0.62460362  0.13961369  1
  Fe3+  Fe94  1  0.12391018  0.12540082  0.13384184  1
  Fe3+  Fe95  1  0.37457982  0.87314876  0.13297201  1
  Cu2+  Cu96  1  0.87530646  0.62273301  0.86814517  1
  Cu2+  Cu97  1  0.37521084  0.62448725  0.37477400  1
  Cu2+  Cu98  1  0.62519735  0.62380894  0.85908842  1
  Cu2+  Cu99  1  0.12537347  0.87450281  0.36853631  1
  Cu2+  Cu100  1  0.87401380  0.12431475  0.37233050  1
  Cu2+  Cu101  1  0.87581008  0.87461640  0.86096202  1
  Cu2+  Cu102  1  0.12612651  0.12555178  0.37185161  1
  Cu2+  Cu103  1  0.12529812  0.62393653  0.86218542  1
  Cu2+  Cu104  1  0.87492722  0.37442263  0.37293981  1
  Cu2+  Cu105  1  0.87456297  0.62554046  0.37604802  1
  Cu2+  Cu106  1  0.12567748  0.37553331  0.37262674  1
  Cu2+  Cu107  1  0.37476045  0.37627606  0.87106464  1
  Cu2+  Cu108  1  0.12389577  0.87388647  0.15179354  1
  Cu2+  Cu109  1  0.87562315  0.62537142  0.14694362  1
  Cu2+  Cu110  1  0.62516582  0.12531752  0.65812029  1
  Cu2+  Cu111  1  0.87607984  0.12516337  0.64321770  1
  Cu2+  Cu112  1  0.37455607  0.12539383  0.65784860  1
  Cu2+  Cu113  1  0.87605886  0.37465901  0.64259015  1
  Cu2+  Cu114  1  0.37460741  0.62429291  0.64153295  1
  Cu2+  Cu115  1  0.12471243  0.12500091  0.64412039  1
  Cu2+  Cu116  1  0.37338117  0.37620877  0.14181576  1
  Cu2+  Cu117  1  0.37416056  0.62549480  0.15270163  1
  Cu2+  Cu118  1  0.87641475  0.37554154  0.15437756  1
  Cu2+  Cu119  1  0.62529072  0.37543277  0.64718608  1
  Cu2+  Cu120  1  0.62543633  0.87423416  0.65517304  1
  Cu2+  Cu121  1  0.12502441  0.62498933  0.64715247  1
  Cu2+  Cu122  1  0.37449493  0.37445455  0.65163551  1
  Cu2+  Cu123  1  0.87561502  0.62455233  0.64056587  1
  Cu2+  Cu124  1  0.12460920  0.37514113  0.64323428  1
  Cu2+  Cu125  1  0.37389744  0.87543597  0.65584392  1
  Cu2+  Cu126  1  0.87631061  0.87513224  0.65056788  1
  Cu2+  Cu127  1  0.62579570  0.37654857  0.15298627  1
  O2-  O128  1  0.12333019  0.12533096  0.00687260  1
  O2-  O129  1  0.12670933  0.12466917  0.50755687  1
  O2-  O130  1  0.12370129  0.37712157  0.00770744  1
  O2-  O131  1  0.12639831  0.37433089  0.50813206  1
  O2-  O132  1  0.12359214  0.62451079  0.01888909  1
  O2-  O133  1  0.12633843  0.62550798  0.50000339  1
  O2-  O134  1  0.12511263  0.87297851  -0.00364119  1
  O2-  O135  1  0.12666254  0.87612805  0.51649038  1
  O2-  O136  1  0.37367086  0.12543341  0.00559726  1
  O2-  O137  1  0.37845808  0.12352777  0.49342871  1
  O2-  O138  1  0.37458322  0.37717160  0.00645320  1
  O2-  O139  1  0.37613857  0.37038875  0.49732319  1
  O2-  O140  1  0.37490978  0.62562712  -0.00405995  1
  O2-  O141  1  0.37607963  0.62563826  0.50732272  1
  O2-  O142  1  0.37373611  0.87205311  0.00473087  1
  O2-  O143  1  0.37779835  0.88010102  0.49491509  1
  O2-  O144  1  0.62777888  0.12706390  0.00508278  1
  O2-  O145  1  0.62119818  0.12316987  0.49426801  1
  O2-  O146  1  0.62699713  0.37898045  -0.00472265  1
  O2-  O147  1  0.62156926  0.37050082  0.49824366  1
  O2-  O148  1  0.62628995  0.62451369  0.01929526  1
  O2-  O149  1  0.62403694  0.62604336  0.50791428  1
  O2-  O150  1  0.62692493  0.87150742  0.00625597  1
  O2-  O151  1  0.62190624  0.87974833  0.49636567  1
  O2-  O152  1  0.87546039  0.12629418  0.00707215  1
  O2-  O153  1  0.87371827  0.12351745  0.50715854  1
  O2-  O154  1  0.87429528  0.37634080  -0.00473384  1
  O2-  O155  1  0.87530629  0.37285558  0.50749836  1
  O2-  O156  1  0.87502147  0.62462723  0.00663402  1
  O2-  O157  1  0.87370227  0.62648685  0.50780551  1
  O2-  O158  1  0.87510246  0.87181049  0.01722046  1
  O2-  O159  1  0.87270833  0.87838784  0.49902387  1
  O2-  O160  1  0.12450579  0.00135627  0.16081714  1
  O2-  O161  1  0.12574134  -0.00170158  0.66960866  1
  O2-  O162  1  0.12441807  0.24951760  0.16031902  1
  O2-  O163  1  0.12569962  0.25000237  0.66891220  1
  O2-  O164  1  0.12515355  0.49914885  0.16683700  1
  O2-  O165  1  0.12578309  0.50125869  0.66520481  1
  O2-  O166  1  0.12515773  0.74954997  0.16836548  1
  O2-  O167  1  0.12543567  0.75041165  0.66530043  1
  O2-  O168  1  0.37566696  -0.00007430  0.15434629  1
  O2-  O169  1  0.37535578  0.00052291  0.67132192  1
  O2-  O170  1  0.37497031  0.24638500  0.15938104  1
  O2-  O171  1  0.37523785  0.24979079  0.66848182  1
  O2-  O172  1  0.37387824  0.50155728  0.16662801  1
  O2-  O173  1  0.37472177  0.49817108  0.66320856  1
  O2-  O174  1  0.37575037  0.75223477  0.16433979  1
  O2-  O175  1  0.37545013  0.75117469  0.66432233  1
  O2-  O176  1  0.62536547  -0.00006245  0.15455029  1
  O2-  O177  1  0.62500814  -0.00067459  0.67198930  1
  O2-  O178  1  0.62428450  0.24930815  0.15759647  1
  O2-  O179  1  0.62428653  0.25006675  0.66732347  1
  O2-  O180  1  0.62552810  0.50045407  0.17003426  1
  O2-  O181  1  0.62474434  0.50122297  0.65996720  1
  O2-  O182  1  0.62373594  0.75126037  0.16861260  1
  O2-  O183  1  0.62412344  0.74882531  0.66409184  1
  O2-  O184  1  0.87396173  0.00131307  0.16061789  1
  O2-  O185  1  0.87466478  -0.00092798  0.66939984  1
  O2-  O186  1  0.87573444  0.24795742  0.16244667  1
  O2-  O187  1  0.87519893  0.24999239  0.66629940  1
  O2-  O188  1  0.87507399  0.49892430  0.16773539  1
  O2-  O189  1  0.87518476  0.49990662  0.66245096  1
  O2-  O190  1  0.87471814  0.75140865  0.17074383  1
  O2-  O191  1  0.87531524  0.75102359  0.66405335  1
  O2-  O192  1  0.00005259  0.12467536  0.16278314  1
  O2-  O193  1  0.00031463  0.12423140  0.66857855  1
  O2-  O194  1  0.00185401  0.37426926  0.16530884  1
  O2-  O195  1  0.00025110  0.37507908  0.66746261  1
  O2-  O196  1  0.00080039  0.62495739  0.16880325  1
  O2-  O197  1  0.00099120  0.62510923  0.66472883  1
  O2-  O198  1  -0.00134099  0.87628098  0.16798529  1
  O2-  O199  1  0.00087448  0.87534278  0.66692158  1
  O2-  O200  1  0.24892842  0.12383993  0.15887552  1
  O2-  O201  1  0.25119907  0.12498167  0.66897918  1
  O2-  O202  1  0.24616485  0.37424610  0.16300225  1
  O2-  O203  1  0.25112717  0.37439910  0.66747115  1
  O2-  O204  1  0.24944467  0.62613766  0.16501477  1
  O2-  O205  1  0.24938705  0.62486920  0.66487932  1
  O2-  O206  1  0.25155884  0.87555911  0.16075417  1
  O2-  O207  1  0.24950821  0.87556591  0.66774052  1
  O2-  O208  1  0.50064680  0.12371900  0.15343768  1
  O2-  O209  1  0.49999596  0.12423734  0.67054775  1
  O2-  O210  1  0.50042770  0.37619693  0.16017733  1
  O2-  O211  1  0.49940497  0.37437910  0.66529986  1
  O2-  O212  1  0.49972566  0.62494621  0.16490268  1
  O2-  O213  1  0.50243042  0.62509485  0.66403878  1
  O2-  O214  1  0.50076933  0.87637523  0.15466212  1
  O2-  O215  1  0.49883539  0.87595861  0.66943538  1
  O2-  O216  1  0.75010494  0.12559095  0.16033538  1
  O2-  O217  1  0.74888585  0.12433870  0.66719151  1
  O2-  O218  1  0.75141554  0.37437683  0.16441628  1
  O2-  O219  1  0.74939557  0.37436553  0.66278376  1
  O2-  O220  1  0.74948162  0.62518201  0.16902937  1
  O2-  O221  1  0.74746971  0.62607464  0.66299418  1
  O2-  O222  1  0.74858350  0.87558950  0.16411807  1
  O2-  O223  1  0.75078337  0.87512915  0.66592596  1
  O2-  O224  1  0.12544393  -0.00135248  0.34649414  1
  O2-  O225  1  0.12442233  0.00173223  0.85188089  1
  O2-  O226  1  0.12564273  0.25055800  0.34540358  1
  O2-  O227  1  0.12564417  0.24998471  0.85371244  1
  O2-  O228  1  0.12511238  0.50164537  0.34826439  1
  O2-  O229  1  0.12458252  0.49859165  0.84978998  1
  O2-  O230  1  0.12593889  0.74938449  0.35034818  1
  O2-  O231  1  0.12575959  0.74964268  0.84765941  1
  O2-  O232  1  0.37546653  0.00056690  0.33579370  1
  O2-  O233  1  0.37591581  -0.00026097  0.85567311  1
  O2-  O234  1  0.37528552  0.24975689  0.33940717  1
  O2-  O235  1  0.37489313  0.24689171  0.85219864  1
  O2-  O236  1  0.37573064  0.49752406  0.34939026  1
  O2-  O237  1  0.37510176  0.50196988  0.84533166  1
  O2-  O238  1  0.37559888  0.75264845  0.34804933  1
  O2-  O239  1  0.37524674  0.75143249  0.84710819  1
  O2-  O240  1  0.62385888  0.00010734  0.33655453  1
  O2-  O241  1  0.62484473  -0.00009647  0.85700108  1
  O2-  O242  1  0.62424163  0.24999182  0.33995654  1
  O2-  O243  1  0.62546085  0.24927387  0.85013899  1
  O2-  O244  1  0.62423016  0.50019189  0.35287544  1
  O2-  O245  1  0.62504521  0.49991729  0.84246341  1
  O2-  O246  1  0.62418405  0.74992350  0.35073449  1
  O2-  O247  1  0.62496435  0.75087744  0.84980525  1
  O2-  O248  1  0.87489365  -0.00206554  0.34209168  1
  O2-  O249  1  0.87569640  0.00248646  0.85398891  1
  O2-  O250  1  0.87455549  0.24965536  0.34755084  1
  O2-  O251  1  0.87466992  0.24923194  0.84850257  1
  O2-  O252  1  0.87451426  0.49998711  0.35186777  1
  O2-  O253  1  0.87582517  0.49761151  0.84388964  1
  O2-  O254  1  0.87380343  0.75263991  0.35051413  1
  O2-  O255  1  0.87476286  0.74975448  0.84800872  1
  O2-  O256  1  0.00032186  0.12471265  0.34837601  1
  O2-  O257  1  0.00004096  0.12605102  0.85251552  1
  O2-  O258  1  0.00006143  0.37429483  0.34971397  1
  O2-  O259  1  0.00118497  0.37355634  0.84978727  1
  O2-  O260  1  0.00138564  0.62597471  0.34997498  1
  O2-  O261  1  0.00157725  0.62489761  0.84885857  1
  O2-  O262  1  -0.00045039  0.87546523  0.35067526  1
  O2-  O263  1  0.00059711  0.87489805  0.84916464  1
  O2-  O264  1  0.25263860  0.12439223  0.34220076  1
  O2-  O265  1  0.24925536  0.12405880  0.85357491  1
  O2-  O266  1  0.25211883  0.37426031  0.34496870  1
  O2-  O267  1  0.24683873  0.37486030  0.85168572  1
  O2-  O268  1  0.24858769  0.62540538  0.34701436  1
  O2-  O269  1  0.25046843  0.62514327  0.84778450  1
  O2-  O270  1  0.25110379  0.87611487  0.34527709  1
  O2-  O271  1  0.25130605  0.87634865  0.84956777  1
  O2-  O272  1  0.49985723  0.12492688  0.33400137  1
  O2-  O273  1  0.50083441  0.12399553  0.85525602  1
  O2-  O274  1  0.49969189  0.37434398  0.34141008  1
  O2-  O275  1  0.50181665  0.37490698  0.84803612  1
  O2-  O276  1  0.50322219  0.62518641  0.34788039  1
  O2-  O277  1  0.49939108  0.62616675  0.84688306  1
  O2-  O278  1  0.50050094  0.87559872  0.33693492  1
  O2-  O279  1  0.49974605  0.87524709  0.85426674  1
  O2-  O280  1  0.74681924  0.12455297  0.34299601  1
  O2-  O281  1  0.75057500  0.12371855  0.85149423  1
  O2-  O282  1  0.74760893  0.37456079  0.34809822  1
  O2-  O283  1  0.75059581  0.37483243  0.84353911  1
  O2-  O284  1  0.74639063  0.62518524  0.35070954  1
  O2-  O285  1  0.74902452  0.62472021  0.84630694  1
  O2-  O286  1  0.74855005  0.87589668  0.34408373  1
  O2-  O287  1  0.74912661  0.87537434  0.85137079  1
