# generated using pymatgen
data_BaYFeCuO5
_symmetry_space_group_name_H-M   'P 1'
_cell_length_a   15.66316463
_cell_length_b   15.66456313
_cell_length_c   15.47197470
_cell_angle_alpha   90.00216695
_cell_angle_beta   89.99894645
_cell_angle_gamma   90.00112404
_symmetry_Int_Tables_number   1
_chemical_formula_structural   BaYFeCuO5
_chemical_formula_sum   'Ba32 Y32 Fe32 Cu32 O160'
_cell_volume   3796.15158572
_cell_formula_units_Z   32
loop_
 _symmetry_equiv_pos_site_id
 _symmetry_equiv_pos_as_xyz
  1  'x, y, z'
loop_
 _atom_type_symbol
 _atom_type_oxidation_number
  Ba2+  2.0
  Y3+  3.0
  Fe3+  3.0
  Cu2+  2.0
  O2-  -2.0
loop_
 _atom_site_type_symbol
 _atom_site_label
 _atom_site_symmetry_multiplicity
 _atom_site_fract_x
 _atom_site_fract_y
 _atom_site_fract_z
 _atom_site_occupancy
  Ba2+  Ba0  1  -0.00490984  0.00013740  0.01765042  1
  Ba2+  Ba1  1  0.00705697  0.00056914  0.49605178  1
  Ba2+  Ba2  1  -0.00210514  0.24867290  0.02186282  1
  Ba2+  Ba3  1  0.00304454  0.25597773  0.51121406  1
  Ba2+  Ba4  1  0.00223390  0.50130823  0.01149692  1
  Ba2+  Ba5  1  -0.00696683  0.49775294  0.51706478  1
  Ba2+  Ba6  1  -0.00003882  0.74967653  0.00727482  1
  Ba2+  Ba7  1  -0.00400057  0.74552021  0.50193217  1
  Ba2+  Ba8  1  0.23818189  0.00100081  0.01850558  1
  Ba2+  Ba9  1  0.24335165  0.00081331  0.49535404  1
  Ba2+  Ba10  1  0.24701679  0.25750385  0.01680489  1
  Ba2+  Ba11  1  0.24999030  0.25841594  0.50652908  1
  Ba2+  Ba12  1  0.24937888  0.49962344  0.01640144  1
  Ba2+  Ba13  1  0.25710372  0.49469303  0.51614543  1
  Ba2+  Ba14  1  0.24223212  0.74297858  0.01614702  1
  Ba2+  Ba15  1  0.25083134  0.74804559  0.50601228  1
  Ba2+  Ba16  1  0.50589320  0.00555202  0.01174965  1
  Ba2+  Ba17  1  0.50947893  0.00329832  0.51179783  1
  Ba2+  Ba18  1  0.50441497  0.25905995  0.01058617  1
  Ba2+  Ba19  1  0.50419361  0.25651119  0.51152090  1
  Ba2+  Ba20  1  0.49959857  0.49391116  0.00647231  1
  Ba2+  Ba21  1  0.49984607  0.49832397  0.52364859  1
  Ba2+  Ba22  1  0.49997089  0.74011993  0.00634274  1
  Ba2+  Ba23  1  0.50509711  0.74372601  0.52388296  1
  Ba2+  Ba24  1  0.76091030  0.00472726  0.01030011  1
  Ba2+  Ba25  1  0.73995534  0.00246840  0.51155110  1
  Ba2+  Ba26  1  0.75153535  0.25062786  0.01754287  1
  Ba2+  Ba27  1  0.74340903  0.25406082  0.51657867  1
  Ba2+  Ba28  1  0.74837860  0.49628151  0.00138573  1
  Ba2+  Ba29  1  0.75011621  0.50119126  0.52232709  1
  Ba2+  Ba30  1  0.75803431  0.74780705  -0.00312884  1
  Ba2+  Ba31  1  0.74759862  0.74187797  0.51777927  1
  Y3+  Y32  1  -0.00044589  -0.00027473  0.25555413  1
  Y3+  Y33  1  -0.00330815  -0.00000900  0.76058359  1
  Y3+  Y34  1  -0.00061645  0.24952895  0.25696651  1
  Y3+  Y35  1  -0.00127624  0.25104383  0.75588841  1
  Y3+  Y36  1  -0.00055004  0.50074997  0.25666256  1
  Y3+  Y37  1  -0.00081741  0.50122127  0.75738458  1
  Y3+  Y38  1  -0.00023864  0.74983791  0.25679299  1
  Y3+  Y39  1  -0.00229085  0.74743075  0.75959073  1
  Y3+  Y40  1  0.24670686  0.00012579  0.25818977  1
  Y3+  Y41  1  0.25014550  0.00059194  0.75740976  1
  Y3+  Y42  1  0.25039958  0.25284881  0.25842328  1
  Y3+  Y43  1  0.25193864  0.25391120  0.75607538  1
  Y3+  Y44  1  0.25158750  0.49906716  0.25444203  1
  Y3+  Y45  1  0.25155388  0.49776464  0.75838468  1
  Y3+  Y46  1  0.24746171  0.74806897  0.25620383  1
  Y3+  Y47  1  0.24913511  0.74746550  0.75795077  1
  Y3+  Y48  1  0.50246686  0.00296075  0.25785707  1
  Y3+  Y49  1  0.50242813  0.00125393  0.75620527  1
  Y3+  Y50  1  0.50147139  0.25271936  0.25625219  1
  Y3+  Y51  1  0.50058683  0.25363983  0.75792753  1
  Y3+  Y52  1  0.49793641  0.49665252  0.25233974  1
  Y3+  Y53  1  0.50030781  0.49717364  0.76152644  1
  Y3+  Y54  1  0.49937267  0.74801085  0.25398798  1
  Y3+  Y55  1  0.50170493  0.74781078  0.75905131  1
  Y3+  Y56  1  0.75062984  0.00242581  0.25563491  1
  Y3+  Y57  1  0.75129435  0.00071381  0.75899071  1
  Y3+  Y58  1  0.74811329  0.24938153  0.25528663  1
  Y3+  Y59  1  0.74891971  0.25073572  0.75821265  1
  Y3+  Y60  1  0.75059945  0.49836364  0.25482475  1
  Y3+  Y61  1  0.74971212  0.50049222  0.75912859  1
  Y3+  Y62  1  0.75328005  0.74926270  0.25794648  1
  Y3+  Y63  1  0.75195025  0.74779913  0.75852769  1
  Fe3+  Fe64  1  0.37610818  0.12663545  0.37919238  1
  Fe3+  Fe65  1  0.37413054  0.87568694  0.88063308  1
  Fe3+  Fe66  1  0.12484213  0.62301419  0.37955730  1
  Fe3+  Fe67  1  0.87373345  0.12622097  0.37995203  1
  Fe3+  Fe68  1  0.87332299  0.37566538  0.37656089  1
  Fe3+  Fe69  1  0.12441166  0.87480839  0.87726508  1
  Fe3+  Fe70  1  0.62613466  0.12621263  0.87748275  1
  Fe3+  Fe71  1  0.37364590  0.62390884  0.87684196  1
  Fe3+  Fe72  1  0.12401101  0.12629469  0.87760829  1
  Fe3+  Fe73  1  0.37681590  0.87405935  0.37854940  1
  Fe3+  Fe74  1  0.62459217  0.87312755  0.37595885  1
  Fe3+  Fe75  1  0.87586013  0.37366989  0.87654914  1
  Fe3+  Fe76  1  0.37413793  0.12582594  0.88091538  1
  Fe3+  Fe77  1  0.62575219  0.87519360  0.87933851  1
  Fe3+  Fe78  1  0.87350893  0.87493347  0.38021949  1
  Fe3+  Fe79  1  0.62463508  0.37693660  0.37539591  1
  Fe3+  Fe80  1  0.37694432  0.62347416  0.37650979  1
  Fe3+  Fe81  1  0.12483960  0.37687196  0.37597319  1
  Fe3+  Fe82  1  0.12456236  0.37506253  0.87590139  1
  Fe3+  Fe83  1  0.62473998  0.62328013  0.37536426  1
  Fe3+  Fe84  1  0.62598389  0.62437295  0.13429490  1
  Fe3+  Fe85  1  0.37491280  0.87499941  0.13385800  1
  Fe3+  Fe86  1  0.37472460  0.12579726  0.13580626  1
  Fe3+  Fe87  1  0.87476059  0.62453292  0.13767029  1
  Fe3+  Fe88  1  0.12551893  0.62432408  0.63517331  1
  Fe3+  Fe89  1  0.87503863  0.12502931  0.63379239  1
  Fe3+  Fe90  1  0.12543990  0.12512085  0.63629205  1
  Fe3+  Fe91  1  0.62686855  0.87428007  0.13305694  1
  Fe3+  Fe92  1  0.87505861  0.87560282  0.63464857  1
  Fe3+  Fe93  1  0.37488518  0.87537280  0.63424630  1
  Fe3+  Fe94  1  0.12430412  0.87513484  0.63645793  1
  Fe3+  Fe95  1  0.37509024  0.12551856  0.63406624  1
  Cu2+  Cu96  1  0.12528121  0.62385386  0.87171984  1
  Cu2+  Cu97  1  0.62490184  0.62444432  0.86667764  1
  Cu2+  Cu98  1  0.12481711  0.87351717  0.36318989  1
  Cu2+  Cu99  1  0.87574767  0.87552366  0.87297966  1
  Cu2+  Cu100  1  0.87585845  0.12661456  0.87152666  1
  Cu2+  Cu101  1  0.87355732  0.62338168  0.37408040  1
  Cu2+  Cu102  1  0.62585135  0.37427561  0.87180980  1
  Cu2+  Cu103  1  0.37617477  0.37622977  0.37166351  1
  Cu2+  Cu104  1  0.87569337  0.62343413  0.86413243  1
  Cu2+  Cu105  1  0.12466327  0.12687826  0.36221860  1
  Cu2+  Cu106  1  0.62497300  0.12647156  0.37222033  1
  Cu2+  Cu107  1  0.37415877  0.37406411  0.87396438  1
  Cu2+  Cu108  1  0.37477978  0.37446299  0.14096601  1
  Cu2+  Cu109  1  0.12357123  0.62401947  0.14311537  1
  Cu2+  Cu110  1  0.87516487  0.37549643  0.14972276  1
  Cu2+  Cu111  1  0.62467498  0.12602828  0.64344762  1
  Cu2+  Cu112  1  0.12491947  0.37550428  0.65053826  1
  Cu2+  Cu113  1  0.62575148  0.87464242  0.65415874  1
  Cu2+  Cu114  1  0.62489717  0.62409653  0.65853066  1
  Cu2+  Cu115  1  0.87451760  0.37433513  0.65166545  1
  Cu2+  Cu116  1  0.62546543  0.37559165  0.65563614  1
  Cu2+  Cu117  1  0.62490544  0.12524615  0.14871285  1
  Cu2+  Cu118  1  0.37577546  0.37445299  0.64312609  1
  Cu2+  Cu119  1  0.62588812  0.37551908  0.14100990  1
  Cu2+  Cu120  1  0.12416973  0.87433003  0.15371389  1
  Cu2+  Cu121  1  0.37462722  0.62509914  0.65276700  1
  Cu2+  Cu122  1  0.12518571  0.12608936  0.15406315  1
  Cu2+  Cu123  1  0.87442344  0.87383355  0.14338937  1
  Cu2+  Cu124  1  0.37495747  0.62490196  0.14852075  1
  Cu2+  Cu125  1  0.87566993  0.62526078  0.64338010  1
  Cu2+  Cu126  1  0.87512301  0.12556084  0.14475646  1
  Cu2+  Cu127  1  0.12404994  0.37520385  0.15302364  1
  O2-  O128  1  0.12398571  0.12618128  -0.00208772  1
  O2-  O129  1  0.12642306  0.12420752  0.51599814  1
  O2-  O130  1  0.12346111  0.37414518  -0.00377032  1
  O2-  O131  1  0.12494457  0.37790103  0.49649882  1
  O2-  O132  1  0.12432486  0.62435112  0.00746142  1
  O2-  O133  1  0.12562516  0.62373682  0.50694119  1
  O2-  O134  1  0.12478704  0.87527136  -0.00234989  1
  O2-  O135  1  0.12670863  0.87525521  0.51620128  1
  O2-  O136  1  0.37372250  0.12444866  0.00745491  1
  O2-  O137  1  0.37521860  0.12469959  0.50696983  1
  O2-  O138  1  0.37345435  0.37366460  0.00744890  1
  O2-  O139  1  0.37669143  0.37514712  0.50767250  1
  O2-  O140  1  0.37226784  0.62614673  -0.00259126  1
  O2-  O141  1  0.37787841  0.62551258  0.49671707  1
  O2-  O142  1  0.37301173  0.87627646  0.00648917  1
  O2-  O143  1  0.37697613  0.87439154  0.50610898  1
  O2-  O144  1  0.62608319  0.12502052  -0.00203349  1
  O2-  O145  1  0.62407414  0.12588032  0.50751298  1
  O2-  O146  1  0.62645999  0.37483116  0.00611462  1
  O2-  O147  1  0.62523104  0.37875438  0.49596343  1
  O2-  O148  1  0.62734084  0.62608735  0.01401047  1
  O2-  O149  1  0.62303112  0.62359629  0.49561628  1
  O2-  O150  1  0.62632911  0.87549185  0.00606466  1
  O2-  O151  1  0.62268431  0.87218374  0.49628904  1
  O2-  O152  1  0.87671908  0.12646803  0.00776221  1
  O2-  O153  1  0.87459485  0.12458150  0.50685190  1
  O2-  O154  1  0.87717549  0.37354383  -0.00299067  1
  O2-  O155  1  0.87274592  0.37506471  0.49700317  1
  O2-  O156  1  0.87582066  0.62511040  0.01704657  1
  O2-  O157  1  0.87410774  0.62531176  0.50891953  1
  O2-  O158  1  0.87594138  0.87462388  0.00732139  1
  O2-  O159  1  0.87359099  0.87571547  0.50751947  1
  O2-  O160  1  0.12524610  -0.00026884  0.16587997  1
  O2-  O161  1  0.12562867  0.00008052  0.66790206  1
  O2-  O162  1  0.12539383  0.25123093  0.16540354  1
  O2-  O163  1  0.12565347  0.24946554  0.66239172  1
  O2-  O164  1  0.12485400  0.49791416  0.16363227  1
  O2-  O165  1  0.12576734  0.50129757  0.66192509  1
  O2-  O166  1  0.12503250  0.75067750  0.16808520  1
  O2-  O167  1  0.12619266  0.74977687  0.66449077  1
  O2-  O168  1  0.37483999  -0.00032056  0.16474778  1
  O2-  O169  1  0.37539838  -0.00029356  0.66376274  1
  O2-  O170  1  0.37407779  0.24680019  0.16574581  1
  O2-  O171  1  0.37523589  0.24714714  0.66362466  1
  O2-  O172  1  0.37421311  0.50075200  0.16200217  1
  O2-  O173  1  0.37500470  0.50109101  0.66539798  1
  O2-  O174  1  0.37472876  0.75260896  0.16289797  1
  O2-  O175  1  0.37492590  0.75232274  0.66362720  1
  O2-  O176  1  0.62404966  -0.00184254  0.16379356  1
  O2-  O177  1  0.62457218  -0.00090965  0.66615519  1
  O2-  O178  1  0.62458092  0.24896882  0.16450799  1
  O2-  O179  1  0.62430427  0.25192768  0.66363048  1
  O2-  O180  1  0.62495148  0.50205546  0.16249998  1
  O2-  O181  1  0.62496049  0.49979899  0.66662179  1
  O2-  O182  1  0.62367754  0.75087693  0.16282259  1
  O2-  O183  1  0.62452796  0.74964342  0.66705403  1
  O2-  O184  1  0.87503369  -0.00009698  0.16784773  1
  O2-  O185  1  0.87488510  0.00007125  0.66428100  1
  O2-  O186  1  0.87543173  0.25168153  0.16641562  1
  O2-  O187  1  0.87545158  0.24830924  0.66027337  1
  O2-  O188  1  0.87521781  0.50008668  0.16378365  1
  O2-  O189  1  0.87501685  0.49845081  0.66506256  1
  O2-  O190  1  0.87527415  0.74808438  0.16916737  1
  O2-  O191  1  0.87502532  0.75363986  0.66494272  1
  O2-  O192  1  0.00169394  0.12495526  0.16855338  1
  O2-  O193  1  -0.00090892  0.12464208  0.66194092  1
  O2-  O194  1  0.00049481  0.37467988  0.16608762  1
  O2-  O195  1  -0.00013448  0.37474974  0.66107308  1
  O2-  O196  1  -0.00209304  0.62487637  0.17033864  1
  O2-  O197  1  0.00359118  0.62549997  0.66324477  1
  O2-  O198  1  0.00071568  0.87489675  0.16847911  1
  O2-  O199  1  -0.00094602  0.87575751  0.66295155  1
  O2-  O200  1  0.25120357  0.12367836  0.16477600  1
  O2-  O201  1  0.25147276  0.12408529  0.66604663  1
  O2-  O202  1  0.24774296  0.37458206  0.16522232  1
  O2-  O203  1  0.24921205  0.37451988  0.66428808  1
  O2-  O204  1  0.25104226  0.62556216  0.16631969  1
  O2-  O205  1  0.24869183  0.62612949  0.66106312  1
  O2-  O206  1  0.25163718  0.87556052  0.16468708  1
  O2-  O207  1  0.25115940  0.87565168  0.66467888  1
  O2-  O208  1  0.49812690  0.12358700  0.16234473  1
  O2-  O209  1  0.49679699  0.12362168  0.66580893  1
  O2-  O210  1  0.50022074  0.37413354  0.16294484  1
  O2-  O211  1  0.50184973  0.37505485  0.66773895  1
  O2-  O212  1  0.50031249  0.62631325  0.16060373  1
  O2-  O213  1  0.49963742  0.62615440  0.66673199  1
  O2-  O214  1  0.49992505  0.87580695  0.15809325  1
  O2-  O215  1  0.49817491  0.87518909  0.66649084  1
  O2-  O216  1  0.74858675  0.12465689  0.16596964  1
  O2-  O217  1  0.75305505  0.12452406  0.66257988  1
  O2-  O218  1  0.75114800  0.37443562  0.16379472  1
  O2-  O219  1  0.74956405  0.37448896  0.66457961  1
  O2-  O220  1  0.74982703  0.62581741  0.16825909  1
  O2-  O221  1  0.74898920  0.62565276  0.66596966  1
  O2-  O222  1  0.74688384  0.87497662  0.16562090  1
  O2-  O223  1  0.75182948  0.87563783  0.66285910  1
  O2-  O224  1  0.12574605  0.00041592  0.35137375  1
  O2-  O225  1  0.12604187  0.00011684  0.84654501  1
  O2-  O226  1  0.12531628  0.25152198  0.34866596  1
  O2-  O227  1  0.12590207  0.24986321  0.84268611  1
  O2-  O228  1  0.12536204  0.50129106  0.34513110  1
  O2-  O229  1  0.12491959  0.49806311  0.84524425  1
  O2-  O230  1  0.12574867  0.74719038  0.35223768  1
  O2-  O231  1  0.12581853  0.75143294  0.84649723  1
  O2-  O232  1  0.37487483  -0.00058074  0.35163250  1
  O2-  O233  1  0.37500681  -0.00021362  0.84896482  1
  O2-  O234  1  0.37483585  0.24810305  0.35062633  1
  O2-  O235  1  0.37480847  0.24601361  0.84783223  1
  O2-  O236  1  0.37483561  0.50185984  0.34433906  1
  O2-  O237  1  0.37514478  0.50073519  0.84844545  1
  O2-  O238  1  0.37500482  0.75087527  0.34673180  1
  O2-  O239  1  0.37524398  0.75233428  0.84835723  1
  O2-  O240  1  0.62397813  -0.00227921  0.34773951  1
  O2-  O241  1  0.62439423  -0.00099132  0.84878870  1
  O2-  O242  1  0.62433731  0.25246754  0.34742555  1
  O2-  O243  1  0.62432010  0.24798688  0.84558552  1
  O2-  O244  1  0.62461141  0.50010859  0.34110564  1
  O2-  O245  1  0.62493512  0.50066114  0.85074356  1
  O2-  O246  1  0.62421397  0.74982135  0.34241950  1
  O2-  O247  1  0.62425565  0.75200349  0.85174420  1
  O2-  O248  1  0.87485623  -0.00008736  0.35271742  1
  O2-  O249  1  0.87492427  0.00081980  0.84796127  1
  O2-  O250  1  0.87483616  0.24931994  0.34917201  1
  O2-  O251  1  0.87537550  0.25147882  0.84275767  1
  O2-  O252  1  0.87469203  0.49791244  0.34496038  1
  O2-  O253  1  0.87562636  0.49913476  0.84864482  1
  O2-  O254  1  0.87459999  0.75295484  0.35198394  1
  O2-  O255  1  0.87520408  0.74779081  0.84924549  1
  O2-  O256  1  -0.00254784  0.12452351  0.35255082  1
  O2-  O257  1  0.00242160  0.12499013  0.84309581  1
  O2-  O258  1  -0.00046142  0.37477234  0.34803199  1
  O2-  O259  1  0.00028968  0.37472571  0.84254833  1
  O2-  O260  1  0.00230405  0.62497139  0.35337176  1
  O2-  O261  1  -0.00079712  0.62503131  0.84660187  1
  O2-  O262  1  -0.00202781  0.87528956  0.35365195  1
  O2-  O263  1  0.00200522  0.87480575  0.84442505  1
  O2-  O264  1  0.25225899  0.12400701  0.34981123  1
  O2-  O265  1  0.25079249  0.12348531  0.84813168  1
  O2-  O266  1  0.24889849  0.37513086  0.34823967  1
  O2-  O267  1  0.24848503  0.37409644  0.84638098  1
  O2-  O268  1  0.24946683  0.62589670  0.35004622  1
  O2-  O269  1  0.25195828  0.62545006  0.84334397  1
  O2-  O270  1  0.25241181  0.87507784  0.35078552  1
  O2-  O271  1  0.25155236  0.87564148  0.84649635  1
  O2-  O272  1  0.49706953  0.12416982  0.34670529  1
  O2-  O273  1  0.49879252  0.12295483  0.85033315  1
  O2-  O274  1  0.50135881  0.37518634  0.34457348  1
  O2-  O275  1  0.49989036  0.37390167  0.85131668  1
  O2-  O276  1  0.50013286  0.62571678  0.34065897  1
  O2-  O277  1  0.49872066  0.62630230  0.85006530  1
  O2-  O278  1  0.49859372  0.87521163  0.34168664  1
  O2-  O279  1  0.49963631  0.87590958  0.85288823  1
  O2-  O280  1  0.75262957  0.12423782  0.34926620  1
  O2-  O281  1  0.74836054  0.12423208  0.84561553  1
  O2-  O282  1  0.74949715  0.37464271  0.34432692  1
  O2-  O283  1  0.75190240  0.37503172  0.84741540  1
  O2-  O284  1  0.74793815  0.62575938  0.34719670  1
  O2-  O285  1  0.75032920  0.62544168  0.85025158  1
  O2-  O286  1  0.75055466  0.87557103  0.34808527  1
  O2-  O287  1  0.74724271  0.87486692  0.84859656  1
