# generated using pymatgen
data_BaYFeCuO5
_symmetry_space_group_name_H-M   'P 1'
_cell_length_a   15.66275678
_cell_length_b   15.66597001
_cell_length_c   15.47122172
_cell_angle_alpha   89.99774066
_cell_angle_beta   90.00596034
_cell_angle_gamma   89.99756455
_symmetry_Int_Tables_number   1
_chemical_formula_structural   BaYFeCuO5
_chemical_formula_sum   'Ba32 Y32 Fe32 Cu32 O160'
_cell_volume   3796.20888937
_cell_formula_units_Z   32
loop_
 _symmetry_equiv_pos_site_id
 _symmetry_equiv_pos_as_xyz
  1  'x, y, z'
loop_
 _atom_type_symbol
 _atom_type_oxidation_number
  Ba2+  2.0
  Y3+  3.0
  Fe3+  3.0
  Cu2+  2.0
  O2-  -2.0
loop_
 _atom_site_type_symbol
 _atom_site_label
 _atom_site_symmetry_multiplicity
 _atom_site_fract_x
 _atom_site_fract_y
 _atom_site_fract_z
 _atom_site_occupancy
  Ba2+  Ba0  1  -0.00344528  -0.00460906  0.01193260  1
  Ba2+  Ba1  1  0.00991317  0.00056075  0.51774972  1
  Ba2+  Ba2  1  0.00118442  0.26297925  0.00688558  1
  Ba2+  Ba3  1  0.00540610  0.25465428  0.51243348  1
  Ba2+  Ba4  1  0.00249437  0.49615496  0.00750599  1
  Ba2+  Ba5  1  0.00100939  0.49994348  0.50619155  1
  Ba2+  Ba6  1  -0.00225598  0.74301684  0.01188883  1
  Ba2+  Ba7  1  0.00584030  0.74520698  0.51223089  1
  Ba2+  Ba8  1  0.26047486  0.00244036  0.01079339  1
  Ba2+  Ba9  1  0.25090221  0.00148249  0.51828550  1
  Ba2+  Ba10  1  0.25359093  0.25549330  0.01190382  1
  Ba2+  Ba11  1  0.25417589  0.25318567  0.51205659  1
  Ba2+  Ba12  1  0.24862727  0.50021807  0.01796075  1
  Ba2+  Ba13  1  0.25569561  0.49928058  0.50626942  1
  Ba2+  Ba14  1  0.25559422  0.74265381  0.01615073  1
  Ba2+  Ba15  1  0.25316995  0.74579660  0.51126528  1
  Ba2+  Ba16  1  0.49783132  0.00248258  0.01156882  1
  Ba2+  Ba17  1  0.49876730  0.00163781  0.51734193  1
  Ba2+  Ba18  1  0.49413552  0.24390145  0.01570995  1
  Ba2+  Ba19  1  0.49907643  0.25512883  0.51571068  1
  Ba2+  Ba20  1  0.48947224  0.50266333  0.01237966  1
  Ba2+  Ba21  1  0.49708268  0.49679458  0.51154042  1
  Ba2+  Ba22  1  0.49376510  0.75182955  0.00698266  1
  Ba2+  Ba23  1  0.49690621  0.74571702  0.51191660  1
  Ba2+  Ba24  1  0.74338529  -0.00343739  0.01089172  1
  Ba2+  Ba25  1  0.74016219  0.00046037  0.51707445  1
  Ba2+  Ba26  1  0.75142597  0.25255089  0.01152956  1
  Ba2+  Ba27  1  0.74259381  0.25671004  0.51560823  1
  Ba2+  Ba28  1  0.76031520  0.49869159  0.00197655  1
  Ba2+  Ba29  1  0.74579902  0.49673315  0.51244456  1
  Ba2+  Ba30  1  0.75248226  0.75288295  0.00157640  1
  Ba2+  Ba31  1  0.74478024  0.74452132  0.51219306  1
  Y3+  Y32  1  -0.00081768  -0.00094908  0.25601917  1
  Y3+  Y33  1  0.00267158  0.00083161  0.75652147  1
  Y3+  Y34  1  0.00071947  0.25413915  0.25420898  1
  Y3+  Y35  1  0.00066671  0.25404151  0.76033139  1
  Y3+  Y36  1  0.00149362  0.49820728  0.25528928  1
  Y3+  Y37  1  -0.00053964  0.49820734  0.76107436  1
  Y3+  Y38  1  -0.00041302  0.74798910  0.25798688  1
  Y3+  Y39  1  0.00191961  0.74822698  0.75641347  1
  Y3+  Y40  1  0.25410344  -0.00046703  0.25504834  1
  Y3+  Y41  1  0.25128383  0.00290917  0.75788498  1
  Y3+  Y42  1  0.25170877  0.25369905  0.25608864  1
  Y3+  Y43  1  0.25191409  0.25070085  0.75824720  1
  Y3+  Y44  1  0.25194416  0.49848349  0.25822132  1
  Y3+  Y45  1  0.25195002  0.50082381  0.75717241  1
  Y3+  Y46  1  0.25400420  0.74729724  0.25798343  1
  Y3+  Y47  1  0.25121447  0.74643142  0.75536464  1
  Y3+  Y48  1  0.49757439  0.00083609  0.25453950  1
  Y3+  Y49  1  0.49990851  0.00153717  0.75868507  1
  Y3+  Y50  1  0.49821865  0.25134182  0.25793584  1
  Y3+  Y51  1  0.49839221  0.25037284  0.75470832  1
  Y3+  Y52  1  0.49617293  0.49859564  0.26107263  1
  Y3+  Y53  1  0.49807038  0.50084242  0.75418294  1
  Y3+  Y54  1  0.49513904  0.74878291  0.25868569  1
  Y3+  Y55  1  0.49968293  0.74792956  0.75715010  1
  Y3+  Y56  1  0.74930345  0.00013046  0.25566487  1
  Y3+  Y57  1  0.74646955  -0.00027072  0.75688992  1
  Y3+  Y58  1  0.74869179  0.25181785  0.25606953  1
  Y3+  Y59  1  0.74933028  0.25371906  0.75656392  1
  Y3+  Y60  1  0.75070648  0.49818293  0.25883130  1
  Y3+  Y61  1  0.75042028  0.49835161  0.75762562  1
  Y3+  Y62  1  0.75091999  0.74887133  0.25881858  1
  Y3+  Y63  1  0.74730128  0.74938359  0.75719477  1
  Fe3+  Fe64  1  0.37492017  0.87463015  0.87612925  1
  Fe3+  Fe65  1  0.12564969  0.12567662  0.37438413  1
  Fe3+  Fe66  1  0.87494988  0.37453185  0.37765733  1
  Fe3+  Fe67  1  0.87511330  0.12534083  0.38012203  1
  Fe3+  Fe68  1  0.12696007  0.87532809  0.37532299  1
  Fe3+  Fe69  1  0.62336461  0.37543896  0.88022739  1
  Fe3+  Fe70  1  0.12644720  0.87429778  0.87944223  1
  Fe3+  Fe71  1  0.87535763  0.87513094  0.87486406  1
  Fe3+  Fe72  1  0.12601015  0.62431125  0.87713875  1
  Fe3+  Fe73  1  0.62433765  0.62456732  0.88029671  1
  Fe3+  Fe74  1  0.37483066  0.12490107  0.37675924  1
  Fe3+  Fe75  1  0.62435102  0.12557616  0.37572838  1
  Fe3+  Fe76  1  0.87479827  0.12523094  0.87837741  1
  Fe3+  Fe77  1  0.62300210  0.87504381  0.37736855  1
  Fe3+  Fe78  1  0.87505877  0.87507107  0.38097542  1
  Fe3+  Fe79  1  0.62444026  0.62367934  0.37641948  1
  Fe3+  Fe80  1  0.62448815  0.12614361  0.87688527  1
  Fe3+  Fe81  1  0.12544976  0.12597930  0.88043665  1
  Fe3+  Fe82  1  0.12551790  0.62370519  0.37544727  1
  Fe3+  Fe83  1  0.37515464  0.37570352  0.87682685  1
  Fe3+  Fe84  1  0.87511590  0.87489917  0.63446885  1
  Fe3+  Fe85  1  0.12522257  0.12536552  0.13321341  1
  Fe3+  Fe86  1  0.87530660  0.62373142  0.63819358  1
  Fe3+  Fe87  1  0.87484621  0.12538496  0.13368178  1
  Fe3+  Fe88  1  0.12586947  0.37671085  0.63942186  1
  Fe3+  Fe89  1  0.62414899  0.37602641  0.13423046  1
  Fe3+  Fe90  1  0.12588227  0.87347066  0.13376039  1
  Fe3+  Fe91  1  0.37506141  0.87476196  0.63845723  1
  Fe3+  Fe92  1  0.62405125  0.87317609  0.13760521  1
  Fe3+  Fe93  1  0.62464295  0.62451923  0.13457058  1
  Fe3+  Fe94  1  0.87500342  0.12671200  0.63464377  1
  Fe3+  Fe95  1  0.87419388  0.62414902  0.13922429  1
  Cu2+  Cu96  1  0.12697605  0.37579526  0.87251682  1
  Cu2+  Cu97  1  0.37476693  0.62472490  0.87180936  1
  Cu2+  Cu98  1  0.87513866  0.62450892  0.36655051  1
  Cu2+  Cu99  1  0.87444529  0.37479397  0.87235377  1
  Cu2+  Cu100  1  0.87522862  0.62566982  0.86226198  1
  Cu2+  Cu101  1  0.37487376  0.87574562  0.36673058  1
  Cu2+  Cu102  1  0.37536688  0.12600839  0.87193486  1
  Cu2+  Cu103  1  0.12527274  0.37438373  0.36320280  1
  Cu2+  Cu104  1  0.62441748  0.37445305  0.37080473  1
  Cu2+  Cu105  1  0.37506224  0.62431914  0.37319681  1
  Cu2+  Cu106  1  0.62410741  0.87494569  0.86378950  1
  Cu2+  Cu107  1  0.37509864  0.37380194  0.37246082  1
  Cu2+  Cu108  1  0.62401611  0.87430455  0.65143281  1
  Cu2+  Cu109  1  0.12500737  0.62352152  0.65147287  1
  Cu2+  Cu110  1  0.37572375  0.62423018  0.14374596  1
  Cu2+  Cu111  1  0.37511847  0.12557988  0.65086043  1
  Cu2+  Cu112  1  0.37504449  0.62427846  0.64182932  1
  Cu2+  Cu113  1  0.87451432  0.87411247  0.15144738  1
  Cu2+  Cu114  1  0.12511266  0.12713003  0.65478500  1
  Cu2+  Cu115  1  0.87567764  0.37550473  0.65022583  1
  Cu2+  Cu116  1  0.12512250  0.62479938  0.15175100  1
  Cu2+  Cu117  1  0.12572655  0.37565637  0.14190422  1
  Cu2+  Cu118  1  0.62502547  0.62436719  0.65294090  1
  Cu2+  Cu119  1  0.62494042  0.12542885  0.14886192  1
  Cu2+  Cu120  1  0.37509078  0.87431869  0.15003476  1
  Cu2+  Cu121  1  0.87439988  0.37573379  0.14259947  1
  Cu2+  Cu122  1  0.62489662  0.12606575  0.65225237  1
  Cu2+  Cu123  1  0.37442241  0.37548822  0.64373599  1
  Cu2+  Cu124  1  0.37578453  0.37528390  0.15111553  1
  Cu2+  Cu125  1  0.62408640  0.37625140  0.64412467  1
  Cu2+  Cu126  1  0.37442253  0.12555879  0.14226114  1
  Cu2+  Cu127  1  0.12599780  0.87434934  0.65228677  1
  O2-  O128  1  0.12366795  0.12468753  0.00646097  1
  O2-  O129  1  0.12497769  0.12427010  0.49443361  1
  O2-  O130  1  0.12609548  0.37612597  0.00810307  1
  O2-  O131  1  0.12464264  0.37495288  0.51830020  1
  O2-  O132  1  0.12489926  0.62609810  -0.00240421  1
  O2-  O133  1  0.12474540  0.62520040  0.49612902  1
  O2-  O134  1  0.12476833  0.87359442  0.00513912  1
  O2-  O135  1  0.12562412  0.87685976  0.49549740  1
  O2-  O136  1  0.37497119  0.12487595  0.00672986  1
  O2-  O137  1  0.37425572  0.12392956  0.49723674  1
  O2-  O138  1  0.37597050  0.37530048  -0.00209622  1
  O2-  O139  1  0.37459818  0.37369647  0.50770799  1
  O2-  O140  1  0.37498002  0.62506074  0.00790546  1
  O2-  O141  1  0.37522957  0.62535750  0.50765812  1
  O2-  O142  1  0.37472903  0.87477137  -0.00280720  1
  O2-  O143  1  0.37454385  0.87613051  0.51727647  1
  O2-  O144  1  0.62602965  0.12482864  -0.00283757  1
  O2-  O145  1  0.62500830  0.12490972  0.49614312  1
  O2-  O146  1  0.62388732  0.37519097  0.00655089  1
  O2-  O147  1  0.62479950  0.37545454  0.50720830  1
  O2-  O148  1  0.62576385  0.62596573  0.00770348  1
  O2-  O149  1  0.62507307  0.62414983  0.49721991  1
  O2-  O150  1  0.62553698  0.87321162  0.01696731  1
  O2-  O151  1  0.62446225  0.87563564  0.49753595  1
  O2-  O152  1  0.87495689  0.12373012  0.00549633  1
  O2-  O153  1  0.87525875  0.12529583  0.50565693  1
  O2-  O154  1  0.87388066  0.37481524  0.00688862  1
  O2-  O155  1  0.87544029  0.37286348  0.49816206  1
  O2-  O156  1  0.87377979  0.62662238  0.01836271  1
  O2-  O157  1  0.87532324  0.62526642  0.51770142  1
  O2-  O158  1  0.87515667  0.87557351  -0.00448648  1
  O2-  O159  1  0.87553489  0.87600006  0.50726564  1
  O2-  O160  1  0.12332441  -0.00079325  0.15767635  1
  O2-  O161  1  0.12425004  0.00156777  0.66576033  1
  O2-  O162  1  0.12381998  0.24697039  0.16210136  1
  O2-  O163  1  0.12392442  0.25135699  0.66853367  1
  O2-  O164  1  0.12536729  0.50133857  0.16593869  1
  O2-  O165  1  0.12396558  0.49975401  0.66753772  1
  O2-  O166  1  0.12422818  0.75158828  0.16186761  1
  O2-  O167  1  0.12446113  0.74887096  0.66359489  1
  O2-  O168  1  0.37521333  -0.00132254  0.16263446  1
  O2-  O169  1  0.37470511  0.00033956  0.66606036  1
  O2-  O170  1  0.37500564  0.25147971  0.16418765  1
  O2-  O171  1  0.37459016  0.24869370  0.66476872  1
  O2-  O172  1  0.37526592  0.49862327  0.16649002  1
  O2-  O173  1  0.37513538  0.50023924  0.66534820  1
  O2-  O174  1  0.37504744  0.75055311  0.16598777  1
  O2-  O175  1  0.37485755  0.75119680  0.66556375  1
  O2-  O176  1  0.62580529  -0.00061294  0.16324327  1
  O2-  O177  1  0.62571013  0.00062885  0.66387111  1
  O2-  O178  1  0.62555877  0.25163454  0.16027220  1
  O2-  O179  1  0.62608275  0.24954290  0.66621924  1
  O2-  O180  1  0.62543135  0.50001934  0.16088198  1
  O2-  O181  1  0.62572817  0.50123874  0.66937453  1
  O2-  O182  1  0.62575244  0.74815439  0.16564987  1
  O2-  O183  1  0.62575028  0.74947430  0.66582898  1
  O2-  O184  1  0.87485751  0.00133680  0.16275993  1
  O2-  O185  1  0.87568419  0.00000552  0.66053721  1
  O2-  O186  1  0.87521181  0.24703566  0.16222454  1
  O2-  O187  1  0.87497536  0.24894594  0.66344829  1
  O2-  O188  1  0.87411304  0.50155552  0.16757522  1
  O2-  O189  1  0.87479793  0.50013935  0.66721904  1
  O2-  O190  1  0.87494910  0.74886309  0.16919640  1
  O2-  O191  1  0.87524024  0.75175871  0.66337367  1
  O2-  O192  1  -0.00032021  0.12305199  0.16221359  1
  O2-  O193  1  -0.00228063  0.12495005  0.66523123  1
  O2-  O194  1  -0.00055392  0.37534311  0.16449715  1
  O2-  O195  1  0.00073726  0.37467590  0.66834161  1
  O2-  O196  1  -0.00045107  0.62549773  0.16567527  1
  O2-  O197  1  -0.00056709  0.62557195  0.66678048  1
  O2-  O198  1  0.00131539  0.87525171  0.16275933  1
  O2-  O199  1  -0.00095348  0.87597673  0.66353375  1
  O2-  O200  1  0.24661019  0.12376912  0.16143377  1
  O2-  O201  1  0.24949727  0.12514208  0.66608609  1
  O2-  O202  1  0.25210775  0.37497128  0.16458325  1
  O2-  O203  1  0.24866363  0.37469315  0.66705391  1
  O2-  O204  1  0.24907980  0.62523804  0.16441829  1
  O2-  O205  1  0.24832232  0.62503436  0.66435347  1
  O2-  O206  1  0.24854321  0.87512882  0.16094782  1
  O2-  O207  1  0.25024459  0.87608749  0.66728686  1
  O2-  O208  1  0.50082326  0.12489835  0.16327146  1
  O2-  O209  1  0.50060491  0.12509276  0.66405692  1
  O2-  O210  1  0.50164364  0.37525357  0.16341778  1
  O2-  O211  1  0.49926412  0.37515164  0.66568632  1
  O2-  O212  1  0.50316216  0.62464032  0.16389172  1
  O2-  O213  1  0.50164465  0.62547749  0.66669238  1
  O2-  O214  1  0.50027750  0.87439129  0.16526799  1
  O2-  O215  1  0.49941290  0.87526836  0.66642438  1
  O2-  O216  1  0.75205329  0.12452869  0.16340776  1
  O2-  O217  1  0.75216673  0.12458475  0.66344822  1
  O2-  O218  1  0.74681226  0.37444623  0.16368947  1
  O2-  O219  1  0.75113960  0.37543999  0.66671282  1
  O2-  O220  1  0.74833723  0.62514143  0.16677609  1
  O2-  O221  1  0.75086711  0.62548257  0.66809129  1
  O2-  O222  1  0.74914033  0.87499276  0.16805195  1
  O2-  O223  1  0.75152832  0.87560496  0.66274839  1
  O2-  O224  1  0.12429200  0.00004041  0.33966388  1
  O2-  O225  1  0.12403200  -0.00008490  0.85147194  1
  O2-  O226  1  0.12372599  0.24933366  0.34493068  1
  O2-  O227  1  0.12376327  0.24781253  0.85176831  1
  O2-  O228  1  0.12407342  0.49906437  0.34909783  1
  O2-  O229  1  0.12463609  0.50152752  0.84841856  1
  O2-  O230  1  0.12436224  0.75038355  0.34438729  1
  O2-  O231  1  0.12457526  0.75143267  0.84702480  1
  O2-  O232  1  0.37471461  0.00124162  0.34526461  1
  O2-  O233  1  0.37465154  -0.00139609  0.84771669  1
  O2-  O234  1  0.37445383  0.24779674  0.34645155  1
  O2-  O235  1  0.37584153  0.25215055  0.84710233  1
  O2-  O236  1  0.37481382  0.49891532  0.35049235  1
  O2-  O237  1  0.37591495  0.49880933  0.84728700  1
  O2-  O238  1  0.37456938  0.75107493  0.35025193  1
  O2-  O239  1  0.37489656  0.75138914  0.84698561  1
  O2-  O240  1  0.62590355  -0.00003503  0.34384022  1
  O2-  O241  1  0.62592016  0.00104528  0.84761693  1
  O2-  O242  1  0.62607301  0.24747639  0.34347790  1
  O2-  O243  1  0.62580332  0.25175975  0.84897021  1
  O2-  O244  1  0.62573526  0.50114393  0.34448742  1
  O2-  O245  1  0.62627189  0.50003319  0.85375760  1
  O2-  O246  1  0.62567513  0.75037761  0.34633985  1
  O2-  O247  1  0.62573450  0.74829331  0.85103205  1
  O2-  O248  1  0.87537270  0.00006836  0.34825313  1
  O2-  O249  1  0.87546252  0.00113052  0.84493082  1
  O2-  O250  1  0.87537584  0.24791841  0.34570680  1
  O2-  O251  1  0.87508590  0.24641695  0.84849005  1
  O2-  O252  1  0.87517992  0.49876153  0.34931311  1
  O2-  O253  1  0.87428877  0.50171049  0.85077880  1
  O2-  O254  1  0.87534921  0.75230906  0.35250533  1
  O2-  O255  1  0.87514298  0.75166542  0.84578580  1
  O2-  O256  1  -0.00163268  0.12390277  0.34592038  1
  O2-  O257  1  -0.00001283  0.12370314  0.85059365  1
  O2-  O258  1  -0.00073978  0.37360073  0.34734727  1
  O2-  O259  1  0.00010590  0.37497091  0.85147254  1
  O2-  O260  1  0.00031712  0.62523352  0.34787718  1
  O2-  O261  1  0.00034425  0.62650114  0.84889363  1
  O2-  O262  1  -0.00120723  0.87589299  0.34724749  1
  O2-  O263  1  0.00199804  0.87621531  0.84739709  1
  O2-  O264  1  0.24990473  0.12455090  0.34288849  1
  O2-  O265  1  0.24715700  0.12477675  0.85059541  1
  O2-  O266  1  0.24860078  0.37391210  0.34875441  1
  O2-  O267  1  0.25210451  0.37477172  0.84766671  1
  O2-  O268  1  0.24867227  0.62482992  0.34717382  1
  O2-  O269  1  0.24879890  0.62575120  0.84645332  1
  O2-  O270  1  0.24980166  0.87550640  0.34448802  1
  O2-  O271  1  0.24819862  0.87592556  0.84898719  1
  O2-  O272  1  0.49978750  0.12439083  0.34496579  1
  O2-  O273  1  0.50197163  0.12529795  0.84716406  1
  O2-  O274  1  0.49991767  0.37403375  0.34730286  1
  O2-  O275  1  0.50151524  0.37566935  0.84763560  1
  O2-  O276  1  0.50110879  0.62520845  0.34633410  1
  O2-  O277  1  0.50277623  0.62510376  0.85094946  1
  O2-  O278  1  0.50012334  0.87516921  0.34731740  1
  O2-  O279  1  0.49949257  0.87501414  0.84870326  1
  O2-  O280  1  0.75188584  0.12403620  0.34715520  1
  O2-  O281  1  0.75096889  0.12466120  0.84739610  1
  O2-  O282  1  0.75195478  0.37368246  0.34608859  1
  O2-  O283  1  0.74671176  0.37473691  0.85071814  1
  O2-  O284  1  0.75002960  0.62545361  0.34812020  1
  O2-  O285  1  0.74868919  0.62623476  0.85230095  1
  O2-  O286  1  0.75127661  0.87563850  0.35025481  1
  O2-  O287  1  0.75049783  0.87564415  0.84688315  1
