# generated using pymatgen
data_BaYFeCuO5
_symmetry_space_group_name_H-M   'P 1'
_cell_length_a   15.66892781
_cell_length_b   15.67530442
_cell_length_c   15.49237686
_cell_angle_alpha   89.99719758
_cell_angle_beta   89.99344014
_cell_angle_gamma   89.99383960
_symmetry_Int_Tables_number   1
_chemical_formula_structural   BaYFeCuO5
_chemical_formula_sum   'Ba32 Y32 Fe32 Cu32 O160'
_cell_volume   3805.16339503
_cell_formula_units_Z   32
loop_
 _symmetry_equiv_pos_site_id
 _symmetry_equiv_pos_as_xyz
  1  'x, y, z'
loop_
 _atom_type_symbol
 _atom_type_oxidation_number
  Ba2+  2.0
  Y3+  3.0
  Fe3+  3.0
  Cu2+  2.0
  O2-  -2.0
loop_
 _atom_site_type_symbol
 _atom_site_label
 _atom_site_symmetry_multiplicity
 _atom_site_fract_x
 _atom_site_fract_y
 _atom_site_fract_z
 _atom_site_occupancy
  Ba2+  Ba0  1  0.00075762  -0.00185754  0.01809535  1
  Ba2+  Ba1  1  0.00385522  0.00087348  0.51513842  1
  Ba2+  Ba2  1  0.00188469  0.24972095  0.00535266  1
  Ba2+  Ba3  1  0.00029114  0.24777227  0.52108792  1
  Ba2+  Ba4  1  0.00229363  0.50123620  0.01671252  1
  Ba2+  Ba5  1  -0.00238786  0.49919179  0.51710881  1
  Ba2+  Ba6  1  0.00197429  0.74985639  0.02713960  1
  Ba2+  Ba7  1  0.00240656  0.75339381  0.50979273  1
  Ba2+  Ba8  1  0.24741653  -0.00897506  0.00633190  1
  Ba2+  Ba9  1  0.24291579  0.00544095  0.50667911  1
  Ba2+  Ba10  1  0.24370594  0.25332085  -0.00170776  1
  Ba2+  Ba11  1  0.24640884  0.24218897  0.51089322  1
  Ba2+  Ba12  1  0.24816632  0.50263988  0.01939935  1
  Ba2+  Ba13  1  0.24923463  0.50550065  0.50647798  1
  Ba2+  Ba14  1  0.25028703  0.75132629  0.02527136  1
  Ba2+  Ba15  1  0.24504721  0.74746708  0.50218560  1
  Ba2+  Ba16  1  0.49663923  -0.01120917  0.00067440  1
  Ba2+  Ba17  1  0.49995468  0.01267816  0.50730377  1
  Ba2+  Ba18  1  0.49373111  0.25421635  0.01222463  1
  Ba2+  Ba19  1  0.50734606  0.24564322  0.50671714  1
  Ba2+  Ba20  1  0.48911987  0.50231720  0.01850812  1
  Ba2+  Ba21  1  0.50500097  0.50140472  0.50064378  1
  Ba2+  Ba22  1  0.49119987  0.75542647  0.00634561  1
  Ba2+  Ba23  1  0.49774107  0.74027998  0.50261233  1
  Ba2+  Ba24  1  0.75597333  -0.00503992  0.01164599  1
  Ba2+  Ba25  1  0.75292283  0.00756450  0.51735521  1
  Ba2+  Ba26  1  0.76101048  0.24926820  0.01682474  1
  Ba2+  Ba27  1  0.74682575  0.25034258  0.51748614  1
  Ba2+  Ba28  1  0.76033202  0.50149386  0.01660462  1
  Ba2+  Ba29  1  0.74833752  0.49538218  0.51231228  1
  Ba2+  Ba30  1  0.75561133  0.75404932  0.01151423  1
  Ba2+  Ba31  1  0.75575405  0.74578554  0.51330983  1
  Y3+  Y32  1  0.00194439  -0.00058464  0.26016844  1
  Y3+  Y33  1  0.00221247  0.00062136  0.75251110  1
  Y3+  Y34  1  -0.00060304  0.24845691  0.25632641  1
  Y3+  Y35  1  0.00282553  0.24964186  0.75607395  1
  Y3+  Y36  1  0.00007390  0.50160129  0.25654900  1
  Y3+  Y37  1  0.00051891  0.49798452  0.75538527  1
  Y3+  Y38  1  0.00258960  0.75072838  0.26052180  1
  Y3+  Y39  1  -0.00031502  0.75168814  0.75014992  1
  Y3+  Y40  1  0.24903027  -0.00051404  0.26188392  1
  Y3+  Y41  1  0.24864492  0.00030613  0.75391803  1
  Y3+  Y42  1  0.25060046  0.24759551  0.26092774  1
  Y3+  Y43  1  0.24732134  0.24844500  0.75384205  1
  Y3+  Y44  1  0.25130464  0.50272956  0.26041662  1
  Y3+  Y45  1  0.24891936  0.49969354  0.75349926  1
  Y3+  Y46  1  0.24948728  0.75036963  0.26185628  1
  Y3+  Y47  1  0.25068066  0.75135759  0.75270781  1
  Y3+  Y48  1  0.49872103  0.00191354  0.25968859  1
  Y3+  Y49  1  0.49868903  -0.00033569  0.75689681  1
  Y3+  Y50  1  0.50044767  0.24909781  0.26164080  1
  Y3+  Y51  1  0.50035239  0.24875294  0.75382521  1
  Y3+  Y52  1  0.49929319  0.50026606  0.26105842  1
  Y3+  Y53  1  0.49969797  0.50011799  0.75372527  1
  Y3+  Y54  1  0.49719833  0.74935367  0.25891501  1
  Y3+  Y55  1  0.49850159  0.75137646  0.75755681  1
  Y3+  Y56  1  0.75088262  0.00142664  0.25762115  1
  Y3+  Y57  1  0.74990500  0.00013450  0.75607696  1
  Y3+  Y58  1  0.74949758  0.24986322  0.25880079  1
  Y3+  Y59  1  0.74948590  0.25001619  0.75439741  1
  Y3+  Y60  1  0.74956965  0.49921081  0.25837070  1
  Y3+  Y61  1  0.75049819  0.49850340  0.75474235  1
  Y3+  Y62  1  0.75098065  0.74976419  0.25784323  1
  Y3+  Y63  1  0.75063117  0.75152559  0.75651752  1
  Fe3+  Fe64  1  0.62537731  0.12494185  0.88100560  1
  Fe3+  Fe65  1  0.37369993  0.12441784  0.87916236  1
  Fe3+  Fe66  1  0.12362479  0.37478531  0.37889332  1
  Fe3+  Fe67  1  0.12479147  0.62604587  0.87598322  1
  Fe3+  Fe68  1  0.87710788  0.62575761  0.87548142  1
  Fe3+  Fe69  1  0.62497220  0.62515824  0.88154607  1
  Fe3+  Fe70  1  0.37376946  0.37629144  0.87517814  1
  Fe3+  Fe71  1  0.87538091  0.37413473  0.37659789  1
  Fe3+  Fe72  1  0.87547876  0.12587781  0.37685988  1
  Fe3+  Fe73  1  0.87524600  0.62414637  0.37655301  1
  Fe3+  Fe74  1  0.62580214  0.87541572  0.38141936  1
  Fe3+  Fe75  1  0.12429628  0.87302727  0.87434481  1
  Fe3+  Fe76  1  0.37511009  0.87608853  0.38099313  1
  Fe3+  Fe77  1  0.87478352  0.87604487  0.37809199  1
  Fe3+  Fe78  1  0.37482914  0.37395225  0.38001339  1
  Fe3+  Fe79  1  0.87747233  0.87456925  0.87371371  1
  Fe3+  Fe80  1  0.62491941  0.37574308  0.88122475  1
  Fe3+  Fe81  1  0.87645520  0.12401351  0.87542397  1
  Fe3+  Fe82  1  0.37259067  0.62536376  0.87518385  1
  Fe3+  Fe83  1  0.87601511  0.37523903  0.87540935  1
  Fe3+  Fe84  1  0.12455855  0.62493873  0.63592183  1
  Fe3+  Fe85  1  0.62424253  0.87502064  0.13914117  1
  Fe3+  Fe86  1  0.12598010  0.37421561  0.13976201  1
  Fe3+  Fe87  1  0.62475601  0.37514345  0.13504871  1
  Fe3+  Fe88  1  0.62447952  0.62609615  0.13517355  1
  Fe3+  Fe89  1  0.37491467  0.87539315  0.63321409  1
  Fe3+  Fe90  1  0.62476919  0.12431324  0.13380529  1
  Fe3+  Fe91  1  0.62495147  0.62510873  0.63903405  1
  Fe3+  Fe92  1  0.62432742  0.87532086  0.63453573  1
  Fe3+  Fe93  1  0.12605367  0.12434865  0.13773733  1
  Fe3+  Fe94  1  0.37532662  0.37462161  0.63346081  1
  Fe3+  Fe95  1  0.37391302  0.12413729  0.13481656  1
  Cu2+  Cu96  1  0.62567928  0.87458121  0.86346552  1
  Cu2+  Cu97  1  0.37470318  0.62467634  0.37372415  1
  Cu2+  Cu98  1  0.12519814  0.37614512  0.86151130  1
  Cu2+  Cu99  1  0.12469399  0.12367647  0.86414204  1
  Cu2+  Cu100  1  0.12316189  0.12630170  0.37170356  1
  Cu2+  Cu101  1  0.62700446  0.12455742  0.37042680  1
  Cu2+  Cu102  1  0.37450674  0.12545477  0.37400641  1
  Cu2+  Cu103  1  0.62667029  0.62577995  0.36167486  1
  Cu2+  Cu104  1  0.62636647  0.37447302  0.37226731  1
  Cu2+  Cu105  1  0.12430668  0.87572744  0.37407787  1
  Cu2+  Cu106  1  0.37238965  0.87395794  0.86898795  1
  Cu2+  Cu107  1  0.12347936  0.62392566  0.36478432  1
  Cu2+  Cu108  1  0.12557906  0.87552298  0.15734586  1
  Cu2+  Cu109  1  0.37418493  0.37363274  0.15495651  1
  Cu2+  Cu110  1  0.87492329  0.37431788  0.65045442  1
  Cu2+  Cu111  1  0.12508056  0.12495220  0.64352553  1
  Cu2+  Cu112  1  0.87505898  0.12529846  0.65178465  1
  Cu2+  Cu113  1  0.12564576  0.37518494  0.64586951  1
  Cu2+  Cu114  1  0.37498132  0.12495441  0.64281547  1
  Cu2+  Cu115  1  0.37537528  0.87648925  0.14804056  1
  Cu2+  Cu116  1  0.12571968  0.62551566  0.15632064  1
  Cu2+  Cu117  1  0.87562230  0.12448017  0.15078456  1
  Cu2+  Cu118  1  0.87453176  0.62463568  0.64955936  1
  Cu2+  Cu119  1  0.62461964  0.12448274  0.64603974  1
  Cu2+  Cu120  1  0.87438703  0.87582772  0.64557271  1
  Cu2+  Cu121  1  0.87468086  0.62559465  0.15325811  1
  Cu2+  Cu122  1  0.37557808  0.62497597  0.63964245  1
  Cu2+  Cu123  1  0.87508354  0.87512122  0.15566032  1
  Cu2+  Cu124  1  0.62372932  0.37504894  0.64234804  1
  Cu2+  Cu125  1  0.37540234  0.62565538  0.15651015  1
  Cu2+  Cu126  1  0.12588092  0.87504581  0.63905220  1
  Cu2+  Cu127  1  0.87585726  0.37481994  0.15150936  1
  O2-  O128  1  0.12632636  0.12444793  0.01752365  1
  O2-  O129  1  0.12254182  0.12628535  0.50765206  1
  O2-  O130  1  0.12617663  0.37508862  0.01904878  1
  O2-  O131  1  0.12221202  0.37520405  0.49905047  1
  O2-  O132  1  0.12535099  0.62696509  -0.00391534  1
  O2-  O133  1  0.12298802  0.62345179  0.51508126  1
  O2-  O134  1  0.12344821  0.87209325  -0.00523630  1
  O2-  O135  1  0.12462886  0.87495048  0.50611112  1
  O2-  O136  1  0.37340543  0.12434271  0.00747167  1
  O2-  O137  1  0.37557472  0.12650430  0.50768757  1
  O2-  O138  1  0.37284471  0.37752149  -0.00442109  1
  O2-  O139  1  0.37640546  0.37391341  0.50650814  1
  O2-  O140  1  0.37164728  0.62515952  -0.00445860  1
  O2-  O141  1  0.37616348  0.62391718  0.50636170  1
  O2-  O142  1  0.37317448  0.87418428  0.00741024  1
  O2-  O143  1  0.37629799  0.87610480  0.50716324  1
  O2-  O144  1  0.62505962  0.12450593  0.00718127  1
  O2-  O145  1  0.62722633  0.12494307  0.50748555  1
  O2-  O146  1  0.62457214  0.37589569  0.00686859  1
  O2-  O147  1  0.62542217  0.37501911  0.50676267  1
  O2-  O148  1  0.62447700  0.62582570  0.00798919  1
  O2-  O149  1  0.62681012  0.62461315  0.51838578  1
  O2-  O150  1  0.62477739  0.87355494  0.01867818  1
  O2-  O151  1  0.62580283  0.87519706  0.50809458  1
  O2-  O152  1  0.87622191  0.12299790  -0.00432427  1
  O2-  O153  1  0.87445411  0.12685996  0.49713572  1
  O2-  O154  1  0.87672515  0.37630997  -0.00421121  1
  O2-  O155  1  0.87459548  0.37392183  0.49642538  1
  O2-  O156  1  0.87778421  0.62658802  -0.00448908  1
  O2-  O157  1  0.87350081  0.62283187  0.49660527  1
  O2-  O158  1  0.87800688  0.87365280  -0.00588585  1
  O2-  O159  1  0.87287670  0.87614548  0.49788338  1
  O2-  O160  1  0.12524695  0.00019705  0.16685914  1
  O2-  O161  1  0.12538034  -0.00008029  0.66398139  1
  O2-  O162  1  0.12544923  0.24898298  0.16713591  1
  O2-  O163  1  0.12524080  0.25104413  0.66599234  1
  O2-  O164  1  0.12586426  0.50004856  0.16532231  1
  O2-  O165  1  0.12436618  0.50069586  0.66484149  1
  O2-  O166  1  0.12589397  0.75063111  0.16716831  1
  O2-  O167  1  0.12435616  0.74827001  0.66142076  1
  O2-  O168  1  0.37613353  0.00346717  0.16615616  1
  O2-  O169  1  0.37628239  -0.00290792  0.66607926  1
  O2-  O170  1  0.37573755  0.24696544  0.16323467  1
  O2-  O171  1  0.37531592  0.25267545  0.66696825  1
  O2-  O172  1  0.37581208  0.49981842  0.16505538  1
  O2-  O173  1  0.37574988  0.49737131  0.66163220  1
  O2-  O174  1  0.37567301  0.75001289  0.16816363  1
  O2-  O175  1  0.37654219  0.75288124  0.66132748  1
  O2-  O176  1  0.62521538  0.00181252  0.16587685  1
  O2-  O177  1  0.62468846  -0.00309524  0.66573790  1
  O2-  O178  1  0.62494292  0.24972215  0.15951454  1
  O2-  O179  1  0.62453642  0.24952301  0.66844368  1
  O2-  O180  1  0.62448946  0.50011614  0.16075828  1
  O2-  O181  1  0.62538180  0.50170106  0.66869205  1
  O2-  O182  1  0.62506830  0.74877117  0.16786120  1
  O2-  O183  1  0.62542585  0.75182679  0.66532415  1
  O2-  O184  1  0.87411905  -0.00041411  0.16439209  1
  O2-  O185  1  0.87375863  0.00070628  0.66396363  1
  O2-  O186  1  0.87469881  0.24975612  0.16146532  1
  O2-  O187  1  0.87428887  0.24993453  0.66604961  1
  O2-  O188  1  0.87453060  0.50049218  0.16233369  1
  O2-  O189  1  0.87375525  0.49897864  0.66343794  1
  O2-  O190  1  0.87373622  0.75028729  0.16647597  1
  O2-  O191  1  0.87345923  0.75033397  0.66059160  1
  O2-  O192  1  0.00074406  0.12426897  0.16390617  1
  O2-  O193  1  -0.00126359  0.12550591  0.66386534  1
  O2-  O194  1  0.00088029  0.37525822  0.16473094  1
  O2-  O195  1  -0.00030147  0.37464882  0.66328074  1
  O2-  O196  1  -0.00026083  0.62559468  0.16416620  1
  O2-  O197  1  -0.00076888  0.62413069  0.66230916  1
  O2-  O198  1  -0.00015687  0.87479161  0.16511151  1
  O2-  O199  1  -0.00128193  0.87552668  0.65943342  1
  O2-  O200  1  0.25105965  0.12435589  0.16866742  1
  O2-  O201  1  0.24990003  0.12509746  0.66593776  1
  O2-  O202  1  0.24967025  0.37495309  0.17121307  1
  O2-  O203  1  0.25188538  0.37489971  0.66123004  1
  O2-  O204  1  0.25124600  0.62532250  0.16774542  1
  O2-  O205  1  0.24839169  0.62445681  0.66230199  1
  O2-  O206  1  0.24952197  0.87559134  0.16941438  1
  O2-  O207  1  0.25280081  0.87512007  0.66150259  1
  O2-  O208  1  0.50064638  0.12561762  0.16268124  1
  O2-  O209  1  0.50015645  0.12456614  0.66964775  1
  O2-  O210  1  0.50161686  0.37437408  0.16397912  1
  O2-  O211  1  0.49734036  0.37467352  0.66691856  1
  O2-  O212  1  0.50170577  0.62499590  0.16452264  1
  O2-  O213  1  0.50207856  0.62566629  0.66983357  1
  O2-  O214  1  0.50214830  0.87557708  0.17135063  1
  O2-  O215  1  0.50048158  0.87502866  0.66480107  1
  O2-  O216  1  0.74834395  0.12504224  0.15999775  1
  O2-  O217  1  0.75089128  0.12500149  0.66666533  1
  O2-  O218  1  0.74830273  0.37513349  0.16074052  1
  O2-  O219  1  0.75069757  0.37457527  0.66586662  1
  O2-  O220  1  0.74774925  0.62507314  0.16059013  1
  O2-  O221  1  0.74958026  0.62550884  0.66879049  1
  O2-  O222  1  0.74915752  0.87509887  0.16544532  1
  O2-  O223  1  0.74791141  0.87524067  0.66347468  1
  O2-  O224  1  0.12482560  0.00113908  0.34958792  1
  O2-  O225  1  0.12517397  -0.00128766  0.84674188  1
  O2-  O226  1  0.12483189  0.25243762  0.34610253  1
  O2-  O227  1  0.12539587  0.25010558  0.85138147  1
  O2-  O228  1  0.12486574  0.49877094  0.34696770  1
  O2-  O229  1  0.12522197  0.50103126  0.84628764  1
  O2-  O230  1  0.12458834  0.74824573  0.35143607  1
  O2-  O231  1  0.12458723  0.74954581  0.83957700  1
  O2-  O232  1  0.37586863  -0.00247412  0.34928077  1
  O2-  O233  1  0.37519018  0.00272400  0.85016616  1
  O2-  O234  1  0.37554993  0.25270127  0.34723232  1
  O2-  O235  1  0.37553743  0.24897269  0.85098898  1
  O2-  O236  1  0.37568455  0.49702176  0.34995962  1
  O2-  O237  1  0.37543793  0.50034290  0.84207628  1
  O2-  O238  1  0.37603125  0.75305433  0.35214952  1
  O2-  O239  1  0.37525930  0.74764037  0.84273068  1
  O2-  O240  1  0.62511572  -0.00344362  0.34890361  1
  O2-  O241  1  0.62448064  0.00190512  0.85089737  1
  O2-  O242  1  0.62535660  0.24940369  0.34443740  1
  O2-  O243  1  0.62416480  0.25030721  0.85286809  1
  O2-  O244  1  0.62549760  0.50187934  0.34602559  1
  O2-  O245  1  0.62496221  0.49990726  0.85144972  1
  O2-  O246  1  0.62527422  0.75226206  0.35182585  1
  O2-  O247  1  0.62506096  0.74769232  0.84901325  1
  O2-  O248  1  0.87435147  0.00013813  0.34636033  1
  O2-  O249  1  0.87454464  -0.00015147  0.84499675  1
  O2-  O250  1  0.87460398  0.25019951  0.34314903  1
  O2-  O251  1  0.87452358  0.24988750  0.84799304  1
  O2-  O252  1  0.87436738  0.49957393  0.34454823  1
  O2-  O253  1  0.87424722  0.49994518  0.84483865  1
  O2-  O254  1  0.87433310  0.75024940  0.34891170  1
  O2-  O255  1  0.87464898  0.74978252  0.84169531  1
  O2-  O256  1  -0.00236656  0.12548454  0.34480334  1
  O2-  O257  1  -0.00023203  0.12526964  0.84628137  1
  O2-  O258  1  -0.00071640  0.37535540  0.34440508  1
  O2-  O259  1  -0.00015558  0.37488032  0.84667497  1
  O2-  O260  1  -0.00148105  0.62454964  0.34683311  1
  O2-  O261  1  0.00000356  0.62449381  0.84210582  1
  O2-  O262  1  -0.00214487  0.87492804  0.34828310  1
  O2-  O263  1  0.00008322  0.87500266  0.83960527  1
  O2-  O264  1  0.24900318  0.12566338  0.35123083  1
  O2-  O265  1  0.25119106  0.12549149  0.85009016  1
  O2-  O266  1  0.25068693  0.37508115  0.35316440  1
  O2-  O267  1  0.25058530  0.37439111  0.84439557  1
  O2-  O268  1  0.24804263  0.62475405  0.35198702  1
  O2-  O269  1  0.24929631  0.62453078  0.84160955  1
  O2-  O270  1  0.25236189  0.87517945  0.35337680  1
  O2-  O271  1  0.24759125  0.87505947  0.84285780  1
  O2-  O272  1  0.50079731  0.12502824  0.34753168  1
  O2-  O273  1  0.50013486  0.12501503  0.85384820  1
  O2-  O274  1  0.49794645  0.37510278  0.34958513  1
  O2-  O275  1  0.50115059  0.37516707  0.84935447  1
  O2-  O276  1  0.50219165  0.62489939  0.34900733  1
  O2-  O277  1  0.50097297  0.62493563  0.85170436  1
  O2-  O278  1  0.50047907  0.87497509  0.35397015  1
  O2-  O279  1  0.50053670  0.87467115  0.84977650  1
  O2-  O280  1  0.75255527  0.12490598  0.34283756  1
  O2-  O281  1  0.74875754  0.12500381  0.84915717  1
  O2-  O282  1  0.75229831  0.37520088  0.34374942  1
  O2-  O283  1  0.74836925  0.37488276  0.84876361  1
  O2-  O284  1  0.75144246  0.62525972  0.34374101  1
  O2-  O285  1  0.74923018  0.62506394  0.85131867  1
  O2-  O286  1  0.74932807  0.87486890  0.34708314  1
  O2-  O287  1  0.75154082  0.87488189  0.84727606  1
