# generated using pymatgen
data_BaYFeCuO5
_symmetry_space_group_name_H-M   'P 1'
_cell_length_a   15.67676392
_cell_length_b   15.67700218
_cell_length_c   15.50083461
_cell_angle_alpha   89.99727946
_cell_angle_beta   89.99696215
_cell_angle_gamma   89.98451491
_symmetry_Int_Tables_number   1
_chemical_formula_structural   BaYFeCuO5
_chemical_formula_sum   'Ba32 Y32 Fe32 Cu32 O160'
_cell_volume   3809.55723303
_cell_formula_units_Z   32
loop_
 _symmetry_equiv_pos_site_id
 _symmetry_equiv_pos_as_xyz
  1  'x, y, z'
loop_
 _atom_type_symbol
 _atom_type_oxidation_number
  Ba2+  2.0
  Y3+  3.0
  Fe3+  3.0
  Cu2+  2.0
  O2-  -2.0
loop_
 _atom_site_type_symbol
 _atom_site_label
 _atom_site_symmetry_multiplicity
 _atom_site_fract_x
 _atom_site_fract_y
 _atom_site_fract_z
 _atom_site_occupancy
  Ba2+  Ba0  1  0.00285743  0.00027363  0.02021958  1
  Ba2+  Ba1  1  -0.00094684  -0.00809747  0.50667844  1
  Ba2+  Ba2  1  0.00035127  0.25002484  0.02650199  1
  Ba2+  Ba3  1  -0.00149625  0.25045461  0.51416857  1
  Ba2+  Ba4  1  -0.00345215  0.50205360  0.01232708  1
  Ba2+  Ba5  1  -0.00312064  0.50749288  0.51707435  1
  Ba2+  Ba6  1  -0.00181089  0.74749640  -0.00125358  1
  Ba2+  Ba7  1  -0.00304196  0.74988700  0.50714278  1
  Ba2+  Ba8  1  0.24773916  -0.00069444  0.02676001  1
  Ba2+  Ba9  1  0.24729147  0.00386087  0.51155436  1
  Ba2+  Ba10  1  0.24384478  0.24483665  0.02277476  1
  Ba2+  Ba11  1  0.25582074  0.24687396  0.51188002  1
  Ba2+  Ba12  1  0.24741873  0.50787911  0.00445073  1
  Ba2+  Ba13  1  0.24796081  0.50197809  0.50226836  1
  Ba2+  Ba14  1  0.25054644  0.74998290  0.01387663  1
  Ba2+  Ba15  1  0.23972476  0.74786887  0.50282367  1
  Ba2+  Ba16  1  0.48955228  -0.00093261  0.01808299  1
  Ba2+  Ba17  1  0.50880310  0.00365145  0.51218205  1
  Ba2+  Ba18  1  0.49981360  0.25064351  0.01560317  1
  Ba2+  Ba19  1  0.50338705  0.24858762  0.50019083  1
  Ba2+  Ba20  1  0.50196394  0.50633345  0.01630406  1
  Ba2+  Ba21  1  0.50717663  0.49783496  0.49433625  1
  Ba2+  Ba22  1  0.49314655  0.74428453  0.01623626  1
  Ba2+  Ba23  1  0.51282535  0.74979004  0.50717160  1
  Ba2+  Ba24  1  0.76104696  -0.00035788  0.00585970  1
  Ba2+  Ba25  1  0.74431880  -0.00797049  0.50686218  1
  Ba2+  Ba26  1  0.75666894  0.25481887  0.02226526  1
  Ba2+  Ba27  1  0.74244658  0.25220985  0.50584727  1
  Ba2+  Ba28  1  0.75356581  0.50199433  0.02120320  1
  Ba2+  Ba29  1  0.74777139  0.50398080  0.51309262  1
  Ba2+  Ba30  1  0.75727226  0.74305968  0.00699531  1
  Ba2+  Ba31  1  0.74872986  0.75149771  0.51369613  1
  Y3+  Y32  1  -0.00034321  -0.00292579  0.26110807  1
  Y3+  Y33  1  -0.00182687  -0.00207407  0.75396965  1
  Y3+  Y34  1  -0.00085805  0.25026895  0.25756424  1
  Y3+  Y35  1  -0.00035142  0.25051489  0.75204988  1
  Y3+  Y36  1  -0.00051310  0.50164822  0.25745227  1
  Y3+  Y37  1  -0.00113038  0.50416478  0.75706139  1
  Y3+  Y38  1  0.00028984  0.75062390  0.26120663  1
  Y3+  Y39  1  -0.00257451  0.74804173  0.75563836  1
  Y3+  Y40  1  0.24932198  -0.00185381  0.25857831  1
  Y3+  Y41  1  0.24979584  0.00156791  0.75269210  1
  Y3+  Y42  1  0.25011811  0.25092807  0.25861135  1
  Y3+  Y43  1  0.25017880  0.24880842  0.75383211  1
  Y3+  Y44  1  0.24977446  0.50103941  0.25787183  1
  Y3+  Y45  1  0.24955866  0.50364151  0.75751902  1
  Y3+  Y46  1  0.24904967  0.74937615  0.25905870  1
  Y3+  Y47  1  0.24935598  0.74662841  0.75794218  1
  Y3+  Y48  1  0.50143296  -0.00098531  0.25967652  1
  Y3+  Y49  1  0.50234736  0.00057905  0.75395958  1
  Y3+  Y50  1  0.50192295  0.25136699  0.25791408  1
  Y3+  Y51  1  0.50055774  0.24758175  0.75584185  1
  Y3+  Y52  1  0.50226096  0.50110185  0.25579339  1
  Y3+  Y53  1  0.49983721  0.50321558  0.75930644  1
  Y3+  Y54  1  0.50149328  0.74780492  0.25808697  1
  Y3+  Y55  1  0.50171623  0.74911212  0.75662171  1
  Y3+  Y56  1  0.74942905  -0.00209911  0.26140444  1
  Y3+  Y57  1  0.74980852  -0.00229406  0.75320755  1
  Y3+  Y58  1  0.74848808  0.25058646  0.25852678  1
  Y3+  Y59  1  0.74987912  0.25022088  0.75386953  1
  Y3+  Y60  1  0.74838171  0.50192820  0.25621337  1
  Y3+  Y61  1  0.75190732  0.50260022  0.75661731  1
  Y3+  Y62  1  0.74945570  0.74941189  0.26067912  1
  Y3+  Y63  1  0.75163463  0.74961783  0.75569218  1
  Fe3+  Fe64  1  0.87666405  0.12606873  0.87488963  1
  Fe3+  Fe65  1  0.62522536  0.87514514  0.88104118  1
  Fe3+  Fe66  1  0.62602981  0.12504117  0.88099852  1
  Fe3+  Fe67  1  0.37406409  0.87569938  0.87468699  1
  Fe3+  Fe68  1  0.62579408  0.62505028  0.87802913  1
  Fe3+  Fe69  1  0.12405903  0.12475733  0.87418308  1
  Fe3+  Fe70  1  0.37428400  0.37486590  0.88106365  1
  Fe3+  Fe71  1  0.62585417  0.37478867  0.88019856  1
  Fe3+  Fe72  1  0.12427356  0.37534258  0.37949110  1
  Fe3+  Fe73  1  0.37362855  0.12449867  0.87628951  1
  Fe3+  Fe74  1  0.87557129  0.37445482  0.87477935  1
  Fe3+  Fe75  1  0.12521700  0.87606718  0.87602998  1
  Fe3+  Fe76  1  0.37557504  0.62484579  0.37930533  1
  Fe3+  Fe77  1  0.37558051  0.87471455  0.38019507  1
  Fe3+  Fe78  1  0.12445098  0.12543237  0.37762323  1
  Fe3+  Fe79  1  0.87382919  0.12462801  0.37930667  1
  Fe3+  Fe80  1  0.37572243  0.12474576  0.37513104  1
  Fe3+  Fe81  1  0.87434806  0.37613198  0.37798924  1
  Fe3+  Fe82  1  0.87410984  0.62503923  0.37686713  1
  Fe3+  Fe83  1  0.12440897  0.37392800  0.87603679  1
  Fe3+  Fe84  1  0.37574899  0.87453906  0.63234049  1
  Fe3+  Fe85  1  0.62400176  0.37626254  0.63959436  1
  Fe3+  Fe86  1  0.37612709  0.62506649  0.63330464  1
  Fe3+  Fe87  1  0.87547723  0.87337576  0.13993164  1
  Fe3+  Fe88  1  0.87336005  0.12427434  0.63263158  1
  Fe3+  Fe89  1  0.12521773  0.37602711  0.63399716  1
  Fe3+  Fe90  1  0.37384533  0.37608345  0.13620484  1
  Fe3+  Fe91  1  0.37690558  0.37631037  0.63638840  1
  Fe3+  Fe92  1  0.62560372  0.87389864  0.13429646  1
  Fe3+  Fe93  1  0.12388116  0.62599593  0.14006830  1
  Fe3+  Fe94  1  0.62591268  0.12358790  0.13526803  1
  Fe3+  Fe95  1  0.12505360  0.87403705  0.63725383  1
  Cu2+  Cu96  1  0.62428139  0.87416096  0.37004678  1
  Cu2+  Cu97  1  0.87410856  0.87410259  0.37432506  1
  Cu2+  Cu98  1  0.62544072  0.12450893  0.37140953  1
  Cu2+  Cu99  1  0.87520429  0.87555123  0.86205849  1
  Cu2+  Cu100  1  0.37550185  0.62605013  0.87331971  1
  Cu2+  Cu101  1  0.37514222  0.37528352  0.36392491  1
  Cu2+  Cu102  1  0.12435301  0.62539618  0.86267017  1
  Cu2+  Cu103  1  0.12360711  0.62409030  0.37345976  1
  Cu2+  Cu104  1  0.12567312  0.87501198  0.36575813  1
  Cu2+  Cu105  1  0.62620718  0.62512130  0.37158716  1
  Cu2+  Cu106  1  0.62591429  0.37566096  0.35862017  1
  Cu2+  Cu107  1  0.87442182  0.62405715  0.87173734  1
  Cu2+  Cu108  1  0.62595720  0.12575142  0.64183193  1
  Cu2+  Cu109  1  0.62419209  0.62438167  0.64241514  1
  Cu2+  Cu110  1  0.87618904  0.62655205  0.14478557  1
  Cu2+  Cu111  1  0.12397371  0.12496447  0.64412009  1
  Cu2+  Cu112  1  0.87436123  0.12337695  0.15697183  1
  Cu2+  Cu113  1  0.62461356  0.87410142  0.64613381  1
  Cu2+  Cu114  1  0.12495517  0.37624712  0.15296970  1
  Cu2+  Cu115  1  0.37633346  0.12517143  0.64746431  1
  Cu2+  Cu116  1  0.87542278  0.37566829  0.15602419  1
  Cu2+  Cu117  1  0.87453461  0.87427984  0.64093185  1
  Cu2+  Cu118  1  0.87433396  0.62545794  0.65049093  1
  Cu2+  Cu119  1  0.62587073  0.62622530  0.15067560  1
  Cu2+  Cu120  1  0.37561636  0.12548361  0.15464288  1
  Cu2+  Cu121  1  0.37369093  0.62471326  0.14550722  1
  Cu2+  Cu122  1  0.12438677  0.12419815  0.15841695  1
  Cu2+  Cu123  1  0.12440804  0.87367948  0.15471026  1
  Cu2+  Cu124  1  0.62509896  0.37525082  0.14849319  1
  Cu2+  Cu125  1  0.87423472  0.37576905  0.64456859  1
  Cu2+  Cu126  1  0.12563671  0.62559355  0.64122011  1
  Cu2+  Cu127  1  0.37533874  0.87411386  0.15600316  1
  O2-  O128  1  0.12386370  0.12499031  -0.00611104  1
  O2-  O129  1  0.12585524  0.12742027  0.49746002  1
  O2-  O130  1  0.12426576  0.37166963  -0.00429210  1
  O2-  O131  1  0.12546095  0.37497328  0.50591429  1
  O2-  O132  1  0.12445015  0.62607775  0.01921425  1
  O2-  O133  1  0.12505241  0.62358030  0.50813693  1
  O2-  O134  1  0.12648809  0.87778346  -0.00389741  1
  O2-  O135  1  0.12561379  0.87467578  0.51647122  1
  O2-  O136  1  0.37159447  0.12393099  -0.00400219  1
  O2-  O137  1  0.37631548  0.12557538  0.49541304  1
  O2-  O138  1  0.37184509  0.37417177  0.00743892  1
  O2-  O139  1  0.37843263  0.37605446  0.51667059  1
  O2-  O140  1  0.37370329  0.62524727  0.00785958  1
  O2-  O141  1  0.37639908  0.62348307  0.50693483  1
  O2-  O142  1  0.37218515  0.87684404  -0.00496267  1
  O2-  O143  1  0.37582811  0.87508493  0.50597566  1
  O2-  O144  1  0.62596734  0.12438899  0.00677110  1
  O2-  O145  1  0.62566418  0.12624146  0.50621842  1
  O2-  O146  1  0.62721347  0.37329075  -0.00007226  1
  O2-  O147  1  0.62254618  0.37492419  0.51908757  1
  O2-  O148  1  0.62525386  0.62552493  -0.00152050  1
  O2-  O149  1  0.62546178  0.62375614  0.50718643  1
  O2-  O150  1  0.62501373  0.87558659  0.00725452  1
  O2-  O151  1  0.62378643  0.87475926  0.50674053  1
  O2-  O152  1  0.87872255  0.12652366  -0.00520356  1
  O2-  O153  1  0.87270387  0.12490946  0.50532336  1
  O2-  O154  1  0.87740782  0.37241468  -0.00518883  1
  O2-  O155  1  0.87454673  0.37607409  0.49773124  1
  O2-  O156  1  0.87646437  0.62428805  0.00716372  1
  O2-  O157  1  0.87327078  0.62425054  0.49763264  1
  O2-  O158  1  0.87743391  0.87551416  0.01920019  1
  O2-  O159  1  0.87466268  0.87454416  0.50783021  1
  O2-  O160  1  0.12485541  -0.00090610  0.16607702  1
  O2-  O161  1  0.12484730  -0.00045248  0.66243007  1
  O2-  O162  1  0.12497799  0.25002291  0.16537602  1
  O2-  O163  1  0.12561172  0.25199071  0.65897537  1
  O2-  O164  1  0.12472788  0.50069541  0.16774148  1
  O2-  O165  1  0.12534762  0.49724756  0.66435940  1
  O2-  O166  1  0.12621307  0.74984290  0.16963511  1
  O2-  O167  1  0.12654836  0.75163062  0.66795970  1
  O2-  O168  1  0.37572274  0.00009523  0.16543664  1
  O2-  O169  1  0.37591615  -0.00085300  0.65840559  1
  O2-  O170  1  0.37456181  0.25175992  0.16245259  1
  O2-  O171  1  0.37541458  0.25074841  0.66475046  1
  O2-  O172  1  0.37467536  0.49736319  0.16552302  1
  O2-  O173  1  0.37499897  0.50110794  0.66784027  1
  O2-  O174  1  0.37460785  0.75046728  0.16922364  1
  O2-  O175  1  0.37499700  0.75009186  0.66047082  1
  O2-  O176  1  0.62377663  -0.00082333  0.16285126  1
  O2-  O177  1  0.62504519  -0.00048735  0.66629560  1
  O2-  O178  1  0.62573891  0.24731500  0.16323563  1
  O2-  O179  1  0.62490974  0.25244175  0.66782352  1
  O2-  O180  1  0.62444398  0.50092515  0.16302709  1
  O2-  O181  1  0.62427087  0.49880217  0.66870730  1
  O2-  O182  1  0.62486384  0.75207068  0.16408573  1
  O2-  O183  1  0.62446730  0.74962311  0.66655258  1
  O2-  O184  1  0.87510916  -0.00156045  0.16880040  1
  O2-  O185  1  0.87471305  0.00241099  0.66239857  1
  O2-  O186  1  0.87434262  0.24923095  0.16613265  1
  O2-  O187  1  0.87410559  0.24833784  0.65864412  1
  O2-  O188  1  0.87631966  0.49951082  0.16385439  1
  O2-  O189  1  0.87524837  0.50159264  0.66378613  1
  O2-  O190  1  0.87415353  0.75182705  0.16961545  1
  O2-  O191  1  0.87435198  0.74805568  0.66587761  1
  O2-  O192  1  -0.00046814  0.12464359  0.16826790  1
  O2-  O193  1  -0.00266752  0.12603271  0.65799923  1
  O2-  O194  1  0.00003075  0.37394195  0.16709159  1
  O2-  O195  1  0.00111538  0.37449401  0.65774507  1
  O2-  O196  1  0.00159745  0.62567507  0.16957953  1
  O2-  O197  1  -0.00205767  0.62539163  0.66327271  1
  O2-  O198  1  -0.00035147  0.87537335  0.16960348  1
  O2-  O199  1  0.00153926  0.87454029  0.66441850  1
  O2-  O200  1  0.24990528  0.12490754  0.16595665  1
  O2-  O201  1  0.25022761  0.12549969  0.65974912  1
  O2-  O202  1  0.25114036  0.37462439  0.16700499  1
  O2-  O203  1  0.25013800  0.37478516  0.66291533  1
  O2-  O204  1  0.24766591  0.62461969  0.17057662  1
  O2-  O205  1  0.25400288  0.62434747  0.66401919  1
  O2-  O206  1  0.25029870  0.87505898  0.16727635  1
  O2-  O207  1  0.25207278  0.87642798  0.66132541  1
  O2-  O208  1  0.50227674  0.12518098  0.16074260  1
  O2-  O209  1  0.49994579  0.12505587  0.66813521  1
  O2-  O210  1  0.49806654  0.37465506  0.16149046  1
  O2-  O211  1  0.49934264  0.37518379  0.67438506  1
  O2-  O212  1  0.50104817  0.62537195  0.16558229  1
  O2-  O213  1  0.49657540  0.62544176  0.66652890  1
  O2-  O214  1  0.50180220  0.87459191  0.16235267  1
  O2-  O215  1  0.49697681  0.87511880  0.66580113  1
  O2-  O216  1  0.74816016  0.12347959  0.16272419  1
  O2-  O217  1  0.75248244  0.12513120  0.66620515  1
  O2-  O218  1  0.75069778  0.37500745  0.16420944  1
  O2-  O219  1  0.74955066  0.37576285  0.66486550  1
  O2-  O220  1  0.74952520  0.62471054  0.16381136  1
  O2-  O221  1  0.75141561  0.62481481  0.66445023  1
  O2-  O222  1  0.74839024  0.87608463  0.16480331  1
  O2-  O223  1  0.74934283  0.87456309  0.66728414  1
  O2-  O224  1  0.12578424  0.00105190  0.34974127  1
  O2-  O225  1  0.12488480  0.00058699  0.84135328  1
  O2-  O226  1  0.12460001  0.25118693  0.34811719  1
  O2-  O227  1  0.12513501  0.24948316  0.83943178  1
  O2-  O228  1  0.12568858  0.49668084  0.35004701  1
  O2-  O229  1  0.12585164  0.49982465  0.84805096  1
  O2-  O230  1  0.12537406  0.75075646  0.35237736  1
  O2-  O231  1  0.12498142  0.75031698  0.84989381  1
  O2-  O232  1  0.37473940  -0.00131109  0.34884544  1
  O2-  O233  1  0.37544220  0.00077072  0.84013740  1
  O2-  O234  1  0.37561139  0.25004465  0.34620598  1
  O2-  O235  1  0.37502940  0.25028446  0.84657903  1
  O2-  O236  1  0.37488250  0.50110069  0.35028288  1
  O2-  O237  1  0.37431187  0.49672231  0.85075384  1
  O2-  O238  1  0.37489095  0.74959886  0.35354385  1
  O2-  O239  1  0.37568267  0.75282370  0.84357767  1
  O2-  O240  1  0.62464316  -0.00086362  0.34653079  1
  O2-  O241  1  0.62579745  0.00049342  0.85039475  1
  O2-  O242  1  0.62453259  0.25146823  0.34780528  1
  O2-  O243  1  0.62425970  0.24846435  0.84894153  1
  O2-  O244  1  0.62488062  0.49901471  0.34714611  1
  O2-  O245  1  0.62442394  0.49932928  0.84809208  1
  O2-  O246  1  0.62370918  0.74972889  0.34755944  1
  O2-  O247  1  0.62521140  0.75206346  0.84947092  1
  O2-  O248  1  0.87472151  0.00200614  0.35190197  1
  O2-  O249  1  0.87421842  0.00138707  0.84507642  1
  O2-  O250  1  0.87507489  0.24939527  0.34974328  1
  O2-  O251  1  0.87546050  0.24986374  0.83891131  1
  O2-  O252  1  0.87439619  0.49967243  0.34524535  1
  O2-  O253  1  0.87533687  0.49765048  0.84586078  1
  O2-  O254  1  0.87527038  0.74847452  0.34952639  1
  O2-  O255  1  0.87494995  0.75141229  0.85036346  1
  O2-  O256  1  -0.00128642  0.12526129  0.35146915  1
  O2-  O257  1  0.00035969  0.12504474  0.83885189  1
  O2-  O258  1  0.00045869  0.37452111  0.34992066  1
  O2-  O259  1  0.00047691  0.37494131  0.83986613  1
  O2-  O260  1  -0.00191343  0.62403026  0.34955785  1
  O2-  O261  1  0.00072904  0.62513498  0.84749920  1
  O2-  O262  1  0.00163352  0.87543473  0.35243830  1
  O2-  O263  1  0.00021614  0.87540357  0.84615302  1
  O2-  O264  1  0.24996698  0.12576505  0.34774865  1
  O2-  O265  1  0.24957702  0.12540978  0.84123596  1
  O2-  O266  1  0.24786953  0.37443183  0.35142421  1
  O2-  O267  1  0.25077346  0.37454499  0.84546584  1
  O2-  O268  1  0.25240392  0.62437994  0.35303094  1
  O2-  O269  1  0.24867681  0.62500295  0.84722506  1
  O2-  O270  1  0.25221945  0.87460425  0.35197272  1
  O2-  O271  1  0.24963643  0.87539476  0.84069444  1
  O2-  O272  1  0.49836960  0.12516101  0.34395254  1
  O2-  O273  1  0.50128409  0.12462194  0.85101365  1
  O2-  O274  1  0.50129741  0.37529071  0.34673464  1
  O2-  O275  1  0.49892268  0.37391944  0.85462082  1
  O2-  O276  1  0.49763666  0.62415509  0.34971237  1
  O2-  O277  1  0.50275600  0.62575576  0.84732982  1
  O2-  O278  1  0.49639639  0.87463804  0.34675772  1
  O2-  O279  1  0.50178441  0.87640802  0.84859493  1
  O2-  O280  1  0.75270828  0.12546807  0.34678994  1
  O2-  O281  1  0.74899668  0.12535210  0.84913360  1
  O2-  O282  1  0.75048431  0.37385853  0.34762845  1
  O2-  O283  1  0.74975181  0.37360983  0.84518781  1
  O2-  O284  1  0.75148581  0.62477857  0.34601674  1
  O2-  O285  1  0.74796099  0.62544333  0.84652870  1
  O2-  O286  1  0.74935082  0.87490415  0.34725628  1
  O2-  O287  1  0.74868947  0.87622603  0.85232928  1
