# generated using pymatgen
data_BaYFeCuO5
_symmetry_space_group_name_H-M   'P 1'
_cell_length_a   15.67667665
_cell_length_b   15.67750434
_cell_length_c   15.49769725
_cell_angle_alpha   89.99856480
_cell_angle_beta   89.99984128
_cell_angle_gamma   90.00148674
_symmetry_Int_Tables_number   1
_chemical_formula_structural   BaYFeCuO5
_chemical_formula_sum   'Ba32 Y32 Fe32 Cu32 O160'
_cell_volume   3808.88712231
_cell_formula_units_Z   32
loop_
 _symmetry_equiv_pos_site_id
 _symmetry_equiv_pos_as_xyz
  1  'x, y, z'
loop_
 _atom_type_symbol
 _atom_type_oxidation_number
  Ba2+  2.0
  Y3+  3.0
  Fe3+  3.0
  Cu2+  2.0
  O2-  -2.0
loop_
 _atom_site_type_symbol
 _atom_site_label
 _atom_site_symmetry_multiplicity
 _atom_site_fract_x
 _atom_site_fract_y
 _atom_site_fract_z
 _atom_site_occupancy
  Ba2+  Ba0  1  -0.00519164  0.00631711  0.01822760  1
  Ba2+  Ba1  1  0.00084146  0.00185171  0.50619990  1
  Ba2+  Ba2  1  0.00028161  0.24663358  0.01106684  1
  Ba2+  Ba3  1  0.00314844  0.25788587  0.51702258  1
  Ba2+  Ba4  1  -0.00584474  0.49594641  0.01125358  1
  Ba2+  Ba5  1  0.00027054  0.49706937  0.52199348  1
  Ba2+  Ba6  1  -0.01178349  0.75058588  0.01802108  1
  Ba2+  Ba7  1  -0.00254292  0.74266373  0.51230936  1
  Ba2+  Ba8  1  0.24811775  0.00273713  0.00215832  1
  Ba2+  Ba9  1  0.25113486  0.01110997  0.50651591  1
  Ba2+  Ba10  1  0.24688715  0.25394365  0.00210033  1
  Ba2+  Ba11  1  0.24941300  0.25410881  0.52194164  1
  Ba2+  Ba12  1  0.25836288  0.49713843  0.00368451  1
  Ba2+  Ba13  1  0.25083244  0.49854164  0.52518653  1
  Ba2+  Ba14  1  0.26171148  0.74770150  0.00252685  1
  Ba2+  Ba15  1  0.25221311  0.73668812  0.51169258  1
  Ba2+  Ba16  1  0.50949213  -0.00188046  0.00743741  1
  Ba2+  Ba17  1  0.50514827  0.00272347  0.50782017  1
  Ba2+  Ba18  1  0.50556172  0.25453487  0.01123507  1
  Ba2+  Ba19  1  0.49891104  0.25198653  0.51925650  1
  Ba2+  Ba20  1  0.49710242  0.50041033  0.00652445  1
  Ba2+  Ba21  1  0.49276183  0.49634795  0.51767012  1
  Ba2+  Ba22  1  0.50094717  0.74698755  -0.00148762  1
  Ba2+  Ba23  1  0.49942358  0.74879061  0.50643219  1
  Ba2+  Ba24  1  0.74845758  0.00130644  0.02442062  1
  Ba2+  Ba25  1  0.74325769  -0.00399272  0.50612874  1
  Ba2+  Ba26  1  0.74874782  0.24768776  0.02109207  1
  Ba2+  Ba27  1  0.74765693  0.25651726  0.51511219  1
  Ba2+  Ba28  1  0.74883028  0.50036871  0.01792559  1
  Ba2+  Ba29  1  0.75628802  0.49397847  0.51416036  1
  Ba2+  Ba30  1  0.74854099  0.75156569  0.02168975  1
  Ba2+  Ba31  1  0.75028594  0.75509453  0.50534447  1
  Y3+  Y32  1  -0.00104252  0.00137201  0.25709071  1
  Y3+  Y33  1  0.00191038  0.00226089  0.75732263  1
  Y3+  Y34  1  -0.00151537  0.25056782  0.25485482  1
  Y3+  Y35  1  0.00237604  0.25090685  0.75860381  1
  Y3+  Y36  1  -0.00308046  0.49777626  0.25585226  1
  Y3+  Y37  1  0.00035168  0.49848706  0.75692780  1
  Y3+  Y38  1  -0.00227931  0.75104589  0.25843000  1
  Y3+  Y39  1  -0.00018031  0.74825480  0.75581817  1
  Y3+  Y40  1  0.24971901  0.00213097  0.25619292  1
  Y3+  Y41  1  0.24964942  0.00130149  0.76038214  1
  Y3+  Y42  1  0.25068956  0.25028576  0.25147952  1
  Y3+  Y43  1  0.24807563  0.25154224  0.76387386  1
  Y3+  Y44  1  0.25419338  0.50069092  0.25268272  1
  Y3+  Y45  1  0.25222543  0.49946509  0.76232809  1
  Y3+  Y46  1  0.25266448  0.74729390  0.25798415  1
  Y3+  Y47  1  0.25314647  0.74724032  0.75860412  1
  Y3+  Y48  1  0.50211521  0.00055804  0.25916386  1
  Y3+  Y49  1  0.50338817  -0.00021031  0.75784324  1
  Y3+  Y50  1  0.49991700  0.25115354  0.25279711  1
  Y3+  Y51  1  0.50216516  0.25076180  0.76148542  1
  Y3+  Y52  1  0.49670534  0.49945495  0.25419748  1
  Y3+  Y53  1  0.49791523  0.50046026  0.76025169  1
  Y3+  Y54  1  0.49897537  0.74873597  0.26098245  1
  Y3+  Y55  1  0.49942750  0.74826850  0.75560271  1
  Y3+  Y56  1  0.74817607  -0.00090095  0.26031297  1
  Y3+  Y57  1  0.74608279  0.00092738  0.75278294  1
  Y3+  Y58  1  0.75032321  0.25113224  0.25645508  1
  Y3+  Y59  1  0.74816975  0.25002279  0.75442239  1
  Y3+  Y60  1  0.75117478  0.49735714  0.25774046  1
  Y3+  Y61  1  0.75060547  0.49910754  0.75320004  1
  Y3+  Y62  1  0.74947893  0.75284769  0.26212223  1
  Y3+  Y63  1  0.74830776  0.74962771  0.75184495  1
  Fe3+  Fe64  1  0.87260129  0.62565599  0.87522069  1
  Fe3+  Fe65  1  0.87375703  0.37405897  0.87586140  1
  Fe3+  Fe66  1  0.62775618  0.87394981  0.87433998  1
  Fe3+  Fe67  1  0.12591605  0.37608025  0.37456756  1
  Fe3+  Fe68  1  0.62372252  0.12792703  0.37687694  1
  Fe3+  Fe69  1  0.37357562  0.87596025  0.38171770  1
  Fe3+  Fe70  1  0.87358609  0.87585423  0.87518305  1
  Fe3+  Fe71  1  0.12580735  0.12827390  0.37594988  1
  Fe3+  Fe72  1  0.62403568  0.62268842  0.38047774  1
  Fe3+  Fe73  1  0.87276623  0.12428900  0.87424971  1
  Fe3+  Fe74  1  0.12528167  0.62177204  0.37514530  1
  Fe3+  Fe75  1  0.87471442  0.12663652  0.37936450  1
  Fe3+  Fe76  1  0.12581390  0.87410593  0.38018570  1
  Fe3+  Fe77  1  0.12351628  0.62512021  0.88038033  1
  Fe3+  Fe78  1  0.62749317  0.37602408  0.87607011  1
  Fe3+  Fe79  1  0.12356448  0.87383063  0.88034814  1
  Fe3+  Fe80  1  0.37736662  0.12459247  0.88034514  1
  Fe3+  Fe81  1  0.87522995  0.62344539  0.37673550  1
  Fe3+  Fe82  1  0.37358160  0.37385365  0.37481910  1
  Fe3+  Fe83  1  0.62367827  0.37559679  0.37612382  1
  Fe3+  Fe84  1  0.12556191  0.87446422  0.13500181  1
  Fe3+  Fe85  1  0.37668802  0.87498227  0.13839043  1
  Fe3+  Fe86  1  0.87518253  0.12535870  0.63312389  1
  Fe3+  Fe87  1  0.37527675  0.12558777  0.64188297  1
  Fe3+  Fe88  1  0.87578075  0.87577032  0.63469527  1
  Fe3+  Fe89  1  0.62405154  0.62553987  0.14055741  1
  Fe3+  Fe90  1  0.12495144  0.37564386  0.13440477  1
  Fe3+  Fe91  1  0.12675846  0.87458197  0.63477887  1
  Fe3+  Fe92  1  0.37587910  0.12447561  0.13436835  1
  Fe3+  Fe93  1  0.37454470  0.87541946  0.63604318  1
  Fe3+  Fe94  1  0.62494414  0.62376280  0.63413931  1
  Fe3+  Fe95  1  0.12459972  0.62560745  0.13288320  1
  Cu2+  Cu96  1  0.62340431  0.87488517  0.37416782  1
  Cu2+  Cu97  1  0.37653838  0.62481455  0.87179483  1
  Cu2+  Cu98  1  0.37614499  0.87565583  0.86281695  1
  Cu2+  Cu99  1  0.37444126  0.62226507  0.37415129  1
  Cu2+  Cu100  1  0.37479487  0.12708198  0.36154631  1
  Cu2+  Cu101  1  0.12325410  0.12449186  0.87437099  1
  Cu2+  Cu102  1  0.62752201  0.12497130  0.87280785  1
  Cu2+  Cu103  1  0.62697190  0.62487991  0.85940194  1
  Cu2+  Cu104  1  0.87588346  0.37417760  0.37234525  1
  Cu2+  Cu105  1  0.87639625  0.87601232  0.36758765  1
  Cu2+  Cu106  1  0.37641778  0.37410126  0.87356348  1
  Cu2+  Cu107  1  0.12343387  0.37627423  0.86802301  1
  Cu2+  Cu108  1  0.62434288  0.12564723  0.64840887  1
  Cu2+  Cu109  1  0.37512649  0.37492838  0.13850753  1
  Cu2+  Cu110  1  0.62501576  0.37616581  0.15039441  1
  Cu2+  Cu111  1  0.87417445  0.62506398  0.15424610  1
  Cu2+  Cu112  1  0.37592496  0.62636292  0.14158400  1
  Cu2+  Cu113  1  0.87472487  0.37437264  0.14881704  1
  Cu2+  Cu114  1  0.12560009  0.62475160  0.65563830  1
  Cu2+  Cu115  1  0.87423834  0.87581022  0.15637644  1
  Cu2+  Cu116  1  0.87491706  0.62500283  0.64912895  1
  Cu2+  Cu117  1  0.62395660  0.37565963  0.65139236  1
  Cu2+  Cu118  1  0.37498384  0.37402142  0.65951448  1
  Cu2+  Cu119  1  0.12619046  0.37522538  0.65833112  1
  Cu2+  Cu120  1  0.62333114  0.87432668  0.63946712  1
  Cu2+  Cu121  1  0.62399957  0.87395549  0.15724159  1
  Cu2+  Cu122  1  0.62405568  0.12489775  0.14240729  1
  Cu2+  Cu123  1  0.12541761  0.12470475  0.13994707  1
  Cu2+  Cu124  1  0.87558099  0.37387987  0.64271175  1
  Cu2+  Cu125  1  0.87402697  0.12509814  0.15630294  1
  Cu2+  Cu126  1  0.37567459  0.62424260  0.64426668  1
  Cu2+  Cu127  1  0.12554746  0.12499618  0.65270656  1
  O2-  O128  1  0.12315880  0.12231956  0.00699615  1
  O2-  O129  1  0.12654776  0.12903154  0.49610841  1
  O2-  O130  1  0.12213699  0.37548955  0.01397779  1
  O2-  O131  1  0.12754196  0.37662124  0.49459988  1
  O2-  O132  1  0.12301162  0.62803589  0.00640252  1
  O2-  O133  1  0.12481474  0.62063124  0.49514486  1
  O2-  O134  1  0.12328282  0.87354797  0.00766762  1
  O2-  O135  1  0.12691834  0.87428309  0.50700430  1
  O2-  O136  1  0.37729777  0.12219904  0.00776568  1
  O2-  O137  1  0.37392597  0.12777880  0.52135015  1
  O2-  O138  1  0.37622477  0.37397925  0.00582760  1
  O2-  O139  1  0.37247926  0.37341494  0.49511809  1
  O2-  O140  1  0.37735178  0.62668378  0.00687046  1
  O2-  O141  1  0.37385172  0.62200458  0.50877770  1
  O2-  O142  1  0.37752684  0.87517737  0.01852890  1
  O2-  O143  1  0.37134182  0.87626545  0.50912219  1
  O2-  O144  1  0.62713874  0.12386110  0.00742685  1
  O2-  O145  1  0.62278315  0.12850752  0.49718643  1
  O2-  O146  1  0.62960065  0.37638197  -0.00364570  1
  O2-  O147  1  0.62209453  0.37510705  0.49620329  1
  O2-  O148  1  0.62598449  0.62744502  0.02013733  1
  O2-  O149  1  0.62412360  0.62216692  0.50687461  1
  O2-  O150  1  0.62909784  0.87365269  -0.00546593  1
  O2-  O151  1  0.62315206  0.87495929  0.50672451  1
  O2-  O152  1  0.87236653  0.12311744  -0.00552372  1
  O2-  O153  1  0.87642490  0.12660185  0.50586976  1
  O2-  O154  1  0.87238583  0.37404990  -0.00382636  1
  O2-  O155  1  0.87700022  0.37433944  0.50705238  1
  O2-  O156  1  0.87138860  0.62696869  -0.00469487  1
  O2-  O157  1  0.87788679  0.62256163  0.49693317  1
  O2-  O158  1  0.87209435  0.87644253  -0.00512382  1
  O2-  O159  1  0.87917340  0.87508476  0.51435149  1
  O2-  O160  1  0.12478724  -0.00365092  0.16699513  1
  O2-  O161  1  0.12640918  -0.00237109  0.66288255  1
  O2-  O162  1  0.12424173  0.25174558  0.16190115  1
  O2-  O163  1  0.12603551  0.25023858  0.66634473  1
  O2-  O164  1  0.12366389  0.50217534  0.15893863  1
  O2-  O165  1  0.12539586  0.50026811  0.66777934  1
  O2-  O166  1  0.12333173  0.75051020  0.16529554  1
  O2-  O167  1  0.12603476  0.75134277  0.66312057  1
  O2-  O168  1  0.37490306  0.00024077  0.16992959  1
  O2-  O169  1  0.37387976  -0.00100650  0.66647326  1
  O2-  O170  1  0.37516242  0.24737333  0.15924231  1
  O2-  O171  1  0.37461075  0.24977732  0.67026427  1
  O2-  O172  1  0.37495880  0.50055438  0.16070670  1
  O2-  O173  1  0.37451666  0.49768479  0.66761444  1
  O2-  O174  1  0.37492557  0.75229003  0.17187955  1
  O2-  O175  1  0.37386848  0.75242914  0.66331679  1
  O2-  O176  1  0.62461654  -0.00225008  0.16717530  1
  O2-  O177  1  0.62350118  0.00094269  0.66288582  1
  O2-  O178  1  0.62504273  0.25243925  0.16150258  1
  O2-  O179  1  0.62423740  0.25101921  0.66432047  1
  O2-  O180  1  0.62606699  0.50032535  0.16546406  1
  O2-  O181  1  0.62503015  0.50090472  0.66279698  1
  O2-  O182  1  0.62536679  0.74987233  0.17218697  1
  O2-  O183  1  0.62471596  0.74671545  0.66138663  1
  O2-  O184  1  0.87466358  0.00027283  0.16841457  1
  O2-  O185  1  0.87681238  0.00145275  0.66103179  1
  O2-  O186  1  0.87487473  0.24943029  0.16325301  1
  O2-  O187  1  0.87573953  0.24629629  0.66287481  1
  O2-  O188  1  0.87429195  0.49992099  0.16140681  1
  O2-  O189  1  0.87607450  0.50076639  0.66474917  1
  O2-  O190  1  0.87495172  0.75091495  0.16643598  1
  O2-  O191  1  0.87627187  0.75089880  0.66339056  1
  O2-  O192  1  -0.00191630  0.12382820  0.16513057  1
  O2-  O193  1  0.00004074  0.12403905  0.66077842  1
  O2-  O194  1  -0.00000680  0.37538440  0.16431278  1
  O2-  O195  1  0.00216357  0.37484758  0.66535329  1
  O2-  O196  1  0.00015904  0.62629249  0.16016224  1
  O2-  O197  1  0.00053765  0.62564538  0.66492417  1
  O2-  O198  1  0.00102476  0.87537934  0.16301515  1
  O2-  O199  1  0.00226740  0.87477733  0.66453633  1
  O2-  O200  1  0.25332998  0.12307837  0.16244927  1
  O2-  O201  1  0.25020040  0.12456373  0.67120797  1
  O2-  O202  1  0.24794208  0.37577597  0.16201265  1
  O2-  O203  1  0.25013833  0.37472096  0.66934064  1
  O2-  O204  1  0.24689291  0.62728959  0.16150545  1
  O2-  O205  1  0.24955493  0.62480086  0.66942319  1
  O2-  O206  1  0.24899396  0.87448389  0.16551175  1
  O2-  O207  1  0.25011452  0.87481193  0.66780072  1
  O2-  O208  1  0.49740249  0.12386292  0.16482600  1
  O2-  O209  1  0.49966259  0.12526013  0.66923821  1
  O2-  O210  1  0.50101779  0.37560762  0.16274177  1
  O2-  O211  1  0.49950687  0.37456927  0.66599226  1
  O2-  O212  1  0.50141314  0.62584454  0.17094990  1
  O2-  O213  1  0.50255403  0.62412544  0.66429596  1
  O2-  O214  1  0.49964735  0.87508243  0.17105007  1
  O2-  O215  1  0.49636014  0.87516592  0.66343400  1
  O2-  O216  1  0.75046787  0.12462292  0.16865440  1
  O2-  O217  1  0.75070153  0.12447422  0.65647335  1
  O2-  O218  1  0.75048893  0.37490303  0.16604217  1
  O2-  O219  1  0.74867713  0.37476558  0.65894799  1
  O2-  O220  1  0.74987210  0.62594621  0.16981713  1
  O2-  O221  1  0.74873004  0.62455094  0.65770608  1
  O2-  O222  1  0.74931312  0.87495155  0.16769058  1
  O2-  O223  1  0.75164057  0.87546161  0.65869262  1
  O2-  O224  1  0.12567461  -0.00042078  0.35183241  1
  O2-  O225  1  0.12505352  -0.00445780  0.84777791  1
  O2-  O226  1  0.12518358  0.25066451  0.34161612  1
  O2-  O227  1  0.12404834  0.25126286  0.85102624  1
  O2-  O228  1  0.12471545  0.49938359  0.33837209  1
  O2-  O229  1  0.12389554  0.50288183  0.85224394  1
  O2-  O230  1  0.12566116  0.75058778  0.34953725  1
  O2-  O231  1  0.12449016  0.74996454  0.84820085  1
  O2-  O232  1  0.37289404  0.00004367  0.35419333  1
  O2-  O233  1  0.37470975  0.00137989  0.84922154  1
  O2-  O234  1  0.37411697  0.25071918  0.34093161  1
  O2-  O235  1  0.37556876  0.24660188  0.85241750  1
  O2-  O236  1  0.37472253  0.49715317  0.34265839  1
  O2-  O237  1  0.37566018  0.50004413  0.85083980  1
  O2-  O238  1  0.37310080  0.75234332  0.35481520  1
  O2-  O239  1  0.37586782  0.75126118  0.84702591  1
  O2-  O240  1  0.62401649  0.00285648  0.34988759  1
  O2-  O241  1  0.62594077  -0.00244085  0.84515965  1
  O2-  O242  1  0.62474304  0.25056713  0.34245361  1
  O2-  O243  1  0.62649208  0.25185958  0.84733500  1
  O2-  O244  1  0.62473325  0.50032898  0.34609524  1
  O2-  O245  1  0.62660967  0.50060638  0.84635130  1
  O2-  O246  1  0.62466564  0.74691429  0.35463274  1
  O2-  O247  1  0.62531413  0.74978929  0.84387277  1
  O2-  O248  1  0.87642865  0.00273791  0.35268629  1
  O2-  O249  1  0.87546385  -0.00099695  0.84033036  1
  O2-  O250  1  0.87532709  0.24674778  0.34678804  1
  O2-  O251  1  0.87511234  0.25002455  0.84400533  1
  O2-  O252  1  0.87507703  0.50134344  0.34411789  1
  O2-  O253  1  0.87507960  0.50018037  0.84665877  1
  O2-  O254  1  0.87581245  0.74940478  0.34992398  1
  O2-  O255  1  0.87565281  0.75064968  0.84358472  1
  O2-  O256  1  0.00003979  0.12458932  0.34816118  1
  O2-  O257  1  -0.00273558  0.12416275  0.84395358  1
  O2-  O258  1  0.00188987  0.37460025  0.34540606  1
  O2-  O259  1  -0.00178539  0.37538244  0.84753261  1
  O2-  O260  1  0.00042765  0.62573801  0.34217406  1
  O2-  O261  1  -0.00008482  0.62594419  0.84811886  1
  O2-  O262  1  0.00374018  0.87553702  0.34835842  1
  O2-  O263  1  0.00044144  0.87433237  0.84701037  1
  O2-  O264  1  0.24927475  0.12485934  0.34468011  1
  O2-  O265  1  0.25263090  0.12369236  0.85475497  1
  O2-  O266  1  0.24968267  0.37475562  0.34018849  1
  O2-  O267  1  0.24862563  0.37522708  0.85342279  1
  O2-  O268  1  0.24815071  0.62476730  0.34350443  1
  O2-  O269  1  0.24714842  0.62642494  0.85353872  1
  O2-  O270  1  0.24943383  0.87569781  0.34874380  1
  O2-  O271  1  0.24846383  0.87410815  0.85374679  1
  O2-  O272  1  0.49950580  0.12582232  0.34739988  1
  O2-  O273  1  0.49917694  0.12360459  0.85205860  1
  O2-  O274  1  0.49927698  0.37430019  0.34404150  1
  O2-  O275  1  0.50318694  0.37551432  0.84871042  1
  O2-  O276  1  0.50199432  0.62470122  0.35284893  1
  O2-  O277  1  0.50252684  0.62580453  0.84831450  1
  O2-  O278  1  0.49531515  0.87572180  0.35333246  1
  O2-  O279  1  0.50152313  0.87430421  0.84688466  1
  O2-  O280  1  0.75039267  0.12495437  0.35161904  1
  O2-  O281  1  0.75189682  0.12448837  0.83817275  1
  O2-  O282  1  0.74825371  0.37480104  0.34931484  1
  O2-  O283  1  0.75098456  0.37545079  0.83933068  1
  O2-  O284  1  0.74882421  0.62505882  0.35217017  1
  O2-  O285  1  0.75129426  0.62565928  0.83946187  1
  O2-  O286  1  0.75084565  0.87581322  0.35242363  1
  O2-  O287  1  0.75072809  0.87413695  0.83781312  1
