# generated using pymatgen
data_BaYFeCuO5
_symmetry_space_group_name_H-M   'P 1'
_cell_length_a   15.67701422
_cell_length_b   15.67877097
_cell_length_c   15.49822940
_cell_angle_alpha   90.00401608
_cell_angle_beta   89.99176130
_cell_angle_gamma   89.99828066
_symmetry_Int_Tables_number   1
_chemical_formula_structural   BaYFeCuO5
_chemical_formula_sum   'Ba32 Y32 Fe32 Cu32 O160'
_cell_volume   3809.40763342
_cell_formula_units_Z   32
loop_
 _symmetry_equiv_pos_site_id
 _symmetry_equiv_pos_as_xyz
  1  'x, y, z'
loop_
 _atom_type_symbol
 _atom_type_oxidation_number
  Ba2+  2.0
  Y3+  3.0
  Fe3+  3.0
  Cu2+  2.0
  O2-  -2.0
loop_
 _atom_site_type_symbol
 _atom_site_label
 _atom_site_symmetry_multiplicity
 _atom_site_fract_x
 _atom_site_fract_y
 _atom_site_fract_z
 _atom_site_occupancy
  Ba2+  Ba0  1  0.00471392  0.00454447  0.00115157  1
  Ba2+  Ba1  1  0.00643313  -0.00610160  0.51598434  1
  Ba2+  Ba2  1  0.00095768  0.24942298  0.00730544  1
  Ba2+  Ba3  1  0.00261973  0.25757601  0.51703815  1
  Ba2+  Ba4  1  0.00810577  0.49875199  0.00610529  1
  Ba2+  Ba5  1  -0.00051401  0.49897681  0.52379303  1
  Ba2+  Ba6  1  0.01093585  0.74855170  0.00251752  1
  Ba2+  Ba7  1  0.00367784  0.74918130  0.52403022  1
  Ba2+  Ba8  1  0.25253678  0.00124687  0.01887218  1
  Ba2+  Ba9  1  0.24333175  0.00268607  0.51565142  1
  Ba2+  Ba10  1  0.25315502  0.25214407  0.01028691  1
  Ba2+  Ba11  1  0.24973868  0.25154084  0.52592124  1
  Ba2+  Ba12  1  0.25318861  0.50191646  0.00237519  1
  Ba2+  Ba13  1  0.24752984  0.49891621  0.52005599  1
  Ba2+  Ba14  1  0.25238835  0.74486216  0.00679563  1
  Ba2+  Ba15  1  0.24056287  0.74740316  0.50625802  1
  Ba2+  Ba16  1  0.49860314  0.00129939  0.02112499  1
  Ba2+  Ba17  1  0.50032424  0.01147885  0.51047456  1
  Ba2+  Ba18  1  0.49319765  0.24716976  0.01779677  1
  Ba2+  Ba19  1  0.50299951  0.25184271  0.51594345  1
  Ba2+  Ba20  1  0.49073266  0.50310123  0.01165910  1
  Ba2+  Ba21  1  0.49732266  0.49157890  0.50652186  1
  Ba2+  Ba22  1  0.49472726  0.74832070  0.01344881  1
  Ba2+  Ba23  1  0.49391336  0.74406223  0.50231096  1
  Ba2+  Ba24  1  0.74466499  0.00366093  -0.00028206  1
  Ba2+  Ba25  1  0.74813818  0.00463533  0.51072892  1
  Ba2+  Ba26  1  0.75257457  0.24430859  0.01364242  1
  Ba2+  Ba27  1  0.74432144  0.25706570  0.50577266  1
  Ba2+  Ba28  1  0.74912282  0.49927744  0.01711551  1
  Ba2+  Ba29  1  0.75524176  0.49092989  0.51000196  1
  Ba2+  Ba30  1  0.73972926  0.75156644  0.00648822  1
  Ba2+  Ba31  1  0.76166930  0.74754586  0.51840374  1
  Y3+  Y32  1  0.00236553  -0.00009219  0.25880935  1
  Y3+  Y33  1  0.00140831  -0.00107091  0.75599593  1
  Y3+  Y34  1  -0.00171845  0.25180841  0.25627467  1
  Y3+  Y35  1  0.00039233  0.25167910  0.75785198  1
  Y3+  Y36  1  -0.00041691  0.49823469  0.25347477  1
  Y3+  Y37  1  0.00226260  0.49934789  0.76010253  1
  Y3+  Y38  1  0.00361533  0.74986518  0.25577749  1
  Y3+  Y39  1  0.00342492  0.75025725  0.75924747  1
  Y3+  Y40  1  0.24932320  -0.00084351  0.25903495  1
  Y3+  Y41  1  0.24802026  -0.00010552  0.75454651  1
  Y3+  Y42  1  0.25101086  0.24998646  0.25170389  1
  Y3+  Y43  1  0.25109794  0.25285685  0.75925602  1
  Y3+  Y44  1  0.25163842  0.50203551  0.25134263  1
  Y3+  Y45  1  0.25015689  0.49933758  0.76433695  1
  Y3+  Y46  1  0.25011465  0.74798938  0.25570866  1
  Y3+  Y47  1  0.24767666  0.74879943  0.76029872  1
  Y3+  Y48  1  0.49960430  0.00271178  0.26097094  1
  Y3+  Y49  1  0.50080771  0.00242615  0.75244279  1
  Y3+  Y50  1  0.50114504  0.25060577  0.25902005  1
  Y3+  Y51  1  0.49922163  0.25193495  0.75350556  1
  Y3+  Y52  1  0.49772304  0.49978335  0.25603532  1
  Y3+  Y53  1  0.49772312  0.49707134  0.75880692  1
  Y3+  Y54  1  0.49700098  0.74692322  0.25726866  1
  Y3+  Y55  1  0.49886130  0.74918636  0.75871280  1
  Y3+  Y56  1  0.74856810  0.00290621  0.26103846  1
  Y3+  Y57  1  0.74990666  0.00129454  0.75501982  1
  Y3+  Y58  1  0.74960380  0.25205878  0.26205292  1
  Y3+  Y59  1  0.74900396  0.25092975  0.75284444  1
  Y3+  Y60  1  0.75016987  0.49657126  0.25942524  1
  Y3+  Y61  1  0.75067734  0.49733896  0.75421347  1
  Y3+  Y62  1  0.74960736  0.74831108  0.25664569  1
  Y3+  Y63  1  0.75107456  0.75096726  0.75799015  1
  Fe3+  Fe64  1  0.62362807  0.12585936  0.87447113  1
  Fe3+  Fe65  1  0.12424047  0.62281036  0.37498649  1
  Fe3+  Fe66  1  0.12504788  0.12699353  0.37721809  1
  Fe3+  Fe67  1  0.12631845  0.12540281  0.87524024  1
  Fe3+  Fe68  1  0.62436103  0.37402084  0.88045072  1
  Fe3+  Fe69  1  0.37576838  0.87700970  0.87520775  1
  Fe3+  Fe70  1  0.87403980  0.62460701  0.87936200  1
  Fe3+  Fe71  1  0.87371482  0.37407071  0.87819422  1
  Fe3+  Fe72  1  0.37573575  0.12428054  0.87356399  1
  Fe3+  Fe73  1  0.87487259  0.87571045  0.87968791  1
  Fe3+  Fe74  1  0.62434575  0.62411957  0.87644128  1
  Fe3+  Fe75  1  0.62572157  0.62365955  0.38009338  1
  Fe3+  Fe76  1  0.37340763  0.87488583  0.38043430  1
  Fe3+  Fe77  1  0.37233949  0.37499249  0.37560623  1
  Fe3+  Fe78  1  0.87749419  0.62422167  0.37559681  1
  Fe3+  Fe79  1  0.37312125  0.12735622  0.37764053  1
  Fe3+  Fe80  1  0.87648113  0.12615981  0.38154350  1
  Fe3+  Fe81  1  0.12588440  0.37576472  0.37499142  1
  Fe3+  Fe82  1  0.62526071  0.87367511  0.38140899  1
  Fe3+  Fe83  1  0.87648964  0.87395370  0.37782124  1
  Fe3+  Fe84  1  0.12524366  0.37458537  0.13479939  1
  Fe3+  Fe85  1  0.62454074  0.87567981  0.14081525  1
  Fe3+  Fe86  1  0.87504257  0.12349317  0.13912414  1
  Fe3+  Fe87  1  0.62442258  0.37440501  0.13561692  1
  Fe3+  Fe88  1  0.87528065  0.62572810  0.13265100  1
  Fe3+  Fe89  1  0.62502124  0.62360510  0.63431664  1
  Fe3+  Fe90  1  0.37424008  0.87437152  0.63347955  1
  Fe3+  Fe91  1  0.12578678  0.87535537  0.13676119  1
  Fe3+  Fe92  1  0.62459789  0.87356726  0.63372888  1
  Fe3+  Fe93  1  0.37407537  0.62476923  0.63852182  1
  Fe3+  Fe94  1  0.87469907  0.87571378  0.13334144  1
  Fe3+  Fe95  1  0.87594470  0.12598383  0.63557589  1
  Cu2+  Cu96  1  0.37347995  0.62381116  0.36490383  1
  Cu2+  Cu97  1  0.37629766  0.37363329  0.87377176  1
  Cu2+  Cu98  1  0.12554316  0.62465772  0.87307456  1
  Cu2+  Cu99  1  0.62464521  0.12639406  0.37443331  1
  Cu2+  Cu100  1  0.12506587  0.37385434  0.86727831  1
  Cu2+  Cu101  1  0.87463123  0.12534703  0.86018179  1
  Cu2+  Cu102  1  0.12646058  0.87637748  0.86486691  1
  Cu2+  Cu103  1  0.62363462  0.87602089  0.85966122  1
  Cu2+  Cu104  1  0.12466470  0.87419033  0.37264672  1
  Cu2+  Cu105  1  0.62350534  0.37605511  0.37064620  1
  Cu2+  Cu106  1  0.87726064  0.37564629  0.37255569  1
  Cu2+  Cu107  1  0.37614530  0.62558719  0.87024032  1
  Cu2+  Cu108  1  0.12539121  0.62515577  0.14013807  1
  Cu2+  Cu109  1  0.37453373  0.62523234  0.14284957  1
  Cu2+  Cu110  1  0.87452091  0.37451399  0.14670363  1
  Cu2+  Cu111  1  0.87568790  0.62443599  0.65631024  1
  Cu2+  Cu112  1  0.12560840  0.37558532  0.65723817  1
  Cu2+  Cu113  1  0.62580477  0.12623657  0.64077207  1
  Cu2+  Cu114  1  0.37500362  0.37513651  0.14066443  1
  Cu2+  Cu115  1  0.12571976  0.62403267  0.65762856  1
  Cu2+  Cu116  1  0.62501144  0.62444785  0.15239021  1
  Cu2+  Cu117  1  0.37526123  0.87512566  0.15591926  1
  Cu2+  Cu118  1  0.12615833  0.87406884  0.64418654  1
  Cu2+  Cu119  1  0.37437211  0.12532588  0.64848276  1
  Cu2+  Cu120  1  0.87530282  0.87538591  0.65347907  1
  Cu2+  Cu121  1  0.62554297  0.12525364  0.15560104  1
  Cu2+  Cu122  1  0.12438738  0.12605010  0.65249386  1
  Cu2+  Cu123  1  0.12462532  0.12486568  0.15085346  1
  Cu2+  Cu124  1  0.62460746  0.37651049  0.64241918  1
  Cu2+  Cu125  1  0.87544253  0.37462946  0.64360292  1
  Cu2+  Cu126  1  0.37436361  0.37612035  0.65363279  1
  Cu2+  Cu127  1  0.37510695  0.12459197  0.15423653  1
  O2-  O128  1  0.12637837  0.12443687  -0.00447551  1
  O2-  O129  1  0.12482944  0.12791670  0.49694687  1
  O2-  O130  1  0.12473820  0.37280503  0.01383537  1
  O2-  O131  1  0.12615732  0.37663839  0.49491320  1
  O2-  O132  1  0.12577102  0.62540081  0.00598145  1
  O2-  O133  1  0.12233969  0.62182309  0.49510917  1
  O2-  O134  1  0.12625670  0.87753437  0.01650575  1
  O2-  O135  1  0.12431698  0.87373595  0.50817675  1
  O2-  O136  1  0.37672782  0.12155932  -0.00632675  1
  O2-  O137  1  0.37195398  0.12833103  0.49736746  1
  O2-  O138  1  0.37676156  0.37366033  0.00659855  1
  O2-  O139  1  0.37135993  0.37479363  0.49583454  1
  O2-  O140  1  0.37625115  0.62685865  0.00728128  1
  O2-  O141  1  0.37253815  0.62428441  0.51827178  1
  O2-  O142  1  0.37792104  0.87883647  -0.00478429  1
  O2-  O143  1  0.37306141  0.87364807  0.50687777  1
  O2-  O144  1  0.62327208  0.12406969  -0.00539575  1
  O2-  O145  1  0.62593705  0.12570545  0.50707642  1
  O2-  O146  1  0.62514106  0.37353825  0.00660532  1
  O2-  O147  1  0.62406833  0.37741838  0.50665008  1
  O2-  O148  1  0.62443926  0.62570656  -0.00322557  1
  O2-  O149  1  0.62647707  0.62415435  0.50714440  1
  O2-  O150  1  0.62363202  0.87719869  0.02060688  1
  O2-  O151  1  0.62718332  0.87225104  0.50739139  1
  O2-  O152  1  0.87355930  0.12161785  0.01885472  1
  O2-  O153  1  0.87704074  0.12601911  0.50799284  1
  O2-  O154  1  0.87151159  0.37308953  -0.00177457  1
  O2-  O155  1  0.87746972  0.37544171  0.50752663  1
  O2-  O156  1  0.87222547  0.62597094  0.00540882  1
  O2-  O157  1  0.87923153  0.62521157  0.49536843  1
  O2-  O158  1  0.87361243  0.87689856  0.00774120  1
  O2-  O159  1  0.87745148  0.87187464  0.49785105  1
  O2-  O160  1  0.12501002  -0.00053142  0.16809735  1
  O2-  O161  1  0.12397303  0.00135245  0.66282022  1
  O2-  O162  1  0.12386419  0.24961323  0.16233433  1
  O2-  O163  1  0.12482490  0.25081597  0.66451349  1
  O2-  O164  1  0.12380454  0.49832982  0.16149728  1
  O2-  O165  1  0.12463381  0.49981874  0.66786357  1
  O2-  O166  1  0.12515987  0.75215461  0.16571741  1
  O2-  O167  1  0.12504301  0.74815306  0.66718277  1
  O2-  O168  1  0.37614158  0.00060918  0.16870413  1
  O2-  O169  1  0.37626554  -0.00183286  0.65770460  1
  O2-  O170  1  0.37560511  0.24795723  0.16132371  1
  O2-  O171  1  0.37461982  0.25107513  0.66371242  1
  O2-  O172  1  0.37598676  0.50011601  0.16375374  1
  O2-  O173  1  0.37505301  0.50105737  0.66890632  1
  O2-  O174  1  0.37600979  0.75102635  0.16765521  1
  O2-  O175  1  0.37532592  0.75065609  0.66610795  1
  O2-  O176  1  0.62492405  -0.00002614  0.17159892  1
  O2-  O177  1  0.62525038  -0.00359063  0.66006104  1
  O2-  O178  1  0.62587388  0.25062172  0.16226341  1
  O2-  O179  1  0.62507386  0.25112395  0.66486633  1
  O2-  O180  1  0.62574358  0.49841743  0.16213736  1
  O2-  O181  1  0.62502069  0.50351069  0.66663434  1
  O2-  O182  1  0.62501976  0.75049648  0.16865016  1
  O2-  O183  1  0.62631707  0.74923777  0.66290800  1
  O2-  O184  1  0.87401778  -0.00230982  0.16999715  1
  O2-  O185  1  0.87552084  0.00171683  0.66291783  1
  O2-  O186  1  0.87406711  0.24865422  0.16629230  1
  O2-  O187  1  0.87560044  0.24773917  0.66412569  1
  O2-  O188  1  0.87401430  0.50193760  0.15981665  1
  O2-  O189  1  0.87541368  0.50079744  0.66803395  1
  O2-  O190  1  0.87335208  0.75116204  0.16023626  1
  O2-  O191  1  0.87479075  0.74969190  0.66792610  1
  O2-  O192  1  -0.00116427  0.12366258  0.16655791  1
  O2-  O193  1  -0.00115286  0.12507705  0.66495114  1
  O2-  O194  1  0.00002977  0.37400124  0.16233587  1
  O2-  O195  1  0.00171001  0.37540808  0.66769630  1
  O2-  O196  1  -0.00322611  0.62674176  0.15823228  1
  O2-  O197  1  0.00082343  0.62523864  0.66875878  1
  O2-  O198  1  -0.00160907  0.87530413  0.16186313  1
  O2-  O199  1  -0.00055372  0.87416114  0.66895378  1
  O2-  O200  1  0.25007884  0.12376745  0.16153522  1
  O2-  O201  1  0.24928986  0.12442895  0.66319813  1
  O2-  O202  1  0.24860504  0.37414551  0.16189999  1
  O2-  O203  1  0.24994115  0.37581707  0.66671991  1
  O2-  O204  1  0.24965338  0.62593836  0.16399942  1
  O2-  O205  1  0.25019763  0.62469667  0.66764194  1
  O2-  O206  1  0.25054780  0.87609323  0.16610001  1
  O2-  O207  1  0.25326595  0.87522645  0.66324088  1
  O2-  O208  1  0.50058901  0.12401500  0.16598886  1
  O2-  O209  1  0.49899129  0.12546522  0.66006054  1
  O2-  O210  1  0.50268356  0.37452923  0.16403596  1
  O2-  O211  1  0.49821266  0.37597727  0.66435246  1
  O2-  O212  1  0.50130460  0.62551050  0.16866729  1
  O2-  O213  1  0.50104182  0.62616730  0.66185750  1
  O2-  O214  1  0.50015013  0.87516896  0.17203590  1
  O2-  O215  1  0.50012320  0.87320225  0.65712278  1
  O2-  O216  1  0.75083875  0.12423787  0.17025122  1
  O2-  O217  1  0.75306537  0.12419253  0.66380165  1
  O2-  O218  1  0.74808641  0.37490104  0.16534623  1
  O2-  O219  1  0.75007151  0.37577454  0.66517906  1
  O2-  O220  1  0.75195822  0.62569260  0.16419387  1
  O2-  O221  1  0.74890400  0.62563799  0.66311897  1
  O2-  O222  1  0.75104914  0.87466485  0.16668641  1
  O2-  O223  1  0.74835921  0.87415451  0.66515773  1
  O2-  O224  1  0.12469585  0.00212881  0.34954085  1
  O2-  O225  1  0.12432874  0.00101859  0.84502132  1
  O2-  O226  1  0.12462864  0.25023088  0.34233604  1
  O2-  O227  1  0.12432264  0.24909092  0.84703791  1
  O2-  O228  1  0.12513641  0.49982619  0.34059820  1
  O2-  O229  1  0.12471617  0.49823187  0.85179169  1
  O2-  O230  1  0.12483094  0.74751223  0.34684682  1
  O2-  O231  1  0.12496524  0.75211417  0.85053529  1
  O2-  O232  1  0.37507490  -0.00070906  0.35207029  1
  O2-  O233  1  0.37555804  0.00081644  0.83826863  1
  O2-  O234  1  0.37437055  0.25038839  0.34219617  1
  O2-  O235  1  0.37584961  0.24767778  0.84636281  1
  O2-  O236  1  0.37463832  0.49975512  0.34573303  1
  O2-  O237  1  0.37626953  0.50007129  0.85200363  1
  O2-  O238  1  0.37530218  0.75068287  0.35228714  1
  O2-  O239  1  0.37639173  0.75201793  0.84768072  1
  O2-  O240  1  0.62519136  -0.00386328  0.35411200  1
  O2-  O241  1  0.62594795  0.00099611  0.84309625  1
  O2-  O242  1  0.62489317  0.25106659  0.34665105  1
  O2-  O243  1  0.62587218  0.25100189  0.84709687  1
  O2-  O244  1  0.62505868  0.50344310  0.34714622  1
  O2-  O245  1  0.62621334  0.49813146  0.84940913  1
  O2-  O246  1  0.62496587  0.74917607  0.35187300  1
  O2-  O247  1  0.62544381  0.75017999  0.84693541  1
  O2-  O248  1  0.87453903  0.00080672  0.35171251  1
  O2-  O249  1  0.87412999  -0.00170483  0.84859833  1
  O2-  O250  1  0.87546557  0.24751243  0.34986231  1
  O2-  O251  1  0.87417814  0.25060907  0.84670540  1
  O2-  O252  1  0.87476244  0.50209456  0.34287430  1
  O2-  O253  1  0.87327439  0.50062433  0.85092647  1
  O2-  O254  1  0.87470486  0.74927184  0.34165952  1
  O2-  O255  1  0.87365522  0.75059378  0.85302713  1
  O2-  O256  1  -0.00092681  0.12477623  0.34754936  1
  O2-  O257  1  -0.00021287  0.12445804  0.84890457  1
  O2-  O258  1  0.00257211  0.37530916  0.34323572  1
  O2-  O259  1  -0.00168063  0.37487942  0.85069201  1
  O2-  O260  1  0.00041359  0.62457364  0.33836733  1
  O2-  O261  1  -0.00380743  0.62553225  0.85298613  1
  O2-  O262  1  -0.00207252  0.87493935  0.34254980  1
  O2-  O263  1  -0.00151704  0.87552017  0.85376531  1
  O2-  O264  1  0.24973743  0.12492509  0.34309110  1
  O2-  O265  1  0.25051165  0.12472159  0.84432385  1
  O2-  O266  1  0.24967059  0.37512133  0.34032267  1
  O2-  O267  1  0.24952354  0.37430082  0.85128683  1
  O2-  O268  1  0.24903782  0.62521466  0.34610562  1
  O2-  O269  1  0.25067574  0.62569013  0.85038341  1
  O2-  O270  1  0.25275842  0.87456827  0.34948582  1
  O2-  O271  1  0.25126220  0.87574717  0.84546997  1
  O2-  O272  1  0.49733271  0.12501349  0.34909818  1
  O2-  O273  1  0.50063954  0.12472593  0.84054853  1
  O2-  O274  1  0.49688364  0.37599735  0.34659058  1
  O2-  O275  1  0.50381081  0.37465084  0.84765901  1
  O2-  O276  1  0.50103730  0.62529801  0.35413996  1
  O2-  O277  1  0.50255099  0.62501583  0.84324510  1
  O2-  O278  1  0.49979167  0.87369812  0.35609515  1
  O2-  O279  1  0.49948283  0.87594800  0.83943386  1
  O2-  O280  1  0.75306792  0.12470447  0.35328254  1
  O2-  O281  1  0.74931076  0.12434429  0.84660402  1
  O2-  O282  1  0.75018371  0.37580076  0.35016203  1
  O2-  O283  1  0.74837453  0.37457938  0.84693601  1
  O2-  O284  1  0.74952405  0.62541831  0.34822910  1
  O2-  O285  1  0.75073475  0.62592478  0.84654968  1
  O2-  O286  1  0.74949461  0.87386185  0.34832011  1
  O2-  O287  1  0.75098600  0.87530460  0.85114836  1
