# generated using pymatgen
data_BaYFeCuO5
_symmetry_space_group_name_H-M   'P 1'
_cell_length_a   15.67202779
_cell_length_b   15.67225372
_cell_length_c   15.49132136
_cell_angle_alpha   90.00706200
_cell_angle_beta   90.00583780
_cell_angle_gamma   89.99880264
_symmetry_Int_Tables_number   1
_chemical_formula_structural   BaYFeCuO5
_chemical_formula_sum   'Ba32 Y32 Fe32 Cu32 O160'
_cell_volume   3804.91627162
_cell_formula_units_Z   32
loop_
 _symmetry_equiv_pos_site_id
 _symmetry_equiv_pos_as_xyz
  1  'x, y, z'
loop_
 _atom_type_symbol
 _atom_type_oxidation_number
  Ba2+  2.0
  Y3+  3.0
  Fe3+  3.0
  Cu2+  2.0
  O2-  -2.0
loop_
 _atom_site_type_symbol
 _atom_site_label
 _atom_site_symmetry_multiplicity
 _atom_site_fract_x
 _atom_site_fract_y
 _atom_site_fract_z
 _atom_site_occupancy
  Ba2+  Ba0  1  0.00219400  -0.00084098  0.01272537  1
  Ba2+  Ba1  1  0.00114445  0.00042836  0.50642936  1
  Ba2+  Ba2  1  -0.00202146  0.25114392  0.00052452  1
  Ba2+  Ba3  1  -0.00498091  0.25220653  0.51752523  1
  Ba2+  Ba4  1  0.00313687  0.49398403  -0.00357943  1
  Ba2+  Ba5  1  0.00648789  0.49785452  0.51808535  1
  Ba2+  Ba6  1  0.00641477  0.75761555  0.00711046  1
  Ba2+  Ba7  1  0.01230947  0.74920171  0.50733902  1
  Ba2+  Ba8  1  0.24366048  0.00257105  0.01820153  1
  Ba2+  Ba9  1  0.25294008  -0.00826061  0.51103264  1
  Ba2+  Ba10  1  0.25035243  0.24882278  0.01791855  1
  Ba2+  Ba11  1  0.25522555  0.25561226  0.51579059  1
  Ba2+  Ba12  1  0.25063517  0.49924968  0.00668497  1
  Ba2+  Ba13  1  0.24605669  0.49742674  0.51257145  1
  Ba2+  Ba14  1  0.24369252  0.74903944  0.00487145  1
  Ba2+  Ba15  1  0.24501498  0.75468455  0.50649342  1
  Ba2+  Ba16  1  0.50439507  0.00465255  0.02297678  1
  Ba2+  Ba17  1  0.49345042  -0.00512031  0.51463966  1
  Ba2+  Ba18  1  0.49991461  0.24924000  0.01839208  1
  Ba2+  Ba19  1  0.49420995  0.25589821  0.50614318  1
  Ba2+  Ba20  1  0.49910610  0.49954416  0.01880615  1
  Ba2+  Ba21  1  0.50029373  0.49429239  0.50576386  1
  Ba2+  Ba22  1  0.50318768  0.74573384  0.02232949  1
  Ba2+  Ba23  1  0.49975130  0.75476902  0.51571886  1
  Ba2+  Ba24  1  0.74972855  0.00105323  0.01917704  1
  Ba2+  Ba25  1  0.75239543  0.00359032  0.51043656  1
  Ba2+  Ba26  1  0.75262394  0.25131402  -0.00020880  1
  Ba2+  Ba27  1  0.75582167  0.25190535  0.50705545  1
  Ba2+  Ba28  1  0.74839754  0.49269091  0.00585729  1
  Ba2+  Ba29  1  0.74615851  0.49583944  0.51237351  1
  Ba2+  Ba30  1  0.74571417  0.75470900  0.02187987  1
  Ba2+  Ba31  1  0.74125247  0.74962908  0.51650859  1
  Y3+  Y32  1  0.00130085  -0.00125728  0.25908914  1
  Y3+  Y33  1  0.00086824  0.00006856  0.75575180  1
  Y3+  Y34  1  -0.00168313  0.24905142  0.25754525  1
  Y3+  Y35  1  -0.00243012  0.25096301  0.75781522  1
  Y3+  Y36  1  0.00032314  0.50027488  0.25733654  1
  Y3+  Y37  1  0.00216058  0.49828070  0.75843100  1
  Y3+  Y38  1  0.00330223  0.75183316  0.25873813  1
  Y3+  Y39  1  0.00536028  0.75042915  0.75754266  1
  Y3+  Y40  1  0.24805515  -0.00206230  0.25936224  1
  Y3+  Y41  1  0.24999774  -0.00280846  0.75466157  1
  Y3+  Y42  1  0.25162533  0.25011036  0.25790733  1
  Y3+  Y43  1  0.25096542  0.25143008  0.75498731  1
  Y3+  Y44  1  0.25129416  0.50060381  0.26002048  1
  Y3+  Y45  1  0.24791344  0.49962737  0.75578750  1
  Y3+  Y46  1  0.24785597  0.75135823  0.26042780  1
  Y3+  Y47  1  0.24708005  0.75138759  0.75490350  1
  Y3+  Y48  1  0.49887678  0.00054356  0.25851250  1
  Y3+  Y49  1  0.49778780  -0.00119375  0.75247307  1
  Y3+  Y50  1  0.49807042  0.25164209  0.25946679  1
  Y3+  Y51  1  0.49808127  0.25051480  0.75471734  1
  Y3+  Y52  1  0.49777422  0.49865520  0.25866480  1
  Y3+  Y53  1  0.49990117  0.49884779  0.75553716  1
  Y3+  Y54  1  0.49838717  0.74946126  0.25803764  1
  Y3+  Y55  1  0.49963486  0.75117504  0.75356205  1
  Y3+  Y56  1  0.75158022  0.00124198  0.25933515  1
  Y3+  Y57  1  0.75128804  0.00180573  0.75409857  1
  Y3+  Y58  1  0.75191577  0.25051090  0.25830527  1
  Y3+  Y59  1  0.75330108  0.25028296  0.75761413  1
  Y3+  Y60  1  0.75045349  0.49883393  0.25520493  1
  Y3+  Y61  1  0.75063463  0.49770873  0.75946905  1
  Y3+  Y62  1  0.75005355  0.75029979  0.25626473  1
  Y3+  Y63  1  0.74861087  0.74967495  0.75536066  1
  Fe3+  Fe64  1  0.62443610  0.87544000  0.37611614  1
  Fe3+  Fe65  1  0.87530118  0.62683852  0.87932311  1
  Fe3+  Fe66  1  0.37557913  0.62561632  0.87609372  1
  Fe3+  Fe67  1  0.37570772  0.37445313  0.87685679  1
  Fe3+  Fe68  1  0.37542271  0.87539910  0.88050630  1
  Fe3+  Fe69  1  0.12581839  0.12491688  0.87450928  1
  Fe3+  Fe70  1  0.12468563  0.37445985  0.37759955  1
  Fe3+  Fe71  1  0.87423544  0.87555757  0.87593736  1
  Fe3+  Fe72  1  0.62429143  0.12468703  0.87450476  1
  Fe3+  Fe73  1  0.87573386  0.37624654  0.37731425  1
  Fe3+  Fe74  1  0.87469194  0.87380779  0.37996401  1
  Fe3+  Fe75  1  0.62513652  0.62427521  0.37645199  1
  Fe3+  Fe76  1  0.62427523  0.62501225  0.87638732  1
  Fe3+  Fe77  1  0.37526736  0.12401759  0.87642585  1
  Fe3+  Fe78  1  0.87549701  0.62494333  0.38094071  1
  Fe3+  Fe79  1  0.37407658  0.62555471  0.37988838  1
  Fe3+  Fe80  1  0.62462457  0.12624444  0.37991719  1
  Fe3+  Fe81  1  0.12498870  0.12611957  0.38041104  1
  Fe3+  Fe82  1  0.62425168  0.87597303  0.87510013  1
  Fe3+  Fe83  1  0.37393780  0.12447559  0.37759061  1
  Fe3+  Fe84  1  0.12581795  0.12529301  0.63455539  1
  Fe3+  Fe85  1  0.62412887  0.12571219  0.63336117  1
  Fe3+  Fe86  1  0.87540682  0.62466781  0.63521147  1
  Fe3+  Fe87  1  0.87591571  0.87415445  0.63382224  1
  Fe3+  Fe88  1  0.12446472  0.37463570  0.13814223  1
  Fe3+  Fe89  1  0.87634931  0.62477633  0.13379720  1
  Fe3+  Fe90  1  0.62583117  0.37376986  0.13999286  1
  Fe3+  Fe91  1  0.62524010  0.37397754  0.63887331  1
  Fe3+  Fe92  1  0.37398098  0.87457849  0.13558773  1
  Fe3+  Fe93  1  0.37453849  0.62466958  0.63424487  1
  Fe3+  Fe94  1  0.12526502  0.62451587  0.13857908  1
  Fe3+  Fe95  1  0.87566489  0.12585719  0.13910578  1
  Cu2+  Cu96  1  0.12474857  0.62385239  0.37376789  1
  Cu2+  Cu97  1  0.87564587  0.12527164  0.37506178  1
  Cu2+  Cu98  1  0.87506592  0.37527227  0.87222492  1
  Cu2+  Cu99  1  0.12594745  0.87697490  0.87132655  1
  Cu2+  Cu100  1  0.37540385  0.87450367  0.37100628  1
  Cu2+  Cu101  1  0.37374270  0.37563624  0.37278617  1
  Cu2+  Cu102  1  0.62341912  0.37418346  0.86228249  1
  Cu2+  Cu103  1  0.87500067  0.12339759  0.86165631  1
  Cu2+  Cu104  1  0.12691214  0.37359785  0.86131107  1
  Cu2+  Cu105  1  0.12574506  0.62490197  0.86271353  1
  Cu2+  Cu106  1  0.12493023  0.87570111  0.37262584  1
  Cu2+  Cu107  1  0.62558588  0.37501371  0.36325777  1
  Cu2+  Cu108  1  0.37530332  0.37660207  0.64208532  1
  Cu2+  Cu109  1  0.37346738  0.62534489  0.15256182  1
  Cu2+  Cu110  1  0.37453581  0.12436249  0.15272506  1
  Cu2+  Cu111  1  0.62523972  0.62380806  0.15273576  1
  Cu2+  Cu112  1  0.87544960  0.12505211  0.64077295  1
  Cu2+  Cu113  1  0.62474374  0.62368792  0.64957492  1
  Cu2+  Cu114  1  0.12421412  0.12550791  0.15479044  1
  Cu2+  Cu115  1  0.87573968  0.87493510  0.15328999  1
  Cu2+  Cu116  1  0.37383702  0.87334088  0.64231958  1
  Cu2+  Cu117  1  0.12520083  0.87500745  0.14403322  1
  Cu2+  Cu118  1  0.62435948  0.87575092  0.15511310  1
  Cu2+  Cu119  1  0.62582422  0.87602945  0.64856641  1
  Cu2+  Cu120  1  0.87610356  0.37527916  0.14091547  1
  Cu2+  Cu121  1  0.62592705  0.12627317  0.15666503  1
  Cu2+  Cu122  1  0.87478024  0.37595401  0.65321520  1
  Cu2+  Cu123  1  0.37409263  0.37523619  0.15260325  1
  Cu2+  Cu124  1  0.12422859  0.87551497  0.64229675  1
  Cu2+  Cu125  1  0.12473186  0.37394304  0.65233994  1
  Cu2+  Cu126  1  0.12516376  0.62477805  0.64278419  1
  Cu2+  Cu127  1  0.37443020  0.12500674  0.64644014  1
  O2-  O128  1  0.12553408  0.12523875  -0.00495565  1
  O2-  O129  1  0.12591095  0.12639753  0.50679263  1
  O2-  O130  1  0.12612124  0.37436122  0.01762488  1
  O2-  O131  1  0.12377114  0.37340941  0.49803226  1
  O2-  O132  1  0.12455690  0.62408828  0.01818707  1
  O2-  O133  1  0.12495888  0.62339620  0.50875493  1
  O2-  O134  1  0.12581510  0.87659708  0.00750395  1
  O2-  O135  1  0.12420902  0.87606606  0.50703234  1
  O2-  O136  1  0.37638378  0.12424747  -0.00382468  1
  O2-  O137  1  0.37450793  0.12448862  0.49756597  1
  O2-  O138  1  0.37603601  0.37425239  -0.00267093  1
  O2-  O139  1  0.37489636  0.37691886  0.50665296  1
  O2-  O140  1  0.37709276  0.62516595  -0.00389499  1
  O2-  O141  1  0.37494239  0.62519404  0.50669357  1
  O2-  O142  1  0.37590094  0.87521364  0.00664817  1
  O2-  O143  1  0.37561139  0.87298120  0.50659787  1
  O2-  O144  1  0.62427166  0.12377356  -0.00557490  1
  O2-  O145  1  0.62420062  0.12602972  0.50637080  1
  O2-  O146  1  0.62447135  0.37301145  0.01939305  1
  O2-  O147  1  0.62605829  0.37437541  0.51827420  1
  O2-  O148  1  0.62416566  0.62628564  -0.00375434  1
  O2-  O149  1  0.62597749  0.62447436  0.49630862  1
  O2-  O150  1  0.62493991  0.87645617  -0.00516972  1
  O2-  O151  1  0.62460616  0.87486507  0.49613552  1
  O2-  O152  1  0.87475748  0.12432547  0.01860290  1
  O2-  O153  1  0.87471524  0.12542802  0.50782944  1
  O2-  O154  1  0.87491352  0.37512678  0.00621734  1
  O2-  O155  1  0.87579313  0.37783379  0.49762475  1
  O2-  O156  1  0.87490117  0.62704681  0.00639043  1
  O2-  O157  1  0.87457861  0.62420909  0.50729470  1
  O2-  O158  1  0.87241713  0.87577456  -0.00393658  1
  O2-  O159  1  0.87451959  0.87281568  0.50650157  1
  O2-  O160  1  0.12453866  0.00143012  0.16701440  1
  O2-  O161  1  0.12502247  0.00248495  0.66091658  1
  O2-  O162  1  0.12526589  0.25032160  0.16732760  1
  O2-  O163  1  0.12569166  0.24890162  0.66161455  1
  O2-  O164  1  0.12560395  0.50004072  0.16935684  1
  O2-  O165  1  0.12394111  0.49770895  0.66619365  1
  O2-  O166  1  0.12473270  0.74839272  0.16779965  1
  O2-  O167  1  0.12462466  0.75060944  0.66566734  1
  O2-  O168  1  0.37541540  -0.00152286  0.16308884  1
  O2-  O169  1  0.37477131  -0.00001432  0.66330137  1
  O2-  O170  1  0.37490703  0.24888637  0.16523269  1
  O2-  O171  1  0.37490922  0.24985408  0.66306631  1
  O2-  O172  1  0.37459842  0.50075339  0.16637066  1
  O2-  O173  1  0.37576469  0.50316816  0.66449932  1
  O2-  O174  1  0.37553190  0.75174893  0.16391724  1
  O2-  O175  1  0.37530049  0.74667338  0.66491237  1
  O2-  O176  1  0.62549263  0.00118640  0.16580642  1
  O2-  O177  1  0.62458881  0.00210105  0.65858730  1
  O2-  O178  1  0.62442888  0.25063786  0.17129369  1
  O2-  O179  1  0.62465476  0.24844141  0.66527046  1
  O2-  O180  1  0.62453643  0.49896759  0.16702011  1
  O2-  O181  1  0.62599743  0.49880714  0.66762894  1
  O2-  O182  1  0.62490836  0.74939743  0.16326144  1
  O2-  O183  1  0.62597916  0.74996405  0.66105468  1
  O2-  O184  1  0.87471948  -0.00004550  0.16855407  1
  O2-  O185  1  0.87514905  -0.00312121  0.66000880  1
  O2-  O186  1  0.87538201  0.24856479  0.16843076  1
  O2-  O187  1  0.87483361  0.25173885  0.66503012  1
  O2-  O188  1  0.87502885  0.50352964  0.16401873  1
  O2-  O189  1  0.87471393  0.50176836  0.66528206  1
  O2-  O190  1  0.87497331  0.74880118  0.16442713  1
  O2-  O191  1  0.87341625  0.74943761  0.66152521  1
  O2-  O192  1  -0.00056829  0.12389195  0.16973928  1
  O2-  O193  1  0.00304679  0.12572760  0.66364715  1
  O2-  O194  1  0.00177461  0.37563990  0.16718062  1
  O2-  O195  1  -0.00084416  0.37521516  0.66567420  1
  O2-  O196  1  -0.00052204  0.62564938  0.16795497  1
  O2-  O197  1  -0.00293316  0.62507817  0.66574851  1
  O2-  O198  1  -0.00030358  0.87504342  0.16791559  1
  O2-  O199  1  -0.00310379  0.87389286  0.66455691  1
  O2-  O200  1  0.24922464  0.12473678  0.16449703  1
  O2-  O201  1  0.24901221  0.12505988  0.66151343  1
  O2-  O202  1  0.24978353  0.37477522  0.16602918  1
  O2-  O203  1  0.24940726  0.37591009  0.66350641  1
  O2-  O204  1  0.24913429  0.62527635  0.16861490  1
  O2-  O205  1  0.25207914  0.62434937  0.66372665  1
  O2-  O206  1  0.25253937  0.87532473  0.16509103  1
  O2-  O207  1  0.24917360  0.87455232  0.66642739  1
  O2-  O208  1  0.50061281  0.12506585  0.16525569  1
  O2-  O209  1  0.50064547  0.12463325  0.65946273  1
  O2-  O210  1  0.49923908  0.37499740  0.16655504  1
  O2-  O211  1  0.50169787  0.37513059  0.66447888  1
  O2-  O212  1  0.49928949  0.62479257  0.16467030  1
  O2-  O213  1  0.49926575  0.62543819  0.65949992  1
  O2-  O214  1  0.49843960  0.87524413  0.16253691  1
  O2-  O215  1  0.50163167  0.87437805  0.66265607  1
  O2-  O216  1  0.75099648  0.12459853  0.16979884  1
  O2-  O217  1  0.74707890  0.12499707  0.66219427  1
  O2-  O218  1  0.74941058  0.37522002  0.16716638  1
  O2-  O219  1  0.74973345  0.37511011  0.66710193  1
  O2-  O220  1  0.75210085  0.62587421  0.16353336  1
  O2-  O221  1  0.75142586  0.62459709  0.66259188  1
  O2-  O222  1  0.74913344  0.87481785  0.16606288  1
  O2-  O223  1  0.75179957  0.87487351  0.66005402  1
  O2-  O224  1  0.12469307  0.00291366  0.35113112  1
  O2-  O225  1  0.12531884  0.00225133  0.84243926  1
  O2-  O226  1  0.12479295  0.24917004  0.34840685  1
  O2-  O227  1  0.12490430  0.24855251  0.84421474  1
  O2-  O228  1  0.12383134  0.49803107  0.34861203  1
  O2-  O229  1  0.12555105  0.49925188  0.85040516  1
  O2-  O230  1  0.12480428  0.74994681  0.35023889  1
  O2-  O231  1  0.12557588  0.74976322  0.84930402  1
  O2-  O232  1  0.37518594  0.00168523  0.34608292  1
  O2-  O233  1  0.37547718  -0.00172805  0.84566977  1
  O2-  O234  1  0.37495535  0.24821815  0.34845303  1
  O2-  O235  1  0.37557065  0.24947596  0.84454761  1
  O2-  O236  1  0.37534407  0.50303131  0.35051639  1
  O2-  O237  1  0.37484361  0.50012108  0.84604214  1
  O2-  O238  1  0.37523275  0.74704110  0.34799305  1
  O2-  O239  1  0.37564847  0.75155437  0.84761275  1
  O2-  O240  1  0.62509205  0.00156783  0.34924801  1
  O2-  O241  1  0.62498225  -0.00019507  0.83985042  1
  O2-  O242  1  0.62516664  0.24940451  0.35378263  1
  O2-  O243  1  0.62479410  0.24922439  0.84679649  1
  O2-  O244  1  0.62538929  0.50026020  0.34848156  1
  O2-  O245  1  0.62543109  0.50010501  0.84960067  1
  O2-  O246  1  0.62578352  0.74939919  0.34506925  1
  O2-  O247  1  0.62469785  0.75048171  0.84284291  1
  O2-  O248  1  0.87446682  -0.00329362  0.35242496  1
  O2-  O249  1  0.87456889  -0.00141073  0.84239459  1
  O2-  O250  1  0.87475587  0.25247563  0.34936352  1
  O2-  O251  1  0.87497737  0.24841352  0.84958016  1
  O2-  O252  1  0.87496176  0.50150035  0.34661715  1
  O2-  O253  1  0.87507680  0.50402247  0.85066134  1
  O2-  O254  1  0.87360935  0.74966173  0.35003640  1
  O2-  O255  1  0.87503574  0.74919119  0.84494593  1
  O2-  O256  1  0.00255633  0.12507145  0.35222271  1
  O2-  O257  1  -0.00023321  0.12448247  0.84730880  1
  O2-  O258  1  -0.00025576  0.37519470  0.34574078  1
  O2-  O259  1  0.00230372  0.37493419  0.85005664  1
  O2-  O260  1  -0.00347671  0.62596492  0.35075839  1
  O2-  O261  1  -0.00047197  0.62558141  0.85135018  1
  O2-  O262  1  -0.00312576  0.87398737  0.35158309  1
  O2-  O263  1  -0.00125797  0.87491415  0.84721272  1
  O2-  O264  1  0.24846933  0.12500732  0.34808208  1
  O2-  O265  1  0.25149274  0.12461919  0.84302259  1
  O2-  O266  1  0.24765913  0.37488941  0.34731357  1
  O2-  O267  1  0.25163124  0.37461367  0.84619740  1
  O2-  O268  1  0.25187142  0.62502369  0.35152395  1
  O2-  O269  1  0.25059684  0.62554103  0.84732070  1
  O2-  O270  1  0.24986012  0.87510197  0.34853653  1
  O2-  O271  1  0.25338782  0.87480536  0.84985770  1
  O2-  O272  1  0.50103369  0.12540307  0.34917408  1
  O2-  O273  1  0.49928305  0.12422816  0.84060048  1
  O2-  O274  1  0.50125084  0.37532798  0.35028103  1
  O2-  O275  1  0.49882792  0.37501095  0.84460302  1
  O2-  O276  1  0.49930643  0.62489796  0.34879046  1
  O2-  O277  1  0.50020863  0.62515630  0.84099205  1
  O2-  O278  1  0.50203695  0.87482961  0.34492001  1
  O2-  O279  1  0.49889371  0.87524552  0.84474326  1
  O2-  O280  1  0.74735295  0.12526250  0.35265928  1
  O2-  O281  1  0.74970021  0.12471860  0.84552012  1
  O2-  O282  1  0.75109277  0.37625783  0.34862704  1
  O2-  O283  1  0.74811812  0.37477419  0.85002200  1
  O2-  O284  1  0.75154163  0.62464535  0.34752632  1
  O2-  O285  1  0.75059733  0.62565393  0.84632901  1
  O2-  O286  1  0.75062835  0.87460675  0.34897859  1
  O2-  O287  1  0.74915313  0.87466332  0.84114379  1
