# generated using pymatgen
data_BaYFeCuO5
_symmetry_space_group_name_H-M   'P 1'
_cell_length_a   15.67576252
_cell_length_b   15.67738449
_cell_length_c   15.50105569
_cell_angle_alpha   89.99807790
_cell_angle_beta   90.00625138
_cell_angle_gamma   89.99767354
_symmetry_Int_Tables_number   1
_chemical_formula_structural   BaYFeCuO5
_chemical_formula_sum   'Ba32 Y32 Fe32 Cu32 O160'
_cell_volume   3809.46123442
_cell_formula_units_Z   32
loop_
 _symmetry_equiv_pos_site_id
 _symmetry_equiv_pos_as_xyz
  1  'x, y, z'
loop_
 _atom_type_symbol
 _atom_type_oxidation_number
  Ba2+  2.0
  Y3+  3.0
  Fe3+  3.0
  Cu2+  2.0
  O2-  -2.0
loop_
 _atom_site_type_symbol
 _atom_site_label
 _atom_site_symmetry_multiplicity
 _atom_site_fract_x
 _atom_site_fract_y
 _atom_site_fract_z
 _atom_site_occupancy
  Ba2+  Ba0  1  0.00031754  0.00011819  0.01753806  1
  Ba2+  Ba1  1  -0.00551670  0.00599121  0.51522277  1
  Ba2+  Ba2  1  -0.00596703  0.24835361  0.01770863  1
  Ba2+  Ba3  1  0.00196426  0.24257255  0.50770537  1
  Ba2+  Ba4  1  -0.00465574  0.50451153  0.01289714  1
  Ba2+  Ba5  1  0.01011065  0.49869899  0.50696169  1
  Ba2+  Ba6  1  0.00255209  0.74733672  0.01084580  1
  Ba2+  Ba7  1  0.00102426  0.75132234  0.51594755  1
  Ba2+  Ba8  1  0.25185077  -0.00331585  0.01141541  1
  Ba2+  Ba9  1  0.25488738  0.00471232  0.49988916  1
  Ba2+  Ba10  1  0.25292761  0.24469988  0.02174014  1
  Ba2+  Ba11  1  0.25360874  0.25321821  0.50014219  1
  Ba2+  Ba12  1  0.25200966  0.50698986  0.01696833  1
  Ba2+  Ba13  1  0.25475282  0.49733205  0.51325645  1
  Ba2+  Ba14  1  0.24969720  0.75054187  0.00520885  1
  Ba2+  Ba15  1  0.25380739  0.74462465  0.51399945  1
  Ba2+  Ba16  1  0.49445575  -0.00667213  0.01518340  1
  Ba2+  Ba17  1  0.50023095  0.00190460  0.50679931  1
  Ba2+  Ba18  1  0.49666027  0.25404025  0.01340757  1
  Ba2+  Ba19  1  0.49864987  0.25442172  0.50636534  1
  Ba2+  Ba20  1  0.50128409  0.50150638  0.00476013  1
  Ba2+  Ba21  1  0.49490104  0.49163960  0.51123837  1
  Ba2+  Ba22  1  0.49727368  0.75186793  0.01193952  1
  Ba2+  Ba23  1  0.49541962  0.75431322  0.51172184  1
  Ba2+  Ba24  1  0.75440594  -0.00452931  0.02120433  1
  Ba2+  Ba25  1  0.75068428  0.00310428  0.51998814  1
  Ba2+  Ba26  1  0.75534581  0.25700699  0.00666544  1
  Ba2+  Ba27  1  0.74467887  0.24427029  0.51275930  1
  Ba2+  Ba28  1  0.75091113  0.49847514  -0.00137191  1
  Ba2+  Ba29  1  0.74253573  0.49286066  0.50723385  1
  Ba2+  Ba30  1  0.75067552  0.74946021  0.01822176  1
  Ba2+  Ba31  1  0.74905118  0.76013539  0.51629670  1
  Y3+  Y32  1  -0.00121385  0.00272139  0.25760549  1
  Y3+  Y33  1  -0.00020516  0.00138114  0.75427789  1
  Y3+  Y34  1  -0.00201019  0.24930854  0.25770063  1
  Y3+  Y35  1  -0.00167825  0.24932544  0.75757294  1
  Y3+  Y36  1  0.00042627  0.49941847  0.25468986  1
  Y3+  Y37  1  0.00142395  0.50015574  0.76059886  1
  Y3+  Y38  1  0.00021197  0.74826697  0.25465439  1
  Y3+  Y39  1  0.00319393  0.74968844  0.75792325  1
  Y3+  Y40  1  0.25294940  0.00064383  0.25504771  1
  Y3+  Y41  1  0.24945666  -0.00106845  0.76027109  1
  Y3+  Y42  1  0.25255427  0.25084978  0.25837711  1
  Y3+  Y43  1  0.24999772  0.25039247  0.75595015  1
  Y3+  Y44  1  0.25119555  0.49886992  0.25730230  1
  Y3+  Y45  1  0.24967025  0.50212156  0.75713506  1
  Y3+  Y46  1  0.25182074  0.74887570  0.25360831  1
  Y3+  Y47  1  0.24890456  0.74949766  0.76087309  1
  Y3+  Y48  1  0.49688471  -0.00162497  0.25527773  1
  Y3+  Y49  1  0.50075956  -0.00082143  0.75864040  1
  Y3+  Y50  1  0.49789076  0.25169185  0.26019596  1
  Y3+  Y51  1  0.50192022  0.25255308  0.75516826  1
  Y3+  Y52  1  0.49833093  0.49749157  0.25975928  1
  Y3+  Y53  1  0.50034694  0.49803288  0.75465337  1
  Y3+  Y54  1  0.49785089  0.75172554  0.25492678  1
  Y3+  Y55  1  0.49897293  0.75070090  0.75888418  1
  Y3+  Y56  1  0.75188861  0.00076471  0.25724895  1
  Y3+  Y57  1  0.74989167  0.00144678  0.75337620  1
  Y3+  Y58  1  0.75192713  0.25023505  0.25920737  1
  Y3+  Y59  1  0.74902894  0.25105606  0.75663872  1
  Y3+  Y60  1  0.75069610  0.49764876  0.25843503  1
  Y3+  Y61  1  0.74793833  0.49637784  0.75761168  1
  Y3+  Y62  1  0.75063141  0.75096054  0.25655988  1
  Y3+  Y63  1  0.74904523  0.75129644  0.75525370  1
  Fe3+  Fe64  1  0.37389677  0.37459259  0.87763361  1
  Fe3+  Fe65  1  0.37567520  0.12512150  0.87807856  1
  Fe3+  Fe66  1  0.87432308  0.12434890  0.87630628  1
  Fe3+  Fe67  1  0.62464214  0.12444458  0.37489675  1
  Fe3+  Fe68  1  0.62455288  0.87545563  0.37549095  1
  Fe3+  Fe69  1  0.12567954  0.62508864  0.37621478  1
  Fe3+  Fe70  1  0.37555399  0.62525310  0.37609296  1
  Fe3+  Fe71  1  0.87482062  0.62511096  0.38081100  1
  Fe3+  Fe72  1  0.87610777  0.87554924  0.37684231  1
  Fe3+  Fe73  1  0.87551931  0.87554989  0.87465486  1
  Fe3+  Fe74  1  0.12540953  0.12485977  0.37524948  1
  Fe3+  Fe75  1  0.62522059  0.12495258  0.88104925  1
  Fe3+  Fe76  1  0.12496654  0.37467475  0.88211586  1
  Fe3+  Fe77  1  0.62439248  0.62555066  0.38076787  1
  Fe3+  Fe78  1  0.37584787  0.62491683  0.87532797  1
  Fe3+  Fe79  1  0.62617254  0.87500864  0.87715335  1
  Fe3+  Fe80  1  0.87579622  0.37413376  0.38091453  1
  Fe3+  Fe81  1  0.12455248  0.12519964  0.87827328  1
  Fe3+  Fe82  1  0.87401124  0.62601608  0.87367625  1
  Fe3+  Fe83  1  0.12610431  0.87459740  0.37955362  1
  Fe3+  Fe84  1  0.87562393  0.37495074  0.63496599  1
  Fe3+  Fe85  1  0.62517814  0.37519477  0.13921715  1
  Fe3+  Fe86  1  0.12546927  0.37393968  0.63840089  1
  Fe3+  Fe87  1  0.37474463  0.12580997  0.63842322  1
  Fe3+  Fe88  1  0.62373352  0.62547385  0.63438768  1
  Fe3+  Fe89  1  0.62489228  0.62387374  0.13930277  1
  Fe3+  Fe90  1  0.12518967  0.37464667  0.13617995  1
  Fe3+  Fe91  1  0.12625908  0.87649729  0.63470921  1
  Fe3+  Fe92  1  0.62488849  0.12508305  0.13455010  1
  Fe3+  Fe93  1  0.37420545  0.87596503  0.63917651  1
  Fe3+  Fe94  1  0.12483627  0.87498326  0.13924728  1
  Fe3+  Fe95  1  0.87497268  0.62409327  0.63358359  1
  Cu2+  Cu96  1  0.62403865  0.37432781  0.86354115  1
  Cu2+  Cu97  1  0.37568913  0.12476263  0.36129022  1
  Cu2+  Cu98  1  0.37456531  0.37580849  0.37160531  1
  Cu2+  Cu99  1  0.62508555  0.37421976  0.37312758  1
  Cu2+  Cu100  1  0.12491517  0.62444947  0.87412096  1
  Cu2+  Cu101  1  0.37497161  0.87531963  0.87303581  1
  Cu2+  Cu102  1  0.87416489  0.12439959  0.37290249  1
  Cu2+  Cu103  1  0.12387301  0.87609565  0.86330363  1
  Cu2+  Cu104  1  0.62507388  0.62539462  0.85985844  1
  Cu2+  Cu105  1  0.87623351  0.37469112  0.87211953  1
  Cu2+  Cu106  1  0.37423069  0.87412447  0.36286136  1
  Cu2+  Cu107  1  0.12465664  0.37511548  0.36179024  1
  Cu2+  Cu108  1  0.12535321  0.62494118  0.14062660  1
  Cu2+  Cu109  1  0.87584597  0.87469669  0.65003202  1
  Cu2+  Cu110  1  0.12526133  0.12527302  0.15233582  1
  Cu2+  Cu111  1  0.37640158  0.12503417  0.15177258  1
  Cu2+  Cu112  1  0.37622096  0.62431984  0.15147647  1
  Cu2+  Cu113  1  0.12646614  0.12527874  0.64959330  1
  Cu2+  Cu114  1  0.62531912  0.87498285  0.15062049  1
  Cu2+  Cu115  1  0.12512150  0.62486957  0.65122061  1
  Cu2+  Cu116  1  0.37412264  0.37452986  0.64451772  1
  Cu2+  Cu117  1  0.62358390  0.87545788  0.65081255  1
  Cu2+  Cu118  1  0.62469894  0.37449495  0.64149803  1
  Cu2+  Cu119  1  0.87384544  0.12534125  0.15150039  1
  Cu2+  Cu120  1  0.37566832  0.37555342  0.14997621  1
  Cu2+  Cu121  1  0.87378844  0.62437755  0.15421134  1
  Cu2+  Cu122  1  0.87391926  0.37578825  0.14290408  1
  Cu2+  Cu123  1  0.87477480  0.12666955  0.64168897  1
  Cu2+  Cu124  1  0.37383335  0.87385701  0.14195057  1
  Cu2+  Cu125  1  0.87612090  0.87443090  0.15294293  1
  Cu2+  Cu126  1  0.62314529  0.12511540  0.65233188  1
  Cu2+  Cu127  1  0.37529004  0.62537733  0.65212100  1
  O2-  O128  1  0.12368178  0.12473027  -0.00192933  1
  O2-  O129  1  0.12594638  0.12428462  0.49585667  1
  O2-  O130  1  0.12485085  0.37445702  0.00828961  1
  O2-  O131  1  0.12587452  0.37413828  0.51802089  1
  O2-  O132  1  0.12439094  0.62495746  0.00758405  1
  O2-  O133  1  0.12516791  0.62577045  0.49639202  1
  O2-  O134  1  0.12365564  0.87539424  0.01851708  1
  O2-  O135  1  0.12683940  0.87531171  0.50679928  1
  O2-  O136  1  0.37591027  0.12551117  -0.00180174  1
  O2-  O137  1  0.37552370  0.12500913  0.51790206  1
  O2-  O138  1  0.37434619  0.37502438  -0.00219458  1
  O2-  O139  1  0.37348761  0.37456640  0.50685361  1
  O2-  O140  1  0.37698191  0.62474861  -0.00417490  1
  O2-  O141  1  0.37537506  0.62576641  0.49635569  1
  O2-  O142  1  0.37430872  0.87397949  0.00752697  1
  O2-  O143  1  0.37357394  0.87623350  0.51882737  1
  O2-  O144  1  0.62587927  0.12486747  0.00686457  1
  O2-  O145  1  0.62363126  0.12286844  0.49547977  1
  O2-  O146  1  0.62535855  0.37665929  0.01894503  1
  O2-  O147  1  0.62501951  0.37355163  0.50806894  1
  O2-  O148  1  0.62703168  0.62335747  0.01942894  1
  O2-  O149  1  0.62328264  0.62669560  0.50704198  1
  O2-  O150  1  0.62751610  0.87414107  -0.00283547  1
  O2-  O151  1  0.62431649  0.87677314  0.49559053  1
  O2-  O152  1  0.87417678  0.12352977  -0.00365397  1
  O2-  O153  1  0.87414316  0.12529671  0.50717707  1
  O2-  O154  1  0.87510230  0.37613886  0.00771746  1
  O2-  O155  1  0.87643200  0.37428209  0.50813534  1
  O2-  O156  1  0.87256094  0.62659122  -0.00589150  1
  O2-  O157  1  0.87596769  0.62500354  0.50631229  1
  O2-  O158  1  0.87562366  0.87441737  -0.00538203  1
  O2-  O159  1  0.87513363  0.87536931  0.49701323  1
  O2-  O160  1  0.12442477  0.00048810  0.16662138  1
  O2-  O161  1  0.12514884  -0.00099805  0.66216283  1
  O2-  O162  1  0.12520649  0.25077612  0.16301670  1
  O2-  O163  1  0.12446120  0.25027258  0.66826316  1
  O2-  O164  1  0.12544414  0.49713613  0.16418262  1
  O2-  O165  1  0.12426955  0.49979161  0.66687810  1
  O2-  O166  1  0.12418482  0.75109341  0.16756359  1
  O2-  O167  1  0.12511762  0.75148342  0.66199386  1
  O2-  O168  1  0.37508167  0.00086523  0.16448547  1
  O2-  O169  1  0.37492575  0.00001428  0.66941871  1
  O2-  O170  1  0.37606348  0.24988102  0.16492313  1
  O2-  O171  1  0.37484299  0.24875167  0.66771287  1
  O2-  O172  1  0.37544587  0.50069780  0.16524297  1
  O2-  O173  1  0.37487113  0.50150692  0.66373180  1
  O2-  O174  1  0.37541178  0.74761409  0.16444531  1
  O2-  O175  1  0.37424327  0.75090953  0.66509722  1
  O2-  O176  1  0.62571897  0.00066899  0.15990634  1
  O2-  O177  1  0.62415761  -0.00016518  0.66487929  1
  O2-  O178  1  0.62435572  0.24894245  0.16417671  1
  O2-  O179  1  0.62499070  0.24878276  0.66720218  1
  O2-  O180  1  0.62486842  0.49961482  0.17323899  1
  O2-  O181  1  0.62525882  0.50341847  0.66340483  1
  O2-  O182  1  0.62575500  0.74981138  0.16676409  1
  O2-  O183  1  0.62508944  0.74889662  0.66102098  1
  O2-  O184  1  0.87500925  0.00026320  0.16271657  1
  O2-  O185  1  0.87508098  -0.00094722  0.66256180  1
  O2-  O186  1  0.87446892  0.24886332  0.16665850  1
  O2-  O187  1  0.87529625  0.25344694  0.66500133  1
  O2-  O188  1  0.87451058  0.50111170  0.17054980  1
  O2-  O189  1  0.87476016  0.49999367  0.66138298  1
  O2-  O190  1  0.87508167  0.74915114  0.16528271  1
  O2-  O191  1  0.87495201  0.74815650  0.65940131  1
  O2-  O192  1  -0.00132583  0.12552336  0.16472805  1
  O2-  O193  1  0.00187332  0.12562157  0.66257593  1
  O2-  O194  1  0.00249789  0.37467816  0.16501387  1
  O2-  O195  1  -0.00094655  0.37580275  0.66608748  1
  O2-  O196  1  -0.00218515  0.62410172  0.16518942  1
  O2-  O197  1  -0.00227163  0.62475273  0.66226754  1
  O2-  O198  1  0.00019654  0.87525604  0.16857004  1
  O2-  O199  1  0.00251660  0.87486849  0.66038217  1
  O2-  O200  1  0.25142175  0.12507427  0.16437555  1
  O2-  O201  1  0.25086085  0.12479454  0.66762785  1
  O2-  O202  1  0.24955157  0.37453986  0.16261079  1
  O2-  O203  1  0.24824833  0.37556065  0.66866362  1
  O2-  O204  1  0.25297623  0.62471267  0.16346062  1
  O2-  O205  1  0.25018012  0.62490755  0.66460764  1
  O2-  O206  1  0.24807739  0.87509285  0.16845258  1
  O2-  O207  1  0.24866997  0.87506673  0.66783792  1
  O2-  O208  1  0.50227886  0.12424584  0.16251918  1
  O2-  O209  1  0.49894110  0.12461439  0.66869686  1
  O2-  O210  1  0.50052054  0.37518427  0.16722640  1
  O2-  O211  1  0.49943347  0.37506530  0.66505284  1
  O2-  O212  1  0.50035884  0.62498650  0.16649727  1
  O2-  O213  1  0.50141863  0.62611753  0.66269170  1
  O2-  O214  1  0.50057923  0.87439499  0.16391313  1
  O2-  O215  1  0.49867579  0.87474142  0.66683195  1
  O2-  O216  1  0.74788791  0.12492831  0.16357413  1
  O2-  O217  1  0.74754812  0.12531786  0.66402152  1
  O2-  O218  1  0.74776023  0.37471665  0.17050389  1
  O2-  O219  1  0.75282474  0.37531260  0.66319105  1
  O2-  O220  1  0.74897801  0.62509712  0.17122912  1
  O2-  O221  1  0.75002668  0.62570712  0.65812561  1
  O2-  O222  1  0.75168094  0.87414988  0.16381559  1
  O2-  O223  1  0.74951621  0.87523235  0.66048401  1
  O2-  O224  1  0.12592344  -0.00157819  0.34849823  1
  O2-  O225  1  0.12442357  0.00147710  0.84583686  1
  O2-  O226  1  0.12520535  0.24990983  0.34712200  1
  O2-  O227  1  0.12464298  0.25064558  0.84932527  1
  O2-  O228  1  0.12397791  0.50078259  0.34736177  1
  O2-  O229  1  0.12490031  0.49664135  0.84996920  1
  O2-  O230  1  0.12477659  0.75042809  0.34864788  1
  O2-  O231  1  0.12420130  0.75183959  0.84775129  1
  O2-  O232  1  0.37481452  -0.00116650  0.34899339  1
  O2-  O233  1  0.37475907  0.00208562  0.84867119  1
  O2-  O234  1  0.37465561  0.24949159  0.34936410  1
  O2-  O235  1  0.37553988  0.24993894  0.84675202  1
  O2-  O236  1  0.37491622  0.50212986  0.34746210  1
  O2-  O237  1  0.37529956  0.49921229  0.84508678  1
  O2-  O238  1  0.37474219  0.74906070  0.34665221  1
  O2-  O239  1  0.37542370  0.74884618  0.84674923  1
  O2-  O240  1  0.62402757  -0.00086163  0.34166361  1
  O2-  O241  1  0.62585115  0.00144348  0.84797555  1
  O2-  O242  1  0.62509324  0.24829281  0.34624773  1
  O2-  O243  1  0.62517851  0.24803240  0.85148545  1
  O2-  O244  1  0.62577774  0.50309936  0.35442158  1
  O2-  O245  1  0.62548048  0.49970693  0.84838324  1
  O2-  O246  1  0.62555613  0.74919435  0.34884554  1
  O2-  O247  1  0.62553499  0.75099474  0.84401573  1
  O2-  O248  1  0.87560637  -0.00234283  0.34520028  1
  O2-  O249  1  0.87466747  0.00050540  0.84304298  1
  O2-  O250  1  0.87553745  0.25247239  0.35042338  1
  O2-  O251  1  0.87435501  0.24766759  0.84721394  1
  O2-  O252  1  0.87517209  0.50057372  0.35441628  1
  O2-  O253  1  0.87418086  0.50158573  0.84477434  1
  O2-  O254  1  0.87547372  0.74864961  0.34860784  1
  O2-  O255  1  0.87479896  0.75070118  0.84097205  1
  O2-  O256  1  0.00167375  0.12514294  0.34764062  1
  O2-  O257  1  -0.00044032  0.12497524  0.84432885  1
  O2-  O258  1  -0.00199610  0.37587085  0.34973162  1
  O2-  O259  1  0.00322991  0.37470243  0.84840471  1
  O2-  O260  1  -0.00133353  0.62464827  0.34852429  1
  O2-  O261  1  -0.00183961  0.62538727  0.84564338  1
  O2-  O262  1  0.00190413  0.87409046  0.35018057  1
  O2-  O263  1  -0.00105867  0.87540039  0.84322265  1
  O2-  O264  1  0.25063171  0.12492292  0.34806703  1
  O2-  O265  1  0.24991405  0.12545404  0.84775816  1
  O2-  O266  1  0.24833959  0.37524113  0.34674665  1
  O2-  O267  1  0.24888514  0.37440511  0.84908491  1
  O2-  O268  1  0.24984924  0.62498053  0.34499977  1
  O2-  O269  1  0.25174037  0.62528704  0.84787117  1
  O2-  O270  1  0.24864408  0.87457927  0.35133454  1
  O2-  O271  1  0.24795963  0.87518731  0.85053886  1
  O2-  O272  1  0.49971897  0.12414417  0.34584367  1
  O2-  O273  1  0.50185209  0.12474203  0.85028651  1
  O2-  O274  1  0.50020174  0.37501749  0.34969526  1
  O2-  O275  1  0.49915455  0.37524536  0.84816284  1
  O2-  O276  1  0.50131371  0.62580503  0.34831940  1
  O2-  O277  1  0.50043385  0.62434864  0.84597525  1
  O2-  O278  1  0.49969739  0.87434161  0.34724996  1
  O2-  O279  1  0.50246090  0.87551141  0.84823996  1
  O2-  O280  1  0.74823042  0.12412082  0.34593579  1
  O2-  O281  1  0.74844271  0.12530412  0.84690526  1
  O2-  O282  1  0.75344930  0.37556175  0.35223881  1
  O2-  O283  1  0.74821337  0.37490028  0.84783807  1
  O2-  O284  1  0.75054322  0.62536829  0.35426066  1
  O2-  O285  1  0.74993113  0.62485528  0.84151498  1
  O2-  O286  1  0.75025714  0.87434701  0.34562171  1
  O2-  O287  1  0.75038838  0.87523367  0.84212712  1
