# generated using pymatgen
data_BaYFeCuO5
_symmetry_space_group_name_H-M   'P 1'
_cell_length_a   15.67708006
_cell_length_b   15.67392552
_cell_length_c   15.50461829
_cell_angle_alpha   90.00014060
_cell_angle_beta   89.99975987
_cell_angle_gamma   89.99864041
_symmetry_Int_Tables_number   1
_chemical_formula_structural   BaYFeCuO5
_chemical_formula_sum   'Ba32 Y32 Fe32 Cu32 O160'
_cell_volume   3809.81628099
_cell_formula_units_Z   32
loop_
 _symmetry_equiv_pos_site_id
 _symmetry_equiv_pos_as_xyz
  1  'x, y, z'
loop_
 _atom_type_symbol
 _atom_type_oxidation_number
  Ba2+  2.0
  Y3+  3.0
  Fe3+  3.0
  Cu2+  2.0
  O2-  -2.0
loop_
 _atom_site_type_symbol
 _atom_site_label
 _atom_site_symmetry_multiplicity
 _atom_site_fract_x
 _atom_site_fract_y
 _atom_site_fract_z
 _atom_site_occupancy
  Ba2+  Ba0  1  0.00457941  0.00303288  0.00132566  1
  Ba2+  Ba1  1  -0.00268765  0.00494434  0.52206632  1
  Ba2+  Ba2  1  0.00490271  0.24658390  0.01213863  1
  Ba2+  Ba3  1  0.00202341  0.25054197  0.51844528  1
  Ba2+  Ba4  1  0.00578482  0.50413566  0.02066622  1
  Ba2+  Ba5  1  0.00040983  0.49989648  0.51619542  1
  Ba2+  Ba6  1  0.00508248  0.74599428  0.01204833  1
  Ba2+  Ba7  1  -0.00411800  0.74476191  0.52128983  1
  Ba2+  Ba8  1  0.24961149  -0.00783601  0.00597034  1
  Ba2+  Ba9  1  0.25803380  0.00398812  0.51117272  1
  Ba2+  Ba10  1  0.24538108  0.25395225  0.01321590  1
  Ba2+  Ba11  1  0.25104906  0.24860666  0.52158997  1
  Ba2+  Ba12  1  0.25366619  0.50450771  0.01037432  1
  Ba2+  Ba13  1  0.24953331  0.49972457  0.52576196  1
  Ba2+  Ba14  1  0.25690808  0.74923346  0.00630185  1
  Ba2+  Ba15  1  0.25665342  0.74764228  0.51678737  1
  Ba2+  Ba16  1  0.49929607  -0.01341134  0.00722276  1
  Ba2+  Ba17  1  0.49241209  -0.00446184  0.50166791  1
  Ba2+  Ba18  1  0.50101627  0.26078252  0.00228346  1
  Ba2+  Ba19  1  0.49231194  0.25224008  0.50668233  1
  Ba2+  Ba20  1  0.49834650  0.50320405  0.00673261  1
  Ba2+  Ba21  1  0.49931398  0.50174162  0.51872823  1
  Ba2+  Ba22  1  0.49723560  0.75026191  0.01255276  1
  Ba2+  Ba23  1  0.49798744  0.75093259  0.51242574  1
  Ba2+  Ba24  1  0.74687941  -0.00369184  0.00263658  1
  Ba2+  Ba25  1  0.75371765  -0.00431148  0.51370465  1
  Ba2+  Ba26  1  0.74814833  0.25334394  0.00270039  1
  Ba2+  Ba27  1  0.75324313  0.25514352  0.49879628  1
  Ba2+  Ba28  1  0.74278962  0.50249634  0.01658251  1
  Ba2+  Ba29  1  0.74933210  0.50101609  0.50544113  1
  Ba2+  Ba30  1  0.74245240  0.74764690  0.01634332  1
  Ba2+  Ba31  1  0.74905603  0.74745015  0.51777817  1
  Y3+  Y32  1  0.00149120  -0.00001044  0.25625674  1
  Y3+  Y33  1  -0.00122856  0.00101450  0.75761830  1
  Y3+  Y34  1  0.00165703  0.25119221  0.25563808  1
  Y3+  Y35  1  -0.00010795  0.24807391  0.75781108  1
  Y3+  Y36  1  0.00027840  0.50062930  0.25558712  1
  Y3+  Y37  1  0.00163808  0.50107413  0.75482364  1
  Y3+  Y38  1  0.00028853  0.74811788  0.25541404  1
  Y3+  Y39  1  0.00021619  0.75025016  0.75629375  1
  Y3+  Y40  1  0.25346655  -0.00126169  0.25937097  1
  Y3+  Y41  1  0.25316105  -0.00136215  0.75540230  1
  Y3+  Y42  1  0.24993049  0.24844166  0.25731628  1
  Y3+  Y43  1  0.25209802  0.24995653  0.75572012  1
  Y3+  Y44  1  0.24959641  0.50205694  0.25220195  1
  Y3+  Y45  1  0.25313497  0.50085245  0.75865510  1
  Y3+  Y46  1  0.25368749  0.75037863  0.25506982  1
  Y3+  Y47  1  0.25393156  0.75097348  0.75845308  1
  Y3+  Y48  1  0.49788189  -0.00377118  0.25928432  1
  Y3+  Y49  1  0.49810272  -0.00265901  0.75811575  1
  Y3+  Y50  1  0.50020535  0.25054261  0.25879800  1
  Y3+  Y51  1  0.49856337  0.25167770  0.75849746  1
  Y3+  Y52  1  0.50135668  0.50062852  0.25373336  1
  Y3+  Y53  1  0.49786929  0.50042297  0.76102264  1
  Y3+  Y54  1  0.49889711  0.75245197  0.25541746  1
  Y3+  Y55  1  0.49731398  0.75059228  0.76010096  1
  Y3+  Y56  1  0.74659836  -0.00216035  0.25731381  1
  Y3+  Y57  1  0.75070634  -0.00008639  0.75983463  1
  Y3+  Y58  1  0.74787969  0.25310007  0.25619578  1
  Y3+  Y59  1  0.74990409  0.24964588  0.76099970  1
  Y3+  Y60  1  0.74785518  0.49914303  0.25551573  1
  Y3+  Y61  1  0.74797183  0.50083809  0.75835867  1
  Y3+  Y62  1  0.74677008  0.74982357  0.25529156  1
  Y3+  Y63  1  0.74901581  0.74994950  0.75783879  1
  Fe3+  Fe64  1  0.37507804  0.12505151  0.88051253  1
  Fe3+  Fe65  1  0.87558501  0.12520302  0.37561677  1
  Fe3+  Fe66  1  0.12485749  0.87402656  0.38173259  1
  Fe3+  Fe67  1  0.87485501  0.62469421  0.37402489  1
  Fe3+  Fe68  1  0.37338500  0.37690593  0.37649034  1
  Fe3+  Fe69  1  0.62444403  0.12439549  0.38049641  1
  Fe3+  Fe70  1  0.62389515  0.12450137  0.88042762  1
  Fe3+  Fe71  1  0.87540347  0.62430752  0.87818153  1
  Fe3+  Fe72  1  0.37468737  0.62373126  0.37552036  1
  Fe3+  Fe73  1  0.62360257  0.62543828  0.37563253  1
  Fe3+  Fe74  1  0.12580530  0.62596615  0.87451358  1
  Fe3+  Fe75  1  0.87560920  0.87354173  0.87945345  1
  Fe3+  Fe76  1  0.62430515  0.62580027  0.87567712  1
  Fe3+  Fe77  1  0.12507325  0.12495304  0.37727382  1
  Fe3+  Fe78  1  0.12556346  0.37591266  0.37659389  1
  Fe3+  Fe79  1  0.12668764  0.12451306  0.87459416  1
  Fe3+  Fe80  1  0.87545772  0.87405518  0.37667877  1
  Fe3+  Fe81  1  0.12526590  0.37598452  0.87574193  1
  Fe3+  Fe82  1  0.12570128  0.62503587  0.37719354  1
  Fe3+  Fe83  1  0.87644888  0.37648946  0.88077746  1
  Fe3+  Fe84  1  0.87380509  0.37496011  0.63978165  1
  Fe3+  Fe85  1  0.62436770  0.12536065  0.63577726  1
  Fe3+  Fe86  1  0.12585105  0.87511914  0.13766917  1
  Fe3+  Fe87  1  0.62346177  0.12481580  0.13514799  1
  Fe3+  Fe88  1  0.37484528  0.37486128  0.13684797  1
  Fe3+  Fe89  1  0.62506873  0.37473897  0.63892342  1
  Fe3+  Fe90  1  0.87444656  0.12408048  0.13513570  1
  Fe3+  Fe91  1  0.87528726  0.37523836  0.13478441  1
  Fe3+  Fe92  1  0.87509811  0.87476437  0.13378470  1
  Fe3+  Fe93  1  0.12560385  0.87527948  0.63565924  1
  Fe3+  Fe94  1  0.62445995  0.87505699  0.63912458  1
  Fe3+  Fe95  1  0.37528952  0.12417250  0.13398685  1
  Cu2+  Cu96  1  0.62521663  0.37652902  0.87354498  1
  Cu2+  Cu97  1  0.37509696  0.87498760  0.87188100  1
  Cu2+  Cu98  1  0.37449296  0.12602642  0.37185577  1
  Cu2+  Cu99  1  0.87531116  0.12526965  0.86847429  1
  Cu2+  Cu100  1  0.62529366  0.87400669  0.36603805  1
  Cu2+  Cu101  1  0.62391304  0.37599478  0.36435614  1
  Cu2+  Cu102  1  0.37489188  0.62538249  0.87204073  1
  Cu2+  Cu103  1  0.37400036  0.87310968  0.37295483  1
  Cu2+  Cu104  1  0.12512726  0.87467923  0.86099512  1
  Cu2+  Cu105  1  0.37380312  0.37476400  0.86545910  1
  Cu2+  Cu106  1  0.87588431  0.37554672  0.36012327  1
  Cu2+  Cu107  1  0.62506779  0.87365112  0.87242522  1
  Cu2+  Cu108  1  0.62369054  0.37407203  0.14081822  1
  Cu2+  Cu109  1  0.37569615  0.37531926  0.65390429  1
  Cu2+  Cu110  1  0.12576859  0.62584086  0.65145501  1
  Cu2+  Cu111  1  0.87276557  0.12627738  0.65432279  1
  Cu2+  Cu112  1  0.12577086  0.12432589  0.65255730  1
  Cu2+  Cu113  1  0.37593729  0.62515663  0.65431354  1
  Cu2+  Cu114  1  0.37587035  0.62565623  0.14042851  1
  Cu2+  Cu115  1  0.62444365  0.87587221  0.14210472  1
  Cu2+  Cu116  1  0.12623474  0.62670455  0.15053749  1
  Cu2+  Cu117  1  0.12524590  0.37461655  0.65293478  1
  Cu2+  Cu118  1  0.87390695  0.62379114  0.65364698  1
  Cu2+  Cu119  1  0.37603953  0.87502480  0.64314641  1
  Cu2+  Cu120  1  0.87429118  0.62525740  0.14633574  1
  Cu2+  Cu121  1  0.62392914  0.62520504  0.15121671  1
  Cu2+  Cu122  1  0.87452360  0.87484296  0.65397102  1
  Cu2+  Cu123  1  0.12554781  0.37519604  0.14950055  1
  Cu2+  Cu124  1  0.37479960  0.87538386  0.14378903  1
  Cu2+  Cu125  1  0.37766420  0.12469926  0.64351017  1
  Cu2+  Cu126  1  0.62442293  0.62478163  0.65264022  1
  Cu2+  Cu127  1  0.12601045  0.12341687  0.15059763  1
  O2-  O128  1  0.12623041  0.12452549  -0.00502085  1
  O2-  O129  1  0.12349341  0.12639715  0.49706740  1
  O2-  O130  1  0.12396232  0.37571999  -0.00415756  1
  O2-  O131  1  0.12473075  0.37547327  0.49641206  1
  O2-  O132  1  0.12494755  0.62546892  -0.00524885  1
  O2-  O133  1  0.12409846  0.62368228  0.49664355  1
  O2-  O134  1  0.12401445  0.87532783  0.01737904  1
  O2-  O135  1  0.12331540  0.87495736  0.50745142  1
  O2-  O136  1  0.37487340  0.12483217  0.00713637  1
  O2-  O137  1  0.37574909  0.12682764  0.50750406  1
  O2-  O138  1  0.37395001  0.37411179  0.01611839  1
  O2-  O139  1  0.37283873  0.37730865  0.49673655  1
  O2-  O140  1  0.37526892  0.62521521  0.00667447  1
  O2-  O141  1  0.37468932  0.62222631  0.49565222  1
  O2-  O142  1  0.37383220  0.87497992  0.00730050  1
  O2-  O143  1  0.37431276  0.87354655  0.50788353  1
  O2-  O144  1  0.62413833  0.12477686  0.00854305  1
  O2-  O145  1  0.62562165  0.12534374  0.50866412  1
  O2-  O146  1  0.62583080  0.37515068  0.00770267  1
  O2-  O147  1  0.62673692  0.37434304  0.51902513  1
  O2-  O148  1  0.62483597  0.62536180  -0.00362028  1
  O2-  O149  1  0.62490829  0.62456113  0.49575990  1
  O2-  O150  1  0.62661354  0.87435993  0.00780193  1
  O2-  O151  1  0.62649770  0.87568791  0.51853128  1
  O2-  O152  1  0.87506791  0.12424728  0.01533349  1
  O2-  O153  1  0.87589444  0.12600305  0.49557887  1
  O2-  O154  1  0.87684089  0.37605327  0.00724755  1
  O2-  O155  1  0.87373934  0.37451928  0.51939991  1
  O2-  O156  1  0.87628115  0.62454677  -0.00237954  1
  O2-  O157  1  0.87497794  0.62463989  0.49405342  1
  O2-  O158  1  0.87630851  0.87432850  0.00667628  1
  O2-  O159  1  0.87574518  0.87409049  0.49674771  1
  O2-  O160  1  0.12478576  -0.00122966  0.16898313  1
  O2-  O161  1  0.12430148  -0.00131766  0.66375826  1
  O2-  O162  1  0.12457161  0.24865811  0.16188961  1
  O2-  O163  1  0.12493156  0.24883505  0.66531973  1
  O2-  O164  1  0.12512349  0.50162117  0.16063121  1
  O2-  O165  1  0.12491155  0.50061335  0.66314107  1
  O2-  O166  1  0.12415591  0.75123849  0.16707014  1
  O2-  O167  1  0.12362290  0.75177230  0.66170582  1
  O2-  O168  1  0.37514466  0.00264529  0.16613426  1
  O2-  O169  1  0.37620803  -0.00047303  0.66772776  1
  O2-  O170  1  0.37428909  0.24817680  0.16403541  1
  O2-  O171  1  0.37623694  0.25128327  0.66772179  1
  O2-  O172  1  0.37456226  0.49866555  0.16178887  1
  O2-  O173  1  0.37514044  0.50027981  0.66565677  1
  O2-  O174  1  0.37559068  0.75067303  0.16420952  1
  O2-  O175  1  0.37564053  0.74887178  0.66468846  1
  O2-  O176  1  0.62484620  0.00357091  0.16716526  1
  O2-  O177  1  0.62644606  0.00092996  0.66805415  1
  O2-  O178  1  0.62495427  0.24632762  0.16653417  1
  O2-  O179  1  0.62521896  0.24951857  0.66922742  1
  O2-  O180  1  0.62520553  0.50158065  0.16249003  1
  O2-  O181  1  0.62520309  0.49981022  0.66504132  1
  O2-  O182  1  0.62502678  0.74862300  0.16337537  1
  O2-  O183  1  0.62604729  0.74972576  0.66404302  1
  O2-  O184  1  0.87490354  -0.00128218  0.16410019  1
  O2-  O185  1  0.87337751  0.00141179  0.66644125  1
  O2-  O186  1  0.87577915  0.25068670  0.16261290  1
  O2-  O187  1  0.87432201  0.25097688  0.67062798  1
  O2-  O188  1  0.87508614  0.49869202  0.16122968  1
  O2-  O189  1  0.87484038  0.49914620  0.66664103  1
  O2-  O190  1  0.87497830  0.75159326  0.16021936  1
  O2-  O191  1  0.87493373  0.74849132  0.66416180  1
  O2-  O192  1  -0.00054233  0.12410326  0.16271528  1
  O2-  O193  1  -0.00086877  0.12483944  0.66397069  1
  O2-  O194  1  -0.00049071  0.37504671  0.16096963  1
  O2-  O195  1  -0.00040052  0.37434143  0.66583956  1
  O2-  O196  1  0.00073677  0.62577522  0.16188343  1
  O2-  O197  1  -0.00038277  0.62472658  0.66292163  1
  O2-  O198  1  -0.00143916  0.87496582  0.16455220  1
  O2-  O199  1  0.00051596  0.87589041  0.66407496  1
  O2-  O200  1  0.25162266  0.12452288  0.16149344  1
  O2-  O201  1  0.25035356  0.12486126  0.66425227  1
  O2-  O202  1  0.24989270  0.37399462  0.16350329  1
  O2-  O203  1  0.25012670  0.37437121  0.66379423  1
  O2-  O204  1  0.24926917  0.62640704  0.16316963  1
  O2-  O205  1  0.25102561  0.62569303  0.66435873  1
  O2-  O206  1  0.24874826  0.87544839  0.16766293  1
  O2-  O207  1  0.24783650  0.87502647  0.66299753  1
  O2-  O208  1  0.49927106  0.12525246  0.16452187  1
  O2-  O209  1  0.50398182  0.12528416  0.66840339  1
  O2-  O210  1  0.49757081  0.37343974  0.16748531  1
  O2-  O211  1  0.50099847  0.37501858  0.66755307  1
  O2-  O212  1  0.50185302  0.62501814  0.16474645  1
  O2-  O213  1  0.49977180  0.62458226  0.66555761  1
  O2-  O214  1  0.49970527  0.87614520  0.16620876  1
  O2-  O215  1  0.50206902  0.87508804  0.66857989  1
  O2-  O216  1  0.74935850  0.12503206  0.16565968  1
  O2-  O217  1  0.74697001  0.12551470  0.66780808  1
  O2-  O218  1  0.75273389  0.37430108  0.16344675  1
  O2-  O219  1  0.74935110  0.37466436  0.67271191  1
  O2-  O220  1  0.74816095  0.62511247  0.16285825  1
  O2-  O221  1  0.74965725  0.62462393  0.66537661  1
  O2-  O222  1  0.75280485  0.87557312  0.16302054  1
  O2-  O223  1  0.74973581  0.87524135  0.66860396  1
  O2-  O224  1  0.12355803  -0.00144402  0.35049807  1
  O2-  O225  1  0.12459800  0.00012509  0.84716648  1
  O2-  O226  1  0.12457091  0.25028222  0.34416040  1
  O2-  O227  1  0.12506708  0.24976722  0.84704875  1
  O2-  O228  1  0.12418834  0.50052727  0.34264454  1
  O2-  O229  1  0.12473827  0.50052958  0.84448879  1
  O2-  O230  1  0.12370378  0.75057779  0.34867137  1
  O2-  O231  1  0.12452082  0.75003831  0.84481231  1
  O2-  O232  1  0.37505616  -0.00049436  0.35017768  1
  O2-  O233  1  0.37545853  0.00296458  0.85064148  1
  O2-  O234  1  0.37496018  0.25259337  0.34541151  1
  O2-  O235  1  0.37502719  0.24802752  0.85163391  1
  O2-  O236  1  0.37488371  0.50022175  0.34052694  1
  O2-  O237  1  0.37443142  0.49857146  0.85004557  1
  O2-  O238  1  0.37461421  0.74740067  0.34620771  1
  O2-  O239  1  0.37437681  0.75069079  0.84818396  1
  O2-  O240  1  0.62551681  0.00054566  0.35150884  1
  O2-  O241  1  0.62523492  0.00256930  0.85188473  1
  O2-  O242  1  0.62589521  0.24898558  0.35086919  1
  O2-  O243  1  0.62537301  0.24725595  0.85254799  1
  O2-  O244  1  0.62538355  0.50070451  0.34543369  1
  O2-  O245  1  0.62527283  0.50214232  0.84651978  1
  O2-  O246  1  0.62541706  0.74958176  0.34630272  1
  O2-  O247  1  0.62592415  0.74838250  0.84541003  1
  O2-  O248  1  0.87471245  -0.00011800  0.34448795  1
  O2-  O249  1  0.87557113  -0.00187411  0.85198303  1
  O2-  O250  1  0.87391551  0.24948097  0.34481284  1
  O2-  O251  1  0.87540023  0.25215961  0.85355840  1
  O2-  O252  1  0.87476084  0.50062509  0.34437371  1
  O2-  O253  1  0.87608926  0.49953885  0.84775327  1
  O2-  O254  1  0.87498516  0.74970278  0.34190078  1
  O2-  O255  1  0.87570983  0.75024712  0.84803787  1
  O2-  O256  1  0.00012707  0.12512397  0.34258468  1
  O2-  O257  1  0.00121304  0.12456859  0.84767821  1
  O2-  O258  1  0.00127333  0.37510496  0.34366074  1
  O2-  O259  1  -0.00045056  0.37480776  0.84712187  1
  O2-  O260  1  0.00008331  0.62483850  0.34328595  1
  O2-  O261  1  -0.00008726  0.62578214  0.84436272  1
  O2-  O262  1  0.00089930  0.87478508  0.34541611  1
  O2-  O263  1  -0.00187563  0.87516679  0.84907339  1
  O2-  O264  1  0.24742385  0.12435278  0.34442740  1
  O2-  O265  1  0.25186862  0.12444894  0.84704812  1
  O2-  O266  1  0.24918246  0.37536289  0.34256142  1
  O2-  O267  1  0.24883217  0.37444524  0.84674385  1
  O2-  O268  1  0.24939529  0.62501211  0.34373572  1
  O2-  O269  1  0.24891969  0.62547329  0.84711344  1
  O2-  O270  1  0.24615275  0.87491630  0.34998857  1
  O2-  O271  1  0.24897574  0.87602835  0.84688406  1
  O2-  O272  1  0.50329068  0.12522044  0.34981350  1
  O2-  O273  1  0.49949432  0.12571229  0.85241624  1
  O2-  O274  1  0.49894904  0.37445696  0.34901019  1
  O2-  O275  1  0.49849032  0.37430286  0.85085851  1
  O2-  O276  1  0.49973779  0.62468474  0.34538953  1
  O2-  O277  1  0.50068354  0.62502711  0.84866553  1
  O2-  O278  1  0.50087741  0.87490056  0.35019463  1
  O2-  O279  1  0.50030237  0.87547110  0.85007289  1
  O2-  O280  1  0.74868403  0.12505532  0.34827752  1
  O2-  O281  1  0.74849902  0.12490220  0.85269441  1
  O2-  O282  1  0.74994077  0.37492316  0.34857362  1
  O2-  O283  1  0.75374387  0.37497896  0.85317836  1
  O2-  O284  1  0.74964503  0.62456011  0.34462204  1
  O2-  O285  1  0.75104030  0.62498646  0.84687479  1
  O2-  O286  1  0.75118269  0.87523905  0.34581324  1
  O2-  O287  1  0.75342421  0.87546217  0.85121254  1
