# generated using pymatgen
data_BaYFeCuO5
_symmetry_space_group_name_H-M   'P 1'
_cell_length_a   15.66992728
_cell_length_b   15.66713844
_cell_length_c   15.47570950
_cell_angle_alpha   89.99799956
_cell_angle_beta   89.99775189
_cell_angle_gamma   90.00121066
_symmetry_Int_Tables_number   1
_chemical_formula_structural   BaYFeCuO5
_chemical_formula_sum   'Ba32 Y32 Fe32 Cu32 O160'
_cell_volume   3799.33186804
_cell_formula_units_Z   32
loop_
 _symmetry_equiv_pos_site_id
 _symmetry_equiv_pos_as_xyz
  1  'x, y, z'
loop_
 _atom_type_symbol
 _atom_type_oxidation_number
  Ba2+  2.0
  Y3+  3.0
  Fe3+  3.0
  Cu2+  2.0
  O2-  -2.0
loop_
 _atom_site_type_symbol
 _atom_site_label
 _atom_site_symmetry_multiplicity
 _atom_site_fract_x
 _atom_site_fract_y
 _atom_site_fract_z
 _atom_site_occupancy
  Ba2+  Ba0  1  -0.00016558  0.00198000  0.00579008  1
  Ba2+  Ba1  1  -0.00017080  -0.00084547  0.52599809  1
  Ba2+  Ba2  1  -0.00639980  0.25126380  0.01584208  1
  Ba2+  Ba3  1  0.00426764  0.24857313  0.51306426  1
  Ba2+  Ba4  1  0.00071134  0.49072376  0.01832317  1
  Ba2+  Ba5  1  -0.00090467  0.49361523  0.49673978  1
  Ba2+  Ba6  1  0.00729285  0.75474507  0.00649138  1
  Ba2+  Ba7  1  -0.00585780  0.75875141  0.50602977  1
  Ba2+  Ba8  1  0.25018605  -0.01096129  0.00619208  1
  Ba2+  Ba9  1  0.25249062  0.00155280  0.51889881  1
  Ba2+  Ba10  1  0.25036594  0.25940576  0.01794564  1
  Ba2+  Ba11  1  0.25098540  0.24962285  0.51175214  1
  Ba2+  Ba12  1  0.25712590  0.49781659  0.02373882  1
  Ba2+  Ba13  1  0.25153027  0.49113087  0.50984323  1
  Ba2+  Ba14  1  0.25672097  0.75559945  0.01006214  1
  Ba2+  Ba15  1  0.25401312  0.75779805  0.51689009  1
  Ba2+  Ba16  1  0.50023975  -0.01229950  0.00551673  1
  Ba2+  Ba17  1  0.49015765  -0.00239060  0.51148195  1
  Ba2+  Ba18  1  0.50037462  0.26045048  0.01912246  1
  Ba2+  Ba19  1  0.49053145  0.25069735  0.50300809  1
  Ba2+  Ba20  1  0.49971495  0.50238112  0.02917959  1
  Ba2+  Ba21  1  0.49399557  0.49476553  0.50607431  1
  Ba2+  Ba22  1  0.49828598  0.75149835  0.01751709  1
  Ba2+  Ba23  1  0.49475330  0.75713034  0.51582420  1
  Ba2+  Ba24  1  0.74942650  0.00080324  0.00586691  1
  Ba2+  Ba25  1  0.75712391  -0.00525154  0.51926295  1
  Ba2+  Ba26  1  0.75514641  0.25254871  0.01689038  1
  Ba2+  Ba27  1  0.75568186  0.25111536  0.49992903  1
  Ba2+  Ba28  1  0.74313441  0.49547230  0.02355386  1
  Ba2+  Ba29  1  0.75493747  0.49736310  0.49305588  1
  Ba2+  Ba30  1  0.73713332  0.75018419  0.01111565  1
  Ba2+  Ba31  1  0.75684361  0.75774736  0.50590708  1
  Y3+  Y32  1  -0.00011577  -0.00061734  0.25224627  1
  Y3+  Y33  1  0.00002286  0.00027205  0.76175236  1
  Y3+  Y34  1  0.00025726  0.25072770  0.25666300  1
  Y3+  Y35  1  0.00063695  0.24782194  0.75743735  1
  Y3+  Y36  1  0.00017070  0.49755761  0.25967894  1
  Y3+  Y37  1  0.00213422  0.49915436  0.75528246  1
  Y3+  Y38  1  -0.00056558  0.75206535  0.25742636  1
  Y3+  Y39  1  0.00135881  0.75241090  0.75787972  1
  Y3+  Y40  1  0.25246285  -0.00224400  0.25646152  1
  Y3+  Y41  1  0.25061056  -0.00185366  0.75893350  1
  Y3+  Y42  1  0.25064646  0.25096779  0.26221511  1
  Y3+  Y43  1  0.24996844  0.24997799  0.75150480  1
  Y3+  Y44  1  0.25010760  0.49747566  0.26180607  1
  Y3+  Y45  1  0.25111093  0.49922752  0.74986023  1
  Y3+  Y46  1  0.25178111  0.75325367  0.25492365  1
  Y3+  Y47  1  0.25163687  0.75250488  0.75847470  1
  Y3+  Y48  1  0.49728963  -0.00206389  0.25748942  1
  Y3+  Y49  1  0.49916028  -0.00288384  0.75749929  1
  Y3+  Y50  1  0.49870462  0.25060644  0.26278346  1
  Y3+  Y51  1  0.49774886  0.24905628  0.75270265  1
  Y3+  Y52  1  0.49967509  0.49868077  0.26235734  1
  Y3+  Y53  1  0.49718870  0.50071149  0.74941819  1
  Y3+  Y54  1  0.49882316  0.75260427  0.25651177  1
  Y3+  Y55  1  0.49850991  0.75352331  0.75707983  1
  Y3+  Y56  1  0.75026139  -0.00057836  0.25419350  1
  Y3+  Y57  1  0.75032234  -0.00109009  0.76050255  1
  Y3+  Y58  1  0.75082757  0.25009363  0.25657776  1
  Y3+  Y59  1  0.75121927  0.24707421  0.75824229  1
  Y3+  Y60  1  0.74996133  0.49841763  0.25976969  1
  Y3+  Y61  1  0.74955727  0.50094135  0.75596214  1
  Y3+  Y62  1  0.74976653  0.75150464  0.25798222  1
  Y3+  Y63  1  0.74803159  0.75272830  0.75637242  1
  Fe3+  Fe64  1  0.62322961  0.37650407  0.87560058  1
  Fe3+  Fe65  1  0.12496185  0.87710125  0.37649179  1
  Fe3+  Fe66  1  0.12668264  0.37581662  0.87609543  1
  Fe3+  Fe67  1  0.87451492  0.62353341  0.88224165  1
  Fe3+  Fe68  1  0.62269316  0.62320840  0.87517394  1
  Fe3+  Fe69  1  0.37587977  0.62347272  0.87563644  1
  Fe3+  Fe70  1  0.37587680  0.37652850  0.87420037  1
  Fe3+  Fe71  1  0.12517431  0.62692114  0.37937341  1
  Fe3+  Fe72  1  0.87421333  0.87348161  0.87981579  1
  Fe3+  Fe73  1  0.87678768  0.12240046  0.37513104  1
  Fe3+  Fe74  1  0.62500811  0.12333556  0.37972472  1
  Fe3+  Fe75  1  0.12657882  0.12692159  0.87999003  1
  Fe3+  Fe76  1  0.62474433  0.62656682  0.37942958  1
  Fe3+  Fe77  1  0.37530443  0.12632970  0.88075664  1
  Fe3+  Fe78  1  0.62338952  0.12677645  0.88018518  1
  Fe3+  Fe79  1  0.37379235  0.62713427  0.37848366  1
  Fe3+  Fe80  1  0.12501358  0.12269291  0.37600686  1
  Fe3+  Fe81  1  0.62501246  0.87664080  0.37804476  1
  Fe3+  Fe82  1  0.87414118  0.37617102  0.87691368  1
  Fe3+  Fe83  1  0.12691794  0.62302722  0.88039795  1
  Fe3+  Fe84  1  0.87474337  0.62498365  0.13527161  1
  Fe3+  Fe85  1  0.12621904  0.12538676  0.13382633  1
  Fe3+  Fe86  1  0.37528775  0.12503924  0.13430164  1
  Fe3+  Fe87  1  0.87536921  0.62506029  0.63678635  1
  Fe3+  Fe88  1  0.87445421  0.87437503  0.13399108  1
  Fe3+  Fe89  1  0.62361758  0.12487187  0.13528297  1
  Fe3+  Fe90  1  0.62557488  0.62588655  0.63146520  1
  Fe3+  Fe91  1  0.12634476  0.62500794  0.13584840  1
  Fe3+  Fe92  1  0.62662901  0.37405316  0.63340633  1
  Fe3+  Fe93  1  0.87487644  0.37447534  0.63761483  1
  Fe3+  Fe94  1  0.12445797  0.62605208  0.63320646  1
  Fe3+  Fe95  1  0.62525274  0.12410483  0.63423528  1
  Cu2+  Cu96  1  0.37409419  0.37464884  0.37150320  1
  Cu2+  Cu97  1  0.87559992  0.87777838  0.36777411  1
  Cu2+  Cu98  1  0.87576590  0.37274985  0.36045043  1
  Cu2+  Cu99  1  0.37556262  0.87420852  0.87076794  1
  Cu2+  Cu100  1  0.12484795  0.37311806  0.37305018  1
  Cu2+  Cu101  1  0.87560703  0.62605319  0.36253299  1
  Cu2+  Cu102  1  0.62444307  0.87382221  0.87228070  1
  Cu2+  Cu103  1  0.12541798  0.87437262  0.87295044  1
  Cu2+  Cu104  1  0.37414274  0.87523684  0.37125714  1
  Cu2+  Cu105  1  0.87462530  0.12646420  0.87539573  1
  Cu2+  Cu106  1  0.37384944  0.12323353  0.37151992  1
  Cu2+  Cu107  1  0.62525302  0.37394012  0.36790055  1
  Cu2+  Cu108  1  0.62446648  0.37412330  0.15909499  1
  Cu2+  Cu109  1  0.12477960  0.87499302  0.65389874  1
  Cu2+  Cu110  1  0.12481925  0.12389242  0.65342892  1
  Cu2+  Cu111  1  0.37452120  0.62597429  0.64339233  1
  Cu2+  Cu112  1  0.87484978  0.37579637  0.15508142  1
  Cu2+  Cu113  1  0.37496344  0.62494618  0.15596578  1
  Cu2+  Cu114  1  0.37512831  0.37389638  0.64063889  1
  Cu2+  Cu115  1  0.12501244  0.87486174  0.14023236  1
  Cu2+  Cu116  1  0.87470587  0.12485026  0.14038398  1
  Cu2+  Cu117  1  0.62522021  0.87577010  0.64856767  1
  Cu2+  Cu118  1  0.62478521  0.62501853  0.15774742  1
  Cu2+  Cu119  1  0.12349662  0.37458767  0.63997682  1
  Cu2+  Cu120  1  0.87470520  0.12475035  0.65438529  1
  Cu2+  Cu121  1  0.12551743  0.37489094  0.15465526  1
  Cu2+  Cu122  1  0.87539696  0.87452435  0.64911379  1
  Cu2+  Cu123  1  0.37457403  0.87586018  0.64700832  1
  Cu2+  Cu124  1  0.62491187  0.87563481  0.14281367  1
  Cu2+  Cu125  1  0.37510453  0.12442991  0.64330849  1
  Cu2+  Cu126  1  0.37523772  0.37452060  0.15911217  1
  Cu2+  Cu127  1  0.37537420  0.87557236  0.14314065  1
  O2-  O128  1  0.12689415  0.12896522  0.00649605  1
  O2-  O129  1  0.12327827  0.12137449  0.49633103  1
  O2-  O130  1  0.12817439  0.37809629  -0.00368980  1
  O2-  O131  1  0.12244547  0.37399633  0.50671662  1
  O2-  O132  1  0.12771581  0.62153107  0.00702834  1
  O2-  O133  1  0.12312941  0.62695289  0.50597752  1
  O2-  O134  1  0.12492742  0.87323853  0.00638729  1
  O2-  O135  1  0.12396284  0.87747865  0.49693426  1
  O2-  O136  1  0.37622858  0.12742611  0.00726725  1
  O2-  O137  1  0.37383873  0.12431176  0.50778058  1
  O2-  O138  1  0.37701589  0.37803231  -0.00588511  1
  O2-  O139  1  0.37410443  0.37360682  0.50595077  1
  O2-  O140  1  0.37739592  0.62160898  -0.00429275  1
  O2-  O141  1  0.37350599  0.62766617  0.49853902  1
  O2-  O142  1  0.37623070  0.87370848  0.00733520  1
  O2-  O143  1  0.37346965  0.87591623  0.50757425  1
  O2-  O144  1  0.62300286  0.12829018  0.00744153  1
  O2-  O145  1  0.62618978  0.12336614  0.50672324  1
  O2-  O146  1  0.62188530  0.37828357  -0.00460208  1
  O2-  O147  1  0.62978008  0.37365786  0.51347470  1
  O2-  O148  1  0.62214690  0.62086850  -0.00483532  1
  O2-  O149  1  0.62727352  0.62657534  0.50545197  1
  O2-  O150  1  0.62530555  0.87363210  0.00721713  1
  O2-  O151  1  0.62646474  0.87704584  0.49822637  1
  O2-  O152  1  0.87395969  0.12784575  0.00694642  1
  O2-  O153  1  0.87727430  0.12157258  0.49544312  1
  O2-  O154  1  0.87304212  0.37785677  -0.00254464  1
  O2-  O155  1  0.87494189  0.37447543  0.51702036  1
  O2-  O156  1  0.87345470  0.62244502  0.00811980  1
  O2-  O157  1  0.87603400  0.62546713  0.51672440  1
  O2-  O158  1  0.87363734  0.87177204  0.00691654  1
  O2-  O159  1  0.87647008  0.87722721  0.50734206  1
  O2-  O160  1  0.12576604  0.00285575  0.15808808  1
  O2-  O161  1  0.12420188  -0.00061739  0.66996716  1
  O2-  O162  1  0.12543643  0.24948356  0.16254013  1
  O2-  O163  1  0.12409220  0.24787876  0.66458894  1
  O2-  O164  1  0.12524367  0.50131959  0.16681368  1
  O2-  O165  1  0.12373275  0.50352196  0.66127263  1
  O2-  O166  1  0.12432732  0.74675180  0.16374632  1
  O2-  O167  1  0.12404775  0.74874225  0.66462797  1
  O2-  O168  1  0.37518644  0.00358295  0.16340518  1
  O2-  O169  1  0.37493114  -0.00043350  0.66974401  1
  O2-  O170  1  0.37575102  0.24881957  0.16402952  1
  O2-  O171  1  0.37516466  0.24943988  0.66612820  1
  O2-  O172  1  0.37481323  0.49930573  0.16775609  1
  O2-  O173  1  0.37476191  0.50096129  0.65869233  1
  O2-  O174  1  0.37547105  0.74888985  0.16431389  1
  O2-  O175  1  0.37474350  0.75017691  0.66548730  1
  O2-  O176  1  0.62424154  0.00307738  0.16112892  1
  O2-  O177  1  0.62620073  0.00122233  0.66732145  1
  O2-  O178  1  0.62415532  0.24870815  0.16470724  1
  O2-  O179  1  0.62620885  0.24848450  0.66507689  1
  O2-  O180  1  0.62529019  0.49933542  0.16872947  1
  O2-  O181  1  0.62633606  0.50106037  0.65926657  1
  O2-  O182  1  0.62496263  0.74904426  0.16561949  1
  O2-  O183  1  0.62549278  0.74908855  0.66174784  1
  O2-  O184  1  0.87436095  -0.00275951  0.15713383  1
  O2-  O185  1  0.87487459  0.00083784  0.67094095  1
  O2-  O186  1  0.87463949  0.25165444  0.16392388  1
  O2-  O187  1  0.87453798  0.24966632  0.66469718  1
  O2-  O188  1  0.87467351  0.50209943  0.16595063  1
  O2-  O189  1  0.87496899  0.50051180  0.66732362  1
  O2-  O190  1  0.87512202  0.74872536  0.16269524  1
  O2-  O191  1  0.87520453  0.74797180  0.66955848  1
  O2-  O192  1  0.00289991  0.12557742  0.15952601  1
  O2-  O193  1  -0.00049328  0.12403275  0.66803496  1
  O2-  O194  1  0.00025689  0.37615953  0.16247424  1
  O2-  O195  1  -0.00286611  0.37463895  0.66951000  1
  O2-  O196  1  -0.00022347  0.62405429  0.15995722  1
  O2-  O197  1  0.00065152  0.62570825  0.67030894  1
  O2-  O198  1  -0.00304798  0.87390361  0.16153787  1
  O2-  O199  1  0.00077253  0.87487338  0.67000207  1
  O2-  O200  1  0.25090402  0.12684049  0.16056541  1
  O2-  O201  1  0.24860693  0.12404738  0.66693687  1
  O2-  O202  1  0.25050891  0.37528522  0.16537224  1
  O2-  O203  1  0.24939901  0.37465122  0.66198768  1
  O2-  O204  1  0.24903771  0.62436528  0.16297695  1
  O2-  O205  1  0.24778645  0.62596967  0.66173714  1
  O2-  O206  1  0.25035494  0.87461084  0.16334161  1
  O2-  O207  1  0.24853896  0.87528727  0.66686549  1
  O2-  O208  1  0.49944941  0.12637517  0.16481587  1
  O2-  O209  1  0.50356110  0.12432098  0.66422168  1
  O2-  O210  1  0.49973453  0.37498468  0.16815035  1
  O2-  O211  1  0.50295692  0.37429979  0.66082570  1
  O2-  O212  1  0.49992669  0.62426888  0.16805616  1
  O2-  O213  1  0.50213919  0.62511860  0.65686506  1
  O2-  O214  1  0.49987772  0.87529138  0.16632018  1
  O2-  O215  1  0.50089114  0.87604131  0.66447803  1
  O2-  O216  1  0.74672699  0.12577754  0.16396534  1
  O2-  O217  1  0.74864176  0.12376873  0.66506305  1
  O2-  O218  1  0.74955187  0.37520453  0.16502799  1
  O2-  O219  1  0.75044847  0.37461999  0.66985197  1
  O2-  O220  1  0.75147505  0.62483585  0.16412042  1
  O2-  O221  1  0.74909862  0.62569231  0.66704066  1
  O2-  O222  1  0.75273613  0.87402366  0.16413925  1
  O2-  O223  1  0.74969016  0.87515166  0.66767660  1
  O2-  O224  1  0.12469345  -0.00035973  0.33885315  1
  O2-  O225  1  0.12547338  0.00332701  0.85452944  1
  O2-  O226  1  0.12482189  0.24694475  0.34617605  1
  O2-  O227  1  0.12583752  0.25045134  0.84714125  1
  O2-  O228  1  0.12356113  0.50310194  0.35194406  1
  O2-  O229  1  0.12546403  0.50087265  0.84303939  1
  O2-  O230  1  0.12356013  0.75000451  0.34713219  1
  O2-  O231  1  0.12424305  0.74520872  0.84990128  1
  O2-  O232  1  0.37511914  -0.00095447  0.34593774  1
  O2-  O233  1  0.37557880  0.00325887  0.85350100  1
  O2-  O234  1  0.37489649  0.24908940  0.34857103  1
  O2-  O235  1  0.37544030  0.25000454  0.84808676  1
  O2-  O236  1  0.37470080  0.50271862  0.35034864  1
  O2-  O237  1  0.37482054  0.49975621  0.83867656  1
  O2-  O238  1  0.37469935  0.74904918  0.34586511  1
  O2-  O239  1  0.37470478  0.74762211  0.84740686  1
  O2-  O240  1  0.62531184  0.00099033  0.34350436  1
  O2-  O241  1  0.62438048  0.00307330  0.85331032  1
  O2-  O242  1  0.62576679  0.24714825  0.35022119  1
  O2-  O243  1  0.62447459  0.25037144  0.84736658  1
  O2-  O244  1  0.62599210  0.50202406  0.35319106  1
  O2-  O245  1  0.62434849  0.49996629  0.83808435  1
  O2-  O246  1  0.62613641  0.74991512  0.34868830  1
  O2-  O247  1  0.62554322  0.74671435  0.84535310  1
  O2-  O248  1  0.87481752  0.00198096  0.33765559  1
  O2-  O249  1  0.87447563  -0.00298182  0.85528227  1
  O2-  O250  1  0.87453835  0.24747007  0.34694315  1
  O2-  O251  1  0.87462673  0.25351437  0.84644795  1
  O2-  O252  1  0.87577643  0.49899575  0.35133128  1
  O2-  O253  1  0.87518989  0.50133767  0.84588256  1
  O2-  O254  1  0.87509666  0.75081155  0.34689937  1
  O2-  O255  1  0.87545325  0.74793414  0.85256333  1
  O2-  O256  1  0.00050079  0.12438783  0.34075023  1
  O2-  O257  1  0.00333520  0.12612041  0.85255378  1
  O2-  O258  1  -0.00103719  0.37431453  0.34639519  1
  O2-  O259  1  0.00076239  0.37654184  0.84955608  1
  O2-  O260  1  0.00135340  0.62566830  0.34635202  1
  O2-  O261  1  0.00004790  0.62345464  0.85526433  1
  O2-  O262  1  0.00181657  0.87494985  0.34310402  1
  O2-  O263  1  -0.00292423  0.87356811  0.85275523  1
  O2-  O264  1  0.24826421  0.12380117  0.34385864  1
  O2-  O265  1  0.25092283  0.12624962  0.85144210  1
  O2-  O266  1  0.24956025  0.37508734  0.34900997  1
  O2-  O267  1  0.25071698  0.37546616  0.84274087  1
  O2-  O268  1  0.24801558  0.62594281  0.34684029  1
  O2-  O269  1  0.24965963  0.62402616  0.84639736  1
  O2-  O270  1  0.24791508  0.87459849  0.34518010  1
  O2-  O271  1  0.25038613  0.87431792  0.84981009  1
  O2-  O272  1  0.50247400  0.12445797  0.35045813  1
  O2-  O273  1  0.49942299  0.12644004  0.84877322  1
  O2-  O274  1  0.50062612  0.37450535  0.35162480  1
  O2-  O275  1  0.49946204  0.37486048  0.83953260  1
  O2-  O276  1  0.50121747  0.62548063  0.35182039  1
  O2-  O277  1  0.49930070  0.62428005  0.83877140  1
  O2-  O278  1  0.50179963  0.87543377  0.34843554  1
  O2-  O279  1  0.49986921  0.87472146  0.84723271  1
  O2-  O280  1  0.74913797  0.12463057  0.34795538  1
  O2-  O281  1  0.74632800  0.12557060  0.84989021  1
  O2-  O282  1  0.75095321  0.37423027  0.34923816  1
  O2-  O283  1  0.74902180  0.37627626  0.84718196  1
  O2-  O284  1  0.74910558  0.62518794  0.34990298  1
  O2-  O285  1  0.75111187  0.62394947  0.84921229  1
  O2-  O286  1  0.74833255  0.87563173  0.34614732  1
  O2-  O287  1  0.75241668  0.87360941  0.85052681  1
