# generated using pymatgen
data_BaYFeCuO5
_symmetry_space_group_name_H-M   'P 1'
_cell_length_a   15.67494131
_cell_length_b   15.67699349
_cell_length_c   15.50185104
_cell_angle_alpha   89.99155446
_cell_angle_beta   90.00480815
_cell_angle_gamma   90.00362099
_symmetry_Int_Tables_number   1
_chemical_formula_structural   BaYFeCuO5
_chemical_formula_sum   'Ba32 Y32 Fe32 Cu32 O160'
_cell_volume   3809.36207546
_cell_formula_units_Z   32
loop_
 _symmetry_equiv_pos_site_id
 _symmetry_equiv_pos_as_xyz
  1  'x, y, z'
loop_
 _atom_type_symbol
 _atom_type_oxidation_number
  Ba2+  2.0
  Y3+  3.0
  Fe3+  3.0
  Cu2+  2.0
  O2-  -2.0
loop_
 _atom_site_type_symbol
 _atom_site_label
 _atom_site_symmetry_multiplicity
 _atom_site_fract_x
 _atom_site_fract_y
 _atom_site_fract_z
 _atom_site_occupancy
  Ba2+  Ba0  1  0.00511358  0.00561837  0.01176513  1
  Ba2+  Ba1  1  0.00699813  0.00164351  0.51690003  1
  Ba2+  Ba2  1  0.00322852  0.25482051  0.01156658  1
  Ba2+  Ba3  1  0.00519563  0.24459296  0.51229103  1
  Ba2+  Ba4  1  0.00176658  0.49740296  0.02271436  1
  Ba2+  Ba5  1  0.00432837  0.50388041  0.50244514  1
  Ba2+  Ba6  1  0.00434004  0.74339460  0.02307747  1
  Ba2+  Ba7  1  0.00680563  0.75030013  0.50638473  1
  Ba2+  Ba8  1  0.24911784  0.00027565  0.01640500  1
  Ba2+  Ba9  1  0.25001170  -0.00080227  0.52154234  1
  Ba2+  Ba10  1  0.24849819  0.25320045  0.00091025  1
  Ba2+  Ba11  1  0.25333178  0.25017574  0.51245740  1
  Ba2+  Ba12  1  0.24865191  0.49749856  -0.00039855  1
  Ba2+  Ba13  1  0.24924388  0.49305725  0.50603304  1
  Ba2+  Ba14  1  0.24997487  0.74909994  0.01774812  1
  Ba2+  Ba15  1  0.24521529  0.75699184  0.51545053  1
  Ba2+  Ba16  1  0.49487108  0.00414181  0.01097458  1
  Ba2+  Ba17  1  0.50213786  -0.00012656  0.51726203  1
  Ba2+  Ba18  1  0.49988039  0.25200811  0.00713363  1
  Ba2+  Ba19  1  0.49503019  0.24414470  0.51224191  1
  Ba2+  Ba20  1  0.50140521  0.50139429  -0.00063749  1
  Ba2+  Ba21  1  0.49616871  0.49676236  0.51130851  1
  Ba2+  Ba22  1  0.49779241  0.74221679  0.00571386  1
  Ba2+  Ba23  1  0.50427078  0.75761580  0.51770868  1
  Ba2+  Ba24  1  0.75021770  0.00999144  0.00587070  1
  Ba2+  Ba25  1  0.73991126  0.00209012  0.51014052  1
  Ba2+  Ba26  1  0.74949084  0.25365679  0.02019419  1
  Ba2+  Ba27  1  0.74727655  0.23889772  0.51108950  1
  Ba2+  Ba28  1  0.74832461  0.49962500  0.02412264  1
  Ba2+  Ba29  1  0.74997862  0.50803715  0.50661656  1
  Ba2+  Ba30  1  0.74761643  0.73734151  0.01155510  1
  Ba2+  Ba31  1  0.74338027  0.75144512  0.50693451  1
  Y3+  Y32  1  0.00318056  -0.00188449  0.25693299  1
  Y3+  Y33  1  -0.00025942  0.00180781  0.75622757  1
  Y3+  Y34  1  0.00288363  0.25224166  0.25600102  1
  Y3+  Y35  1  0.00040025  0.24864005  0.75863545  1
  Y3+  Y36  1  0.00091461  0.49930284  0.25795160  1
  Y3+  Y37  1  0.00241470  0.49910115  0.75679202  1
  Y3+  Y38  1  0.00114541  0.74955116  0.25973914  1
  Y3+  Y39  1  0.00159239  0.75072733  0.75349692  1
  Y3+  Y40  1  0.24870137  -0.00230821  0.25550804  1
  Y3+  Y41  1  0.25078790  0.00067980  0.75633201  1
  Y3+  Y42  1  0.24889870  0.25282864  0.25845363  1
  Y3+  Y43  1  0.25225614  0.25120922  0.75783410  1
  Y3+  Y44  1  0.24882573  0.49655934  0.25936318  1
  Y3+  Y45  1  0.25106719  0.49836393  0.75677440  1
  Y3+  Y46  1  0.24866608  0.75263997  0.25723820  1
  Y3+  Y47  1  0.24946066  0.75055642  0.75481853  1
  Y3+  Y48  1  0.50154738  -0.00021924  0.25817269  1
  Y3+  Y49  1  0.49955069  0.00049548  0.75539699  1
  Y3+  Y50  1  0.50064202  0.24964182  0.26050366  1
  Y3+  Y51  1  0.49668255  0.24959650  0.75521027  1
  Y3+  Y52  1  0.50044080  0.49883888  0.25871099  1
  Y3+  Y53  1  0.49849954  0.50125804  0.75667617  1
  Y3+  Y54  1  0.50079095  0.75162791  0.25534285  1
  Y3+  Y55  1  0.50195962  0.74920957  0.75811426  1
  Y3+  Y56  1  0.74659625  0.00001524  0.25954281  1
  Y3+  Y57  1  0.74959446  0.00169609  0.75456530  1
  Y3+  Y58  1  0.74760861  0.24912398  0.25957957  1
  Y3+  Y59  1  0.75087548  0.24660390  0.75483240  1
  Y3+  Y60  1  0.75017072  0.50141562  0.25827085  1
  Y3+  Y61  1  0.74816913  0.50256669  0.75583029  1
  Y3+  Y62  1  0.74915086  0.74855918  0.25768571  1
  Y3+  Y63  1  0.74727639  0.74947609  0.75694900  1
  Fe3+  Fe64  1  0.12438544  0.87430071  0.87701234  1
  Fe3+  Fe65  1  0.37432610  0.12361895  0.37679939  1
  Fe3+  Fe66  1  0.12676434  0.62517570  0.37650837  1
  Fe3+  Fe67  1  0.87505966  0.87544971  0.37948477  1
  Fe3+  Fe68  1  0.12462923  0.62525950  0.87526662  1
  Fe3+  Fe69  1  0.37488685  0.62594666  0.38115977  1
  Fe3+  Fe70  1  0.62494463  0.37418385  0.38075344  1
  Fe3+  Fe71  1  0.62325442  0.62587805  0.37741569  1
  Fe3+  Fe72  1  0.12562697  0.12520415  0.87563551  1
  Fe3+  Fe73  1  0.87551494  0.87435820  0.88079459  1
  Fe3+  Fe74  1  0.12650047  0.12441108  0.37543493  1
  Fe3+  Fe75  1  0.62554208  0.87515088  0.88016569  1
  Fe3+  Fe76  1  0.87603925  0.12362461  0.37742206  1
  Fe3+  Fe77  1  0.62643006  0.37507993  0.87356117  1
  Fe3+  Fe78  1  0.37515595  0.87539762  0.37694348  1
  Fe3+  Fe79  1  0.87600728  0.62396930  0.87669213  1
  Fe3+  Fe80  1  0.37420237  0.87474947  0.87706718  1
  Fe3+  Fe81  1  0.87431758  0.37568493  0.87573579  1
  Fe3+  Fe82  1  0.87519395  0.37417876  0.38028342  1
  Fe3+  Fe83  1  0.62449899  0.12631640  0.87573269  1
  Fe3+  Fe84  1  0.87494293  0.37460588  0.63266433  1
  Fe3+  Fe85  1  0.12476453  0.37474982  0.63792398  1
  Fe3+  Fe86  1  0.87573435  0.62569892  0.63468837  1
  Fe3+  Fe87  1  0.37419928  0.62578650  0.63501012  1
  Fe3+  Fe88  1  0.37559712  0.37538346  0.13912053  1
  Fe3+  Fe89  1  0.87572847  0.12557025  0.13874688  1
  Fe3+  Fe90  1  0.62513469  0.37476096  0.63385176  1
  Fe3+  Fe91  1  0.37424437  0.12633539  0.13777220  1
  Fe3+  Fe92  1  0.62508230  0.87515198  0.13342900  1
  Fe3+  Fe93  1  0.87434728  0.87560728  0.63444964  1
  Fe3+  Fe94  1  0.37450487  0.62351697  0.13980609  1
  Fe3+  Fe95  1  0.87435832  0.87493400  0.13438710  1
  Cu2+  Cu96  1  0.62406472  0.87477433  0.37074426  1
  Cu2+  Cu97  1  0.62581610  0.62397803  0.87200038  1
  Cu2+  Cu98  1  0.12441074  0.37398916  0.36627460  1
  Cu2+  Cu99  1  0.12402099  0.37552934  0.87161091  1
  Cu2+  Cu100  1  0.37534809  0.37423826  0.37519960  1
  Cu2+  Cu101  1  0.62371077  0.12425984  0.37213653  1
  Cu2+  Cu102  1  0.12573320  0.87603460  0.37241746  1
  Cu2+  Cu103  1  0.37497996  0.12452324  0.86375016  1
  Cu2+  Cu104  1  0.87520348  0.62561634  0.36625330  1
  Cu2+  Cu105  1  0.87493792  0.12536709  0.86414364  1
  Cu2+  Cu106  1  0.37580344  0.37531039  0.86197324  1
  Cu2+  Cu107  1  0.37387386  0.62589474  0.85966825  1
  Cu2+  Cu108  1  0.12418749  0.87463045  0.14869823  1
  Cu2+  Cu109  1  0.12425821  0.87563562  0.64231583  1
  Cu2+  Cu110  1  0.37500817  0.37533199  0.64200739  1
  Cu2+  Cu111  1  0.62390202  0.12547091  0.64317412  1
  Cu2+  Cu112  1  0.37441713  0.12460285  0.65185248  1
  Cu2+  Cu113  1  0.12536655  0.62421037  0.64792555  1
  Cu2+  Cu114  1  0.37544972  0.87467223  0.65231493  1
  Cu2+  Cu115  1  0.62457735  0.62478629  0.64865827  1
  Cu2+  Cu116  1  0.37554763  0.87498274  0.14824216  1
  Cu2+  Cu117  1  0.62429943  0.12508115  0.15218846  1
  Cu2+  Cu118  1  0.12680467  0.37507376  0.14212829  1
  Cu2+  Cu119  1  0.62294808  0.62440138  0.14386177  1
  Cu2+  Cu120  1  0.87542305  0.62486731  0.15568334  1
  Cu2+  Cu121  1  0.87456544  0.37465017  0.15660602  1
  Cu2+  Cu122  1  0.12660288  0.62393240  0.15571005  1
  Cu2+  Cu123  1  0.62574010  0.87538342  0.64536952  1
  Cu2+  Cu124  1  0.87542168  0.12471453  0.64723458  1
  Cu2+  Cu125  1  0.12567586  0.12593538  0.15160196  1
  Cu2+  Cu126  1  0.12578571  0.12616831  0.65409306  1
  Cu2+  Cu127  1  0.62377595  0.37491346  0.15584663  1
  O2-  O128  1  0.12511898  0.12587260  -0.00394276  1
  O2-  O129  1  0.12689290  0.12397224  0.49569565  1
  O2-  O130  1  0.12495970  0.37602686  0.00720746  1
  O2-  O131  1  0.12385607  0.37396340  0.51718464  1
  O2-  O132  1  0.12453858  0.62514790  -0.00477051  1
  O2-  O133  1  0.12652239  0.62586364  0.49721266  1
  O2-  O134  1  0.12324532  0.87308374  -0.00305920  1
  O2-  O135  1  0.12486663  0.87656891  0.50720598  1
  O2-  O136  1  0.37474649  0.12756940  0.01725037  1
  O2-  O137  1  0.37354425  0.12170098  0.49713379  1
  O2-  O138  1  0.37624144  0.37640740  0.01894416  1
  O2-  O139  1  0.37499927  0.37445203  0.50879544  1
  O2-  O140  1  0.37420883  0.62240162  0.01940397  1
  O2-  O141  1  0.37480928  0.62708852  0.50718241  1
  O2-  O142  1  0.37355951  0.87433511  -0.00286329  1
  O2-  O143  1  0.37543054  0.87601220  0.49697203  1
  O2-  O144  1  0.62570254  0.12781010  -0.00392171  1
  O2-  O145  1  0.62314051  0.12458866  0.50758883  1
  O2-  O146  1  0.62727104  0.37512465  -0.00634743  1
  O2-  O147  1  0.62536011  0.37427884  0.50676310  1
  O2-  O148  1  0.62466950  0.62278774  0.00724974  1
  O2-  O149  1  0.62364395  0.62709411  0.49776005  1
  O2-  O150  1  0.62625606  0.87544812  0.00636403  1
  O2-  O151  1  0.62500511  0.87509234  0.50703779  1
  O2-  O152  1  0.87485153  0.12744578  0.01830453  1
  O2-  O153  1  0.87706857  0.12225054  0.49746651  1
  O2-  O154  1  0.87301767  0.37674241  -0.00439986  1
  O2-  O155  1  0.87594566  0.37404529  0.50644021  1
  O2-  O156  1  0.87659931  0.62198193  -0.00350734  1
  O2-  O157  1  0.87546720  0.62716904  0.51469796  1
  O2-  O158  1  0.87546353  0.87389687  0.00724786  1
  O2-  O159  1  0.87466325  0.87617183  0.50704575  1
  O2-  O160  1  0.12383081  0.00000396  0.16074064  1
  O2-  O161  1  0.12442630  0.00236319  0.66595360  1
  O2-  O162  1  0.12507951  0.24934621  0.16654685  1
  O2-  O163  1  0.12463590  0.25061705  0.66589929  1
  O2-  O164  1  0.12486781  0.50083642  0.16945513  1
  O2-  O165  1  0.12467304  0.49906280  0.66485076  1
  O2-  O166  1  0.12504118  0.74920903  0.16438088  1
  O2-  O167  1  0.12409044  0.74861165  0.66225945  1
  O2-  O168  1  0.37510044  0.00012528  0.16189221  1
  O2-  O169  1  0.37513374  -0.00063793  0.66462575  1
  O2-  O170  1  0.37580099  0.25031696  0.17053390  1
  O2-  O171  1  0.37485966  0.24883466  0.66455076  1
  O2-  O172  1  0.37560508  0.49930797  0.17450900  1
  O2-  O173  1  0.37485587  0.50337524  0.66300459  1
  O2-  O174  1  0.37437990  0.75018958  0.16513621  1
  O2-  O175  1  0.37538817  0.74883600  0.66228923  1
  O2-  O176  1  0.62572086  -0.00196130  0.16217868  1
  O2-  O177  1  0.62519364  0.00033983  0.66708501  1
  O2-  O178  1  0.62550627  0.25011694  0.16731448  1
  O2-  O179  1  0.62542492  0.25280706  0.66148551  1
  O2-  O180  1  0.62475675  0.49883732  0.17050070  1
  O2-  O181  1  0.62594302  0.49832952  0.65946983  1
  O2-  O182  1  0.62582447  0.75297007  0.16204021  1
  O2-  O183  1  0.62538482  0.74907064  0.66714926  1
  O2-  O184  1  0.87536315  -0.00138201  0.16254864  1
  O2-  O185  1  0.87508856  -0.00119114  0.66558491  1
  O2-  O186  1  0.87401027  0.24969865  0.16907555  1
  O2-  O187  1  0.87474972  0.25141384  0.66052032  1
  O2-  O188  1  0.87486169  0.49963150  0.16891079  1
  O2-  O189  1  0.87448415  0.49900441  0.65991443  1
  O2-  O190  1  0.87445816  0.75139051  0.16313462  1
  O2-  O191  1  0.87478502  0.75104043  0.66529689  1
  O2-  O192  1  0.00038572  0.12518971  0.16530172  1
  O2-  O193  1  0.00055270  0.12518877  0.66362151  1
  O2-  O194  1  -0.00085472  0.37511923  0.16558351  1
  O2-  O195  1  -0.00174209  0.37469627  0.66406940  1
  O2-  O196  1  0.00103007  0.62487557  0.16535578  1
  O2-  O197  1  -0.00050212  0.62502976  0.66288682  1
  O2-  O198  1  -0.00232346  0.87386921  0.16510916  1
  O2-  O199  1  -0.00341799  0.87561561  0.66337789  1
  O2-  O200  1  0.24994029  0.12456736  0.16430068  1
  O2-  O201  1  0.25032641  0.12490573  0.66473147  1
  O2-  O202  1  0.25258387  0.37528526  0.16895532  1
  O2-  O203  1  0.24835467  0.37505572  0.66686450  1
  O2-  O204  1  0.25083969  0.62498499  0.16863825  1
  O2-  O205  1  0.25109183  0.62588516  0.66209402  1
  O2-  O206  1  0.24897756  0.87487348  0.16277374  1
  O2-  O207  1  0.25083387  0.87488891  0.66432678  1
  O2-  O208  1  0.49967234  0.12504428  0.16519837  1
  O2-  O209  1  0.49796127  0.12479006  0.66588255  1
  O2-  O210  1  0.49958464  0.37454261  0.16911332  1
  O2-  O211  1  0.50273027  0.37575611  0.66301258  1
  O2-  O212  1  0.49766178  0.62552355  0.16929661  1
  O2-  O213  1  0.49859266  0.62547596  0.66360043  1
  O2-  O214  1  0.50248294  0.87512224  0.16146408  1
  O2-  O215  1  0.49950189  0.87472068  0.66755886  1
  O2-  O216  1  0.75014160  0.12476660  0.16718278  1
  O2-  O217  1  0.75086255  0.12458576  0.66382852  1
  O2-  O218  1  0.74887438  0.37512628  0.16750287  1
  O2-  O219  1  0.75064193  0.37488273  0.65816870  1
  O2-  O220  1  0.75049209  0.62445572  0.16624236  1
  O2-  O221  1  0.75077418  0.62566528  0.66379577  1
  O2-  O222  1  0.75032609  0.87517198  0.16404327  1
  O2-  O223  1  0.75299611  0.87506692  0.66637026  1
  O2-  O224  1  0.12492743  0.00164175  0.34331034  1
  O2-  O225  1  0.12423725  -0.00071881  0.84708967  1
  O2-  O226  1  0.12415422  0.24962863  0.34864345  1
  O2-  O227  1  0.12511142  0.24876243  0.84746892  1
  O2-  O228  1  0.12479823  0.49958069  0.35192573  1
  O2-  O229  1  0.12522519  0.50181467  0.84566998  1
  O2-  O230  1  0.12463705  0.74861430  0.34743209  1
  O2-  O231  1  0.12427938  0.75065419  0.84270472  1
  O2-  O232  1  0.37475664  -0.00034304  0.34222858  1
  O2-  O233  1  0.37559935  -0.00160968  0.84742600  1
  O2-  O234  1  0.37527740  0.24831276  0.35072661  1
  O2-  O235  1  0.37526051  0.25027602  0.84916614  1
  O2-  O236  1  0.37504460  0.50241860  0.35627499  1
  O2-  O237  1  0.37524056  0.50096034  0.84735083  1
  O2-  O238  1  0.37547471  0.74888338  0.34728861  1
  O2-  O239  1  0.37525139  0.75117041  0.84503297  1
  O2-  O240  1  0.62521084  -0.00030575  0.34616357  1
  O2-  O241  1  0.62564334  -0.00073526  0.84979256  1
  O2-  O242  1  0.62570514  0.25214693  0.35152237  1
  O2-  O243  1  0.62486278  0.24990129  0.84189066  1
  O2-  O244  1  0.62604408  0.49927245  0.35281287  1
  O2-  O245  1  0.62463147  0.49820020  0.84168914  1
  O2-  O246  1  0.62480281  0.74803538  0.34430144  1
  O2-  O247  1  0.62585309  0.75285021  0.85090275  1
  O2-  O248  1  0.87499818  -0.00122213  0.34462589  1
  O2-  O249  1  0.87446942  -0.00215143  0.85186429  1
  O2-  O250  1  0.87461063  0.25041639  0.35121330  1
  O2-  O251  1  0.87455485  0.25065426  0.84430378  1
  O2-  O252  1  0.87442367  0.49800520  0.35421456  1
  O2-  O253  1  0.87502499  0.50042469  0.84006816  1
  O2-  O254  1  0.87510046  0.75208082  0.34850164  1
  O2-  O255  1  0.87459694  0.75111803  0.84806839  1
  O2-  O256  1  0.00029754  0.12481392  0.34547578  1
  O2-  O257  1  0.00027873  0.12434622  0.84695871  1
  O2-  O258  1  -0.00228397  0.37500412  0.34996665  1
  O2-  O259  1  -0.00224567  0.37486096  0.84455375  1
  O2-  O260  1  0.00095214  0.62454377  0.34910240  1
  O2-  O261  1  -0.00011565  0.62588112  0.84193962  1
  O2-  O262  1  -0.00261197  0.87494349  0.34975247  1
  O2-  O263  1  -0.00143793  0.87516786  0.84576467  1
  O2-  O264  1  0.25019916  0.12527039  0.34375771  1
  O2-  O265  1  0.25017803  0.12476413  0.84757719  1
  O2-  O266  1  0.24882087  0.37467381  0.35122646  1
  O2-  O267  1  0.25197796  0.37573470  0.85009176  1
  O2-  O268  1  0.25167288  0.62489410  0.34939042  1
  O2-  O269  1  0.24912135  0.62547037  0.84532981  1
  O2-  O270  1  0.25199404  0.87446768  0.34560407  1
  O2-  O271  1  0.24900266  0.87478662  0.84572774  1
  O2-  O272  1  0.49798981  0.12447843  0.34681308  1
  O2-  O273  1  0.50019911  0.12501615  0.84851171  1
  O2-  O274  1  0.50336586  0.37545719  0.35146251  1
  O2-  O275  1  0.50053564  0.37547722  0.84675045  1
  O2-  O276  1  0.49868408  0.62445095  0.34924902  1
  O2-  O277  1  0.49822840  0.62515460  0.84878131  1
  O2-  O278  1  0.49802041  0.87467924  0.34404363  1
  O2-  O279  1  0.50163667  0.87462626  0.85093587  1
  O2-  O280  1  0.75170208  0.12417588  0.34924268  1
  O2-  O281  1  0.74924443  0.12423459  0.84624935  1
  O2-  O282  1  0.75011061  0.37486247  0.35228868  1
  O2-  O283  1  0.75029829  0.37500093  0.83871482  1
  O2-  O284  1  0.74897953  0.62552039  0.34932287  1
  O2-  O285  1  0.75253645  0.62555318  0.84478885  1
  O2-  O286  1  0.75258164  0.87464040  0.34908619  1
  O2-  O287  1  0.75027022  0.87535957  0.85102348  1
