# generated using pymatgen
data_BaYFeCuO5
_symmetry_space_group_name_H-M   'P 1'
_cell_length_a   15.66399097
_cell_length_b   15.67085035
_cell_length_c   15.48354845
_cell_angle_alpha   90.00003908
_cell_angle_beta   89.99878463
_cell_angle_gamma   89.99545258
_symmetry_Int_Tables_number   1
_chemical_formula_structural   BaYFeCuO5
_chemical_formula_sum   'Ba32 Y32 Fe32 Cu32 O160'
_cell_volume   3800.71656130
_cell_formula_units_Z   32
loop_
 _symmetry_equiv_pos_site_id
 _symmetry_equiv_pos_as_xyz
  1  'x, y, z'
loop_
 _atom_type_symbol
 _atom_type_oxidation_number
  Ba2+  2.0
  Y3+  3.0
  Fe3+  3.0
  Cu2+  2.0
  O2-  -2.0
loop_
 _atom_site_type_symbol
 _atom_site_label
 _atom_site_symmetry_multiplicity
 _atom_site_fract_x
 _atom_site_fract_y
 _atom_site_fract_z
 _atom_site_occupancy
  Ba2+  Ba0  1  -0.00543573  0.00667176  0.00596141  1
  Ba2+  Ba1  1  0.00395241  0.00448805  0.52332603  1
  Ba2+  Ba2  1  -0.00177442  0.24815448  0.01095551  1
  Ba2+  Ba3  1  -0.00099722  0.25162887  0.52604410  1
  Ba2+  Ba4  1  0.00120699  0.49966457  0.01658860  1
  Ba2+  Ba5  1  -0.00243527  0.50130597  0.52051366  1
  Ba2+  Ba6  1  -0.00300478  0.74522165  0.01258549  1
  Ba2+  Ba7  1  0.00225232  0.74287086  0.51749538  1
  Ba2+  Ba8  1  0.25556590  0.00288082  0.01726597  1
  Ba2+  Ba9  1  0.24501949  -0.00477988  0.51271558  1
  Ba2+  Ba10  1  0.25125268  0.25204618  0.02093051  1
  Ba2+  Ba11  1  0.23973963  0.25022736  0.51619702  1
  Ba2+  Ba12  1  0.25201689  0.49697453  0.01247559  1
  Ba2+  Ba13  1  0.24489213  0.50499254  0.51308695  1
  Ba2+  Ba14  1  0.25660643  0.74782300  0.00592611  1
  Ba2+  Ba15  1  0.25026389  0.74903385  0.50512840  1
  Ba2+  Ba16  1  0.49498415  -0.00486590  0.01779023  1
  Ba2+  Ba17  1  0.50134175  -0.01134347  0.50138537  1
  Ba2+  Ba18  1  0.49622694  0.25791095  0.01298798  1
  Ba2+  Ba19  1  0.50654129  0.25708481  0.50646827  1
  Ba2+  Ba20  1  0.49550829  0.49264519  0.00215733  1
  Ba2+  Ba21  1  0.50682372  0.50354781  0.50724823  1
  Ba2+  Ba22  1  0.49429988  0.75522181  0.00737064  1
  Ba2+  Ba23  1  0.50133485  0.75027393  0.50012873  1
  Ba2+  Ba24  1  0.75600548  -0.00035803  0.00571535  1
  Ba2+  Ba25  1  0.74819288  -0.00348780  0.51089236  1
  Ba2+  Ba26  1  0.75381931  0.25391727  0.00075140  1
  Ba2+  Ba27  1  0.75385430  0.25715646  0.51716086  1
  Ba2+  Ba28  1  0.75043960  0.49362958  0.00678062  1
  Ba2+  Ba29  1  0.75115877  0.50054018  0.51705995  1
  Ba2+  Ba30  1  0.75236898  0.75286341  0.01293504  1
  Ba2+  Ba31  1  0.74646312  0.74456149  0.51214194  1
  Y3+  Y32  1  -0.00052008  0.00241580  0.25266148  1
  Y3+  Y33  1  -0.00168061  0.00128442  0.75964457  1
  Y3+  Y34  1  0.00020402  0.24882036  0.25162701  1
  Y3+  Y35  1  -0.00296562  0.24988491  0.75922898  1
  Y3+  Y36  1  -0.00054801  0.50192707  0.25558692  1
  Y3+  Y37  1  -0.00133188  0.49992722  0.75559291  1
  Y3+  Y38  1  -0.00115950  0.74649206  0.25702892  1
  Y3+  Y39  1  -0.00025046  0.74912015  0.75649569  1
  Y3+  Y40  1  0.25225735  -0.00020044  0.25579677  1
  Y3+  Y41  1  0.24933506  -0.00151943  0.75828950  1
  Y3+  Y42  1  0.25023732  0.25039468  0.25436547  1
  Y3+  Y43  1  0.24923628  0.25122395  0.75675860  1
  Y3+  Y44  1  0.24977862  0.49959752  0.25505488  1
  Y3+  Y45  1  0.25124015  0.49995940  0.75946908  1
  Y3+  Y46  1  0.25207711  0.75003974  0.25614720  1
  Y3+  Y47  1  0.25071959  0.75058366  0.75947729  1
  Y3+  Y48  1  0.50005319  -0.00339568  0.25793619  1
  Y3+  Y49  1  0.50051062  -0.00205393  0.75699212  1
  Y3+  Y50  1  0.50110559  0.25310274  0.25664284  1
  Y3+  Y51  1  0.50231990  0.25351000  0.75894089  1
  Y3+  Y52  1  0.50118820  0.49751673  0.25684254  1
  Y3+  Y53  1  0.50086059  0.49758946  0.75997616  1
  Y3+  Y54  1  0.49953600  0.75248983  0.25809733  1
  Y3+  Y55  1  0.49997484  0.75079307  0.75877102  1
  Y3+  Y56  1  0.74893353  -0.00073869  0.25744859  1
  Y3+  Y57  1  0.75137295  0.00041561  0.75710734  1
  Y3+  Y58  1  0.74901120  0.25162715  0.25570482  1
  Y3+  Y59  1  0.75106117  0.25245909  0.75875953  1
  Y3+  Y60  1  0.75022795  0.49980984  0.25838334  1
  Y3+  Y61  1  0.74860768  0.49812217  0.75653296  1
  Y3+  Y62  1  0.75025278  0.74936806  0.26020087  1
  Y3+  Y63  1  0.74907482  0.74938945  0.75493195  1
  Fe3+  Fe64  1  0.12588225  0.12563020  0.87711749  1
  Fe3+  Fe65  1  0.37370049  0.37589607  0.38025009  1
  Fe3+  Fe66  1  0.87596767  0.12581230  0.37828623  1
  Fe3+  Fe67  1  0.62586546  0.12566084  0.37971754  1
  Fe3+  Fe68  1  0.62550391  0.62407911  0.37458988  1
  Fe3+  Fe69  1  0.12448433  0.37482641  0.87661910  1
  Fe3+  Fe70  1  0.12328953  0.87548786  0.37522607  1
  Fe3+  Fe71  1  0.12320736  0.37457837  0.37578398  1
  Fe3+  Fe72  1  0.62430244  0.12514637  0.87982359  1
  Fe3+  Fe73  1  0.37560036  0.12560669  0.87600728  1
  Fe3+  Fe74  1  0.62564349  0.87551607  0.87758009  1
  Fe3+  Fe75  1  0.87423600  0.62452306  0.87643677  1
  Fe3+  Fe76  1  0.87683929  0.87475351  0.38073798  1
  Fe3+  Fe77  1  0.12420002  0.87511659  0.88004301  1
  Fe3+  Fe78  1  0.37462335  0.12555978  0.38037297  1
  Fe3+  Fe79  1  0.87628411  0.37499528  0.37658247  1
  Fe3+  Fe80  1  0.12388030  0.12536824  0.37468413  1
  Fe3+  Fe81  1  0.12495058  0.62432292  0.37450452  1
  Fe3+  Fe82  1  0.12519380  0.62434634  0.87752667  1
  Fe3+  Fe83  1  0.62435396  0.62498078  0.88021188  1
  Fe3+  Fe84  1  0.37493035  0.87422730  0.63831007  1
  Fe3+  Fe85  1  0.37549652  0.12497729  0.63289540  1
  Fe3+  Fe86  1  0.37636261  0.62434213  0.13902386  1
  Fe3+  Fe87  1  0.12504797  0.87452545  0.13356528  1
  Fe3+  Fe88  1  0.87494237  0.87501844  0.13881440  1
  Fe3+  Fe89  1  0.62451580  0.12483717  0.63506986  1
  Fe3+  Fe90  1  0.37598585  0.62528114  0.63921151  1
  Fe3+  Fe91  1  0.37482387  0.37548749  0.63438923  1
  Fe3+  Fe92  1  0.62521482  0.12518204  0.13497103  1
  Fe3+  Fe93  1  0.87526751  0.87442503  0.63602848  1
  Fe3+  Fe94  1  0.62482456  0.62478780  0.13445842  1
  Fe3+  Fe95  1  0.87465438  0.37515113  0.13730119  1
  Cu2+  Cu96  1  0.87502220  0.87367954  0.86178515  1
  Cu2+  Cu97  1  0.62664318  0.37513252  0.37287850  1
  Cu2+  Cu98  1  0.37544405  0.62474866  0.86479831  1
  Cu2+  Cu99  1  0.87425831  0.12561065  0.87227081  1
  Cu2+  Cu100  1  0.37477418  0.62408113  0.36298096  1
  Cu2+  Cu101  1  0.87601314  0.37648986  0.86320197  1
  Cu2+  Cu102  1  0.62653238  0.87452870  0.37251523  1
  Cu2+  Cu103  1  0.37323988  0.37336222  0.87103410  1
  Cu2+  Cu104  1  0.87573329  0.62423075  0.37405994  1
  Cu2+  Cu105  1  0.37346472  0.87502742  0.36336058  1
  Cu2+  Cu106  1  0.62517620  0.37471821  0.87361137  1
  Cu2+  Cu107  1  0.37463138  0.87656460  0.87343497  1
  Cu2+  Cu108  1  0.87279675  0.12524735  0.14106610  1
  Cu2+  Cu109  1  0.12461351  0.37528031  0.14883674  1
  Cu2+  Cu110  1  0.87397393  0.62509460  0.64221948  1
  Cu2+  Cu111  1  0.62313465  0.62500439  0.65504449  1
  Cu2+  Cu112  1  0.62429696  0.37546518  0.64221417  1
  Cu2+  Cu113  1  0.62416009  0.87439291  0.64083683  1
  Cu2+  Cu114  1  0.12663918  0.62528497  0.65477693  1
  Cu2+  Cu115  1  0.62564947  0.37557059  0.14120618  1
  Cu2+  Cu116  1  0.37481655  0.87401457  0.14418573  1
  Cu2+  Cu117  1  0.87376096  0.62482276  0.14967882  1
  Cu2+  Cu118  1  0.12566620  0.12497270  0.65467648  1
  Cu2+  Cu119  1  0.37533056  0.37584476  0.14541141  1
  Cu2+  Cu120  1  0.12540619  0.37592076  0.65262096  1
  Cu2+  Cu121  1  0.62558219  0.87436557  0.15009138  1
  Cu2+  Cu122  1  0.12585529  0.62573202  0.14730777  1
  Cu2+  Cu123  1  0.37701621  0.12539055  0.15460399  1
  Cu2+  Cu124  1  0.12518201  0.87425513  0.65390948  1
  Cu2+  Cu125  1  0.87492559  0.37547803  0.65450039  1
  Cu2+  Cu126  1  0.87403624  0.12488835  0.65138837  1
  Cu2+  Cu127  1  0.12568327  0.12426295  0.14602790  1
  O2-  O128  1  0.12760256  0.12536586  -0.00302269  1
  O2-  O129  1  0.12346578  0.12487318  0.49467041  1
  O2-  O130  1  0.12529099  0.37446877  -0.00324952  1
  O2-  O131  1  0.12297385  0.37503180  0.49585937  1
  O2-  O132  1  0.12471754  0.62462920  -0.00271505  1
  O2-  O133  1  0.12472776  0.62486876  0.49494941  1
  O2-  O134  1  0.12473227  0.87500750  0.00637007  1
  O2-  O135  1  0.12319648  0.87556201  0.49525435  1
  O2-  O136  1  0.37559173  0.12611648  -0.00398414  1
  O2-  O137  1  0.37415410  0.12435433  0.50639831  1
  O2-  O138  1  0.37299773  0.37412144  0.00689317  1
  O2-  O139  1  0.37349305  0.37645084  0.50724727  1
  O2-  O140  1  0.37641817  0.62394139  0.01843244  1
  O2-  O141  1  0.37515898  0.62606160  0.51911958  1
  O2-  O142  1  0.37416746  0.87616630  0.00776397  1
  O2-  O143  1  0.37328106  0.87311796  0.51766262  1
  O2-  O144  1  0.62392756  0.12442515  0.00698500  1
  O2-  O145  1  0.62559286  0.12504828  0.50708185  1
  O2-  O146  1  0.62508768  0.37433958  0.00680317  1
  O2-  O147  1  0.62603028  0.37579429  0.50815211  1
  O2-  O148  1  0.62455978  0.62538491  0.00689775  1
  O2-  O149  1  0.62573544  0.62470199  0.49581966  1
  O2-  O150  1  0.62593178  0.87636173  -0.00224767  1
  O2-  O151  1  0.62564725  0.87398741  0.50694569  1
  O2-  O152  1  0.87343851  0.12508585  0.00604217  1
  O2-  O153  1  0.87774456  0.12610518  0.49801454  1
  O2-  O154  1  0.87561430  0.37547422  0.01617667  1
  O2-  O155  1  0.87753937  0.37444280  0.49711797  1
  O2-  O156  1  0.87448675  0.62515781  -0.00315468  1
  O2-  O157  1  0.87572223  0.62495201  0.50810528  1
  O2-  O158  1  0.87487112  0.87444937  0.01798391  1
  O2-  O159  1  0.87797800  0.87534308  0.50754936  1
  O2-  O160  1  0.12555187  -0.00176163  0.16109439  1
  O2-  O161  1  0.12514449  0.00000768  0.66546657  1
  O2-  O162  1  0.12591055  0.24928673  0.16218737  1
  O2-  O163  1  0.12579745  0.25024595  0.66230460  1
  O2-  O164  1  0.12536267  0.50052959  0.16272577  1
  O2-  O165  1  0.12591431  0.50036546  0.66396941  1
  O2-  O166  1  0.12432352  0.75203782  0.16215141  1
  O2-  O167  1  0.12573518  0.74972300  0.66688797  1
  O2-  O168  1  0.37604711  0.00070858  0.16657868  1
  O2-  O169  1  0.37455417  0.00115489  0.66284465  1
  O2-  O170  1  0.37601810  0.24953327  0.16804461  1
  O2-  O171  1  0.37415054  0.24988085  0.65687389  1
  O2-  O172  1  0.37510535  0.50154296  0.16862903  1
  O2-  O173  1  0.37470879  0.49879502  0.66544149  1
  O2-  O174  1  0.37552206  0.74805843  0.16711681  1
  O2-  O175  1  0.37465009  0.75014879  0.67119299  1
  O2-  O176  1  0.62440822  0.00072906  0.16463624  1
  O2-  O177  1  0.62452204  0.00321648  0.66396383  1
  O2-  O178  1  0.62418725  0.24804558  0.16459063  1
  O2-  O179  1  0.62474374  0.24691785  0.66366153  1
  O2-  O180  1  0.62542983  0.50269562  0.16264633  1
  O2-  O181  1  0.62380889  0.50147390  0.66671690  1
  O2-  O182  1  0.62522644  0.74860222  0.16188080  1
  O2-  O183  1  0.62399647  0.74822787  0.66763616  1
  O2-  O184  1  0.87401912  -0.00149734  0.16740952  1
  O2-  O185  1  0.87544559  -0.00174905  0.66389123  1
  O2-  O186  1  0.87464708  0.25143714  0.16422306  1
  O2-  O187  1  0.87460103  0.25026923  0.66468802  1
  O2-  O188  1  0.87514252  0.50011932  0.16455073  1
  O2-  O189  1  0.87440272  0.49936817  0.66508356  1
  O2-  O190  1  0.87516918  0.75020110  0.16722655  1
  O2-  O191  1  0.87507178  0.75237006  0.66413610  1
  O2-  O192  1  0.00051774  0.12435847  0.15978903  1
  O2-  O193  1  0.00023183  0.12453131  0.66571674  1
  O2-  O194  1  -0.00027570  0.37517954  0.16227661  1
  O2-  O195  1  0.00033183  0.37525589  0.66428185  1
  O2-  O196  1  -0.00006942  0.62557089  0.16089525  1
  O2-  O197  1  0.00249638  0.62569210  0.66426640  1
  O2-  O198  1  0.00116437  0.87524433  0.16323571  1
  O2-  O199  1  -0.00063478  0.87485393  0.66441066  1
  O2-  O200  1  0.25175181  0.12470646  0.16479078  1
  O2-  O201  1  0.25203268  0.12470988  0.66075095  1
  O2-  O202  1  0.24857130  0.37481968  0.16553790  1
  O2-  O203  1  0.25193838  0.37498843  0.66173465  1
  O2-  O204  1  0.25094828  0.62536537  0.16603012  1
  O2-  O205  1  0.25129366  0.62501269  0.66711524  1
  O2-  O206  1  0.24722655  0.87524205  0.16376096  1
  O2-  O207  1  0.25040327  0.87534215  0.66703052  1
  O2-  O208  1  0.50240766  0.12461113  0.16820341  1
  O2-  O209  1  0.49901977  0.12542736  0.66282185  1
  O2-  O210  1  0.50024032  0.37500978  0.16817461  1
  O2-  O211  1  0.49618849  0.37429462  0.66518464  1
  O2-  O212  1  0.50178076  0.62519190  0.16770450  1
  O2-  O213  1  0.49931119  0.62451954  0.66996166  1
  O2-  O214  1  0.50132306  0.87504624  0.16678519  1
  O2-  O215  1  0.49768772  0.87553829  0.66719329  1
  O2-  O216  1  0.74623636  0.12421281  0.16670828  1
  O2-  O217  1  0.74827601  0.12460611  0.66417720  1
  O2-  O218  1  0.75191325  0.37531682  0.16638139  1
  O2-  O219  1  0.75079192  0.37502566  0.66590011  1
  O2-  O220  1  0.74793072  0.62609611  0.16328901  1
  O2-  O221  1  0.74654042  0.62523141  0.66531145  1
  O2-  O222  1  0.75076190  0.87432192  0.16860262  1
  O2-  O223  1  0.75238681  0.87523607  0.66238958  1
  O2-  O224  1  0.12524771  0.00073950  0.34251106  1
  O2-  O225  1  0.12423375  -0.00087927  0.84923169  1
  O2-  O226  1  0.12564001  0.24956466  0.34332228  1
  O2-  O227  1  0.12464867  0.24973834  0.84453050  1
  O2-  O228  1  0.12587194  0.49935055  0.34432040  1
  O2-  O229  1  0.12529265  0.50034522  0.84604513  1
  O2-  O230  1  0.12553807  0.75022235  0.34418570  1
  O2-  O231  1  0.12466547  0.75065966  0.85029838  1
  O2-  O232  1  0.37494604  0.00221197  0.35104793  1
  O2-  O233  1  0.37529546  0.00267000  0.84349344  1
  O2-  O234  1  0.37497848  0.25021787  0.35241013  1
  O2-  O235  1  0.37534668  0.24693233  0.83943570  1
  O2-  O236  1  0.37439290  0.49758588  0.35077619  1
  O2-  O237  1  0.37503305  0.50116398  0.84882313  1
  O2-  O238  1  0.37437978  0.74995660  0.35006677  1
  O2-  O239  1  0.37485013  0.74904550  0.85305235  1
  O2-  O240  1  0.62474037  0.00324690  0.34995680  1
  O2-  O241  1  0.62560197  0.00111922  0.84696559  1
  O2-  O242  1  0.62494314  0.24699079  0.34887426  1
  O2-  O243  1  0.62523076  0.24742487  0.84831121  1
  O2-  O244  1  0.62459920  0.50105459  0.34488622  1
  O2-  O245  1  0.62418954  0.50271538  0.85112027  1
  O2-  O246  1  0.62469649  0.74823293  0.34538473  1
  O2-  O247  1  0.62497971  0.74904425  0.85036759  1
  O2-  O248  1  0.87545659  -0.00030793  0.34890667  1
  O2-  O249  1  0.87439944  -0.00203490  0.84802290  1
  O2-  O250  1  0.87504831  0.24950387  0.34380538  1
  O2-  O251  1  0.87453146  0.25236815  0.84890672  1
  O2-  O252  1  0.87580274  0.49808590  0.34619523  1
  O2-  O253  1  0.87459575  0.50134662  0.84712485  1
  O2-  O254  1  0.87599896  0.75261387  0.35067936  1
  O2-  O255  1  0.87468591  0.74844567  0.84636803  1
  O2-  O256  1  -0.00006913  0.12481314  0.34088771  1
  O2-  O257  1  0.00149826  0.12461314  0.84921850  1
  O2-  O258  1  0.00053526  0.37430743  0.34135346  1
  O2-  O259  1  0.00083653  0.37554132  0.84688843  1
  O2-  O260  1  0.00231202  0.62498512  0.34388146  1
  O2-  O261  1  0.00005795  0.62547104  0.84595692  1
  O2-  O262  1  -0.00075567  0.87553044  0.34365835  1
  O2-  O263  1  0.00141333  0.87473852  0.84956086  1
  O2-  O264  1  0.25101570  0.12509638  0.34819943  1
  O2-  O265  1  0.24938979  0.12464402  0.84272409  1
  O2-  O266  1  0.25025344  0.37415428  0.34852548  1
  O2-  O267  1  0.24756104  0.37443474  0.84390257  1
  O2-  O268  1  0.24994442  0.62524023  0.34801420  1
  O2-  O269  1  0.25015566  0.62551404  0.84918349  1
  O2-  O270  1  0.24855544  0.87559021  0.34687868  1
  O2-  O271  1  0.24636323  0.87538471  0.84974231  1
  O2-  O272  1  0.49952127  0.12535426  0.35419793  1
  O2-  O273  1  0.50185832  0.12484541  0.84612871  1
  O2-  O274  1  0.49742322  0.37427781  0.35259505  1
  O2-  O275  1  0.49943665  0.37407845  0.84889109  1
  O2-  O276  1  0.49952831  0.62467787  0.34986032  1
  O2-  O277  1  0.50068309  0.62546049  0.85288809  1
  O2-  O278  1  0.49831095  0.87534985  0.35143718  1
  O2-  O279  1  0.50239415  0.87562426  0.84766320  1
  O2-  O280  1  0.74993473  0.12445456  0.34941142  1
  O2-  O281  1  0.74696754  0.12457987  0.84985321  1
  O2-  O282  1  0.75220192  0.37435794  0.34710931  1
  O2-  O283  1  0.75167978  0.37542921  0.84982985  1
  O2-  O284  1  0.74900060  0.62512727  0.34621531  1
  O2-  O285  1  0.74820066  0.62535266  0.84861586  1
  O2-  O286  1  0.75397839  0.87586477  0.35160224  1
  O2-  O287  1  0.74929353  0.87492660  0.84557292  1
