# generated using pymatgen
data_BaYFeCuO5
_symmetry_space_group_name_H-M   'P 1'
_cell_length_a   15.66905976
_cell_length_b   15.66788278
_cell_length_c   15.48046346
_cell_angle_alpha   90.00139442
_cell_angle_beta   89.99903639
_cell_angle_gamma   90.00574050
_symmetry_Int_Tables_number   1
_chemical_formula_structural   BaYFeCuO5
_chemical_formula_sum   'Ba32 Y32 Fe32 Cu32 O160'
_cell_volume   3800.46910981
_cell_formula_units_Z   32
loop_
 _symmetry_equiv_pos_site_id
 _symmetry_equiv_pos_as_xyz
  1  'x, y, z'
loop_
 _atom_type_symbol
 _atom_type_oxidation_number
  Ba2+  2.0
  Y3+  3.0
  Fe3+  3.0
  Cu2+  2.0
  O2-  -2.0
loop_
 _atom_site_type_symbol
 _atom_site_label
 _atom_site_symmetry_multiplicity
 _atom_site_fract_x
 _atom_site_fract_y
 _atom_site_fract_z
 _atom_site_occupancy
  Ba2+  Ba0  1  0.00307764  -0.00149510  0.01372948  1
  Ba2+  Ba1  1  0.00432942  -0.00393137  0.51226011  1
  Ba2+  Ba2  1  0.00184394  0.25427516  0.01759898  1
  Ba2+  Ba3  1  0.00086926  0.25037821  0.50621042  1
  Ba2+  Ba4  1  -0.00310176  0.48941973  0.01072580  1
  Ba2+  Ba5  1  0.00006929  0.50639952  0.50553464  1
  Ba2+  Ba6  1  -0.00183619  0.75839974  0.00612509  1
  Ba2+  Ba7  1  0.00229723  0.74700164  0.51243460  1
  Ba2+  Ba8  1  0.24107965  0.00191533  0.01912793  1
  Ba2+  Ba9  1  0.24913554  -0.00030933  0.50696294  1
  Ba2+  Ba10  1  0.24749481  0.25487749  0.01811091  1
  Ba2+  Ba11  1  0.25205709  0.24724144  0.51189674  1
  Ba2+  Ba12  1  0.25250722  0.48949249  0.01049594  1
  Ba2+  Ba13  1  0.24808236  0.50350252  0.51226348  1
  Ba2+  Ba14  1  0.24626228  0.75383690  0.01186196  1
  Ba2+  Ba15  1  0.24429079  0.74970159  0.50629323  1
  Ba2+  Ba16  1  0.51025501  -0.00096053  0.01238009  1
  Ba2+  Ba17  1  0.49309566  -0.00259955  0.49580910  1
  Ba2+  Ba18  1  0.50149958  0.25578347  0.01661497  1
  Ba2+  Ba19  1  0.49360703  0.25267519  0.51645159  1
  Ba2+  Ba20  1  0.50237155  0.49372414  0.01382712  1
  Ba2+  Ba21  1  0.50012093  0.50101799  0.52619058  1
  Ba2+  Ba22  1  0.51013705  0.75173049  0.01125475  1
  Ba2+  Ba23  1  0.50043071  0.74855226  0.50659522  1
  Ba2+  Ba24  1  0.74570566  -0.00537710  0.00660615  1
  Ba2+  Ba25  1  0.75437046  -0.00473273  0.50202315  1
  Ba2+  Ba26  1  0.74888044  0.25495885  0.01728938  1
  Ba2+  Ba27  1  0.75271336  0.25588167  0.51227356  1
  Ba2+  Ba28  1  0.74782595  0.49412949  0.01546565  1
  Ba2+  Ba29  1  0.75160707  0.50299079  0.52126875  1
  Ba2+  Ba30  1  0.74489674  0.75595861  0.00670633  1
  Ba2+  Ba31  1  0.75357387  0.74563314  0.51263720  1
  Y3+  Y32  1  0.00172497  -0.00010301  0.26002060  1
  Y3+  Y33  1  0.00021466  -0.00178981  0.75508503  1
  Y3+  Y34  1  0.00050107  0.25205245  0.25739090  1
  Y3+  Y35  1  -0.00147770  0.25128206  0.75685950  1
  Y3+  Y36  1  0.00024027  0.49984773  0.25927183  1
  Y3+  Y37  1  -0.00244364  0.50034684  0.75501207  1
  Y3+  Y38  1  0.00145183  0.74817871  0.26231765  1
  Y3+  Y39  1  -0.00084303  0.75027816  0.75296418  1
  Y3+  Y40  1  0.24943305  -0.00044863  0.26198143  1
  Y3+  Y41  1  0.24923926  0.00159106  0.75270451  1
  Y3+  Y42  1  0.24966193  0.25142436  0.25869721  1
  Y3+  Y43  1  0.25268376  0.24975557  0.75513706  1
  Y3+  Y44  1  0.24795344  0.49839023  0.25731032  1
  Y3+  Y45  1  0.25139308  0.49980073  0.75668605  1
  Y3+  Y46  1  0.24747199  0.75066521  0.26062733  1
  Y3+  Y47  1  0.24773133  0.74890439  0.75412538  1
  Y3+  Y48  1  0.50092111  -0.00048900  0.25861352  1
  Y3+  Y49  1  0.49961938  0.00077604  0.75791941  1
  Y3+  Y50  1  0.49908982  0.24922183  0.25726165  1
  Y3+  Y51  1  0.49660980  0.25144945  0.75577149  1
  Y3+  Y52  1  0.50074459  0.49901221  0.25203398  1
  Y3+  Y53  1  0.49849000  0.49864514  0.75850751  1
  Y3+  Y54  1  0.50285857  0.75170027  0.25607244  1
  Y3+  Y55  1  0.50167513  0.74940779  0.75889471  1
  Y3+  Y56  1  0.74805510  -0.00026422  0.25769978  1
  Y3+  Y57  1  0.75069955  -0.00257680  0.75927998  1
  Y3+  Y58  1  0.75042235  0.24995632  0.25717850  1
  Y3+  Y59  1  0.75190338  0.25273909  0.75650189  1
  Y3+  Y60  1  0.75099521  0.50056268  0.25555089  1
  Y3+  Y61  1  0.75239200  0.49946747  0.75639475  1
  Y3+  Y62  1  0.74852355  0.74935643  0.25790857  1
  Y3+  Y63  1  0.75172466  0.75051021  0.75734224  1
  Fe3+  Fe64  1  0.37461748  0.87599947  0.88158264  1
  Fe3+  Fe65  1  0.87446116  0.37601969  0.37655327  1
  Fe3+  Fe66  1  0.12446118  0.62431344  0.88021205  1
  Fe3+  Fe67  1  0.62527269  0.12647270  0.87721903  1
  Fe3+  Fe68  1  0.37606849  0.62400865  0.37444113  1
  Fe3+  Fe69  1  0.62580347  0.62396083  0.87704491  1
  Fe3+  Fe70  1  0.12494013  0.12587425  0.87655645  1
  Fe3+  Fe71  1  0.87548679  0.87388852  0.37690460  1
  Fe3+  Fe72  1  0.87528898  0.62488469  0.88026645  1
  Fe3+  Fe73  1  0.62496169  0.62338499  0.37564300  1
  Fe3+  Fe74  1  0.62523181  0.37416004  0.87358616  1
  Fe3+  Fe75  1  0.87538616  0.12515126  0.88082262  1
  Fe3+  Fe76  1  0.12562833  0.87572041  0.87476352  1
  Fe3+  Fe77  1  0.62521517  0.12607645  0.37997024  1
  Fe3+  Fe78  1  0.37470364  0.62508463  0.88081071  1
  Fe3+  Fe79  1  0.37432033  0.12520154  0.88168850  1
  Fe3+  Fe80  1  0.12466200  0.12608094  0.37601209  1
  Fe3+  Fe81  1  0.37533963  0.37642390  0.37622124  1
  Fe3+  Fe82  1  0.12502426  0.37425592  0.87503269  1
  Fe3+  Fe83  1  0.62402699  0.37652743  0.37730140  1
  Fe3+  Fe84  1  0.37467263  0.87514154  0.13577442  1
  Fe3+  Fe85  1  0.87475013  0.12447909  0.63681271  1
  Fe3+  Fe86  1  0.87529851  0.87478476  0.13918185  1
  Fe3+  Fe87  1  0.12458014  0.37514643  0.63639166  1
  Fe3+  Fe88  1  0.62485276  0.87539905  0.63730397  1
  Fe3+  Fe89  1  0.37469183  0.12466370  0.13589526  1
  Fe3+  Fe90  1  0.12409636  0.62459869  0.13395153  1
  Fe3+  Fe91  1  0.62483191  0.12460308  0.63421240  1
  Fe3+  Fe92  1  0.37503965  0.62525026  0.13322299  1
  Fe3+  Fe93  1  0.87493647  0.62551729  0.13419060  1
  Fe3+  Fe94  1  0.87507341  0.12435123  0.13622077  1
  Fe3+  Fe95  1  0.37526045  0.87414167  0.63875500  1
  Cu2+  Cu96  1  0.12460578  0.87465788  0.37365482  1
  Cu2+  Cu97  1  0.87485808  0.12537015  0.36449506  1
  Cu2+  Cu98  1  0.87501315  0.37438749  0.87338712  1
  Cu2+  Cu99  1  0.62538945  0.87425091  0.36591999  1
  Cu2+  Cu100  1  0.62455573  0.87517208  0.87043708  1
  Cu2+  Cu101  1  0.37501330  0.87360499  0.36119538  1
  Cu2+  Cu102  1  0.87587571  0.87519965  0.86397785  1
  Cu2+  Cu103  1  0.12532604  0.37537757  0.36700540  1
  Cu2+  Cu104  1  0.37472967  0.37406433  0.87306114  1
  Cu2+  Cu105  1  0.87410037  0.62460032  0.37145849  1
  Cu2+  Cu106  1  0.37488590  0.12609772  0.37219842  1
  Cu2+  Cu107  1  0.12542522  0.62404160  0.37072840  1
  Cu2+  Cu108  1  0.12461252  0.87406638  0.15492521  1
  Cu2+  Cu109  1  0.12481764  0.62411515  0.64386939  1
  Cu2+  Cu110  1  0.12538683  0.87465957  0.64185815  1
  Cu2+  Cu111  1  0.37404675  0.37583662  0.65099595  1
  Cu2+  Cu112  1  0.87587199  0.37514646  0.64848025  1
  Cu2+  Cu113  1  0.12469465  0.37589213  0.15358724  1
  Cu2+  Cu114  1  0.37479287  0.37483984  0.14221295  1
  Cu2+  Cu115  1  0.62524911  0.12480307  0.15052071  1
  Cu2+  Cu116  1  0.12442195  0.12571964  0.65009871  1
  Cu2+  Cu117  1  0.37520008  0.62617495  0.65429893  1
  Cu2+  Cu118  1  0.12475075  0.12544406  0.15306458  1
  Cu2+  Cu119  1  0.87519491  0.37508431  0.14330694  1
  Cu2+  Cu120  1  0.87460282  0.87522126  0.65061390  1
  Cu2+  Cu121  1  0.37568941  0.12337571  0.64056309  1
  Cu2+  Cu122  1  0.62506853  0.37497703  0.65035824  1
  Cu2+  Cu123  1  0.62579260  0.87542301  0.14630375  1
  Cu2+  Cu124  1  0.62559110  0.62517608  0.14646879  1
  Cu2+  Cu125  1  0.62531114  0.37438394  0.15362048  1
  Cu2+  Cu126  1  0.62512938  0.62556459  0.65373121  1
  Cu2+  Cu127  1  0.87548090  0.62526167  0.64344914  1
  O2-  O128  1  0.12486258  0.12585153  -0.00343814  1
  O2-  O129  1  0.12460563  0.12567097  0.49670154  1
  O2-  O130  1  0.12479431  0.37339967  -0.00391036  1
  O2-  O131  1  0.12527319  0.37559343  0.51565297  1
  O2-  O132  1  0.12401380  0.62504580  0.00667783  1
  O2-  O133  1  0.12610048  0.62421314  0.50757189  1
  O2-  O134  1  0.12505508  0.87624543  -0.00446214  1
  O2-  O135  1  0.12574388  0.87482651  0.50712989  1
  O2-  O136  1  0.37419153  0.12481612  0.00762160  1
  O2-  O137  1  0.37584371  0.12460584  0.50652953  1
  O2-  O138  1  0.37512680  0.37327529  0.00686033  1
  O2-  O139  1  0.37621823  0.37771786  0.49636578  1
  O2-  O140  1  0.37449373  0.62506111  0.00668676  1
  O2-  O141  1  0.37710017  0.62395647  0.49445121  1
  O2-  O142  1  0.37390315  0.87700302  0.00822238  1
  O2-  O143  1  0.37626417  0.87297657  0.51831276  1
  O2-  O144  1  0.62574059  0.12744972  -0.00259921  1
  O2-  O145  1  0.62471490  0.12441875  0.50711299  1
  O2-  O146  1  0.62553524  0.37302659  -0.00545315  1
  O2-  O147  1  0.62362929  0.37750609  0.49674310  1
  O2-  O148  1  0.62615032  0.62370153  -0.00271607  1
  O2-  O149  1  0.62380363  0.62313259  0.49571054  1
  O2-  O150  1  0.62518956  0.87592758  0.00738101  1
  O2-  O151  1  0.62348602  0.87566906  0.51722267  1
  O2-  O152  1  0.87515773  0.12477577  0.00791921  1
  O2-  O153  1  0.87376885  0.12495857  0.51663942  1
  O2-  O154  1  0.87453173  0.37345255  0.00752187  1
  O2-  O155  1  0.87393914  0.37610383  0.49713802  1
  O2-  O156  1  0.87528188  0.62552725  0.00707028  1
  O2-  O157  1  0.87413215  0.62504661  0.50709809  1
  O2-  O158  1  0.87540168  0.87653177  0.01839792  1
  O2-  O159  1  0.87503743  0.87374688  0.49778535  1
  O2-  O160  1  0.12499829  -0.00067226  0.16442904  1
  O2-  O161  1  0.12467126  0.00179470  0.66410732  1
  O2-  O162  1  0.12479211  0.25099785  0.16406911  1
  O2-  O163  1  0.12499629  0.25078708  0.66363756  1
  O2-  O164  1  0.12494982  0.50221149  0.16138766  1
  O2-  O165  1  0.12527661  0.49794634  0.66854446  1
  O2-  O166  1  0.12502081  0.74735484  0.16319766  1
  O2-  O167  1  0.12483442  0.74940293  0.66699413  1
  O2-  O168  1  0.37396814  -0.00018869  0.16350823  1
  O2-  O169  1  0.37579322  -0.00235574  0.66992753  1
  O2-  O170  1  0.37497813  0.24688386  0.16347210  1
  O2-  O171  1  0.37510838  0.25098212  0.66313001  1
  O2-  O172  1  0.37517286  0.50304952  0.15917376  1
  O2-  O173  1  0.37505203  0.50129413  0.66631479  1
  O2-  O174  1  0.37449635  0.75025801  0.15921931  1
  O2-  O175  1  0.37572339  0.75065063  0.67189940  1
  O2-  O176  1  0.62478568  0.00075474  0.16816707  1
  O2-  O177  1  0.62542886  0.00084280  0.66701127  1
  O2-  O178  1  0.62505876  0.25039037  0.16619121  1
  O2-  O179  1  0.62523757  0.24895642  0.65888368  1
  O2-  O180  1  0.62505490  0.49872802  0.15949783  1
  O2-  O181  1  0.62486379  0.50018754  0.66426901  1
  O2-  O182  1  0.62534527  0.74977892  0.16453041  1
  O2-  O183  1  0.62519782  0.75067280  0.66701603  1
  O2-  O184  1  0.87579669  0.00102190  0.16629079  1
  O2-  O185  1  0.87431799  0.00067432  0.66806428  1
  O2-  O186  1  0.87497388  0.24714527  0.16389733  1
  O2-  O187  1  0.87442019  0.24951522  0.66520115  1
  O2-  O188  1  0.87497008  0.50305292  0.16073030  1
  O2-  O189  1  0.87485503  0.49861434  0.66663081  1
  O2-  O190  1  0.87535173  0.74861037  0.16377518  1
  O2-  O191  1  0.87469216  0.75161674  0.66737788  1
  O2-  O192  1  -0.00081511  0.12483476  0.16204103  1
  O2-  O193  1  -0.00102470  0.12511346  0.66728238  1
  O2-  O194  1  0.00103855  0.37539174  0.16536482  1
  O2-  O195  1  0.00037634  0.37464661  0.66630034  1
  O2-  O196  1  0.00013250  0.62505643  0.16282717  1
  O2-  O197  1  -0.00045517  0.62487059  0.66807552  1
  O2-  O198  1  -0.00013771  0.87466559  0.16565626  1
  O2-  O199  1  -0.00127444  0.87526376  0.66417957  1
  O2-  O200  1  0.25075885  0.12468382  0.16247767  1
  O2-  O201  1  0.24868165  0.12494129  0.66494109  1
  O2-  O202  1  0.24861800  0.37524916  0.16470700  1
  O2-  O203  1  0.24981103  0.37534564  0.66607280  1
  O2-  O204  1  0.24950539  0.62556023  0.15992859  1
  O2-  O205  1  0.25138594  0.62503199  0.66844781  1
  O2-  O206  1  0.25083410  0.87452103  0.16306877  1
  O2-  O207  1  0.25154332  0.87453425  0.66793791  1
  O2-  O208  1  0.49822028  0.12403920  0.16269904  1
  O2-  O209  1  0.50369569  0.12521198  0.66685919  1
  O2-  O210  1  0.50212725  0.37414370  0.16182368  1
  O2-  O211  1  0.49888809  0.37525669  0.66481083  1
  O2-  O212  1  0.49870410  0.62595171  0.15878736  1
  O2-  O213  1  0.50023603  0.62567155  0.66749648  1
  O2-  O214  1  0.49713961  0.87566133  0.16296484  1
  O2-  O215  1  0.50079431  0.87455947  0.67167199  1
  O2-  O216  1  0.75166421  0.12457611  0.16427784  1
  O2-  O217  1  0.74848416  0.12535653  0.66641306  1
  O2-  O218  1  0.74820213  0.37425137  0.16423500  1
  O2-  O219  1  0.75059122  0.37505723  0.66334694  1
  O2-  O220  1  0.75156087  0.62523660  0.16167533  1
  O2-  O221  1  0.74924390  0.62527519  0.66622182  1
  O2-  O222  1  0.75219776  0.87565139  0.16726152  1
  O2-  O223  1  0.74906922  0.87512619  0.66695098  1
  O2-  O224  1  0.12510607  0.00183872  0.34800795  1
  O2-  O225  1  0.12549876  0.00038479  0.84514020  1
  O2-  O226  1  0.12482808  0.25013410  0.34746376  1
  O2-  O227  1  0.12497587  0.24907058  0.84352340  1
  O2-  O228  1  0.12513259  0.49894170  0.34567510  1
  O2-  O229  1  0.12523826  0.50179980  0.85041802  1
  O2-  O230  1  0.12560276  0.74921077  0.34791814  1
  O2-  O231  1  0.12539408  0.74873279  0.85032360  1
  O2-  O232  1  0.37539922  -0.00202683  0.34856480  1
  O2-  O233  1  0.37475690  0.00059659  0.85226678  1
  O2-  O234  1  0.37523852  0.25293570  0.34582599  1
  O2-  O235  1  0.37481269  0.24621309  0.84722032  1
  O2-  O236  1  0.37538261  0.49970325  0.33940228  1
  O2-  O237  1  0.37429831  0.50321968  0.85080233  1
  O2-  O238  1  0.37579639  0.74891895  0.34332346  1
  O2-  O239  1  0.37460451  0.75002840  0.85564538  1
  O2-  O240  1  0.62488125  0.00132416  0.35266593  1
  O2-  O241  1  0.62476457  0.00243147  0.84807341  1
  O2-  O242  1  0.62503706  0.24972599  0.34957360  1
  O2-  O243  1  0.62483177  0.24921497  0.84071512  1
  O2-  O244  1  0.62457200  0.49943736  0.34051803  1
  O2-  O245  1  0.62504977  0.50009857  0.84561434  1
  O2-  O246  1  0.62422253  0.74922638  0.34774834  1
  O2-  O247  1  0.62499436  0.74805931  0.84915555  1
  O2-  O248  1  0.87442480  -0.00031827  0.34859137  1
  O2-  O249  1  0.87504052  0.00145037  0.85175725  1
  O2-  O250  1  0.87449987  0.25113897  0.34718521  1
  O2-  O251  1  0.87522503  0.24657313  0.84783141  1
  O2-  O252  1  0.87471310  0.49813156  0.34347160  1
  O2-  O253  1  0.87579570  0.50313059  0.85034626  1
  O2-  O254  1  0.87452188  0.75104775  0.34547224  1
  O2-  O255  1  0.87572439  0.74844077  0.85229416  1
  O2-  O256  1  0.00033228  0.12586169  0.34569398  1
  O2-  O257  1  -0.00077796  0.12415433  0.84972192  1
  O2-  O258  1  -0.00046914  0.37503448  0.34871254  1
  O2-  O259  1  0.00208719  0.37522090  0.84744496  1
  O2-  O260  1  0.00003406  0.62413820  0.34792300  1
  O2-  O261  1  0.00048614  0.62567740  0.85232846  1
  O2-  O262  1  -0.00169249  0.87499142  0.34698253  1
  O2-  O263  1  0.00159733  0.87473882  0.84750558  1
  O2-  O264  1  0.24842384  0.12536650  0.34601659  1
  O2-  O265  1  0.25093395  0.12445694  0.84819664  1
  O2-  O266  1  0.25062365  0.37593170  0.34757954  1
  O2-  O267  1  0.24799926  0.37508863  0.84751639  1
  O2-  O268  1  0.25212902  0.62470905  0.34406593  1
  O2-  O269  1  0.24929709  0.62577311  0.85294635  1
  O2-  O270  1  0.25125625  0.87429804  0.34783992  1
  O2-  O271  1  0.25123136  0.87456308  0.84923497  1
  O2-  O272  1  0.50326512  0.12457457  0.34753947  1
  O2-  O273  1  0.49850737  0.12455695  0.85005811  1
  O2-  O274  1  0.50033414  0.37488355  0.34229639  1
  O2-  O275  1  0.50139956  0.37457358  0.84726497  1
  O2-  O276  1  0.50059181  0.62526261  0.34023970  1
  O2-  O277  1  0.49899275  0.62523566  0.85084451  1
  O2-  O278  1  0.50024657  0.87493177  0.34746077  1
  O2-  O279  1  0.49626770  0.87546916  0.85228984  1
  O2-  O280  1  0.74776621  0.12494645  0.34933850  1
  O2-  O281  1  0.75133742  0.12456531  0.84929257  1
  O2-  O282  1  0.74901976  0.37458680  0.34526815  1
  O2-  O283  1  0.74853951  0.37470394  0.84586145  1
  O2-  O284  1  0.74760564  0.62482300  0.34422120  1
  O2-  O285  1  0.75155319  0.62523974  0.84929244  1
  O2-  O286  1  0.75060630  0.87537184  0.34835426  1
  O2-  O287  1  0.75136150  0.87524575  0.85029528  1
