# generated using pymatgen
data_BaYFeCuO5
_symmetry_space_group_name_H-M   'P 1'
_cell_length_a   15.66429350
_cell_length_b   15.66358224
_cell_length_c   15.47205879
_cell_angle_alpha   89.99584619
_cell_angle_beta   89.99457978
_cell_angle_gamma   89.99785652
_symmetry_Int_Tables_number   1
_chemical_formula_structural   BaYFeCuO5
_chemical_formula_sum   'Ba32 Y32 Fe32 Cu32 O160'
_cell_volume   3796.20806149
_cell_formula_units_Z   32
loop_
 _symmetry_equiv_pos_site_id
 _symmetry_equiv_pos_as_xyz
  1  'x, y, z'
loop_
 _atom_type_symbol
 _atom_type_oxidation_number
  Ba2+  2.0
  Y3+  3.0
  Fe3+  3.0
  Cu2+  2.0
  O2-  -2.0
loop_
 _atom_site_type_symbol
 _atom_site_label
 _atom_site_symmetry_multiplicity
 _atom_site_fract_x
 _atom_site_fract_y
 _atom_site_fract_z
 _atom_site_occupancy
  Ba2+  Ba0  1  0.00521847  0.00561532  0.02200440  1
  Ba2+  Ba1  1  0.00675377  0.00499670  0.51350520  1
  Ba2+  Ba2  1  0.00397368  0.25192966  0.02188779  1
  Ba2+  Ba3  1  0.00021716  0.24499259  0.51510985  1
  Ba2+  Ba4  1  0.01023557  0.49522197  0.01027246  1
  Ba2+  Ba5  1  -0.00157267  0.50559730  0.51836829  1
  Ba2+  Ba6  1  0.01176563  0.74804110  0.01032113  1
  Ba2+  Ba7  1  0.00647136  0.74391993  0.51571391  1
  Ba2+  Ba8  1  0.25051551  0.00067361  0.01737977  1
  Ba2+  Ba9  1  0.24805947  0.00046802  0.51918441  1
  Ba2+  Ba10  1  0.24916334  0.25471978  0.00685808  1
  Ba2+  Ba11  1  0.25218917  0.24653229  0.51240250  1
  Ba2+  Ba12  1  0.24683938  0.49664141  0.01175306  1
  Ba2+  Ba13  1  0.25369231  0.50475943  0.50049532  1
  Ba2+  Ba14  1  0.24924377  0.74861519  0.02135947  1
  Ba2+  Ba15  1  0.24881004  0.74838039  0.51243153  1
  Ba2+  Ba16  1  0.49967452  -0.00101214  -0.00010225  1
  Ba2+  Ba17  1  0.49393956  -0.00540015  0.51281522  1
  Ba2+  Ba18  1  0.49211610  0.24660704  -0.00510044  1
  Ba2+  Ba19  1  0.48926283  0.25299416  0.51201713  1
  Ba2+  Ba20  1  0.48709799  0.49749452  0.01270873  1
  Ba2+  Ba21  1  0.49605651  0.50505111  0.50136605  1
  Ba2+  Ba22  1  0.49484416  0.75747490  0.01723604  1
  Ba2+  Ba23  1  0.50125925  0.74648490  0.49984986  1
  Ba2+  Ba24  1  0.74248989  0.00310327  0.00526413  1
  Ba2+  Ba25  1  0.75017725  -0.00150974  0.50610299  1
  Ba2+  Ba26  1  0.75601791  0.24404710  0.01270651  1
  Ba2+  Ba27  1  0.75951966  0.25179741  0.51720463  1
  Ba2+  Ba28  1  0.75598531  0.49402027  0.01146925  1
  Ba2+  Ba29  1  0.75225530  0.50715317  0.51919580  1
  Ba2+  Ba30  1  0.74332432  0.75719525  0.00674020  1
  Ba2+  Ba31  1  0.74294735  0.74265782  0.50665225  1
  Y3+  Y32  1  0.00234148  0.00211212  0.25811338  1
  Y3+  Y33  1  0.00208628  0.00105206  0.75192344  1
  Y3+  Y34  1  0.00277608  0.24999839  0.25747893  1
  Y3+  Y35  1  0.00204767  0.25028842  0.75422690  1
  Y3+  Y36  1  0.00452133  0.49960381  0.25470940  1
  Y3+  Y37  1  0.00361001  0.50159014  0.75937524  1
  Y3+  Y38  1  0.00385838  0.74818532  0.25557472  1
  Y3+  Y39  1  0.00378372  0.74779989  0.75652173  1
  Y3+  Y40  1  0.24795641  0.00039975  0.25804473  1
  Y3+  Y41  1  0.25062425  0.00134378  0.75327520  1
  Y3+  Y42  1  0.24914177  0.25236725  0.25881543  1
  Y3+  Y43  1  0.25153087  0.25161393  0.75714255  1
  Y3+  Y44  1  0.25054798  0.50001083  0.25578173  1
  Y3+  Y45  1  0.24874527  0.49854888  0.75998819  1
  Y3+  Y46  1  0.24935880  0.74672247  0.25715780  1
  Y3+  Y47  1  0.24769230  0.74882992  0.75600421  1
  Y3+  Y48  1  0.50097555  -0.00374799  0.25689412  1
  Y3+  Y49  1  0.49901220  0.00023371  0.75878877  1
  Y3+  Y50  1  0.49648107  0.25290645  0.25990506  1
  Y3+  Y51  1  0.49520573  0.25065160  0.75718686  1
  Y3+  Y52  1  0.49563059  0.50032695  0.25949252  1
  Y3+  Y53  1  0.49722524  0.49887034  0.75714867  1
  Y3+  Y54  1  0.50057884  0.74978074  0.25734065  1
  Y3+  Y55  1  0.50057113  0.75086162  0.75773362  1
  Y3+  Y56  1  0.74887477  -0.00147889  0.25575152  1
  Y3+  Y57  1  0.74829947  -0.00025549  0.75863129  1
  Y3+  Y58  1  0.75185168  0.25006659  0.25659272  1
  Y3+  Y59  1  0.75079528  0.24938795  0.75688498  1
  Y3+  Y60  1  0.74914790  0.50014344  0.25695642  1
  Y3+  Y61  1  0.75056545  0.50157167  0.75698070  1
  Y3+  Y62  1  0.74610184  0.75121185  0.25699899  1
  Y3+  Y63  1  0.74810408  0.74941465  0.75799054  1
  Fe3+  Fe64  1  0.37411703  0.12384394  0.37802743  1
  Fe3+  Fe65  1  0.87740470  0.12439799  0.87530030  1
  Fe3+  Fe66  1  0.12536433  0.12532212  0.87517399  1
  Fe3+  Fe67  1  0.12567815  0.87659600  0.87562194  1
  Fe3+  Fe68  1  0.12486642  0.37559534  0.38025541  1
  Fe3+  Fe69  1  0.62578934  0.37532862  0.38085831  1
  Fe3+  Fe70  1  0.87687930  0.37382569  0.87567282  1
  Fe3+  Fe71  1  0.87679055  0.87597589  0.87917481  1
  Fe3+  Fe72  1  0.62432288  0.12566452  0.38158394  1
  Fe3+  Fe73  1  0.87574746  0.62502614  0.37348278  1
  Fe3+  Fe74  1  0.87600407  0.62559908  0.88016910  1
  Fe3+  Fe75  1  0.12491124  0.87442438  0.37686732  1
  Fe3+  Fe76  1  0.62499134  0.37436470  0.87973094  1
  Fe3+  Fe77  1  0.62339409  0.62419563  0.88148733  1
  Fe3+  Fe78  1  0.87595084  0.37651599  0.37669387  1
  Fe3+  Fe79  1  0.37341244  0.62573338  0.87897893  1
  Fe3+  Fe80  1  0.37278373  0.87477618  0.87569119  1
  Fe3+  Fe81  1  0.37380413  0.87431845  0.37641105  1
  Fe3+  Fe82  1  0.87581111  0.87351491  0.37879461  1
  Fe3+  Fe83  1  0.87525047  0.12474119  0.37596673  1
  Fe3+  Fe84  1  0.62275976  0.12576218  0.13896742  1
  Fe3+  Fe85  1  0.87539307  0.62518189  0.13290836  1
  Fe3+  Fe86  1  0.87562306  0.87528568  0.13399841  1
  Fe3+  Fe87  1  0.62343151  0.37344832  0.13454576  1
  Fe3+  Fe88  1  0.62439822  0.12541124  0.63522079  1
  Fe3+  Fe89  1  0.37540779  0.62523379  0.63927047  1
  Fe3+  Fe90  1  0.37539307  0.12525193  0.13908463  1
  Fe3+  Fe91  1  0.12600886  0.37633609  0.63503018  1
  Fe3+  Fe92  1  0.87513156  0.87363118  0.63421106  1
  Fe3+  Fe93  1  0.62405026  0.62404282  0.13431017  1
  Fe3+  Fe94  1  0.62434289  0.37620434  0.63539720  1
  Fe3+  Fe95  1  0.62422493  0.87400300  0.63769354  1
  Cu2+  Cu96  1  0.12631484  0.62513653  0.87372757  1
  Cu2+  Cu97  1  0.62414928  0.87486866  0.87311792  1
  Cu2+  Cu98  1  0.62484666  0.12644989  0.86099892  1
  Cu2+  Cu99  1  0.37324860  0.12425079  0.86129691  1
  Cu2+  Cu100  1  0.37376312  0.37519061  0.37498621  1
  Cu2+  Cu101  1  0.37439118  0.62604287  0.36129587  1
  Cu2+  Cu102  1  0.12555407  0.12529834  0.37327871  1
  Cu2+  Cu103  1  0.12469677  0.37365945  0.87018171  1
  Cu2+  Cu104  1  0.12444330  0.62447317  0.37283624  1
  Cu2+  Cu105  1  0.37359962  0.37560528  0.87248831  1
  Cu2+  Cu106  1  0.62567139  0.62329906  0.37073515  1
  Cu2+  Cu107  1  0.62510180  0.87536695  0.36578193  1
  Cu2+  Cu108  1  0.12647751  0.12588061  0.15358776  1
  Cu2+  Cu109  1  0.87517222  0.37519682  0.15098280  1
  Cu2+  Cu110  1  0.12505010  0.87528073  0.15171634  1
  Cu2+  Cu111  1  0.37588889  0.12488916  0.65084634  1
  Cu2+  Cu112  1  0.37488481  0.37360129  0.14384482  1
  Cu2+  Cu113  1  0.37529998  0.62474658  0.15023513  1
  Cu2+  Cu114  1  0.37518926  0.87382797  0.65007275  1
  Cu2+  Cu115  1  0.12653116  0.37443984  0.14435354  1
  Cu2+  Cu116  1  0.12688998  0.62366658  0.64275775  1
  Cu2+  Cu117  1  0.62456261  0.87614339  0.14139195  1
  Cu2+  Cu118  1  0.62302531  0.62492952  0.64452118  1
  Cu2+  Cu119  1  0.12535369  0.87444113  0.64830512  1
  Cu2+  Cu120  1  0.37436518  0.87567518  0.15314867  1
  Cu2+  Cu121  1  0.87403206  0.12361675  0.65008053  1
  Cu2+  Cu122  1  0.87514665  0.62662673  0.65632400  1
  Cu2+  Cu123  1  0.12599094  0.62375067  0.14224360  1
  Cu2+  Cu124  1  0.37418538  0.37693588  0.64159567  1
  Cu2+  Cu125  1  0.87577426  0.37620267  0.65185890  1
  Cu2+  Cu126  1  0.12602683  0.12634023  0.64142878  1
  Cu2+  Cu127  1  0.87524158  0.12449797  0.15181565  1
  O2-  O128  1  0.12444425  0.12483654  -0.00436529  1
  O2-  O129  1  0.12485051  0.12561511  0.50684786  1
  O2-  O130  1  0.12510148  0.37260183  0.00791569  1
  O2-  O131  1  0.12446475  0.37686968  0.50736757  1
  O2-  O132  1  0.12585526  0.62502912  0.00749491  1
  O2-  O133  1  0.12466318  0.62405919  0.50683941  1
  O2-  O134  1  0.12544416  0.87809300  -0.00403324  1
  O2-  O135  1  0.12405582  0.87407940  0.49708816  1
  O2-  O136  1  0.37639129  0.12399365  0.01860125  1
  O2-  O137  1  0.37506580  0.12275581  0.49877473  1
  O2-  O138  1  0.37494008  0.37332321  0.00794831  1
  O2-  O139  1  0.37467250  0.37642788  0.50794600  1
  O2-  O140  1  0.37474484  0.62728239  -0.00050322  1
  O2-  O141  1  0.37643549  0.62638006  0.51792177  1
  O2-  O142  1  0.37217504  0.87605863  -0.00381650  1
  O2-  O143  1  0.37381259  0.87416138  0.49664836  1
  O2-  O144  1  0.62261082  0.12679599  0.01872137  1
  O2-  O145  1  0.62561404  0.12527292  0.50814058  1
  O2-  O146  1  0.62485750  0.37225794  0.00743210  1
  O2-  O147  1  0.62685178  0.37651105  0.50785468  1
  O2-  O148  1  0.62384545  0.62416181  0.00749556  1
  O2-  O149  1  0.62506437  0.62346877  0.50658735  1
  O2-  O150  1  0.62470762  0.87668479  0.00750503  1
  O2-  O151  1  0.62564881  0.87416134  0.51721401  1
  O2-  O152  1  0.87723270  0.12405576  -0.00435215  1
  O2-  O153  1  0.87370873  0.12442001  0.49644769  1
  O2-  O154  1  0.87562720  0.37169493  -0.00385127  1
  O2-  O155  1  0.87400298  0.37836025  0.49672724  1
  O2-  O156  1  0.87553177  0.62547454  0.00611200  1
  O2-  O157  1  0.87464485  0.62591919  0.49396373  1
  O2-  O158  1  0.87634106  0.87738200  0.00605813  1
  O2-  O159  1  0.87481554  0.87263645  0.50569586  1
  O2-  O160  1  0.12409359  0.00044233  0.16456906  1
  O2-  O161  1  0.12488275  -0.00083457  0.66116103  1
  O2-  O162  1  0.12515391  0.24901733  0.16859385  1
  O2-  O163  1  0.12443428  0.25327026  0.66165740  1
  O2-  O164  1  0.12567309  0.49956691  0.16550395  1
  O2-  O165  1  0.12423800  0.49771116  0.66714024  1
  O2-  O166  1  0.12485017  0.75073704  0.16345021  1
  O2-  O167  1  0.12490068  0.75042738  0.66478341  1
  O2-  O168  1  0.37527864  0.00046568  0.16688870  1
  O2-  O169  1  0.37638424  -0.00073074  0.66242214  1
  O2-  O170  1  0.37547961  0.24810187  0.17006561  1
  O2-  O171  1  0.37576685  0.24965627  0.66386646  1
  O2-  O172  1  0.37583014  0.50026207  0.16510014  1
  O2-  O173  1  0.37560132  0.50179295  0.66893419  1
  O2-  O174  1  0.37566555  0.75080004  0.16349668  1
  O2-  O175  1  0.37542785  0.74979343  0.66666997  1
  O2-  O176  1  0.62550310  0.00230905  0.16930792  1
  O2-  O177  1  0.62527589  0.00100112  0.66371092  1
  O2-  O178  1  0.62532392  0.25110180  0.16979215  1
  O2-  O179  1  0.62644178  0.25038149  0.66045090  1
  O2-  O180  1  0.62627597  0.49921460  0.16031385  1
  O2-  O181  1  0.62598234  0.49740182  0.66780743  1
  O2-  O182  1  0.62527107  0.74684430  0.16216524  1
  O2-  O183  1  0.62544907  0.75156114  0.66882707  1
  O2-  O184  1  0.87563176  -0.00179944  0.16515205  1
  O2-  O185  1  0.87383539  -0.00298708  0.66072524  1
  O2-  O186  1  0.87442740  0.24974035  0.16481366  1
  O2-  O187  1  0.87376881  0.24937858  0.66079582  1
  O2-  O188  1  0.87311389  0.50181638  0.15914725  1
  O2-  O189  1  0.87437066  0.50213502  0.66731292  1
  O2-  O190  1  0.87423501  0.74989616  0.15967494  1
  O2-  O191  1  0.87464632  0.75205007  0.66722091  1
  O2-  O192  1  0.00084624  0.12524871  0.16358969  1
  O2-  O193  1  -0.00184726  0.12445284  0.66117163  1
  O2-  O194  1  -0.00111126  0.37487227  0.16517419  1
  O2-  O195  1  0.00096557  0.37581454  0.66079833  1
  O2-  O196  1  -0.00288323  0.62494057  0.16158878  1
  O2-  O197  1  -0.00038679  0.62559947  0.66513673  1
  O2-  O198  1  -0.00145383  0.87451613  0.16239190  1
  O2-  O199  1  -0.00135374  0.87427621  0.66132121  1
  O2-  O200  1  0.25062221  0.12443760  0.16639126  1
  O2-  O201  1  0.25204959  0.12528123  0.66349907  1
  O2-  O202  1  0.25072093  0.37456960  0.16783084  1
  O2-  O203  1  0.24750017  0.37530048  0.66474669  1
  O2-  O204  1  0.25166212  0.62484255  0.16598577  1
  O2-  O205  1  0.25205780  0.62510562  0.66616634  1
  O2-  O206  1  0.24922349  0.87562104  0.16368272  1
  O2-  O207  1  0.25003170  0.87480789  0.66094269  1
  O2-  O208  1  0.49989101  0.12535606  0.17370935  1
  O2-  O209  1  0.50247230  0.12584959  0.66450200  1
  O2-  O210  1  0.50300974  0.37529212  0.16775958  1
  O2-  O211  1  0.50279449  0.37457742  0.66572740  1
  O2-  O212  1  0.50208975  0.62387695  0.16459829  1
  O2-  O213  1  0.49812339  0.62488317  0.67091802  1
  O2-  O214  1  0.49862324  0.87483131  0.16646427  1
  O2-  O215  1  0.50086332  0.87548958  0.66723767  1
  O2-  O216  1  0.74899604  0.12538275  0.16557113  1
  O2-  O217  1  0.74758395  0.12451788  0.66432810  1
  O2-  O218  1  0.74799206  0.37405554  0.16245286  1
  O2-  O219  1  0.74912933  0.37565384  0.66481198  1
  O2-  O220  1  0.74957945  0.62469300  0.15968003  1
  O2-  O221  1  0.75061406  0.62567270  0.66855364  1
  O2-  O222  1  0.75337623  0.87526979  0.16449872  1
  O2-  O223  1  0.75058704  0.87464627  0.66726980  1
  O2-  O224  1  0.12399096  -0.00193973  0.34735788  1
  O2-  O225  1  0.12422764  0.00043508  0.84167916  1
  O2-  O226  1  0.12414378  0.25302521  0.35202392  1
  O2-  O227  1  0.12466915  0.24807495  0.84366094  1
  O2-  O228  1  0.12469226  0.49751935  0.34890025  1
  O2-  O229  1  0.12451059  0.49938249  0.85070776  1
  O2-  O230  1  0.12404082  0.75113836  0.34608022  1
  O2-  O231  1  0.12390734  0.75262429  0.84749035  1
  O2-  O232  1  0.37600224  -0.00078695  0.34629964  1
  O2-  O233  1  0.37501725  -0.00040702  0.84610027  1
  O2-  O234  1  0.37582792  0.24791764  0.35055736  1
  O2-  O235  1  0.37515596  0.24868488  0.84856265  1
  O2-  O236  1  0.37504417  0.50252204  0.34982150  1
  O2-  O237  1  0.37537728  0.50196314  0.84978605  1
  O2-  O238  1  0.37580645  0.74996699  0.34706425  1
  O2-  O239  1  0.37542994  0.74991212  0.84603862  1
  O2-  O240  1  0.62623142  0.00228465  0.35244225  1
  O2-  O241  1  0.62529122  0.00216977  0.84742528  1
  O2-  O242  1  0.62576175  0.25032985  0.35298407  1
  O2-  O243  1  0.62546278  0.25224754  0.84624955  1
  O2-  O244  1  0.62557398  0.49609649  0.34543461  1
  O2-  O245  1  0.62627278  0.49972489  0.85239267  1
  O2-  O246  1  0.62561584  0.75081708  0.34719413  1
  O2-  O247  1  0.62577199  0.74603931  0.85110459  1
  O2-  O248  1  0.87378161  -0.00183260  0.34930565  1
  O2-  O249  1  0.87468925  -0.00098847  0.84445889  1
  O2-  O250  1  0.87441006  0.25062194  0.34724919  1
  O2-  O251  1  0.87453357  0.24931650  0.84286100  1
  O2-  O252  1  0.87459738  0.49951566  0.34112575  1
  O2-  O253  1  0.87401983  0.50130713  0.85154332  1
  O2-  O254  1  0.87429007  0.75152477  0.34373421  1
  O2-  O255  1  0.87431061  0.75040577  0.85260734  1
  O2-  O256  1  -0.00214682  0.12462963  0.34669002  1
  O2-  O257  1  0.00015602  0.12443384  0.84142702  1
  O2-  O258  1  0.00076172  0.37540071  0.34775012  1
  O2-  O259  1  -0.00172278  0.37509241  0.84335155  1
  O2-  O260  1  -0.00208377  0.62515951  0.34279122  1
  O2-  O261  1  -0.00255917  0.62576130  0.84959262  1
  O2-  O262  1  -0.00153616  0.87463420  0.34602179  1
  O2-  O263  1  -0.00113999  0.87517290  0.84514342  1
  O2-  O264  1  0.25177994  0.12464892  0.34781726  1
  O2-  O265  1  0.24910045  0.12471980  0.84613053  1
  O2-  O266  1  0.24734764  0.37536893  0.35140240  1
  O2-  O267  1  0.24959947  0.37442806  0.84829004  1
  O2-  O268  1  0.25149140  0.62519464  0.35002319  1
  O2-  O269  1  0.25148638  0.62543262  0.84667967  1
  O2-  O270  1  0.24969029  0.87430643  0.34548141  1
  O2-  O271  1  0.24948254  0.87571146  0.84243907  1
  O2-  O272  1  0.50160085  0.12522822  0.35295949  1
  O2-  O273  1  0.49934305  0.12582104  0.84956467  1
  O2-  O274  1  0.50241608  0.37519295  0.35268300  1
  O2-  O275  1  0.50268598  0.37486199  0.85043726  1
  O2-  O276  1  0.49824132  0.62469656  0.34919878  1
  O2-  O277  1  0.50079119  0.62390718  0.85111094  1
  O2-  O278  1  0.49979230  0.87431890  0.34968630  1
  O2-  O279  1  0.49782962  0.87563789  0.84893227  1
  O2-  O280  1  0.74880691  0.12497393  0.34805229  1
  O2-  O281  1  0.75135672  0.12497313  0.84792040  1
  O2-  O282  1  0.74964935  0.37477987  0.34610539  1
  O2-  O283  1  0.74956955  0.37485059  0.84857812  1
  O2-  O284  1  0.75235082  0.62514231  0.34181242  1
  O2-  O285  1  0.75000281  0.62501062  0.85312029  1
  O2-  O286  1  0.75157892  0.87486245  0.34959703  1
  O2-  O287  1  0.75312031  0.87538994  0.85151552  1
