# generated using pymatgen
data_BaYFeCuO5
_symmetry_space_group_name_H-M   'P 1'
_cell_length_a   15.68094578
_cell_length_b   15.67949193
_cell_length_c   15.52668982
_cell_angle_alpha   89.99895147
_cell_angle_beta   90.00001958
_cell_angle_gamma   90.00009660
_symmetry_Int_Tables_number   1
_chemical_formula_structural   BaYFeCuO5
_chemical_formula_sum   'Ba32 Y32 Fe32 Cu32 O160'
_cell_volume   3817.53578123
_cell_formula_units_Z   32
loop_
 _symmetry_equiv_pos_site_id
 _symmetry_equiv_pos_as_xyz
  1  'x, y, z'
loop_
 _atom_type_symbol
 _atom_type_oxidation_number
  Ba2+  2.0
  Y3+  3.0
  Fe3+  3.0
  Cu2+  2.0
  O2-  -2.0
loop_
 _atom_site_type_symbol
 _atom_site_label
 _atom_site_symmetry_multiplicity
 _atom_site_fract_x
 _atom_site_fract_y
 _atom_site_fract_z
 _atom_site_occupancy
  Ba2+  Ba0  1  0.00250549  -0.00261320  0.01829325  1
  Ba2+  Ba1  1  -0.00079580  0.00168010  0.48888206  1
  Ba2+  Ba2  1  0.00686400  0.24774183  0.00642485  1
  Ba2+  Ba3  1  0.00261952  0.25239267  0.49950149  1
  Ba2+  Ba4  1  0.00561446  0.50751060  0.00620536  1
  Ba2+  Ba5  1  0.00812205  0.49486636  0.51315155  1
  Ba2+  Ba6  1  0.00209034  0.74714993  0.01736449  1
  Ba2+  Ba7  1  0.00509366  0.75106634  0.49653365  1
  Ba2+  Ba8  1  0.24984157  -0.00186681  0.02798352  1
  Ba2+  Ba9  1  0.24483048  0.00483903  0.50199667  1
  Ba2+  Ba10  1  0.24446168  0.24709417  0.01717954  1
  Ba2+  Ba11  1  0.24703435  0.25471340  0.51268263  1
  Ba2+  Ba12  1  0.24235116  0.50503369  0.01041121  1
  Ba2+  Ba13  1  0.24644200  0.49889594  0.51807449  1
  Ba2+  Ba14  1  0.24784510  0.74943577  0.02352371  1
  Ba2+  Ba15  1  0.24418374  0.74131947  0.50732191  1
  Ba2+  Ba16  1  0.49409421  0.00278628  0.02405258  1
  Ba2+  Ba17  1  0.50262942  -0.00270904  0.51025638  1
  Ba2+  Ba18  1  0.50145632  0.24492342  0.01175751  1
  Ba2+  Ba19  1  0.49564315  0.25680286  0.52260794  1
  Ba2+  Ba20  1  0.50273958  0.50472220  0.00957907  1
  Ba2+  Ba21  1  0.49850235  0.50025230  0.52669019  1
  Ba2+  Ba22  1  0.49395513  0.74742991  0.02287231  1
  Ba2+  Ba23  1  0.50556692  0.74509462  0.51577954  1
  Ba2+  Ba24  1  0.75554940  0.00261757  0.01176671  1
  Ba2+  Ba25  1  0.75370957  -0.00447695  0.49636917  1
  Ba2+  Ba26  1  0.74775359  0.24613602  0.00109368  1
  Ba2+  Ba27  1  0.75504660  0.25498893  0.51381263  1
  Ba2+  Ba28  1  0.75051859  0.50767277  0.00634440  1
  Ba2+  Ba29  1  0.74556381  0.49562455  0.52499900  1
  Ba2+  Ba30  1  0.75694885  0.74568244  0.01699141  1
  Ba2+  Ba31  1  0.74563987  0.75465414  0.50665537  1
  Y3+  Y32  1  0.00047920  -0.00155706  0.25833671  1
  Y3+  Y33  1  -0.00108248  0.00042625  0.76056856  1
  Y3+  Y34  1  0.00306154  0.25151665  0.25751486  1
  Y3+  Y35  1  0.00171955  0.25281942  0.75957646  1
  Y3+  Y36  1  0.00353205  0.50121218  0.25544095  1
  Y3+  Y37  1  0.00333421  0.50061385  0.76122054  1
  Y3+  Y38  1  0.00100869  0.74847128  0.25729293  1
  Y3+  Y39  1  0.00097776  0.74611618  0.75937732  1
  Y3+  Y40  1  0.24806252  0.00027753  0.25990167  1
  Y3+  Y41  1  0.25086110  0.00021015  0.75276052  1
  Y3+  Y42  1  0.24589968  0.25158693  0.25766510  1
  Y3+  Y43  1  0.24898922  0.25256291  0.75678482  1
  Y3+  Y44  1  0.24488101  0.50027492  0.25644045  1
  Y3+  Y45  1  0.24550265  0.50027448  0.75756364  1
  Y3+  Y46  1  0.24707942  0.74754548  0.25967713  1
  Y3+  Y47  1  0.24771799  0.74665275  0.75444404  1
  Y3+  Y48  1  0.50071552  -0.00019850  0.25984171  1
  Y3+  Y49  1  0.49978179  -0.00135502  0.75221858  1
  Y3+  Y50  1  0.49972951  0.24914573  0.25423332  1
  Y3+  Y51  1  0.49878966  0.25125214  0.75827363  1
  Y3+  Y52  1  0.49930140  0.50172003  0.25179545  1
  Y3+  Y53  1  0.49998856  0.49954744  0.75893996  1
  Y3+  Y54  1  0.50025074  0.74960633  0.25861585  1
  Y3+  Y55  1  0.50118634  0.75053328  0.75243106  1
  Y3+  Y56  1  0.75070976  -0.00182985  0.25934710  1
  Y3+  Y57  1  0.75014441  -0.00111998  0.75663473  1
  Y3+  Y58  1  0.75085087  0.24902201  0.25695701  1
  Y3+  Y59  1  0.75053380  0.25154597  0.75933032  1
  Y3+  Y60  1  0.75163037  0.50256146  0.25212316  1
  Y3+  Y61  1  0.75087494  0.49986726  0.76162435  1
  Y3+  Y62  1  0.75166443  0.75017244  0.25817827  1
  Y3+  Y63  1  0.75052985  0.74939727  0.75601089  1
  Fe3+  Fe64  1  0.62395569  0.37658658  0.37475331  1
  Fe3+  Fe65  1  0.37538715  0.37647536  0.37429379  1
  Fe3+  Fe66  1  0.37410801  0.62681748  0.87537361  1
  Fe3+  Fe67  1  0.62422631  0.62755863  0.87596847  1
  Fe3+  Fe68  1  0.62492099  0.12715546  0.37990741  1
  Fe3+  Fe69  1  0.37539006  0.12743196  0.37728255  1
  Fe3+  Fe70  1  0.62375093  0.12270643  0.87574485  1
  Fe3+  Fe71  1  0.62507683  0.62248926  0.37536020  1
  Fe3+  Fe72  1  0.87567697  0.87453568  0.87917042  1
  Fe3+  Fe73  1  0.62365502  0.87491876  0.88067876  1
  Fe3+  Fe74  1  0.87434202  0.37716956  0.37525585  1
  Fe3+  Fe75  1  0.87599326  0.37530920  0.88022456  1
  Fe3+  Fe76  1  0.37470461  0.87355126  0.37908373  1
  Fe3+  Fe77  1  0.37506256  0.62238686  0.37620350  1
  Fe3+  Fe78  1  0.37380450  0.12309296  0.87500477  1
  Fe3+  Fe79  1  0.12719485  0.87465339  0.87783018  1
  Fe3+  Fe80  1  0.37404622  0.37517080  0.87999539  1
  Fe3+  Fe81  1  0.37442368  0.87468773  0.87530477  1
  Fe3+  Fe82  1  0.87489833  0.62288373  0.38052749  1
  Fe3+  Fe83  1  0.12652351  0.12257499  0.87717355  1
  Fe3+  Fe84  1  0.37379388  0.37558613  0.13266181  1
  Fe3+  Fe85  1  0.37319658  0.87390942  0.63154702  1
  Fe3+  Fe86  1  0.87575914  0.12577435  0.13992616  1
  Fe3+  Fe87  1  0.62596901  0.12517533  0.63445631  1
  Fe3+  Fe88  1  0.87676732  0.87511826  0.63662479  1
  Fe3+  Fe89  1  0.12326185  0.12518239  0.63715003  1
  Fe3+  Fe90  1  0.87632502  0.37547203  0.13313415  1
  Fe3+  Fe91  1  0.87604375  0.62425646  0.63485920  1
  Fe3+  Fe92  1  0.62624601  0.37466436  0.13334686  1
  Fe3+  Fe93  1  0.12259529  0.87537757  0.63522972  1
  Fe3+  Fe94  1  0.62567202  0.87501408  0.13586157  1
  Fe3+  Fe95  1  0.87650695  0.12539172  0.63813234  1
  Cu2+  Cu96  1  0.12565532  0.37603791  0.37123005  1
  Cu2+  Cu97  1  0.12646578  0.37484009  0.87493865  1
  Cu2+  Cu98  1  0.87473381  0.12659057  0.36281313  1
  Cu2+  Cu99  1  0.62410113  0.37487219  0.86741550  1
  Cu2+  Cu100  1  0.12580459  0.87453184  0.36369288  1
  Cu2+  Cu101  1  0.87571243  0.62646893  0.87286995  1
  Cu2+  Cu102  1  0.12523908  0.12617971  0.36239481  1
  Cu2+  Cu103  1  0.62386727  0.87379585  0.37245250  1
  Cu2+  Cu104  1  0.12464910  0.62286731  0.37274263  1
  Cu2+  Cu105  1  0.87534666  0.87353919  0.36213770  1
  Cu2+  Cu106  1  0.12605279  0.62708872  0.87171736  1
  Cu2+  Cu107  1  0.87546620  0.12440019  0.86480443  1
  Cu2+  Cu108  1  0.12402158  0.37550657  0.14026946  1
  Cu2+  Cu109  1  0.87628506  0.37525299  0.65598850  1
  Cu2+  Cu110  1  0.62531702  0.62597445  0.14949808  1
  Cu2+  Cu111  1  0.12384746  0.37426497  0.64468215  1
  Cu2+  Cu112  1  0.12418231  0.12457099  0.15569815  1
  Cu2+  Cu113  1  0.87545966  0.87481748  0.15340380  1
  Cu2+  Cu114  1  0.62720612  0.87557805  0.63944156  1
  Cu2+  Cu115  1  0.37488403  0.87463802  0.15834919  1
  Cu2+  Cu116  1  0.87622515  0.62478315  0.14309552  1
  Cu2+  Cu117  1  0.12493482  0.87454939  0.15657151  1
  Cu2+  Cu118  1  0.37382290  0.37586084  0.65694562  1
  Cu2+  Cu119  1  0.37412983  0.62500117  0.65089521  1
  Cu2+  Cu120  1  0.12273344  0.62492038  0.64248873  1
  Cu2+  Cu121  1  0.62518806  0.37426460  0.65761515  1
  Cu2+  Cu122  1  0.37402432  0.62414232  0.15114821  1
  Cu2+  Cu123  1  0.12483194  0.62523209  0.14448128  1
  Cu2+  Cu124  1  0.37414598  0.12597990  0.15529538  1
  Cu2+  Cu125  1  0.62612329  0.12435819  0.15286673  1
  Cu2+  Cu126  1  0.62651121  0.62452947  0.65362809  1
  Cu2+  Cu127  1  0.37430385  0.12504940  0.64491609  1
  O2-  O128  1  0.12806071  0.12037646  -0.00279959  1
  O2-  O129  1  0.12174473  0.12617551  0.51693549  1
  O2-  O130  1  0.12629899  0.37368405  0.00761517  1
  O2-  O131  1  0.12520500  0.37386456  0.50835856  1
  O2-  O132  1  0.12635849  0.62843450  0.00827111  1
  O2-  O133  1  0.12317722  0.62347917  0.50747374  1
  O2-  O134  1  0.12890483  0.87594522  -0.00244260  1
  O2-  O135  1  0.12226133  0.87722832  0.51551190  1
  O2-  O136  1  0.37416731  0.12098719  -0.00563352  1
  O2-  O137  1  0.37676763  0.12928755  0.49681370  1
  O2-  O138  1  0.37457929  0.37400807  0.00585248  1
  O2-  O139  1  0.37702443  0.37673207  0.49397437  1
  O2-  O140  1  0.37500284  0.62876515  -0.00457953  1
  O2-  O141  1  0.37684630  0.62123886  0.49584029  1
  O2-  O142  1  0.37474876  0.87589819  -0.00538545  1
  O2-  O143  1  0.37489932  0.87338258  0.50495809  1
  O2-  O144  1  0.62287183  0.12134030  -0.00437964  1
  O2-  O145  1  0.62584271  0.12780373  0.50636105  1
  O2-  O146  1  0.62462360  0.37220197  0.01391347  1
  O2-  O147  1  0.62364579  0.37667011  0.49424210  1
  O2-  O148  1  0.62329715  0.62971701  -0.00405594  1
  O2-  O149  1  0.62518998  0.62068548  0.49510622  1
  O2-  O150  1  0.62313328  0.87567816  0.00661988  1
  O2-  O151  1  0.62516890  0.87506959  0.50611296  1
  O2-  O152  1  0.87512942  0.12469325  0.01982837  1
  O2-  O153  1  0.87543684  0.12612318  0.51836784  1
  O2-  O154  1  0.87503861  0.37400267  0.00717045  1
  O2-  O155  1  0.87242590  0.37728820  0.49517819  1
  O2-  O156  1  0.87528150  0.62637313  0.00735195  1
  O2-  O157  1  0.87388732  0.62194991  0.50705273  1
  O2-  O158  1  0.87521188  0.87477007  -0.00081320  1
  O2-  O159  1  0.87588711  0.87625390  0.51686813  1
  O2-  O160  1  0.12526945  -0.00059831  0.16719988  1
  O2-  O161  1  0.12445206  0.00016040  0.66637839  1
  O2-  O162  1  0.12412630  0.24878722  0.16414972  1
  O2-  O163  1  0.12503425  0.24813132  0.66913733  1
  O2-  O164  1  0.12472301  0.50050176  0.16343801  1
  O2-  O165  1  0.12405032  0.49980488  0.66723285  1
  O2-  O166  1  0.12515644  0.75096124  0.16824511  1
  O2-  O167  1  0.12416742  0.75196014  0.66370272  1
  O2-  O168  1  0.37528753  0.00099375  0.16937368  1
  O2-  O169  1  0.37510056  -0.00262910  0.65810897  1
  O2-  O170  1  0.37618776  0.25154250  0.15963641  1
  O2-  O171  1  0.37507958  0.25085609  0.66733552  1
  O2-  O172  1  0.37601479  0.49851490  0.15662505  1
  O2-  O173  1  0.37552039  0.50069814  0.66859307  1
  O2-  O174  1  0.37514951  0.74920582  0.16656379  1
  O2-  O175  1  0.37453031  0.75088566  0.65869995  1
  O2-  O176  1  0.62497666  -0.00198363  0.16671342  1
  O2-  O177  1  0.62555421  0.00343070  0.66276585  1
  O2-  O178  1  0.62545320  0.25037518  0.16503316  1
  O2-  O179  1  0.62448295  0.24845104  0.66454059  1
  O2-  O180  1  0.62552884  0.49990272  0.15820124  1
  O2-  O181  1  0.62546017  0.49919059  0.66786806  1
  O2-  O182  1  0.62462343  0.75207710  0.16358555  1
  O2-  O183  1  0.62630493  0.74877699  0.66199021  1
  O2-  O184  1  0.87469288  0.00023121  0.16752781  1
  O2-  O185  1  0.87462719  0.00071149  0.66918209  1
  O2-  O186  1  0.87479010  0.25147242  0.16566767  1
  O2-  O187  1  0.87458257  0.25018168  0.66900791  1
  O2-  O188  1  0.87422439  0.49749680  0.16099001  1
  O2-  O189  1  0.87401695  0.50063932  0.66539901  1
  O2-  O190  1  0.87510088  0.75110316  0.16837565  1
  O2-  O191  1  0.87446648  0.74839057  0.66164741  1
  O2-  O192  1  -0.00041289  0.12432238  0.16766207  1
  O2-  O193  1  -0.00037619  0.12562175  0.67273817  1
  O2-  O194  1  -0.00269949  0.37510679  0.16507884  1
  O2-  O195  1  -0.00081046  0.37531942  0.67051033  1
  O2-  O196  1  0.00040396  0.62539057  0.16801321  1
  O2-  O197  1  -0.00352058  0.62402050  0.66794344  1
  O2-  O198  1  0.00039154  0.87509408  0.16524838  1
  O2-  O199  1  -0.00078691  0.87498123  0.67259786  1
  O2-  O200  1  0.24900642  0.12524578  0.16647688  1
  O2-  O201  1  0.24928160  0.12461764  0.66092345  1
  O2-  O202  1  0.25251523  0.37440982  0.16340758  1
  O2-  O203  1  0.25050270  0.37526753  0.66521470  1
  O2-  O204  1  0.25084566  0.62508905  0.16674571  1
  O2-  O205  1  0.24982963  0.62460018  0.66234498  1
  O2-  O206  1  0.25058212  0.87507274  0.16828156  1
  O2-  O207  1  0.24995159  0.87527376  0.66053422  1
  O2-  O208  1  0.50036267  0.12439248  0.16351221  1
  O2-  O209  1  0.50117009  0.12482805  0.65971400  1
  O2-  O210  1  0.49940572  0.37451292  0.16015788  1
  O2-  O211  1  0.49948678  0.37477504  0.66592358  1
  O2-  O212  1  0.49970079  0.62566896  0.16165725  1
  O2-  O213  1  0.50097055  0.62535389  0.66215561  1
  O2-  O214  1  0.50140832  0.87558644  0.16394578  1
  O2-  O215  1  0.49689473  0.87471795  0.66088151  1
  O2-  O216  1  0.75119694  0.12435434  0.16868714  1
  O2-  O217  1  0.74957312  0.12637349  0.66645815  1
  O2-  O218  1  0.75119151  0.37480242  0.16245935  1
  O2-  O219  1  0.75034752  0.37423231  0.66730403  1
  O2-  O220  1  0.74912679  0.62608425  0.16496745  1
  O2-  O221  1  0.75214514  0.62380410  0.66516888  1
  O2-  O222  1  0.74825034  0.87505746  0.16313511  1
  O2-  O223  1  0.75355532  0.87499825  0.67022957  1
  O2-  O224  1  0.12491076  0.00030924  0.35127441  1
  O2-  O225  1  0.12623945  -0.00066773  0.84275094  1
  O2-  O226  1  0.12508258  0.24997218  0.34767449  1
  O2-  O227  1  0.12559730  0.24714779  0.85036506  1
  O2-  O228  1  0.12426449  0.49947635  0.34574730  1
  O2-  O229  1  0.12560085  0.50085315  0.85154492  1
  O2-  O230  1  0.12538372  0.75022001  0.35201987  1
  O2-  O231  1  0.12551466  0.75224312  0.84397815  1
  O2-  O232  1  0.37578016  -0.00007538  0.35312093  1
  O2-  O233  1  0.37579520  -0.00081407  0.83850148  1
  O2-  O234  1  0.37543783  0.25071598  0.34143699  1
  O2-  O235  1  0.37546185  0.24982756  0.85044179  1
  O2-  O236  1  0.37555909  0.49983085  0.33783760  1
  O2-  O237  1  0.37599034  0.49976021  0.85203861  1
  O2-  O238  1  0.37509297  0.74953070  0.34981573  1
  O2-  O239  1  0.37597226  0.75096492  0.83961032  1
  O2-  O240  1  0.62472521  0.00351347  0.35204804  1
  O2-  O241  1  0.62419061  -0.00215927  0.84407128  1
  O2-  O242  1  0.62503473  0.24989166  0.34645101  1
  O2-  O243  1  0.62452951  0.24812375  0.84849463  1
  O2-  O244  1  0.62496569  0.50003243  0.33759760  1
  O2-  O245  1  0.62446691  0.50123628  0.85152345  1
  O2-  O246  1  0.62511175  0.74652772  0.34660009  1
  O2-  O247  1  0.62445793  0.75276366  0.84392519  1
  O2-  O248  1  0.87428149  0.00029362  0.35135970  1
  O2-  O249  1  0.87373396  -0.00118845  0.84839768  1
  O2-  O250  1  0.87401611  0.25161924  0.34696673  1
  O2-  O251  1  0.87435387  0.25082509  0.85260382  1
  O2-  O252  1  0.87448272  0.50136301  0.34248239  1
  O2-  O253  1  0.87469705  0.49753066  0.85080332  1
  O2-  O254  1  0.87415083  0.74718760  0.35295464  1
  O2-  O255  1  0.87455424  0.75331383  0.84292000  1
  O2-  O256  1  -0.00007738  0.12605499  0.35076744  1
  O2-  O257  1  0.00065536  0.12390425  0.85251588  1
  O2-  O258  1  -0.00156374  0.37485888  0.34818718  1
  O2-  O259  1  -0.00148663  0.37442459  0.85317645  1
  O2-  O260  1  -0.00296964  0.62481776  0.35140383  1
  O2-  O261  1  0.00079644  0.62572097  0.85071584  1
  O2-  O262  1  0.00024074  0.87449596  0.34973876  1
  O2-  O263  1  0.00088869  0.87606399  0.85084863  1
  O2-  O264  1  0.25091201  0.12528151  0.34979151  1
  O2-  O265  1  0.25075130  0.12433466  0.84079856  1
  O2-  O266  1  0.25154775  0.37511160  0.34606703  1
  O2-  O267  1  0.25322817  0.37490633  0.84803362  1
  O2-  O268  1  0.25115995  0.62413669  0.34875961  1
  O2-  O269  1  0.25187727  0.62553189  0.84414338  1
  O2-  O270  1  0.25225701  0.87547836  0.35186793  1
  O2-  O271  1  0.25091535  0.87500736  0.84005436  1
  O2-  O272  1  0.50136415  0.12581279  0.34654492  1
  O2-  O273  1  0.49923616  0.12408822  0.84151861  1
  O2-  O274  1  0.50055029  0.37494395  0.33922192  1
  O2-  O275  1  0.49715204  0.37434694  0.84946892  1
  O2-  O276  1  0.49997602  0.62426451  0.34272400  1
  O2-  O277  1  0.49996011  0.62593599  0.84341317  1
  O2-  O278  1  0.49627885  0.87499009  0.34708860  1
  O2-  O279  1  0.50115783  0.87557670  0.84409987  1
  O2-  O280  1  0.74795509  0.12564621  0.35126301  1
  O2-  O281  1  0.74922069  0.12419131  0.84905615  1
  O2-  O282  1  0.74897536  0.37551139  0.34210489  1
  O2-  O283  1  0.75161602  0.37430221  0.85186145  1
  O2-  O284  1  0.75141440  0.62434879  0.34698083  1
  O2-  O285  1  0.74784193  0.62572840  0.84761863  1
  O2-  O286  1  0.75098074  0.87481798  0.34736481  1
  O2-  O287  1  0.74772883  0.87598992  0.85192365  1
