# generated using pymatgen
data_BaYFeCuO5
_symmetry_space_group_name_H-M   'P 1'
_cell_length_a   15.66078769
_cell_length_b   15.66005194
_cell_length_c   15.45935601
_cell_angle_alpha   90.00526896
_cell_angle_beta   90.00020171
_cell_angle_gamma   89.99806920
_symmetry_Int_Tables_number   1
_chemical_formula_structural   BaYFeCuO5
_chemical_formula_sum   'Ba32 Y32 Fe32 Cu32 O160'
_cell_volume   3791.38769590
_cell_formula_units_Z   32
loop_
 _symmetry_equiv_pos_site_id
 _symmetry_equiv_pos_as_xyz
  1  'x, y, z'
loop_
 _atom_type_symbol
 _atom_type_oxidation_number
  Ba2+  2.0
  Y3+  3.0
  Fe3+  3.0
  Cu2+  2.0
  O2-  -2.0
loop_
 _atom_site_type_symbol
 _atom_site_label
 _atom_site_symmetry_multiplicity
 _atom_site_fract_x
 _atom_site_fract_y
 _atom_site_fract_z
 _atom_site_occupancy
  Ba2+  Ba0  1  -0.00176813  -0.00497500  0.01258802  1
  Ba2+  Ba1  1  0.01058713  -0.00019226  0.51846350  1
  Ba2+  Ba2  1  0.00146799  0.24932381  0.00718409  1
  Ba2+  Ba3  1  0.00075187  0.25146163  0.51796664  1
  Ba2+  Ba4  1  0.01307819  0.50057238  0.00668389  1
  Ba2+  Ba5  1  -0.00004307  0.50553854  0.51864246  1
  Ba2+  Ba6  1  0.01052870  0.75336023  0.00963076  1
  Ba2+  Ba7  1  0.00819631  0.74348204  0.51504482  1
  Ba2+  Ba8  1  0.25408723  -0.00442457  0.01294826  1
  Ba2+  Ba9  1  0.25228218  -0.00286391  0.51235451  1
  Ba2+  Ba10  1  0.25666972  0.25603022  0.00771533  1
  Ba2+  Ba11  1  0.25684116  0.24885860  0.50506345  1
  Ba2+  Ba12  1  0.24989278  0.49871441  0.01247183  1
  Ba2+  Ba13  1  0.25299720  0.50408695  0.51242186  1
  Ba2+  Ba14  1  0.24707514  0.74871465  0.01653529  1
  Ba2+  Ba15  1  0.24909716  0.74988656  0.51675300  1
  Ba2+  Ba16  1  0.49332299  0.00721113  0.00653109  1
  Ba2+  Ba17  1  0.49107276  0.00263142  0.50509837  1
  Ba2+  Ba18  1  0.49515518  0.25088141  -0.00290505  1
  Ba2+  Ba19  1  0.49731925  0.25261246  0.51367647  1
  Ba2+  Ba20  1  0.49437309  0.49719174  0.01155210  1
  Ba2+  Ba21  1  0.49307645  0.49312715  0.51537488  1
  Ba2+  Ba22  1  0.49389120  0.74530472  0.02302762  1
  Ba2+  Ba23  1  0.48826409  0.75160189  0.51016662  1
  Ba2+  Ba24  1  0.75524575  0.00625878  0.00692129  1
  Ba2+  Ba25  1  0.74565276  0.00598673  0.51197010  1
  Ba2+  Ba26  1  0.74634299  0.24419288  -0.00327521  1
  Ba2+  Ba27  1  0.74468367  0.25537100  0.52344554  1
  Ba2+  Ba28  1  0.73990581  0.49972985  0.00588306  1
  Ba2+  Ba29  1  0.75485902  0.49445615  0.52343210  1
  Ba2+  Ba30  1  0.75007722  0.75133849  0.01693382  1
  Ba2+  Ba31  1  0.75537641  0.74418635  0.51057556  1
  Y3+  Y32  1  0.00037674  -0.00059403  0.25252924  1
  Y3+  Y33  1  0.00347817  -0.00030432  0.76122102  1
  Y3+  Y34  1  0.00105063  0.25045270  0.25311467  1
  Y3+  Y35  1  0.00142760  0.25015410  0.76181143  1
  Y3+  Y36  1  0.00529138  0.50075820  0.25498283  1
  Y3+  Y37  1  0.00397316  0.50132114  0.75951239  1
  Y3+  Y38  1  0.00401485  0.74952065  0.25385296  1
  Y3+  Y39  1  0.00565050  0.74844277  0.75863187  1
  Y3+  Y40  1  0.25288561  -0.00113661  0.25647131  1
  Y3+  Y41  1  0.24972953  -0.00171296  0.75878447  1
  Y3+  Y42  1  0.25311615  0.25216853  0.25519709  1
  Y3+  Y43  1  0.25200443  0.25151634  0.76146952  1
  Y3+  Y44  1  0.24965916  0.49951402  0.25591841  1
  Y3+  Y45  1  0.24973822  0.49966859  0.75947503  1
  Y3+  Y46  1  0.24876495  0.74960101  0.25715363  1
  Y3+  Y47  1  0.24744187  0.74972686  0.75656079  1
  Y3+  Y48  1  0.49471258  0.00046812  0.25806448  1
  Y3+  Y49  1  0.49814969  0.00246208  0.75753320  1
  Y3+  Y50  1  0.49434220  0.25076607  0.25805267  1
  Y3+  Y51  1  0.49874701  0.25094791  0.75978153  1
  Y3+  Y52  1  0.49650936  0.49891865  0.25641244  1
  Y3+  Y53  1  0.49707421  0.49576127  0.75731609  1
  Y3+  Y54  1  0.49702248  0.75022180  0.25900736  1
  Y3+  Y55  1  0.49619429  0.75064915  0.75269194  1
  Y3+  Y56  1  0.75191548  0.00074800  0.25522307  1
  Y3+  Y57  1  0.74903309  0.00304885  0.75927799  1
  Y3+  Y58  1  0.75124920  0.24875416  0.25491980  1
  Y3+  Y59  1  0.74755445  0.24929080  0.76022397  1
  Y3+  Y60  1  0.74910057  0.50051928  0.25407008  1
  Y3+  Y61  1  0.74970203  0.49830786  0.75816508  1
  Y3+  Y62  1  0.75017257  0.74999051  0.25637242  1
  Y3+  Y63  1  0.75062937  0.74942376  0.75544580  1
  Fe3+  Fe64  1  0.87655238  0.87523808  0.37979964  1
  Fe3+  Fe65  1  0.37443254  0.62554907  0.87528711  1
  Fe3+  Fe66  1  0.62513802  0.87527989  0.37975668  1
  Fe3+  Fe67  1  0.87541960  0.37524718  0.37602881  1
  Fe3+  Fe68  1  0.62439377  0.12653818  0.37824763  1
  Fe3+  Fe69  1  0.12678132  0.12425425  0.88022232  1
  Fe3+  Fe70  1  0.87515704  0.87402175  0.87528472  1
  Fe3+  Fe71  1  0.87625186  0.62354827  0.37486021  1
  Fe3+  Fe72  1  0.87540826  0.62575793  0.87892293  1
  Fe3+  Fe73  1  0.12501582  0.37554662  0.37963993  1
  Fe3+  Fe74  1  0.62345209  0.87437475  0.87890382  1
  Fe3+  Fe75  1  0.12521713  0.12536900  0.37639219  1
  Fe3+  Fe76  1  0.62498753  0.62347688  0.37948960  1
  Fe3+  Fe77  1  0.87604960  0.12587762  0.38031775  1
  Fe3+  Fe78  1  0.62536304  0.37519358  0.37703037  1
  Fe3+  Fe79  1  0.87517469  0.37571193  0.87898807  1
  Fe3+  Fe80  1  0.37500926  0.87349133  0.87695063  1
  Fe3+  Fe81  1  0.62271653  0.62672974  0.87528421  1
  Fe3+  Fe82  1  0.12515902  0.87473209  0.37591401  1
  Fe3+  Fe83  1  0.37339174  0.62457083  0.37610558  1
  Fe3+  Fe84  1  0.37391062  0.12547581  0.64098257  1
  Fe3+  Fe85  1  0.87469181  0.37532377  0.13218096  1
  Fe3+  Fe86  1  0.87587948  0.62447615  0.13260296  1
  Fe3+  Fe87  1  0.12687338  0.12516564  0.13492546  1
  Fe3+  Fe88  1  0.62367959  0.37358283  0.13621003  1
  Fe3+  Fe89  1  0.62350309  0.87641071  0.13511949  1
  Fe3+  Fe90  1  0.62432564  0.87587637  0.63344881  1
  Fe3+  Fe91  1  0.62354083  0.62416627  0.63355880  1
  Fe3+  Fe92  1  0.87610779  0.87477281  0.63427441  1
  Fe3+  Fe93  1  0.62324407  0.12574836  0.13785978  1
  Fe3+  Fe94  1  0.12649272  0.37414501  0.63701080  1
  Fe3+  Fe95  1  0.87584570  0.12520373  0.63701723  1
  Cu2+  Cu96  1  0.37359452  0.12435194  0.87263274  1
  Cu2+  Cu97  1  0.37343131  0.87429350  0.37278344  1
  Cu2+  Cu98  1  0.87639388  0.12421161  0.87243234  1
  Cu2+  Cu99  1  0.12681655  0.62527029  0.87212842  1
  Cu2+  Cu100  1  0.12481393  0.62467785  0.37204072  1
  Cu2+  Cu101  1  0.37444137  0.37581167  0.37338468  1
  Cu2+  Cu102  1  0.62357220  0.12402671  0.86343604  1
  Cu2+  Cu103  1  0.37453910  0.37629310  0.87168358  1
  Cu2+  Cu104  1  0.12646811  0.87475963  0.87304784  1
  Cu2+  Cu105  1  0.37382971  0.12542772  0.36359954  1
  Cu2+  Cu106  1  0.12611785  0.37504618  0.87343411  1
  Cu2+  Cu107  1  0.62434744  0.37572443  0.86409392  1
  Cu2+  Cu108  1  0.37453072  0.62465137  0.15317925  1
  Cu2+  Cu109  1  0.62405301  0.12502060  0.65163012  1
  Cu2+  Cu110  1  0.37551561  0.87436754  0.15058739  1
  Cu2+  Cu111  1  0.87526851  0.62517584  0.65461902  1
  Cu2+  Cu112  1  0.12648711  0.62384814  0.64331001  1
  Cu2+  Cu113  1  0.37504298  0.62444438  0.65022577  1
  Cu2+  Cu114  1  0.12502329  0.87528235  0.65242744  1
  Cu2+  Cu115  1  0.37507025  0.12595122  0.14220606  1
  Cu2+  Cu116  1  0.87663126  0.37436138  0.65732779  1
  Cu2+  Cu117  1  0.87494912  0.12581016  0.13981340  1
  Cu2+  Cu118  1  0.12635182  0.62469666  0.14204213  1
  Cu2+  Cu119  1  0.62389205  0.62503823  0.15067725  1
  Cu2+  Cu120  1  0.37336120  0.37394584  0.64379016  1
  Cu2+  Cu121  1  0.37437541  0.87603125  0.64199058  1
  Cu2+  Cu122  1  0.87465648  0.87414873  0.15080617  1
  Cu2+  Cu123  1  0.62413622  0.37511340  0.65484467  1
  Cu2+  Cu124  1  0.12629753  0.87565430  0.14186378  1
  Cu2+  Cu125  1  0.12595481  0.12596292  0.65339514  1
  Cu2+  Cu126  1  0.12599692  0.37430758  0.14149074  1
  Cu2+  Cu127  1  0.37530174  0.37532397  0.14292679  1
  O2-  O128  1  0.12596521  0.12385201  0.00737961  1
  O2-  O129  1  0.12316484  0.12615466  0.49662833  1
  O2-  O130  1  0.12522209  0.37403658  0.00742479  1
  O2-  O131  1  0.12385689  0.37474770  0.50784555  1
  O2-  O132  1  0.12621626  0.62575018  0.00780886  1
  O2-  O133  1  0.12461696  0.62372141  0.50806980  1
  O2-  O134  1  0.12610789  0.87612841  0.00744610  1
  O2-  O135  1  0.12376597  0.87499235  0.49680539  1
  O2-  O136  1  0.37463621  0.12512029  0.00803612  1
  O2-  O137  1  0.37434482  0.12550785  0.51923647  1
  O2-  O138  1  0.37640070  0.37664555  0.00757004  1
  O2-  O139  1  0.37402129  0.37414674  0.50815226  1
  O2-  O140  1  0.37609047  0.62611606  -0.00425893  1
  O2-  O141  1  0.37496035  0.62444563  0.49698587  1
  O2-  O142  1  0.37799543  0.87209723  -0.00249170  1
  O2-  O143  1  0.37413794  0.87625001  0.50713192  1
  O2-  O144  1  0.62431542  0.12426420  0.01718936  1
  O2-  O145  1  0.62643417  0.12689203  0.49853870  1
  O2-  O146  1  0.62435157  0.37369515  0.01570546  1
  O2-  O147  1  0.62748330  0.37666871  0.49740917  1
  O2-  O148  1  0.62388764  0.62894683  -0.00451470  1
  O2-  O149  1  0.62627341  0.62301229  0.50520977  1
  O2-  O150  1  0.62371292  0.87434952  0.00638475  1
  O2-  O151  1  0.62628707  0.87561695  0.50631925  1
  O2-  O152  1  0.87475645  0.12460016  0.00606473  1
  O2-  O153  1  0.87582521  0.12666519  0.50683833  1
  O2-  O154  1  0.87368416  0.37547305  0.00575014  1
  O2-  O155  1  0.87489440  0.37497856  0.49598667  1
  O2-  O156  1  0.87406005  0.62657524  0.00520292  1
  O2-  O157  1  0.87439017  0.62230806  0.49536918  1
  O2-  O158  1  0.87221156  0.87386298  -0.00434351  1
  O2-  O159  1  0.87619755  0.87508764  0.50575343  1
  O2-  O160  1  0.12495172  0.00245849  0.16349876  1
  O2-  O161  1  0.12415849  0.00041031  0.66525536  1
  O2-  O162  1  0.12441557  0.24739078  0.16513303  1
  O2-  O163  1  0.12327170  0.25159648  0.66722751  1
  O2-  O164  1  0.12574468  0.49992930  0.16525766  1
  O2-  O165  1  0.12446148  0.49686612  0.66532682  1
  O2-  O166  1  0.12515756  0.75001781  0.16418831  1
  O2-  O167  1  0.12442710  0.75078866  0.66414619  1
  O2-  O168  1  0.37567097  -0.00141110  0.16519658  1
  O2-  O169  1  0.37497842  0.00199986  0.66829354  1
  O2-  O170  1  0.37509371  0.25069676  0.16707291  1
  O2-  O171  1  0.37489347  0.24810045  0.66985921  1
  O2-  O172  1  0.37524518  0.50177402  0.16406311  1
  O2-  O173  1  0.37528002  0.50098481  0.66407868  1
  O2-  O174  1  0.37637636  0.74890693  0.16424851  1
  O2-  O175  1  0.37580815  0.74859694  0.66023775  1
  O2-  O176  1  0.62514610  -0.00122987  0.16658696  1
  O2-  O177  1  0.62657072  -0.00237995  0.66461373  1
  O2-  O178  1  0.62541682  0.25009721  0.16878840  1
  O2-  O179  1  0.62597326  0.25072747  0.66606101  1
  O2-  O180  1  0.62580721  0.49975063  0.16299714  1
  O2-  O181  1  0.62564518  0.50152537  0.66336360  1
  O2-  O182  1  0.62490653  0.75172975  0.16513744  1
  O2-  O183  1  0.62634072  0.75011127  0.65792266  1
  O2-  O184  1  0.87424469  -0.00181083  0.16720816  1
  O2-  O185  1  0.87407440  -0.00006548  0.65881967  1
  O2-  O186  1  0.87498572  0.25365229  0.16451678  1
  O2-  O187  1  0.87551082  0.24775011  0.66537792  1
  O2-  O188  1  0.87291303  0.50023989  0.15813263  1
  O2-  O189  1  0.87487651  0.49984100  0.66720772  1
  O2-  O190  1  0.87375228  0.74797771  0.16371379  1
  O2-  O191  1  0.87396764  0.75181416  0.65996096  1
  O2-  O192  1  0.00273563  0.12479596  0.16259499  1
  O2-  O193  1  -0.00126029  0.12451466  0.66441140  1
  O2-  O194  1  -0.00313596  0.37598496  0.16238805  1
  O2-  O195  1  0.00197035  0.37463376  0.66539596  1
  O2-  O196  1  -0.00306163  0.62434856  0.16236080  1
  O2-  O197  1  -0.00101506  0.62474250  0.66763927  1
  O2-  O198  1  -0.00133740  0.87506454  0.16369773  1
  O2-  O199  1  -0.00180833  0.87551209  0.66387755  1
  O2-  O200  1  0.24826024  0.12498771  0.16457275  1
  O2-  O201  1  0.24962141  0.12502897  0.66751065  1
  O2-  O202  1  0.25071854  0.37511897  0.16649206  1
  O2-  O203  1  0.24738320  0.37409497  0.66500337  1
  O2-  O204  1  0.25205790  0.62527242  0.16484540  1
  O2-  O205  1  0.25229667  0.62483988  0.66393903  1
  O2-  O206  1  0.25251084  0.87475509  0.16449520  1
  O2-  O207  1  0.24835619  0.87537005  0.66461132  1
  O2-  O208  1  0.50130490  0.12423579  0.16936241  1
  O2-  O209  1  0.49971088  0.12482535  0.66639430  1
  O2-  O210  1  0.50155528  0.37586506  0.16823367  1
  O2-  O211  1  0.50000813  0.37451919  0.66438554  1
  O2-  O212  1  0.49891632  0.62536764  0.16666173  1
  O2-  O213  1  0.50122567  0.62581349  0.65919467  1
  O2-  O214  1  0.50147734  0.87439253  0.16675200  1
  O2-  O215  1  0.50326683  0.87487310  0.66243304  1
  O2-  O216  1  0.74767016  0.12425934  0.16775840  1
  O2-  O217  1  0.75156926  0.12486082  0.66353123  1
  O2-  O218  1  0.75049311  0.37541451  0.16321859  1
  O2-  O219  1  0.75099511  0.37508807  0.66625276  1
  O2-  O220  1  0.75186225  0.62625263  0.16248403  1
  O2-  O221  1  0.74811053  0.62511225  0.66358621  1
  O2-  O222  1  0.74741796  0.87426460  0.16494911  1
  O2-  O223  1  0.75030802  0.87455197  0.66103390  1
  O2-  O224  1  0.12349331  0.00032601  0.34504962  1
  O2-  O225  1  0.12481922  0.00181704  0.85013609  1
  O2-  O226  1  0.12363620  0.25105502  0.34805321  1
  O2-  O227  1  0.12437639  0.24752958  0.85183641  1
  O2-  O228  1  0.12346017  0.49724033  0.34909672  1
  O2-  O229  1  0.12495598  0.50037599  0.84911629  1
  O2-  O230  1  0.12348861  0.75153525  0.34646133  1
  O2-  O231  1  0.12514927  0.74970326  0.84823759  1
  O2-  O232  1  0.37487145  0.00109211  0.34952784  1
  O2-  O233  1  0.37610441  -0.00241065  0.84935033  1
  O2-  O234  1  0.37405972  0.24931061  0.35034009  1
  O2-  O235  1  0.37512554  0.25038079  0.85207385  1
  O2-  O236  1  0.37564078  0.50173214  0.34632159  1
  O2-  O237  1  0.37591665  0.50170092  0.84678574  1
  O2-  O238  1  0.37557652  0.74806756  0.34690616  1
  O2-  O239  1  0.37599036  0.75019974  0.84143556  1
  O2-  O240  1  0.62643316  -0.00045891  0.35031503  1
  O2-  O241  1  0.62526552  -0.00278745  0.84982063  1
  O2-  O242  1  0.62654839  0.24985640  0.34696736  1
  O2-  O243  1  0.62542379  0.24962280  0.85177589  1
  O2-  O244  1  0.62577718  0.50125611  0.34516949  1
  O2-  O245  1  0.62569449  0.50208993  0.84737385  1
  O2-  O246  1  0.62726894  0.74972030  0.35148154  1
  O2-  O247  1  0.62551702  0.75161858  0.84124430  1
  O2-  O248  1  0.87443296  0.00035663  0.35212036  1
  O2-  O249  1  0.87427324  -0.00273727  0.84292685  1
  O2-  O250  1  0.87532969  0.24886822  0.34692257  1
  O2-  O251  1  0.87446111  0.25309232  0.85066671  1
  O2-  O252  1  0.87497862  0.49947328  0.34013349  1
  O2-  O253  1  0.87349501  0.50090125  0.85237888  1
  O2-  O254  1  0.87326153  0.75145115  0.34864401  1
  O2-  O255  1  0.87401262  0.74854798  0.84366595  1
  O2-  O256  1  -0.00179956  0.12521471  0.34566508  1
  O2-  O257  1  0.00371710  0.12483067  0.84865800  1
  O2-  O258  1  0.00051134  0.37423422  0.34535225  1
  O2-  O259  1  -0.00284379  0.37573561  0.85003625  1
  O2-  O260  1  -0.00172999  0.62536482  0.34451191  1
  O2-  O261  1  -0.00234575  0.62500835  0.85175758  1
  O2-  O262  1  -0.00182767  0.87530383  0.34619489  1
  O2-  O263  1  -0.00104924  0.87430271  0.84796181  1
  O2-  O264  1  0.24925168  0.12534759  0.34807219  1
  O2-  O265  1  0.24767058  0.12458309  0.84951473  1
  O2-  O266  1  0.24703759  0.37469295  0.35070940  1
  O2-  O267  1  0.25031281  0.37524031  0.84808384  1
  O2-  O268  1  0.25043199  0.62453841  0.34742952  1
  O2-  O269  1  0.25192202  0.62531630  0.84591804  1
  O2-  O270  1  0.24763897  0.87553708  0.34666855  1
  O2-  O271  1  0.25223481  0.87463693  0.84761905  1
  O2-  O272  1  0.49965969  0.12449649  0.35108187  1
  O2-  O273  1  0.50020043  0.12413848  0.84964999  1
  O2-  O274  1  0.50188895  0.37507796  0.34952628  1
  O2-  O275  1  0.50097428  0.37536350  0.84853444  1
  O2-  O276  1  0.50219209  0.62597165  0.34995388  1
  O2-  O277  1  0.49982290  0.62595551  0.84087199  1
  O2-  O278  1  0.50333911  0.87469208  0.35150957  1
  O2-  O279  1  0.50126508  0.87442132  0.84537791  1
  O2-  O280  1  0.75211676  0.12438808  0.34899922  1
  O2-  O281  1  0.74829694  0.12415971  0.84824381  1
  O2-  O282  1  0.75057392  0.37525231  0.34247276  1
  O2-  O283  1  0.75118055  0.37567088  0.85115975  1
  O2-  O284  1  0.74894549  0.62521131  0.34561610  1
  O2-  O285  1  0.75071556  0.62600281  0.84764334  1
  O2-  O286  1  0.75082756  0.87532113  0.35036865  1
  O2-  O287  1  0.74801170  0.87423548  0.84571880  1
