# generated using pymatgen
data_BaYFeCuO5
_symmetry_space_group_name_H-M   'P 1'
_cell_length_a   15.67550814
_cell_length_b   15.67762675
_cell_length_c   15.50132479
_cell_angle_alpha   89.99760468
_cell_angle_beta   90.00230123
_cell_angle_gamma   89.99987771
_symmetry_Int_Tables_number   1
_chemical_formula_structural   BaYFeCuO5
_chemical_formula_sum   'Ba32 Y32 Fe32 Cu32 O160'
_cell_volume   3809.52443453
_cell_formula_units_Z   32
loop_
 _symmetry_equiv_pos_site_id
 _symmetry_equiv_pos_as_xyz
  1  'x, y, z'
loop_
 _atom_type_symbol
 _atom_type_oxidation_number
  Ba2+  2.0
  Y3+  3.0
  Fe3+  3.0
  Cu2+  2.0
  O2-  -2.0
loop_
 _atom_site_type_symbol
 _atom_site_label
 _atom_site_symmetry_multiplicity
 _atom_site_fract_x
 _atom_site_fract_y
 _atom_site_fract_z
 _atom_site_occupancy
  Ba2+  Ba0  1  0.00129850  0.00100120  0.02133103  1
  Ba2+  Ba1  1  -0.00206734  0.01218210  0.51116614  1
  Ba2+  Ba2  1  0.00478923  0.24977970  0.01438325  1
  Ba2+  Ba3  1  -0.00388872  0.24880096  0.51285105  1
  Ba2+  Ba4  1  0.00303209  0.49901844  0.02017055  1
  Ba2+  Ba5  1  0.00387304  0.49271019  0.51257417  1
  Ba2+  Ba6  1  -0.00060922  0.75116693  0.02673995  1
  Ba2+  Ba7  1  0.00502111  0.74497704  0.51005810  1
  Ba2+  Ba8  1  0.24810735  0.00155407  0.02016948  1
  Ba2+  Ba9  1  0.25007425  0.00079138  0.51517763  1
  Ba2+  Ba10  1  0.24690807  0.25202231  0.01030824  1
  Ba2+  Ba11  1  0.24075720  0.25097624  0.52060819  1
  Ba2+  Ba12  1  0.24911556  0.49483062  0.00639523  1
  Ba2+  Ba13  1  0.24637637  0.50239840  0.51483926  1
  Ba2+  Ba14  1  0.24912666  0.75062717  0.01724961  1
  Ba2+  Ba15  1  0.25520537  0.74538712  0.51115367  1
  Ba2+  Ba16  1  0.50210299  0.00000208  0.02232946  1
  Ba2+  Ba17  1  0.49944612  0.00065355  0.50717969  1
  Ba2+  Ba18  1  0.49567836  0.24516570  0.01219098  1
  Ba2+  Ba19  1  0.51006149  0.25383236  0.50199566  1
  Ba2+  Ba20  1  0.49338193  0.50254205  -0.00396729  1
  Ba2+  Ba21  1  0.50728439  0.50226252  0.50330175  1
  Ba2+  Ba22  1  0.50019098  0.75100775  0.00574328  1
  Ba2+  Ba23  1  0.49788837  0.74207896  0.50674582  1
  Ba2+  Ba24  1  0.74871194  0.00015816  0.02221628  1
  Ba2+  Ba25  1  0.75209831  0.01258404  0.50234819  1
  Ba2+  Ba26  1  0.75212407  0.24289402  0.01558930  1
  Ba2+  Ba27  1  0.75118975  0.25186991  0.49461841  1
  Ba2+  Ba28  1  0.75556775  0.50523740  0.01308110  1
  Ba2+  Ba29  1  0.74197644  0.49332172  0.50358521  1
  Ba2+  Ba30  1  0.75114783  0.75269793  0.02019586  1
  Ba2+  Ba31  1  0.74336333  0.74239297  0.50745434  1
  Y3+  Y32  1  -0.00066713  0.00328542  0.25654596  1
  Y3+  Y33  1  -0.00013029  0.00406332  0.75488915  1
  Y3+  Y34  1  -0.00184776  0.25017037  0.25401955  1
  Y3+  Y35  1  0.00236186  0.24879939  0.75921781  1
  Y3+  Y36  1  -0.00050104  0.49704063  0.25438616  1
  Y3+  Y37  1  0.00253195  0.49780631  0.75803760  1
  Y3+  Y38  1  0.00034267  0.74982233  0.25772897  1
  Y3+  Y39  1  0.00071706  0.74940454  0.75270101  1
  Y3+  Y40  1  0.25021746  0.00119625  0.25413256  1
  Y3+  Y41  1  0.24867951  0.00127615  0.75663276  1
  Y3+  Y42  1  0.25020760  0.25134518  0.24995113  1
  Y3+  Y43  1  0.24718428  0.25126878  0.76424985  1
  Y3+  Y44  1  0.25018555  0.49833085  0.25315471  1
  Y3+  Y45  1  0.24991520  0.49786267  0.76224348  1
  Y3+  Y46  1  0.25027296  0.74962351  0.25693070  1
  Y3+  Y47  1  0.25149009  0.74952792  0.75596597  1
  Y3+  Y48  1  0.50070564  0.00151108  0.25673091  1
  Y3+  Y49  1  0.50098625  0.00048289  0.75723317  1
  Y3+  Y50  1  0.50093377  0.25058187  0.25559419  1
  Y3+  Y51  1  0.50154125  0.25164568  0.76177763  1
  Y3+  Y52  1  0.50000520  0.49906822  0.26052769  1
  Y3+  Y53  1  0.50124182  0.49963896  0.75813647  1
  Y3+  Y54  1  0.50000680  0.74902793  0.25994081  1
  Y3+  Y55  1  0.50038340  0.74791681  0.75632862  1
  Y3+  Y56  1  0.75025001  0.00388358  0.25777746  1
  Y3+  Y57  1  0.75011622  0.00283925  0.75634136  1
  Y3+  Y58  1  0.75088089  0.24939261  0.25738390  1
  Y3+  Y59  1  0.74913611  0.24901721  0.75814529  1
  Y3+  Y60  1  0.74996821  0.49765650  0.26010704  1
  Y3+  Y61  1  0.74634146  0.50013342  0.75639658  1
  Y3+  Y62  1  0.74951815  0.74941159  0.25999208  1
  Y3+  Y63  1  0.74707335  0.74781744  0.75518402  1
  Fe3+  Fe64  1  0.12596712  0.12661809  0.37496958  1
  Fe3+  Fe65  1  0.37320511  0.37500795  0.38082655  1
  Fe3+  Fe66  1  0.87558897  0.87448353  0.87408890  1
  Fe3+  Fe67  1  0.37391370  0.12694488  0.37934591  1
  Fe3+  Fe68  1  0.87561136  0.87549810  0.38005894  1
  Fe3+  Fe69  1  0.12524167  0.87598946  0.37863291  1
  Fe3+  Fe70  1  0.87528013  0.37539627  0.87920332  1
  Fe3+  Fe71  1  0.37420535  0.87534024  0.37750452  1
  Fe3+  Fe72  1  0.62627521  0.37468460  0.88200103  1
  Fe3+  Fe73  1  0.12400895  0.62687011  0.87668092  1
  Fe3+  Fe74  1  0.62631026  0.87562445  0.87560409  1
  Fe3+  Fe75  1  0.37507191  0.12334668  0.87697418  1
  Fe3+  Fe76  1  0.12355534  0.87512300  0.87470313  1
  Fe3+  Fe77  1  0.87509038  0.12382022  0.87785049  1
  Fe3+  Fe78  1  0.12531390  0.37369033  0.37448234  1
  Fe3+  Fe79  1  0.87572921  0.62646442  0.87512372  1
  Fe3+  Fe80  1  0.12594358  0.62334150  0.37539530  1
  Fe3+  Fe81  1  0.37451627  0.87552397  0.87580143  1
  Fe3+  Fe82  1  0.62512793  0.87575447  0.37963625  1
  Fe3+  Fe83  1  0.87593998  0.62286288  0.37938767  1
  Fe3+  Fe84  1  0.62457618  0.37594452  0.13555465  1
  Fe3+  Fe85  1  0.87494432  0.62273926  0.63284550  1
  Fe3+  Fe86  1  0.37570137  0.62469286  0.13908485  1
  Fe3+  Fe87  1  0.12519961  0.87522540  0.63240760  1
  Fe3+  Fe88  1  0.62440804  0.62457500  0.13937255  1
  Fe3+  Fe89  1  0.62515572  0.12707180  0.63729647  1
  Fe3+  Fe90  1  0.37524851  0.62313723  0.64002352  1
  Fe3+  Fe91  1  0.87367331  0.37391849  0.63846830  1
  Fe3+  Fe92  1  0.37573816  0.37427389  0.63609089  1
  Fe3+  Fe93  1  0.87378018  0.87549976  0.63064304  1
  Fe3+  Fe94  1  0.62457890  0.87537095  0.63295222  1
  Fe3+  Fe95  1  0.37552645  0.12631399  0.63458437  1
  Cu2+  Cu96  1  0.37377975  0.62360552  0.36386567  1
  Cu2+  Cu97  1  0.62533844  0.12350755  0.87498537  1
  Cu2+  Cu98  1  0.12338691  0.37506913  0.87353810  1
  Cu2+  Cu99  1  0.12443379  0.12331595  0.87376125  1
  Cu2+  Cu100  1  0.62472153  0.37450779  0.36883286  1
  Cu2+  Cu101  1  0.62400888  0.12518989  0.36224622  1
  Cu2+  Cu102  1  0.37425506  0.62617986  0.86276618  1
  Cu2+  Cu103  1  0.62497722  0.62468179  0.37255809  1
  Cu2+  Cu104  1  0.62569998  0.62578446  0.86566060  1
  Cu2+  Cu105  1  0.87643423  0.12625844  0.37074380  1
  Cu2+  Cu106  1  0.87631257  0.37487163  0.36257208  1
  Cu2+  Cu107  1  0.37508361  0.37415225  0.87375423  1
  Cu2+  Cu108  1  0.12534299  0.37453205  0.65509317  1
  Cu2+  Cu109  1  0.87382067  0.12690076  0.64220455  1
  Cu2+  Cu110  1  0.12526373  0.62494258  0.15170430  1
  Cu2+  Cu111  1  0.87507182  0.12532928  0.15136133  1
  Cu2+  Cu112  1  0.37581749  0.87535233  0.64725865  1
  Cu2+  Cu113  1  0.12516181  0.37514612  0.14164297  1
  Cu2+  Cu114  1  0.12539874  0.12513889  0.65180227  1
  Cu2+  Cu115  1  0.62464427  0.37405473  0.64441611  1
  Cu2+  Cu116  1  0.12497810  0.87509933  0.15554064  1
  Cu2+  Cu117  1  0.12547647  0.62442688  0.65064364  1
  Cu2+  Cu118  1  0.62500656  0.87422216  0.15714405  1
  Cu2+  Cu119  1  0.87451906  0.87550694  0.15784686  1
  Cu2+  Cu120  1  0.37689479  0.37606697  0.14080449  1
  Cu2+  Cu121  1  0.62428697  0.62354523  0.64260291  1
  Cu2+  Cu122  1  0.87448568  0.62492839  0.15674025  1
  Cu2+  Cu123  1  0.37539909  0.12515238  0.15189787  1
  Cu2+  Cu124  1  0.62496227  0.12560400  0.14341903  1
  Cu2+  Cu125  1  0.37571706  0.87431703  0.15363454  1
  Cu2+  Cu126  1  0.87374401  0.37494465  0.14819642  1
  Cu2+  Cu127  1  0.12521191  0.12561926  0.14168398  1
  O2-  O128  1  0.12467604  0.12228410  0.00664890  1
  O2-  O129  1  0.12643070  0.12683036  0.49529227  1
  O2-  O130  1  0.12363464  0.37632257  0.00713001  1
  O2-  O131  1  0.12626431  0.37412029  0.49469057  1
  O2-  O132  1  0.12218996  0.62967187  -0.00339129  1
  O2-  O133  1  0.12577401  0.62318164  0.49561828  1
  O2-  O134  1  0.12284773  0.87365551  -0.00555522  1
  O2-  O135  1  0.12596877  0.87572936  0.50416542  1
  O2-  O136  1  0.37547751  0.12064690  -0.00273458  1
  O2-  O137  1  0.37395816  0.12738094  0.50654085  1
  O2-  O138  1  0.37641735  0.37546154  0.00760938  1
  O2-  O139  1  0.37302858  0.37458074  0.50829231  1
  O2-  O140  1  0.37600613  0.62745765  0.01892903  1
  O2-  O141  1  0.37452026  0.62223230  0.51916998  1
  O2-  O142  1  0.37455669  0.87583506  -0.00440435  1
  O2-  O143  1  0.37330360  0.87583310  0.49725261  1
  O2-  O144  1  0.62527889  0.12239947  0.00824175  1
  O2-  O145  1  0.62453814  0.12728866  0.51677727  1
  O2-  O146  1  0.62578509  0.37700107  0.00879208  1
  O2-  O147  1  0.62480222  0.37373100  0.50766199  1
  O2-  O148  1  0.62553707  0.62699897  0.01927200  1
  O2-  O149  1  0.62442167  0.62466104  0.50715161  1
  O2-  O150  1  0.62688223  0.87468652  -0.00416544  1
  O2-  O151  1  0.62452763  0.87578818  0.50611075  1
  O2-  O152  1  0.87530826  0.12083554  -0.00169494  1
  O2-  O153  1  0.87503588  0.12756996  0.50610436  1
  O2-  O154  1  0.87519144  0.37704609  -0.00071757  1
  O2-  O155  1  0.87428149  0.37468056  0.51796306  1
  O2-  O156  1  0.87596673  0.62993365  -0.00516156  1
  O2-  O157  1  0.87594332  0.62148067  0.50586716  1
  O2-  O158  1  0.87572067  0.87324615  -0.00643226  1
  O2-  O159  1  0.87483324  0.87583542  0.50512976  1
  O2-  O160  1  0.12503446  -0.00119617  0.16711238  1
  O2-  O161  1  0.12432283  -0.00163828  0.65855561  1
  O2-  O162  1  0.12549337  0.25029568  0.16266453  1
  O2-  O163  1  0.12601825  0.24919590  0.66707641  1
  O2-  O164  1  0.12451945  0.50120063  0.16459170  1
  O2-  O165  1  0.12508876  0.49986692  0.66492072  1
  O2-  O166  1  0.12448557  0.75049679  0.16822466  1
  O2-  O167  1  0.12544391  0.75172502  0.65713604  1
  O2-  O168  1  0.37566643  -0.00094641  0.16673778  1
  O2-  O169  1  0.37544467  0.00210210  0.65748773  1
  O2-  O170  1  0.37633897  0.24903031  0.16557069  1
  O2-  O171  1  0.37415650  0.24993396  0.66333812  1
  O2-  O172  1  0.37595362  0.50261714  0.17033028  1
  O2-  O173  1  0.37420561  0.49751680  0.66766124  1
  O2-  O174  1  0.37527447  0.74950174  0.16924870  1
  O2-  O175  1  0.37500422  0.74958684  0.66323843  1
  O2-  O176  1  0.62501374  -0.00157873  0.16786117  1
  O2-  O177  1  0.62492612  -0.00052565  0.66104153  1
  O2-  O178  1  0.62494642  0.25293669  0.16231102  1
  O2-  O179  1  0.62381804  0.24827633  0.67177862  1
  O2-  O180  1  0.62574923  0.49971282  0.16737725  1
  O2-  O181  1  0.62413932  0.49953333  0.66770339  1
  O2-  O182  1  0.62582365  0.74925961  0.17027168  1
  O2-  O183  1  0.62469655  0.75227628  0.66036846  1
  O2-  O184  1  0.87473365  0.00002562  0.16673554  1
  O2-  O185  1  0.87480584  -0.00269177  0.65947757  1
  O2-  O186  1  0.87410025  0.24965062  0.16303437  1
  O2-  O187  1  0.87529830  0.25171263  0.67008847  1
  O2-  O188  1  0.87450818  0.50060523  0.16550172  1
  O2-  O189  1  0.87657407  0.50053308  0.66568709  1
  O2-  O190  1  0.87453996  0.75037560  0.17028492  1
  O2-  O191  1  0.87484351  0.74970967  0.65431512  1
  O2-  O192  1  -0.00136195  0.12457036  0.16485698  1
  O2-  O193  1  0.00131912  0.12522119  0.66114949  1
  O2-  O194  1  -0.00192837  0.37527038  0.16411626  1
  O2-  O195  1  0.00067450  0.37458874  0.66348068  1
  O2-  O196  1  -0.00040619  0.62582543  0.16599730  1
  O2-  O197  1  -0.00108684  0.62584198  0.65774273  1
  O2-  O198  1  -0.00043670  0.87474989  0.16783378  1
  O2-  O199  1  -0.00041749  0.87385268  0.65559571  1
  O2-  O200  1  0.25173087  0.12433575  0.16451470  1
  O2-  O201  1  0.25156940  0.12416634  0.66160027  1
  O2-  O202  1  0.25087040  0.37556794  0.16347121  1
  O2-  O203  1  0.25102231  0.37459609  0.66505920  1
  O2-  O204  1  0.25027751  0.62619146  0.16480673  1
  O2-  O205  1  0.25035466  0.62463383  0.66603099  1
  O2-  O206  1  0.25006861  0.87477309  0.16411472  1
  O2-  O207  1  0.24833973  0.87555192  0.66026407  1
  O2-  O208  1  0.49890899  0.12462063  0.16839322  1
  O2-  O209  1  0.49885511  0.12488371  0.66457141  1
  O2-  O210  1  0.50354401  0.37553950  0.16826019  1
  O2-  O211  1  0.49693255  0.37423560  0.66664094  1
  O2-  O212  1  0.50089135  0.62587495  0.17155233  1
  O2-  O213  1  0.49804843  0.62421436  0.66908065  1
  O2-  O214  1  0.50043721  0.87487950  0.16801409  1
  O2-  O215  1  0.50223589  0.87568495  0.66209054  1
  O2-  O216  1  0.75134011  0.12456150  0.16639845  1
  O2-  O217  1  0.74795193  0.12502077  0.66696219  1
  O2-  O218  1  0.74800196  0.37589149  0.16476792  1
  O2-  O219  1  0.75096996  0.37563917  0.66907688  1
  O2-  O220  1  0.74926021  0.62558239  0.16869410  1
  O2-  O221  1  0.75316663  0.62429983  0.66221528  1
  O2-  O222  1  0.75008850  0.87459141  0.16900999  1
  O2-  O223  1  0.74955236  0.87424935  0.65929133  1
  O2-  O224  1  0.12539237  -0.00067588  0.34944547  1
  O2-  O225  1  0.12437030  -0.00269928  0.84058673  1
  O2-  O226  1  0.12614944  0.25028835  0.34277366  1
  O2-  O227  1  0.12461036  0.24949863  0.85181981  1
  O2-  O228  1  0.12501142  0.49901721  0.34537644  1
  O2-  O229  1  0.12480325  0.50264576  0.84831709  1
  O2-  O230  1  0.12487093  0.75127930  0.35134370  1
  O2-  O231  1  0.12445035  0.75061286  0.83825024  1
  O2-  O232  1  0.37475186  0.00180980  0.35070178  1
  O2-  O233  1  0.37483342  -0.00114990  0.83915351  1
  O2-  O234  1  0.37475736  0.25035581  0.35054640  1
  O2-  O235  1  0.37548727  0.24785128  0.84699971  1
  O2-  O236  1  0.37412381  0.49814980  0.35303003  1
  O2-  O237  1  0.37492717  0.50186032  0.85089969  1
  O2-  O238  1  0.37438638  0.75016278  0.35159023  1
  O2-  O239  1  0.37524329  0.75122261  0.84517626  1
  O2-  O240  1  0.62492816  -0.00152864  0.35208238  1
  O2-  O241  1  0.62552859  -0.00255975  0.84144221  1
  O2-  O242  1  0.62452237  0.24895428  0.34643551  1
  O2-  O243  1  0.62535187  0.25255719  0.85381108  1
  O2-  O244  1  0.62516434  0.49943194  0.34906029  1
  O2-  O245  1  0.62532919  0.49925093  0.85206566  1
  O2-  O246  1  0.62494558  0.75336569  0.35274675  1
  O2-  O247  1  0.62493938  0.75081516  0.84357142  1
  O2-  O248  1  0.87540947  -0.00278657  0.35062498  1
  O2-  O249  1  0.87501505  -0.00097083  0.84059671  1
  O2-  O250  1  0.87521680  0.25157958  0.34681283  1
  O2-  O251  1  0.87420702  0.24992628  0.85039129  1
  O2-  O252  1  0.87581221  0.50101872  0.35008681  1
  O2-  O253  1  0.87432849  0.50097054  0.84642264  1
  O2-  O254  1  0.87582107  0.74986533  0.35471452  1
  O2-  O255  1  0.87504175  0.75020752  0.83584030  1
  O2-  O256  1  0.00283602  0.12502669  0.34662831  1
  O2-  O257  1  -0.00256677  0.12409504  0.84421640  1
  O2-  O258  1  0.00119357  0.37488431  0.34689937  1
  O2-  O259  1  -0.00252948  0.37529679  0.84487242  1
  O2-  O260  1  -0.00036115  0.62545366  0.34924573  1
  O2-  O261  1  -0.00011476  0.62593097  0.83905824  1
  O2-  O262  1  0.00057936  0.87445491  0.35203699  1
  O2-  O263  1  -0.00062235  0.87436098  0.83725432  1
  O2-  O264  1  0.25112765  0.12486037  0.34643801  1
  O2-  O265  1  0.25191761  0.12374887  0.84504324  1
  O2-  O266  1  0.25096819  0.37482546  0.34559612  1
  O2-  O267  1  0.24956838  0.37501389  0.85009467  1
  O2-  O268  1  0.24884448  0.62510886  0.34627191  1
  O2-  O269  1  0.24909546  0.62645617  0.84767542  1
  O2-  O270  1  0.24865880  0.87529529  0.34736722  1
  O2-  O271  1  0.24957933  0.87464496  0.84259200  1
  O2-  O272  1  0.49765802  0.12517746  0.35271389  1
  O2-  O273  1  0.49847230  0.12420223  0.84563466  1
  O2-  O274  1  0.49614791  0.37467628  0.35179644  1
  O2-  O275  1  0.50360107  0.37583458  0.85066583  1
  O2-  O276  1  0.49805492  0.62493629  0.35239641  1
  O2-  O277  1  0.49973869  0.62574493  0.85200127  1
  O2-  O278  1  0.50040314  0.87570738  0.35133769  1
  O2-  O279  1  0.50018414  0.87433859  0.84469782  1
  O2-  O280  1  0.74877559  0.12529707  0.35047434  1
  O2-  O281  1  0.75213966  0.12414012  0.84697524  1
  O2-  O282  1  0.75169988  0.37470721  0.34925353  1
  O2-  O283  1  0.74923241  0.37594263  0.84942441  1
  O2-  O284  1  0.75357531  0.62526450  0.35177038  1
  O2-  O285  1  0.75094510  0.62589274  0.84455697  1
  O2-  O286  1  0.75043866  0.87470798  0.35354266  1
  O2-  O287  1  0.75073288  0.87375650  0.84052495  1
