# generated using pymatgen
data_BaYFeCuO5
_symmetry_space_group_name_H-M   'P 1'
_cell_length_a   15.65883434
_cell_length_b   15.66131571
_cell_length_c   15.46015232
_cell_angle_alpha   89.99965848
_cell_angle_beta   89.99615015
_cell_angle_gamma   89.99497269
_symmetry_Int_Tables_number   1
_chemical_formula_structural   BaYFeCuO5
_chemical_formula_sum   'Ba32 Y32 Fe32 Cu32 O160'
_cell_volume   3791.41601072
_cell_formula_units_Z   32
loop_
 _symmetry_equiv_pos_site_id
 _symmetry_equiv_pos_as_xyz
  1  'x, y, z'
loop_
 _atom_type_symbol
 _atom_type_oxidation_number
  Ba2+  2.0
  Y3+  3.0
  Fe3+  3.0
  Cu2+  2.0
  O2-  -2.0
loop_
 _atom_site_type_symbol
 _atom_site_label
 _atom_site_symmetry_multiplicity
 _atom_site_fract_x
 _atom_site_fract_y
 _atom_site_fract_z
 _atom_site_occupancy
  Ba2+  Ba0  1  -0.00694776  -0.00747944  0.00559121  1
  Ba2+  Ba1  1  0.00760838  -0.00561082  0.50661895  1
  Ba2+  Ba2  1  -0.00814634  0.25080939  0.01754698  1
  Ba2+  Ba3  1  -0.00512935  0.25444891  0.50182016  1
  Ba2+  Ba4  1  -0.00031885  0.50358260  0.02281916  1
  Ba2+  Ba5  1  -0.00427324  0.49662189  0.50257486  1
  Ba2+  Ba6  1  0.00131947  0.75287691  0.01246100  1
  Ba2+  Ba7  1  0.00749386  0.75485669  0.50725591  1
  Ba2+  Ba8  1  0.25116947  -0.00809783  0.01708636  1
  Ba2+  Ba9  1  0.25599223  -0.00801200  0.51047681  1
  Ba2+  Ba10  1  0.24990465  0.24927997  0.01488732  1
  Ba2+  Ba11  1  0.26097126  0.25019678  0.51784052  1
  Ba2+  Ba12  1  0.24342410  0.50815701  0.00612466  1
  Ba2+  Ba13  1  0.26083035  0.50006439  0.51864074  1
  Ba2+  Ba14  1  0.24383656  0.75031765  0.00542732  1
  Ba2+  Ba15  1  0.25543896  0.75779880  0.51129018  1
  Ba2+  Ba16  1  0.50113698  -0.00093640  0.02539252  1
  Ba2+  Ba17  1  0.49510778  0.00449450  0.51103029  1
  Ba2+  Ba18  1  0.50770667  0.24818941  0.01387125  1
  Ba2+  Ba19  1  0.50172862  0.24881391  0.52247988  1
  Ba2+  Ba20  1  0.50882318  0.50445540  0.00257263  1
  Ba2+  Ba21  1  0.49970287  0.49823029  0.52074245  1
  Ba2+  Ba22  1  0.50291918  0.74889629  0.01181948  1
  Ba2+  Ba23  1  0.49246005  0.74834360  0.50774170  1
  Ba2+  Ba24  1  0.75436057  -0.00071121  0.01723027  1
  Ba2+  Ba25  1  0.74130995  0.00733478  0.50669955  1
  Ba2+  Ba26  1  0.75050800  0.24904778  0.01640177  1
  Ba2+  Ba27  1  0.74027825  0.25231967  0.50665882  1
  Ba2+  Ba28  1  0.74722644  0.50082585  0.01586902  1
  Ba2+  Ba29  1  0.74359593  0.49493200  0.50038336  1
  Ba2+  Ba30  1  0.75124840  0.75069401  0.01733608  1
  Ba2+  Ba31  1  0.74376321  0.74444046  0.50189608  1
  Y3+  Y32  1  0.00014223  -0.00302785  0.25511030  1
  Y3+  Y33  1  -0.00000612  -0.00277794  0.76029383  1
  Y3+  Y34  1  -0.00216189  0.25094444  0.25600498  1
  Y3+  Y35  1  -0.00201955  0.24746816  0.75905875  1
  Y3+  Y36  1  -0.00052860  0.49986165  0.25665798  1
  Y3+  Y37  1  0.00068180  0.50192609  0.75787074  1
  Y3+  Y38  1  0.00211424  0.75170495  0.25538398  1
  Y3+  Y39  1  0.00279611  0.75354933  0.76083346  1
  Y3+  Y40  1  0.25100412  -0.00441246  0.25837604  1
  Y3+  Y41  1  0.24976143  -0.00407699  0.75517555  1
  Y3+  Y42  1  0.25035093  0.24939996  0.25344843  1
  Y3+  Y43  1  0.25177419  0.24940725  0.75839465  1
  Y3+  Y44  1  0.24836158  0.50107133  0.25318480  1
  Y3+  Y45  1  0.25191113  0.50373361  0.76097866  1
  Y3+  Y46  1  0.24902019  0.75339682  0.25652813  1
  Y3+  Y47  1  0.24967392  0.75109133  0.75862086  1
  Y3+  Y48  1  0.49932798  -0.00036866  0.25904905  1
  Y3+  Y49  1  0.49922447  0.00067562  0.75229216  1
  Y3+  Y50  1  0.50256287  0.24755488  0.25267306  1
  Y3+  Y51  1  0.50254406  0.25047917  0.75794278  1
  Y3+  Y52  1  0.50334197  0.50143652  0.25199948  1
  Y3+  Y53  1  0.50126754  0.50095798  0.76303760  1
  Y3+  Y54  1  0.50008808  0.75098222  0.25654483  1
  Y3+  Y55  1  0.49778984  0.74818901  0.75886560  1
  Y3+  Y56  1  0.74894498  0.00132341  0.25633422  1
  Y3+  Y57  1  0.75189208  0.00146420  0.75875853  1
  Y3+  Y58  1  0.74901390  0.24980204  0.25530995  1
  Y3+  Y59  1  0.74760345  0.24899472  0.75945832  1
  Y3+  Y60  1  0.74861790  0.49944798  0.25412406  1
  Y3+  Y61  1  0.74651594  0.49948526  0.76154808  1
  Y3+  Y62  1  0.74864085  0.74922038  0.25510253  1
  Y3+  Y63  1  0.75006334  0.75032603  0.76048457  1
  Fe3+  Fe64  1  0.12644648  0.12516800  0.37951291  1
  Fe3+  Fe65  1  0.12718796  0.37482918  0.37907014  1
  Fe3+  Fe66  1  0.62503178  0.12295010  0.87727206  1
  Fe3+  Fe67  1  0.12705785  0.62479380  0.38022729  1
  Fe3+  Fe68  1  0.37546042  0.12343140  0.87809380  1
  Fe3+  Fe69  1  0.62486677  0.87630286  0.87686496  1
  Fe3+  Fe70  1  0.87484351  0.37539928  0.87772568  1
  Fe3+  Fe71  1  0.12361860  0.37486270  0.87754010  1
  Fe3+  Fe72  1  0.62212563  0.37461210  0.37335295  1
  Fe3+  Fe73  1  0.87544373  0.62556402  0.87766930  1
  Fe3+  Fe74  1  0.37542657  0.12624174  0.37445741  1
  Fe3+  Fe75  1  0.87452452  0.12509063  0.37941332  1
  Fe3+  Fe76  1  0.37660366  0.37513881  0.37306187  1
  Fe3+  Fe77  1  0.37636871  0.87561236  0.87707325  1
  Fe3+  Fe78  1  0.87463389  0.62481663  0.37882596  1
  Fe3+  Fe79  1  0.12490351  0.12385994  0.87988824  1
  Fe3+  Fe80  1  0.37529546  0.37499716  0.87961223  1
  Fe3+  Fe81  1  0.37554336  0.62368804  0.37539062  1
  Fe3+  Fe82  1  0.62355080  0.87495138  0.37903320  1
  Fe3+  Fe83  1  0.87433922  0.87504828  0.38015350  1
  Fe3+  Fe84  1  0.62520867  0.62486002  0.63875275  1
  Fe3+  Fe85  1  0.12402474  0.12329868  0.13568658  1
  Fe3+  Fe86  1  0.37559870  0.37620906  0.13231584  1
  Fe3+  Fe87  1  0.12515711  0.37492633  0.63432525  1
  Fe3+  Fe88  1  0.37457665  0.62617558  0.13545169  1
  Fe3+  Fe89  1  0.12565629  0.62518383  0.63442204  1
  Fe3+  Fe90  1  0.62469585  0.87448485  0.63414236  1
  Fe3+  Fe91  1  0.12523743  0.12496066  0.63395482  1
  Fe3+  Fe92  1  0.87347829  0.37556658  0.63660128  1
  Fe3+  Fe93  1  0.87478143  0.62494929  0.63364730  1
  Fe3+  Fe94  1  0.87501515  0.12520573  0.63408112  1
  Fe3+  Fe95  1  0.87420858  0.87450980  0.63364968  1
  Cu2+  Cu96  1  0.87397347  0.37497007  0.36279882  1
  Cu2+  Cu97  1  0.37495826  0.62613117  0.86875543  1
  Cu2+  Cu98  1  0.12337700  0.62575644  0.87167519  1
  Cu2+  Cu99  1  0.37565072  0.87456310  0.37137440  1
  Cu2+  Cu100  1  0.87388410  0.87465209  0.87094562  1
  Cu2+  Cu101  1  0.62585254  0.37397318  0.87462778  1
  Cu2+  Cu102  1  0.62640262  0.62710010  0.87307926  1
  Cu2+  Cu103  1  0.12568018  0.87492044  0.37231838  1
  Cu2+  Cu104  1  0.87482522  0.12480418  0.87378401  1
  Cu2+  Cu105  1  0.12580501  0.87587392  0.87211674  1
  Cu2+  Cu106  1  0.62384160  0.62431692  0.36257563  1
  Cu2+  Cu107  1  0.62350623  0.12591168  0.37128739  1
  Cu2+  Cu108  1  0.87475414  0.87451098  0.14537131  1
  Cu2+  Cu109  1  0.12478436  0.87497034  0.14312492  1
  Cu2+  Cu110  1  0.12490165  0.37479976  0.14868541  1
  Cu2+  Cu111  1  0.87516928  0.62570013  0.15422653  1
  Cu2+  Cu112  1  0.62551538  0.12386354  0.15096790  1
  Cu2+  Cu113  1  0.37430321  0.12497404  0.65275764  1
  Cu2+  Cu114  1  0.62561901  0.12507353  0.64147235  1
  Cu2+  Cu115  1  0.37622347  0.87430208  0.64261578  1
  Cu2+  Cu116  1  0.37433358  0.12432753  0.14708289  1
  Cu2+  Cu117  1  0.37519965  0.62520275  0.65448920  1
  Cu2+  Cu118  1  0.37532786  0.87406210  0.15042200  1
  Cu2+  Cu119  1  0.87558430  0.12384638  0.14449640  1
  Cu2+  Cu120  1  0.12503120  0.87483212  0.64276069  1
  Cu2+  Cu121  1  0.62517085  0.37498218  0.14007896  1
  Cu2+  Cu122  1  0.12498545  0.62629744  0.14457874  1
  Cu2+  Cu123  1  0.62504144  0.87518484  0.15316562  1
  Cu2+  Cu124  1  0.62540149  0.37588003  0.65570876  1
  Cu2+  Cu125  1  0.87455063  0.37547914  0.15306412  1
  Cu2+  Cu126  1  0.37542288  0.37539976  0.65778342  1
  Cu2+  Cu127  1  0.62500732  0.62597387  0.14221409  1
  O2-  O128  1  0.12369760  0.12440097  0.00698029  1
  O2-  O129  1  0.12731096  0.12698060  0.50654761  1
  O2-  O130  1  0.12285289  0.37425606  -0.00252408  1
  O2-  O131  1  0.12764505  0.37456656  0.50652422  1
  O2-  O132  1  0.12253382  0.62521102  0.00728575  1
  O2-  O133  1  0.12822131  0.62329312  0.50706807  1
  O2-  O134  1  0.12487580  0.87618029  0.00773469  1
  O2-  O135  1  0.12580934  0.87480596  0.50763876  1
  O2-  O136  1  0.37478279  0.12338337  -0.00198423  1
  O2-  O137  1  0.37484949  0.12826754  0.49518359  1
  O2-  O138  1  0.37371733  0.37537880  0.00552807  1
  O2-  O139  1  0.37722367  0.37454339  0.49351787  1
  O2-  O140  1  0.37404703  0.62618947  0.01500446  1
  O2-  O141  1  0.37583948  0.62173253  0.49616231  1
  O2-  O142  1  0.37722868  0.87630370  -0.00247689  1
  O2-  O143  1  0.37726880  0.87478760  0.50692455  1
  O2-  O144  1  0.62562419  0.12173222  -0.00218198  1
  O2-  O145  1  0.62338286  0.12709784  0.50678601  1
  O2-  O146  1  0.62629654  0.37386991  0.00678922  1
  O2-  O147  1  0.62034600  0.37534919  0.49445010  1
  O2-  O148  1  0.62691394  0.62733441  0.00760961  1
  O2-  O149  1  0.62415549  0.62262242  0.51811103  1
  O2-  O150  1  0.62521825  0.87725933  -0.00277608  1
  O2-  O151  1  0.62394212  0.87374477  0.50690264  1
  O2-  O152  1  0.87584164  0.12490176  0.00819814  1
  O2-  O153  1  0.87500131  0.12601503  0.50736720  1
  O2-  O154  1  0.87655148  0.37641094  -0.00213084  1
  O2-  O155  1  0.87338456  0.37527830  0.51594440  1
  O2-  O156  1  0.87630638  0.62501410  -0.00208735  1
  O2-  O157  1  0.87361809  0.62398909  0.50707252  1
  O2-  O158  1  0.87340244  0.87371382  0.00847069  1
  O2-  O159  1  0.87420318  0.87519029  0.50701661  1
  O2-  O160  1  0.12516999  0.00190581  0.16631322  1
  O2-  O161  1  0.12418421  0.00335068  0.66247348  1
  O2-  O162  1  0.12448684  0.24810368  0.16365861  1
  O2-  O163  1  0.12500271  0.25022440  0.66207608  1
  O2-  O164  1  0.12413719  0.49909056  0.16703650  1
  O2-  O165  1  0.12502617  0.49982494  0.66109168  1
  O2-  O166  1  0.12459673  0.75065156  0.16794734  1
  O2-  O167  1  0.12445179  0.74652085  0.66365270  1
  O2-  O168  1  0.37440072  -0.00095440  0.16593830  1
  O2-  O169  1  0.37444070  0.00130300  0.66161895  1
  O2-  O170  1  0.37362431  0.25170272  0.15902066  1
  O2-  O171  1  0.37409367  0.25039594  0.66579610  1
  O2-  O172  1  0.37410468  0.49943593  0.16268084  1
  O2-  O173  1  0.37469909  0.49981315  0.66718822  1
  O2-  O174  1  0.37508995  0.74990580  0.16738543  1
  O2-  O175  1  0.37488980  0.74862669  0.66511749  1
  O2-  O176  1  0.62530411  -0.00014139  0.16820279  1
  O2-  O177  1  0.62589979  -0.00293648  0.65936234  1
  O2-  O178  1  0.62554268  0.24789534  0.16197053  1
  O2-  O179  1  0.62539541  0.25186165  0.66510437  1
  O2-  O180  1  0.62574041  0.50029214  0.16335201  1
  O2-  O181  1  0.62479274  0.50068715  0.66898068  1
  O2-  O182  1  0.62521348  0.75171803  0.16772699  1
  O2-  O183  1  0.62623156  0.75066146  0.66405921  1
  O2-  O184  1  0.87510927  -0.00045413  0.16974284  1
  O2-  O185  1  0.87554717  0.00006418  0.66130993  1
  O2-  O186  1  0.87596411  0.25084215  0.16507342  1
  O2-  O187  1  0.87622003  0.24941172  0.66442377  1
  O2-  O188  1  0.87573838  0.50042701  0.16672444  1
  O2-  O189  1  0.87629149  0.50118982  0.66374421  1
  O2-  O190  1  0.87499598  0.74897148  0.17002940  1
  O2-  O191  1  0.87518231  0.74954004  0.66015600  1
  O2-  O192  1  0.00287410  0.12519542  0.16999008  1
  O2-  O193  1  -0.00013373  0.12601766  0.66126447  1
  O2-  O194  1  -0.00037765  0.37500962  0.16901191  1
  O2-  O195  1  0.00111972  0.37486502  0.65998117  1
  O2-  O196  1  -0.00088183  0.62489293  0.17104577  1
  O2-  O197  1  0.00013660  0.62394987  0.65722181  1
  O2-  O198  1  0.00002041  0.87482807  0.16879270  1
  O2-  O199  1  -0.00355254  0.87524835  0.66331710  1
  O2-  O200  1  0.24777332  0.12533890  0.16208632  1
  O2-  O201  1  0.24798431  0.12638417  0.66416531  1
  O2-  O202  1  0.25187780  0.37480050  0.16245904  1
  O2-  O203  1  0.24805367  0.37486219  0.66373812  1
  O2-  O204  1  0.25148918  0.62486654  0.16630850  1
  O2-  O205  1  0.24873240  0.62373491  0.66386286  1
  O2-  O206  1  0.25127512  0.87522010  0.16523371  1
  O2-  O207  1  0.25010371  0.87473810  0.66482975  1
  O2-  O208  1  0.49992643  0.12414210  0.16160304  1
  O2-  O209  1  0.49854573  0.12571430  0.66346297  1
  O2-  O210  1  0.49715482  0.37471353  0.15889386  1
  O2-  O211  1  0.50026131  0.37529835  0.66698749  1
  O2-  O212  1  0.49807606  0.62574575  0.16367017  1
  O2-  O213  1  0.50053360  0.62452176  0.66721449  1
  O2-  O214  1  0.50034421  0.87533934  0.16508285  1
  O2-  O215  1  0.50326523  0.87441845  0.66220654  1
  O2-  O216  1  0.74920008  0.12436977  0.16796594  1
  O2-  O217  1  0.75371117  0.12535462  0.66271677  1
  O2-  O218  1  0.75096381  0.37460232  0.16585022  1
  O2-  O219  1  0.75078914  0.37539142  0.66489457  1
  O2-  O220  1  0.75111121  0.62571235  0.16757622  1
  O2-  O221  1  0.75159363  0.62496103  0.66420850  1
  O2-  O222  1  0.74857412  0.87504423  0.16947799  1
  O2-  O223  1  0.75062588  0.87465547  0.66057950  1
  O2-  O224  1  0.12452006  0.00335871  0.35090006  1
  O2-  O225  1  0.12566874  0.00267218  0.84706736  1
  O2-  O226  1  0.12451792  0.25027473  0.34957697  1
  O2-  O227  1  0.12522530  0.24892427  0.84630387  1
  O2-  O228  1  0.12490383  0.49953642  0.35168364  1
  O2-  O229  1  0.12507606  0.49778999  0.84448991  1
  O2-  O230  1  0.12476055  0.74660981  0.35188911  1
  O2-  O231  1  0.12520074  0.75107232  0.84807809  1
  O2-  O232  1  0.37426206  0.00160162  0.34908568  1
  O2-  O233  1  0.37444007  0.00033772  0.84256182  1
  O2-  O234  1  0.37385888  0.25083035  0.34012590  1
  O2-  O235  1  0.37425233  0.25024066  0.84936866  1
  O2-  O236  1  0.37409743  0.49943618  0.34222611  1
  O2-  O237  1  0.37419086  0.49889614  0.85234709  1
  O2-  O238  1  0.37465620  0.74775881  0.34948725  1
  O2-  O239  1  0.37505664  0.75108683  0.84811584  1
  O2-  O240  1  0.62522168  -0.00232543  0.35257469  1
  O2-  O241  1  0.62467115  0.00014907  0.84016423  1
  O2-  O242  1  0.62495915  0.25155747  0.34400737  1
  O2-  O243  1  0.62460605  0.24705432  0.84795945  1
  O2-  O244  1  0.62496523  0.49958159  0.34551000  1
  O2-  O245  1  0.62534205  0.50055676  0.85215250  1
  O2-  O246  1  0.62549937  0.75072449  0.35264311  1
  O2-  O247  1  0.62519284  0.75269942  0.84557547  1
  O2-  O248  1  0.87540653  -0.00013909  0.35336113  1
  O2-  O249  1  0.87575927  -0.00017291  0.84622492  1
  O2-  O250  1  0.87592493  0.24826296  0.34993236  1
  O2-  O251  1  0.87609576  0.25153654  0.84663760  1
  O2-  O252  1  0.87542315  0.50187755  0.35182641  1
  O2-  O253  1  0.87580564  0.49987132  0.84400683  1
  O2-  O254  1  0.87462337  0.74988319  0.35458370  1
  O2-  O255  1  0.87519596  0.74919428  0.84397858  1
  O2-  O256  1  0.00025702  0.12589175  0.35547056  1
  O2-  O257  1  0.00345416  0.12487072  0.84633390  1
  O2-  O258  1  0.00203535  0.37484157  0.35468595  1
  O2-  O259  1  -0.00005901  0.37446413  0.84071550  1
  O2-  O260  1  0.00062256  0.62401681  0.35663847  1
  O2-  O261  1  -0.00217943  0.62541187  0.84042018  1
  O2-  O262  1  -0.00314784  0.87490988  0.35256201  1
  O2-  O263  1  0.00029540  0.87577777  0.84807469  1
  O2-  O264  1  0.24880312  0.12639789  0.34578370  1
  O2-  O265  1  0.24927865  0.12609257  0.84823520  1
  O2-  O266  1  0.24901689  0.37455170  0.34542846  1
  O2-  O267  1  0.25078735  0.37456722  0.84801659  1
  O2-  O268  1  0.24894494  0.62345343  0.34753077  1
  O2-  O269  1  0.25036801  0.62511281  0.84894591  1
  O2-  O270  1  0.25003595  0.87493220  0.34886605  1
  O2-  O271  1  0.25237133  0.87533558  0.84742341  1
  O2-  O272  1  0.49802131  0.12549862  0.34412866  1
  O2-  O273  1  0.49944871  0.12465372  0.84494869  1
  O2-  O274  1  0.49935830  0.37516145  0.33827936  1
  O2-  O275  1  0.49717408  0.37483321  0.85157675  1
  O2-  O276  1  0.49941652  0.62450019  0.34493496  1
  O2-  O277  1  0.49956006  0.62552686  0.85078130  1
  O2-  O278  1  0.50254465  0.87446815  0.34896384  1
  O2-  O279  1  0.49983716  0.87551740  0.84284487  1
  O2-  O280  1  0.75256121  0.12501377  0.35269170  1
  O2-  O281  1  0.74815602  0.12428163  0.84516088  1
  O2-  O282  1  0.74864277  0.37531612  0.34953929  1
  O2-  O283  1  0.75204736  0.37462720  0.84628233  1
  O2-  O284  1  0.75113984  0.62473531  0.35304454  1
  O2-  O285  1  0.75237954  0.62549627  0.84504144  1
  O2-  O286  1  0.75005103  0.87466214  0.35398845  1
  O2-  O287  1  0.74820577  0.87593264  0.84319240  1
