# generated using pymatgen
data_BaYFeCuO5
_symmetry_space_group_name_H-M   'P 1'
_cell_length_a   15.67926674
_cell_length_b   15.68029162
_cell_length_c   15.51217150
_cell_angle_alpha   90.00854513
_cell_angle_beta   89.99809559
_cell_angle_gamma   89.99938506
_symmetry_Int_Tables_number   1
_chemical_formula_structural   BaYFeCuO5
_chemical_formula_sum   'Ba32 Y32 Fe32 Cu32 O160'
_cell_volume   3813.75224596
_cell_formula_units_Z   32
loop_
 _symmetry_equiv_pos_site_id
 _symmetry_equiv_pos_as_xyz
  1  'x, y, z'
loop_
 _atom_type_symbol
 _atom_type_oxidation_number
  Ba2+  2.0
  Y3+  3.0
  Fe3+  3.0
  Cu2+  2.0
  O2-  -2.0
loop_
 _atom_site_type_symbol
 _atom_site_label
 _atom_site_symmetry_multiplicity
 _atom_site_fract_x
 _atom_site_fract_y
 _atom_site_fract_z
 _atom_site_occupancy
  Ba2+  Ba0  1  -0.00005674  -0.00073758  0.02780359  1
  Ba2+  Ba1  1  0.00462987  -0.00759809  0.51086189  1
  Ba2+  Ba2  1  -0.00079986  0.24940068  0.00630476  1
  Ba2+  Ba3  1  0.00567589  0.24594973  0.50238625  1
  Ba2+  Ba4  1  -0.00147842  0.50003545  -0.00825626  1
  Ba2+  Ba5  1  0.00077728  0.51235553  0.50672186  1
  Ba2+  Ba6  1  -0.00174145  0.75099232  0.01915264  1
  Ba2+  Ba7  1  -0.00027576  0.74626036  0.51529730  1
  Ba2+  Ba8  1  0.25019672  -0.00362723  0.02079041  1
  Ba2+  Ba9  1  0.25178705  -0.00201935  0.50540529  1
  Ba2+  Ba10  1  0.24411149  0.24419022  0.01342055  1
  Ba2+  Ba11  1  0.25734792  0.24660150  0.51382234  1
  Ba2+  Ba12  1  0.24436953  0.50524407  0.00032387  1
  Ba2+  Ba13  1  0.25426642  0.50687781  0.51824918  1
  Ba2+  Ba14  1  0.25195960  0.75369054  0.01142597  1
  Ba2+  Ba15  1  0.24894408  0.74753245  0.51269564  1
  Ba2+  Ba16  1  0.49405071  -0.00760516  0.01458642  1
  Ba2+  Ba17  1  0.49722436  -0.00880296  0.50556034  1
  Ba2+  Ba18  1  0.50041178  0.25005141  0.01532632  1
  Ba2+  Ba19  1  0.49370017  0.25486448  0.51412871  1
  Ba2+  Ba20  1  0.50624598  0.50782343  0.01499926  1
  Ba2+  Ba21  1  0.50128625  0.50509503  0.51276410  1
  Ba2+  Ba22  1  0.50066573  0.75012101  0.01648274  1
  Ba2+  Ba23  1  0.50428549  0.74886935  0.50636159  1
  Ba2+  Ba24  1  0.75604196  -0.00588191  0.02366899  1
  Ba2+  Ba25  1  0.74688909  -0.01252003  0.51068019  1
  Ba2+  Ba26  1  0.75681280  0.25517219  0.01235385  1
  Ba2+  Ba27  1  0.74310371  0.25578383  0.50142527  1
  Ba2+  Ba28  1  0.74900311  0.50532932  0.01327814  1
  Ba2+  Ba29  1  0.74547217  0.51024542  0.50270001  1
  Ba2+  Ba30  1  0.74931690  0.74835552  0.02245965  1
  Ba2+  Ba31  1  0.74721370  0.74688650  0.51185210  1
  Y3+  Y32  1  0.00188383  -0.00011953  0.25946581  1
  Y3+  Y33  1  -0.00008904  -0.00333722  0.75208397  1
  Y3+  Y34  1  0.00132175  0.24780937  0.25915774  1
  Y3+  Y35  1  0.00018213  0.25210341  0.75745023  1
  Y3+  Y36  1  -0.00057445  0.50474102  0.26323636  1
  Y3+  Y37  1  0.00033964  0.50272692  0.75399988  1
  Y3+  Y38  1  -0.00025336  0.74808675  0.26129342  1
  Y3+  Y39  1  -0.00006707  0.74862532  0.75183996  1
  Y3+  Y40  1  0.25078281  -0.00105762  0.25537541  1
  Y3+  Y41  1  0.25180769  -0.00281273  0.75772223  1
  Y3+  Y42  1  0.24969491  0.24758941  0.25669510  1
  Y3+  Y43  1  0.25085787  0.25034692  0.75793853  1
  Y3+  Y44  1  0.25029675  0.50311909  0.25793750  1
  Y3+  Y45  1  0.24886699  0.50224556  0.75739726  1
  Y3+  Y46  1  0.25182304  0.75088424  0.25554129  1
  Y3+  Y47  1  0.24883007  0.74961024  0.75855360  1
  Y3+  Y48  1  0.49896062  -0.00477733  0.25608319  1
  Y3+  Y49  1  0.49906407  -0.00343543  0.75743449  1
  Y3+  Y50  1  0.50060992  0.25136039  0.25501327  1
  Y3+  Y51  1  0.49843521  0.24967070  0.75790089  1
  Y3+  Y52  1  0.50362200  0.50312719  0.25590682  1
  Y3+  Y53  1  0.50100820  0.50386341  0.75856654  1
  Y3+  Y54  1  0.50154459  0.75047379  0.25627868  1
  Y3+  Y55  1  0.50197867  0.74939662  0.75830680  1
  Y3+  Y56  1  0.74910251  -0.00307148  0.25938402  1
  Y3+  Y57  1  0.74874136  -0.00402501  0.75265816  1
  Y3+  Y58  1  0.74871030  0.25192431  0.25731294  1
  Y3+  Y59  1  0.75004121  0.25074131  0.75723295  1
  Y3+  Y60  1  0.74724009  0.50407881  0.25960445  1
  Y3+  Y61  1  0.74950535  0.50443039  0.75672127  1
  Y3+  Y62  1  0.74746557  0.74757491  0.26079445  1
  Y3+  Y63  1  0.74834195  0.74859232  0.75236690  1
  Fe3+  Fe64  1  0.37470097  0.12371357  0.87815644  1
  Fe3+  Fe65  1  0.62621971  0.12321869  0.88020388  1
  Fe3+  Fe66  1  0.87485630  0.37619682  0.38162951  1
  Fe3+  Fe67  1  0.12740965  0.37577457  0.38198449  1
  Fe3+  Fe68  1  0.37544512  0.62618524  0.37503273  1
  Fe3+  Fe69  1  0.87424006  0.12400171  0.38013200  1
  Fe3+  Fe70  1  0.87424587  0.62745494  0.87494252  1
  Fe3+  Fe71  1  0.37486338  0.37548528  0.87993274  1
  Fe3+  Fe72  1  0.62567628  0.37566835  0.87859818  1
  Fe3+  Fe73  1  0.12661361  0.87374410  0.37612999  1
  Fe3+  Fe74  1  0.37546889  0.62659599  0.87786687  1
  Fe3+  Fe75  1  0.12369054  0.12242767  0.87541816  1
  Fe3+  Fe76  1  0.87522575  0.87461201  0.87422926  1
  Fe3+  Fe77  1  0.37600886  0.12427996  0.37429414  1
  Fe3+  Fe78  1  0.37564504  0.37659017  0.37489930  1
  Fe3+  Fe79  1  0.62633413  0.87411895  0.87782548  1
  Fe3+  Fe80  1  0.87498989  0.87344477  0.37706545  1
  Fe3+  Fe81  1  0.87477867  0.12250081  0.87434249  1
  Fe3+  Fe82  1  0.12329864  0.87515163  0.87662190  1
  Fe3+  Fe83  1  0.62316071  0.12445846  0.37875863  1
  Fe3+  Fe84  1  0.62333015  0.12434513  0.63321133  1
  Fe3+  Fe85  1  0.87679397  0.37759011  0.14250621  1
  Fe3+  Fe86  1  0.62571439  0.12429545  0.13517103  1
  Fe3+  Fe87  1  0.87408784  0.12505729  0.63165839  1
  Fe3+  Fe88  1  0.12587587  0.37504140  0.63526220  1
  Fe3+  Fe89  1  0.62445185  0.37616737  0.63832559  1
  Fe3+  Fe90  1  0.12337247  0.37668183  0.13951941  1
  Fe3+  Fe91  1  0.12642611  0.12405385  0.63579099  1
  Fe3+  Fe92  1  0.12406545  0.62445179  0.13839892  1
  Fe3+  Fe93  1  0.37485858  0.87307747  0.63842256  1
  Fe3+  Fe94  1  0.87458860  0.37550724  0.63367408  1
  Fe3+  Fe95  1  0.37405323  0.37683901  0.13353740  1
  Cu2+  Cu96  1  0.87421984  0.37562603  0.85843161  1
  Cu2+  Cu97  1  0.37495778  0.87405727  0.36172071  1
  Cu2+  Cu98  1  0.12512838  0.37453163  0.86208361  1
  Cu2+  Cu99  1  0.62449623  0.87435258  0.37195654  1
  Cu2+  Cu100  1  0.87427484  0.62631229  0.37372736  1
  Cu2+  Cu101  1  0.62597264  0.62647711  0.87300700  1
  Cu2+  Cu102  1  0.12379829  0.62654185  0.86152150  1
  Cu2+  Cu103  1  0.12650754  0.12446874  0.36647689  1
  Cu2+  Cu104  1  0.37481816  0.87449035  0.87292160  1
  Cu2+  Cu105  1  0.12726025  0.62611909  0.37355921  1
  Cu2+  Cu106  1  0.62329306  0.62588480  0.37126303  1
  Cu2+  Cu107  1  0.62354153  0.37551006  0.36332486  1
  Cu2+  Cu108  1  0.12457819  0.12522245  0.15457664  1
  Cu2+  Cu109  1  0.12630843  0.87462521  0.64897786  1
  Cu2+  Cu110  1  0.87400360  0.62443142  0.64108856  1
  Cu2+  Cu111  1  0.62587154  0.37564438  0.14977544  1
  Cu2+  Cu112  1  0.62566151  0.62583961  0.14339571  1
  Cu2+  Cu113  1  0.87472650  0.87445434  0.64523552  1
  Cu2+  Cu114  1  0.62320338  0.87395256  0.64138794  1
  Cu2+  Cu115  1  0.37518199  0.37619221  0.65474690  1
  Cu2+  Cu116  1  0.37487360  0.87364945  0.14251956  1
  Cu2+  Cu117  1  0.37582748  0.12543281  0.14981496  1
  Cu2+  Cu118  1  0.37564436  0.12367524  0.65219577  1
  Cu2+  Cu119  1  0.37563364  0.62590780  0.65446287  1
  Cu2+  Cu120  1  0.87590464  0.62464387  0.15548365  1
  Cu2+  Cu121  1  0.12441370  0.87409028  0.15379778  1
  Cu2+  Cu122  1  0.62572495  0.87486805  0.15214776  1
  Cu2+  Cu123  1  0.37429471  0.62435284  0.14828531  1
  Cu2+  Cu124  1  0.87455089  0.12574499  0.15756150  1
  Cu2+  Cu125  1  0.87538927  0.87382075  0.15779410  1
  Cu2+  Cu126  1  0.62406598  0.62514678  0.64278245  1
  Cu2+  Cu127  1  0.12580329  0.62533002  0.64204617  1
  O2-  O128  1  0.12161598  0.12291361  -0.00464583  1
  O2-  O129  1  0.12806643  0.12617623  0.51533175  1
  O2-  O130  1  0.12092042  0.37571027  0.01959959  1
  O2-  O131  1  0.12885346  0.37419895  0.50866953  1
  O2-  O132  1  0.12094130  0.62279717  0.01835279  1
  O2-  O133  1  0.12781540  0.62491646  0.50825862  1
  O2-  O134  1  0.12099764  0.87715856  -0.00341913  1
  O2-  O135  1  0.12769355  0.87452663  0.49657026  1
  O2-  O136  1  0.37393858  0.12562821  -0.00207704  1
  O2-  O137  1  0.37707418  0.12558349  0.49439265  1
  O2-  O138  1  0.37351417  0.37497939  0.00617135  1
  O2-  O139  1  0.37492012  0.37598073  0.49477937  1
  O2-  O140  1  0.37418400  0.62486736  -0.00195238  1
  O2-  O141  1  0.37559513  0.62476890  0.49528663  1
  O2-  O142  1  0.37390831  0.87477062  0.00834600  1
  O2-  O143  1  0.37385282  0.87422731  0.51790163  1
  O2-  O144  1  0.62830154  0.12347332  0.00571317  1
  O2-  O145  1  0.62179077  0.12604059  0.50599796  1
  O2-  O146  1  0.62770139  0.37330810  -0.00132031  1
  O2-  O147  1  0.62187508  0.37461464  0.51815300  1
  O2-  O148  1  0.62729419  0.62640634  0.00839968  1
  O2-  O149  1  0.62249187  0.62496628  0.50742408  1
  O2-  O150  1  0.62844362  0.87681437  -0.00206362  1
  O2-  O151  1  0.62302136  0.87501427  0.50651959  1
  O2-  O152  1  0.87520801  0.12300182  -0.00596056  1
  O2-  O153  1  0.87339935  0.12552923  0.50582503  1
  O2-  O154  1  0.87821297  0.37538990  0.02241208  1
  O2-  O155  1  0.87389587  0.37442949  0.50826759  1
  O2-  O156  1  0.87543909  0.62650153  -0.00484044  1
  O2-  O157  1  0.87395887  0.62515091  0.50736090  1
  O2-  O158  1  0.87648667  0.87650235  -0.00608980  1
  O2-  O159  1  0.87590846  0.87472938  0.49728568  1
  O2-  O160  1  0.12447970  0.00005417  0.16501575  1
  O2-  O161  1  0.12556030  0.00046023  0.66148390  1
  O2-  O162  1  0.12413768  0.25093258  0.16821516  1
  O2-  O163  1  0.12561414  0.25064401  0.66502437  1
  O2-  O164  1  0.12486409  0.50009561  0.17339784  1
  O2-  O165  1  0.12566091  0.49637401  0.66475933  1
  O2-  O166  1  0.12428151  0.74923413  0.16458501  1
  O2-  O167  1  0.12546489  0.75140943  0.66394777  1
  O2-  O168  1  0.37556323  0.00146227  0.16559042  1
  O2-  O169  1  0.37527248  -0.00101051  0.66536003  1
  O2-  O170  1  0.37545043  0.25243833  0.16226240  1
  O2-  O171  1  0.37545149  0.24915000  0.66475409  1
  O2-  O172  1  0.37405190  0.49809448  0.16250823  1
  O2-  O173  1  0.37486178  0.50201893  0.66614124  1
  O2-  O174  1  0.37480502  0.74786392  0.16384478  1
  O2-  O175  1  0.37464195  0.74927406  0.66612877  1
  O2-  O176  1  0.62609466  0.00130924  0.16510541  1
  O2-  O177  1  0.62436629  0.00296324  0.66187675  1
  O2-  O178  1  0.62591647  0.24837576  0.16407167  1
  O2-  O179  1  0.62423806  0.24883615  0.66594406  1
  O2-  O180  1  0.62612791  0.49955777  0.16557497  1
  O2-  O181  1  0.62427570  0.49832585  0.66823520  1
  O2-  O182  1  0.62557238  0.75162417  0.16543568  1
  O2-  O183  1  0.62421906  0.74967352  0.66421383  1
  O2-  O184  1  0.87434752  0.00030940  0.16677105  1
  O2-  O185  1  0.87406189  0.00216444  0.65777305  1
  O2-  O186  1  0.87506475  0.25123814  0.17081730  1
  O2-  O187  1  0.87480382  0.24972249  0.66301575  1
  O2-  O188  1  0.87514353  0.50035034  0.17256422  1
  O2-  O189  1  0.87516567  0.49574650  0.66494319  1
  O2-  O190  1  0.87587382  0.74930373  0.16383411  1
  O2-  O191  1  0.87492493  0.75113717  0.66183216  1
  O2-  O192  1  -0.00073043  0.12558461  0.16940026  1
  O2-  O193  1  -0.00133487  0.12558327  0.65842845  1
  O2-  O194  1  0.00046036  0.37498459  0.17809335  1
  O2-  O195  1  0.00035421  0.37322624  0.65982928  1
  O2-  O196  1  0.00057137  0.62486186  0.17171259  1
  O2-  O197  1  -0.00025266  0.62404592  0.66190173  1
  O2-  O198  1  -0.00033983  0.87577920  0.16765456  1
  O2-  O199  1  0.00066508  0.87612763  0.65834714  1
  O2-  O200  1  0.25002723  0.12618966  0.16212025  1
  O2-  O201  1  0.25022491  0.12580841  0.66549200  1
  O2-  O202  1  0.25007247  0.37401955  0.16397781  1
  O2-  O203  1  0.24950989  0.37428122  0.66474934  1
  O2-  O204  1  0.24894044  0.62429242  0.16436840  1
  O2-  O205  1  0.25206448  0.62454055  0.66644965  1
  O2-  O206  1  0.24821800  0.87536336  0.16338496  1
  O2-  O207  1  0.25098300  0.87469231  0.66810020  1
  O2-  O208  1  0.50275551  0.12584676  0.15969071  1
  O2-  O209  1  0.50125603  0.12598511  0.66634027  1
  O2-  O210  1  0.49858204  0.37483225  0.15878016  1
  O2-  O211  1  0.49989708  0.37429700  0.66938934  1
  O2-  O212  1  0.49871034  0.62425347  0.16222225  1
  O2-  O213  1  0.49831007  0.62440006  0.66697512  1
  O2-  O214  1  0.50157295  0.87533015  0.16417023  1
  O2-  O215  1  0.49773527  0.87502829  0.66872729  1
  O2-  O216  1  0.74829028  0.12574382  0.16654565  1
  O2-  O217  1  0.74941752  0.12614220  0.65951867  1
  O2-  O218  1  0.75134588  0.37460784  0.16961343  1
  O2-  O219  1  0.75067058  0.37287625  0.66308068  1
  O2-  O220  1  0.75200246  0.62488474  0.16715908  1
  O2-  O221  1  0.74945890  0.62409659  0.66332130  1
  O2-  O222  1  0.75093317  0.87570454  0.16623532  1
  O2-  O223  1  0.75015937  0.87593098  0.66030588  1
  O2-  O224  1  0.12548911  -0.00073477  0.34826785  1
  O2-  O225  1  0.12417801  -0.00015443  0.84025342  1
  O2-  O226  1  0.12577870  0.25196517  0.35169453  1
  O2-  O227  1  0.12427129  0.24850138  0.84690422  1
  O2-  O228  1  0.12545514  0.49702317  0.35355552  1
  O2-  O229  1  0.12442094  0.49993178  0.84933709  1
  O2-  O230  1  0.12628551  0.75156041  0.34597234  1
  O2-  O231  1  0.12402978  0.75102734  0.84655540  1
  O2-  O232  1  0.37604015  -0.00046536  0.34855704  1
  O2-  O233  1  0.37570919  0.00159875  0.84639910  1
  O2-  O234  1  0.37556337  0.25027050  0.34421325  1
  O2-  O235  1  0.37504077  0.25074130  0.84834403  1
  O2-  O236  1  0.37555073  0.50008892  0.34335611  1
  O2-  O237  1  0.37436771  0.49884280  0.84963833  1
  O2-  O238  1  0.37509762  0.75044763  0.34641532  1
  O2-  O239  1  0.37442599  0.74863444  0.84730105  1
  O2-  O240  1  0.62464958  0.00310240  0.34962504  1
  O2-  O241  1  0.62565169  0.00123960  0.84443933  1
  O2-  O242  1  0.62486830  0.24799615  0.34910322  1
  O2-  O243  1  0.62547325  0.24801209  0.84822965  1
  O2-  O244  1  0.62410718  0.49937931  0.34929906  1
  O2-  O245  1  0.62527655  0.49875584  0.84937875  1
  O2-  O246  1  0.62413877  0.75013687  0.34845560  1
  O2-  O247  1  0.62560979  0.75187090  0.84595560  1
  O2-  O248  1  0.87467977  0.00137267  0.34974224  1
  O2-  O249  1  0.87424919  -0.00053634  0.83780985  1
  O2-  O250  1  0.87457449  0.24987091  0.35405635  1
  O2-  O251  1  0.87472906  0.24921416  0.84623805  1
  O2-  O252  1  0.87520267  0.49721950  0.35406582  1
  O2-  O253  1  0.87537344  0.50067648  0.84735246  1
  O2-  O254  1  0.87475898  0.75159544  0.34644115  1
  O2-  O255  1  0.87534082  0.75092650  0.84216954  1
  O2-  O256  1  -0.00187144  0.12580324  0.35416100  1
  O2-  O257  1  -0.00077484  0.12541869  0.83937640  1
  O2-  O258  1  0.00054128  0.37327247  0.35987681  1
  O2-  O259  1  -0.00047968  0.37451381  0.84490585  1
  O2-  O260  1  0.00067347  0.62524388  0.35384888  1
  O2-  O261  1  -0.00080010  0.62419024  0.84395923  1
  O2-  O262  1  0.00038356  0.87593200  0.34886504  1
  O2-  O263  1  -0.00060159  0.87536442  0.83944708  1
  O2-  O264  1  0.25203482  0.12501832  0.34545624  1
  O2-  O265  1  0.24951845  0.12553627  0.84610442  1
  O2-  O266  1  0.24986108  0.37465343  0.34586645  1
  O2-  O267  1  0.25209252  0.37469086  0.85007828  1
  O2-  O268  1  0.25244542  0.62491281  0.34505159  1
  O2-  O269  1  0.24930423  0.62395275  0.84959404  1
  O2-  O270  1  0.25028804  0.87618568  0.34573175  1
  O2-  O271  1  0.24783949  0.87545005  0.84915245  1
  O2-  O272  1  0.50079694  0.12550678  0.34303550  1
  O2-  O273  1  0.50187794  0.12559311  0.85036053  1
  O2-  O274  1  0.49917384  0.37408814  0.34245472  1
  O2-  O275  1  0.49883369  0.37355691  0.85146708  1
  O2-  O276  1  0.49830691  0.62524572  0.34456290  1
  O2-  O277  1  0.49895238  0.62452327  0.84899044  1
  O2-  O278  1  0.49861862  0.87548738  0.34791940  1
  O2-  O279  1  0.50206214  0.87616277  0.84953995  1
  O2-  O280  1  0.74967400  0.12610815  0.35189821  1
  O2-  O281  1  0.74883462  0.12522031  0.84298331  1
  O2-  O282  1  0.75087658  0.37348193  0.35405509  1
  O2-  O283  1  0.74891443  0.37348220  0.84484544  1
  O2-  O284  1  0.74877654  0.62476470  0.35097459  1
  O2-  O285  1  0.75161974  0.62520139  0.84447822  1
  O2-  O286  1  0.75137276  0.87640266  0.34886434  1
  O2-  O287  1  0.75032338  0.87582292  0.84130618  1
