# generated using pymatgen
data_BaYFeCuO5
_symmetry_space_group_name_H-M   'P 1'
_cell_length_a   15.66527104
_cell_length_b   15.66573271
_cell_length_c   15.46472456
_cell_angle_alpha   89.99486573
_cell_angle_beta   89.99952590
_cell_angle_gamma   90.00555851
_symmetry_Int_Tables_number   1
_chemical_formula_structural   BaYFeCuO5
_chemical_formula_sum   'Ba32 Y32 Fe32 Cu32 O160'
_cell_volume   3795.16630291
_cell_formula_units_Z   32
loop_
 _symmetry_equiv_pos_site_id
 _symmetry_equiv_pos_as_xyz
  1  'x, y, z'
loop_
 _atom_type_symbol
 _atom_type_oxidation_number
  Ba2+  2.0
  Y3+  3.0
  Fe3+  3.0
  Cu2+  2.0
  O2-  -2.0
loop_
 _atom_site_type_symbol
 _atom_site_label
 _atom_site_symmetry_multiplicity
 _atom_site_fract_x
 _atom_site_fract_y
 _atom_site_fract_z
 _atom_site_occupancy
  Ba2+  Ba0  1  -0.00122947  0.00131420  0.02437592  1
  Ba2+  Ba1  1  0.00628938  0.00693014  0.50667407  1
  Ba2+  Ba2  1  -0.00286709  0.24220344  0.01708242  1
  Ba2+  Ba3  1  0.00085019  0.25224026  0.51652178  1
  Ba2+  Ba4  1  0.00389115  0.50302520  0.01051595  1
  Ba2+  Ba5  1  -0.00023792  0.49586595  0.51297501  1
  Ba2+  Ba6  1  0.00570166  0.75407067  0.01733444  1
  Ba2+  Ba7  1  0.00536564  0.74417169  0.50100976  1
  Ba2+  Ba8  1  0.23776078  0.00152901  0.01117329  1
  Ba2+  Ba9  1  0.24436259  -0.00233201  0.50597560  1
  Ba2+  Ba10  1  0.24935483  0.25048366  0.00584419  1
  Ba2+  Ba11  1  0.24333758  0.25412983  0.51866712  1
  Ba2+  Ba12  1  0.25453787  0.50552844  0.00640350  1
  Ba2+  Ba13  1  0.25117251  0.50126056  0.52504637  1
  Ba2+  Ba14  1  0.24573290  0.74309500  0.01012990  1
  Ba2+  Ba15  1  0.25398864  0.74483415  0.51222997  1
  Ba2+  Ba16  1  0.51251062  0.00235834  0.01185800  1
  Ba2+  Ba17  1  0.50002483  -0.01183122  0.51104851  1
  Ba2+  Ba18  1  0.50110786  0.24872555  0.00608053  1
  Ba2+  Ba19  1  0.49921393  0.26183537  0.50639673  1
  Ba2+  Ba20  1  0.48922087  0.49943897  0.00669398  1
  Ba2+  Ba21  1  0.49552301  0.50465775  0.51305609  1
  Ba2+  Ba22  1  0.49701808  0.74890191  0.01072578  1
  Ba2+  Ba23  1  0.49776262  0.74669866  0.51757424  1
  Ba2+  Ba24  1  0.75100468  0.00276368  0.02510200  1
  Ba2+  Ba25  1  0.74770012  -0.00245325  0.50991521  1
  Ba2+  Ba26  1  0.75246109  0.24078073  0.01777702  1
  Ba2+  Ba27  1  0.75713586  0.25778297  0.50716221  1
  Ba2+  Ba28  1  0.75435050  0.49462363  0.01142637  1
  Ba2+  Ba29  1  0.75272983  0.49793981  0.49930528  1
  Ba2+  Ba30  1  0.75141348  0.76162646  0.01865159  1
  Ba2+  Ba31  1  0.74208827  0.74650124  0.50730415  1
  Y3+  Y32  1  0.00350896  0.00102316  0.26048511  1
  Y3+  Y33  1  0.00140713  0.00377179  0.75333571  1
  Y3+  Y34  1  0.00007748  0.24927846  0.25888864  1
  Y3+  Y35  1  0.00064608  0.24836162  0.75392921  1
  Y3+  Y36  1  -0.00120680  0.49924821  0.25641695  1
  Y3+  Y37  1  0.00235207  0.49984272  0.75760073  1
  Y3+  Y38  1  0.00266866  0.75015311  0.25694627  1
  Y3+  Y39  1  0.00186042  0.74799136  0.75799538  1
  Y3+  Y40  1  0.24626332  0.00110629  0.25838164  1
  Y3+  Y41  1  0.24805167  0.00158945  0.75607421  1
  Y3+  Y42  1  0.24869585  0.24940579  0.25431842  1
  Y3+  Y43  1  0.24826514  0.25023764  0.75986519  1
  Y3+  Y44  1  0.25231192  0.50213199  0.25065245  1
  Y3+  Y45  1  0.25170185  0.50205425  0.76323267  1
  Y3+  Y46  1  0.24977944  0.74759553  0.25492768  1
  Y3+  Y47  1  0.25132633  0.74634042  0.75928555  1
  Y3+  Y48  1  0.50195214  -0.00051880  0.25838292  1
  Y3+  Y49  1  0.50149683  -0.00101460  0.75584315  1
  Y3+  Y50  1  0.49970424  0.25135069  0.25457783  1
  Y3+  Y51  1  0.49961378  0.25034753  0.76088016  1
  Y3+  Y52  1  0.49598665  0.50024116  0.25488032  1
  Y3+  Y53  1  0.49529758  0.50132749  0.76053444  1
  Y3+  Y54  1  0.49833558  0.74904906  0.25830279  1
  Y3+  Y55  1  0.49849520  0.74897434  0.75585795  1
  Y3+  Y56  1  0.74812848  -0.00074627  0.26048745  1
  Y3+  Y57  1  0.74896620  0.00113457  0.75290888  1
  Y3+  Y58  1  0.75118321  0.25129131  0.25874509  1
  Y3+  Y59  1  0.75180526  0.24854949  0.75536331  1
  Y3+  Y60  1  0.75223152  0.49763876  0.25855830  1
  Y3+  Y61  1  0.75108037  0.49951116  0.75686292  1
  Y3+  Y62  1  0.74954727  0.75161318  0.26059669  1
  Y3+  Y63  1  0.74800969  0.75067777  0.75409773  1
  Fe3+  Fe64  1  0.37393157  0.87347327  0.37568687  1
  Fe3+  Fe65  1  0.87563980  0.37342159  0.87839484  1
  Fe3+  Fe66  1  0.37257308  0.37657700  0.37495265  1
  Fe3+  Fe67  1  0.37443677  0.87608715  0.88009045  1
  Fe3+  Fe68  1  0.12627899  0.37593435  0.37426540  1
  Fe3+  Fe69  1  0.12329918  0.87592496  0.87606136  1
  Fe3+  Fe70  1  0.37503475  0.12287110  0.87938606  1
  Fe3+  Fe71  1  0.62624249  0.37420522  0.88056960  1
  Fe3+  Fe72  1  0.87464740  0.62691702  0.88111170  1
  Fe3+  Fe73  1  0.87501172  0.12297556  0.87397247  1
  Fe3+  Fe74  1  0.87611340  0.87422083  0.37953550  1
  Fe3+  Fe75  1  0.62363412  0.12671948  0.38024940  1
  Fe3+  Fe76  1  0.37441254  0.12611229  0.38005222  1
  Fe3+  Fe77  1  0.62666342  0.87603283  0.87524512  1
  Fe3+  Fe78  1  0.87540683  0.12557961  0.37830499  1
  Fe3+  Fe79  1  0.87540894  0.87672507  0.87545730  1
  Fe3+  Fe80  1  0.12699724  0.62232007  0.37489178  1
  Fe3+  Fe81  1  0.62626171  0.62551981  0.88106944  1
  Fe3+  Fe82  1  0.12385108  0.37417774  0.87899880  1
  Fe3+  Fe83  1  0.62304920  0.62342234  0.37446595  1
  Fe3+  Fe84  1  0.12476178  0.37488205  0.13370462  1
  Fe3+  Fe85  1  0.37425942  0.87636924  0.13404015  1
  Fe3+  Fe86  1  0.87643436  0.87420024  0.63261673  1
  Fe3+  Fe87  1  0.62532564  0.62524059  0.13433085  1
  Fe3+  Fe88  1  0.87469762  0.62605170  0.13612168  1
  Fe3+  Fe89  1  0.37535752  0.12543926  0.63454569  1
  Fe3+  Fe90  1  0.62393929  0.12671938  0.63350174  1
  Fe3+  Fe91  1  0.62473139  0.37691200  0.63965461  1
  Fe3+  Fe92  1  0.87508306  0.62472357  0.63730614  1
  Fe3+  Fe93  1  0.37517137  0.12392838  0.13491153  1
  Fe3+  Fe94  1  0.62507953  0.37495902  0.13547961  1
  Fe3+  Fe95  1  0.12550947  0.87322948  0.63642282  1
  Cu2+  Cu96  1  0.12610007  0.87371511  0.36448620  1
  Cu2+  Cu97  1  0.37391582  0.62408823  0.36988963  1
  Cu2+  Cu98  1  0.62709510  0.12421958  0.87150882  1
  Cu2+  Cu99  1  0.12300405  0.12456529  0.87277107  1
  Cu2+  Cu100  1  0.87684483  0.37489681  0.37129419  1
  Cu2+  Cu101  1  0.62372746  0.37570979  0.36092208  1
  Cu2+  Cu102  1  0.37572027  0.62709831  0.87310737  1
  Cu2+  Cu103  1  0.37454662  0.37389482  0.87416855  1
  Cu2+  Cu104  1  0.12363820  0.62559921  0.87361825  1
  Cu2+  Cu105  1  0.12628485  0.12728177  0.37373896  1
  Cu2+  Cu106  1  0.87581506  0.62486539  0.36249877  1
  Cu2+  Cu107  1  0.62339207  0.87372010  0.37368719  1
  Cu2+  Cu108  1  0.37373423  0.87519671  0.65316343  1
  Cu2+  Cu109  1  0.37468764  0.62471010  0.64481795  1
  Cu2+  Cu110  1  0.12506477  0.62469747  0.65355018  1
  Cu2+  Cu111  1  0.12503482  0.12583066  0.14270127  1
  Cu2+  Cu112  1  0.12584158  0.87516527  0.15332221  1
  Cu2+  Cu113  1  0.62466386  0.87376291  0.64025891  1
  Cu2+  Cu114  1  0.62393520  0.87425549  0.15451432  1
  Cu2+  Cu115  1  0.12584713  0.37590810  0.65648859  1
  Cu2+  Cu116  1  0.62479484  0.62325308  0.65447110  1
  Cu2+  Cu117  1  0.87486898  0.12419548  0.15909483  1
  Cu2+  Cu118  1  0.37503320  0.37431546  0.65644396  1
  Cu2+  Cu119  1  0.37483540  0.37384526  0.13870937  1
  Cu2+  Cu120  1  0.62463520  0.12543729  0.14617378  1
  Cu2+  Cu121  1  0.12458306  0.62448472  0.14138201  1
  Cu2+  Cu122  1  0.37558534  0.62624727  0.14074853  1
  Cu2+  Cu123  1  0.87497126  0.37607665  0.64346302  1
  Cu2+  Cu124  1  0.87548573  0.37435252  0.14824794  1
  Cu2+  Cu125  1  0.87559186  0.87528594  0.15786140  1
  Cu2+  Cu126  1  0.87458537  0.12488957  0.64329168  1
  Cu2+  Cu127  1  0.12622231  0.12529531  0.64141274  1
  O2-  O128  1  0.12257320  0.12433050  0.00722799  1
  O2-  O129  1  0.12743743  0.12700335  0.50710190  1
  O2-  O130  1  0.12254481  0.37321237  0.00587014  1
  O2-  O131  1  0.12731707  0.37757409  0.49467323  1
  O2-  O132  1  0.12230608  0.62611448  0.00689268  1
  O2-  O133  1  0.12670767  0.62132621  0.49556523  1
  O2-  O134  1  0.12104327  0.87722301  -0.00331628  1
  O2-  O135  1  0.12606474  0.87259296  0.51579707  1
  O2-  O136  1  0.37549831  0.12165869  0.00723784  1
  O2-  O137  1  0.37570450  0.12706802  0.50709373  1
  O2-  O138  1  0.37543501  0.37248606  0.00626812  1
  O2-  O139  1  0.37237608  0.37660886  0.49550194  1
  O2-  O140  1  0.37641256  0.62795478  0.00683829  1
  O2-  O141  1  0.37430305  0.62374977  0.50906128  1
  O2-  O142  1  0.37480935  0.87797600  0.00649757  1
  O2-  O143  1  0.37404404  0.87239810  0.49638225  1
  O2-  O144  1  0.62738728  0.12433003  0.00724980  1
  O2-  O145  1  0.62203012  0.12793775  0.50690093  1
  O2-  O146  1  0.62704880  0.37231371  0.00767204  1
  O2-  O147  1  0.62450332  0.37817962  0.51914616  1
  O2-  O148  1  0.62734928  0.62727979  0.00731557  1
  O2-  O149  1  0.62325569  0.62232427  0.49533115  1
  O2-  O150  1  0.62944767  0.87795741  -0.00446039  1
  O2-  O151  1  0.62387141  0.87291169  0.50649104  1
  O2-  O152  1  0.87450945  0.12123010  -0.00555007  1
  O2-  O153  1  0.87497412  0.12663027  0.49856884  1
  O2-  O154  1  0.87481460  0.37154482  -0.00152626  1
  O2-  O155  1  0.87608462  0.37665971  0.50742529  1
  O2-  O156  1  0.87356121  0.62794934  0.00777782  1
  O2-  O157  1  0.87528548  0.62420255  0.51713615  1
  O2-  O158  1  0.87458243  0.87901134  -0.00464243  1
  O2-  O159  1  0.87649656  0.87205313  0.50618603  1
  O2-  O160  1  0.12501827  -0.00050036  0.16781242  1
  O2-  O161  1  0.12558680  -0.00189484  0.66244650  1
  O2-  O162  1  0.12412282  0.25265569  0.16286719  1
  O2-  O163  1  0.12614472  0.25178554  0.66547011  1
  O2-  O164  1  0.12433719  0.49715324  0.15865960  1
  O2-  O165  1  0.12539400  0.50013336  0.66886893  1
  O2-  O166  1  0.12453759  0.75104171  0.16403279  1
  O2-  O167  1  0.12536479  0.74962520  0.66630058  1
  O2-  O168  1  0.37511030  -0.00001154  0.16637968  1
  O2-  O169  1  0.37598605  0.00188909  0.66110048  1
  O2-  O170  1  0.37638147  0.24636972  0.16353382  1
  O2-  O171  1  0.37563420  0.24850453  0.66466123  1
  O2-  O172  1  0.37532687  0.50026868  0.16045053  1
  O2-  O173  1  0.37504341  0.49817970  0.66949138  1
  O2-  O174  1  0.37566029  0.75393814  0.16216500  1
  O2-  O175  1  0.37477597  0.75110502  0.66697443  1
  O2-  O176  1  0.62516496  -0.00163472  0.16928913  1
  O2-  O177  1  0.62365760  0.00329797  0.65865847  1
  O2-  O178  1  0.62506596  0.25292206  0.16602550  1
  O2-  O179  1  0.62411531  0.24937753  0.66619638  1
  O2-  O180  1  0.62747322  0.50017762  0.15747828  1
  O2-  O181  1  0.62394439  0.49939431  0.67476027  1
  O2-  O182  1  0.62523766  0.74881523  0.16152060  1
  O2-  O183  1  0.62473851  0.74751970  0.66515251  1
  O2-  O184  1  0.87424723  -0.00056373  0.16963165  1
  O2-  O185  1  0.87514771  -0.00188049  0.65654393  1
  O2-  O186  1  0.87431201  0.24870416  0.16416979  1
  O2-  O187  1  0.87473388  0.24913238  0.66348232  1
  O2-  O188  1  0.87363152  0.50213407  0.16027853  1
  O2-  O189  1  0.87552200  0.50221434  0.67250228  1
  O2-  O190  1  0.87468484  0.74965212  0.16402800  1
  O2-  O191  1  0.87511397  0.75041164  0.66710557  1
  O2-  O192  1  -0.00129888  0.12420051  0.16666498  1
  O2-  O193  1  -0.00051300  0.12564060  0.66113049  1
  O2-  O194  1  0.00064461  0.37492264  0.16243504  1
  O2-  O195  1  0.00194054  0.37574350  0.66431334  1
  O2-  O196  1  -0.00344201  0.62546934  0.16334963  1
  O2-  O197  1  0.00003140  0.62484631  0.66634011  1
  O2-  O198  1  0.00081276  0.87539344  0.16699707  1
  O2-  O199  1  -0.00073509  0.87398194  0.66269066  1
  O2-  O200  1  0.25270849  0.12459290  0.16301360  1
  O2-  O201  1  0.25362528  0.12549129  0.66683333  1
  O2-  O202  1  0.24762186  0.37360468  0.15871985  1
  O2-  O203  1  0.25054989  0.37454676  0.66832065  1
  O2-  O204  1  0.25008508  0.62583081  0.16143626  1
  O2-  O205  1  0.24850114  0.62447904  0.66824929  1
  O2-  O206  1  0.25142525  0.87643467  0.16039257  1
  O2-  O207  1  0.24924755  0.87522665  0.66924394  1
  O2-  O208  1  0.49767147  0.12387181  0.16487907  1
  O2-  O209  1  0.49991657  0.12585613  0.66594063  1
  O2-  O210  1  0.50276358  0.37547292  0.16259050  1
  O2-  O211  1  0.50004951  0.37439195  0.66892897  1
  O2-  O212  1  0.50368603  0.62482567  0.16236703  1
  O2-  O213  1  0.50092176  0.62457984  0.66766549  1
  O2-  O214  1  0.49819835  0.87653694  0.16063830  1
  O2-  O215  1  0.49810991  0.87457752  0.66729264  1
  O2-  O216  1  0.75067178  0.12436497  0.16883803  1
  O2-  O217  1  0.74736434  0.12555845  0.65910455  1
  O2-  O218  1  0.74919377  0.37454302  0.16435123  1
  O2-  O219  1  0.74821715  0.37556400  0.66824663  1
  O2-  O220  1  0.74999929  0.62647332  0.16318319  1
  O2-  O221  1  0.75030439  0.62462200  0.66714327  1
  O2-  O222  1  0.74942492  0.87497401  0.16804659  1
  O2-  O223  1  0.75332492  0.87399947  0.65989041  1
  O2-  O224  1  0.12606367  -0.00106659  0.35247097  1
  O2-  O225  1  0.12489439  -0.00165501  0.84321413  1
  O2-  O226  1  0.12630612  0.25235241  0.34429713  1
  O2-  O227  1  0.12434481  0.25213191  0.84926858  1
  O2-  O228  1  0.12491900  0.49971845  0.33871523  1
  O2-  O229  1  0.12421422  0.49758148  0.85338485  1
  O2-  O230  1  0.12542609  0.74826768  0.34750594  1
  O2-  O231  1  0.12425477  0.75226490  0.84760459  1
  O2-  O232  1  0.37575477  0.00175097  0.35123808  1
  O2-  O233  1  0.37509746  -0.00063800  0.84577621  1
  O2-  O234  1  0.37526352  0.24962133  0.34701629  1
  O2-  O235  1  0.37579115  0.24594145  0.84983954  1
  O2-  O236  1  0.37486880  0.49869216  0.34265896  1
  O2-  O237  1  0.37492318  0.50081409  0.85324145  1
  O2-  O238  1  0.37412550  0.75010168  0.34513945  1
  O2-  O239  1  0.37611340  0.75416463  0.85058628  1
  O2-  O240  1  0.62346668  0.00358774  0.35319465  1
  O2-  O241  1  0.62550202  -0.00228175  0.84059405  1
  O2-  O242  1  0.62399447  0.24942416  0.35060429  1
  O2-  O243  1  0.62506046  0.25283897  0.84924228  1
  O2-  O244  1  0.62489679  0.50007077  0.34112247  1
  O2-  O245  1  0.62749937  0.50005915  0.85862187  1
  O2-  O246  1  0.62488388  0.74720334  0.34458282  1
  O2-  O247  1  0.62545474  0.74984103  0.84844984  1
  O2-  O248  1  0.87491961  -0.00100001  0.35279160  1
  O2-  O249  1  0.87452727  -0.00056912  0.83759488  1
  O2-  O250  1  0.87430834  0.24847511  0.34713602  1
  O2-  O251  1  0.87481188  0.24965228  0.84520670  1
  O2-  O252  1  0.87510586  0.50074116  0.34482692  1
  O2-  O253  1  0.87341576  0.50111720  0.85552250  1
  O2-  O254  1  0.87543126  0.75144584  0.34885862  1
  O2-  O255  1  0.87446868  0.74985967  0.84900432  1
  O2-  O256  1  -0.00103931  0.12497386  0.34944379  1
  O2-  O257  1  -0.00236570  0.12476416  0.84297539  1
  O2-  O258  1  0.00224774  0.37547109  0.34525202  1
  O2-  O259  1  -0.00021292  0.37541977  0.84707138  1
  O2-  O260  1  0.00103264  0.62487860  0.34668794  1
  O2-  O261  1  -0.00427158  0.62497327  0.84943774  1
  O2-  O262  1  -0.00064955  0.87407652  0.35177876  1
  O2-  O263  1  -0.00089745  0.87504370  0.84196062  1
  O2-  O264  1  0.25354906  0.12510802  0.34713257  1
  O2-  O265  1  0.25224352  0.12400394  0.85193961  1
  O2-  O266  1  0.25027004  0.37493192  0.33874679  1
  O2-  O267  1  0.24708895  0.37383340  0.85257063  1
  O2-  O268  1  0.24904838  0.62436058  0.34308094  1
  O2-  O269  1  0.25006047  0.62618261  0.85201178  1
  O2-  O270  1  0.25086472  0.87568236  0.34365457  1
  O2-  O271  1  0.25069031  0.87611311  0.85208895  1
  O2-  O272  1  0.49944529  0.12666062  0.34918468  1
  O2-  O273  1  0.49782912  0.12355051  0.85097553  1
  O2-  O274  1  0.49825859  0.37450606  0.34574844  1
  O2-  O275  1  0.50328310  0.37535569  0.85231608  1
  O2-  O276  1  0.49976684  0.62415200  0.34484771  1
  O2-  O277  1  0.50424849  0.62510315  0.85179404  1
  O2-  O278  1  0.49709196  0.87496718  0.34354814  1
  O2-  O279  1  0.49951090  0.87624079  0.85107669  1
  O2-  O280  1  0.74818283  0.12535609  0.35190554  1
  O2-  O281  1  0.75229070  0.12468344  0.84098582  1
  O2-  O282  1  0.74872594  0.37574439  0.34957917  1
  O2-  O283  1  0.75005192  0.37499408  0.84897317  1
  O2-  O284  1  0.74993376  0.62393932  0.34739280  1
  O2-  O285  1  0.75013166  0.62593560  0.84993943  1
  O2-  O286  1  0.75270127  0.87456329  0.35247637  1
  O2-  O287  1  0.75061168  0.87460369  0.84066248  1
