# generated using pymatgen
data_BaYFeCuO5
_symmetry_space_group_name_H-M   'P 1'
_cell_length_a   15.67484937
_cell_length_b   15.67331158
_cell_length_c   15.50634976
_cell_angle_alpha   89.99678114
_cell_angle_beta   89.99879552
_cell_angle_gamma   89.99940311
_symmetry_Int_Tables_number   1
_chemical_formula_structural   BaYFeCuO5
_chemical_formula_sum   'Ba32 Y32 Fe32 Cu32 O160'
_cell_volume   3809.55035415
_cell_formula_units_Z   32
loop_
 _symmetry_equiv_pos_site_id
 _symmetry_equiv_pos_as_xyz
  1  'x, y, z'
loop_
 _atom_type_symbol
 _atom_type_oxidation_number
  Ba2+  2.0
  Y3+  3.0
  Fe3+  3.0
  Cu2+  2.0
  O2-  -2.0
loop_
 _atom_site_type_symbol
 _atom_site_label
 _atom_site_symmetry_multiplicity
 _atom_site_fract_x
 _atom_site_fract_y
 _atom_site_fract_z
 _atom_site_occupancy
  Ba2+  Ba0  1  -0.00258703  -0.00295650  0.01174708  1
  Ba2+  Ba1  1  0.00105870  0.00143451  0.49603928  1
  Ba2+  Ba2  1  0.00519626  0.24442542  0.01351953  1
  Ba2+  Ba3  1  -0.00157119  0.25176875  0.50162442  1
  Ba2+  Ba4  1  0.00616817  0.50407740  0.02217682  1
  Ba2+  Ba5  1  -0.00561910  0.49388914  0.51529666  1
  Ba2+  Ba6  1  -0.00145175  0.75324942  0.02121135  1
  Ba2+  Ba7  1  -0.00393701  0.75330905  0.51243995  1
  Ba2+  Ba8  1  0.24470620  0.00484107  0.02432850  1
  Ba2+  Ba9  1  0.25398110  0.00081946  0.49747116  1
  Ba2+  Ba10  1  0.24940102  0.24987134  0.01856581  1
  Ba2+  Ba11  1  0.25232248  0.24719256  0.51138727  1
  Ba2+  Ba12  1  0.25189254  0.50102177  0.01102532  1
  Ba2+  Ba13  1  0.25372204  0.49580513  0.52179773  1
  Ba2+  Ba14  1  0.24636272  0.74399909  0.01776489  1
  Ba2+  Ba15  1  0.25532077  0.75702886  0.50615571  1
  Ba2+  Ba16  1  0.50443319  0.00490860  0.01330041  1
  Ba2+  Ba17  1  0.49366674  0.00483920  0.50714778  1
  Ba2+  Ba18  1  0.49924406  0.24952750  0.00631696  1
  Ba2+  Ba19  1  0.49678908  0.24192764  0.51091194  1
  Ba2+  Ba20  1  0.49236212  0.49773559  0.00498167  1
  Ba2+  Ba21  1  0.49697646  0.50444730  0.52313321  1
  Ba2+  Ba22  1  0.49733949  0.74798750  0.01075570  1
  Ba2+  Ba23  1  0.49389166  0.74883518  0.51804149  1
  Ba2+  Ba24  1  0.75353046  -0.00162924  0.00091314  1
  Ba2+  Ba25  1  0.75046100  0.00649168  0.50735140  1
  Ba2+  Ba26  1  0.74660563  0.24336754  -0.00066756  1
  Ba2+  Ba27  1  0.75379702  0.24652276  0.50174336  1
  Ba2+  Ba28  1  0.75013270  0.49971338  0.01571522  1
  Ba2+  Ba29  1  0.75567590  0.50121104  0.51726817  1
  Ba2+  Ba30  1  0.75672062  0.75744246  0.01479249  1
  Ba2+  Ba31  1  0.75298113  0.74562860  0.52282883  1
  Y3+  Y32  1  0.00208607  -0.00077962  0.25723768  1
  Y3+  Y33  1  -0.00280940  -0.00096848  0.75996220  1
  Y3+  Y34  1  0.00061216  0.24970794  0.26065278  1
  Y3+  Y35  1  -0.00047021  0.25080891  0.75562885  1
  Y3+  Y36  1  -0.00041044  0.49977465  0.25764333  1
  Y3+  Y37  1  -0.00042887  0.49754989  0.75342559  1
  Y3+  Y38  1  0.00094289  0.75200697  0.25562928  1
  Y3+  Y39  1  -0.00230890  0.75229138  0.75699242  1
  Y3+  Y40  1  0.24999540  0.00045583  0.26232952  1
  Y3+  Y41  1  0.25220057  -0.00015799  0.75304851  1
  Y3+  Y42  1  0.24948014  0.24718108  0.25972092  1
  Y3+  Y43  1  0.25201585  0.25101924  0.75421173  1
  Y3+  Y44  1  0.24939141  0.50148025  0.25307209  1
  Y3+  Y45  1  0.25249508  0.49884930  0.75889818  1
  Y3+  Y46  1  0.24987285  0.75176860  0.25760640  1
  Y3+  Y47  1  0.25253681  0.74977720  0.75632716  1
  Y3+  Y48  1  0.49904630  0.00154403  0.26236309  1
  Y3+  Y49  1  0.49936576  0.00163377  0.75300616  1
  Y3+  Y50  1  0.50068485  0.24764299  0.26057235  1
  Y3+  Y51  1  0.49863939  0.24758856  0.75427151  1
  Y3+  Y52  1  0.50088385  0.50000361  0.25247918  1
  Y3+  Y53  1  0.49687872  0.50087981  0.75985014  1
  Y3+  Y54  1  0.49881462  0.75155565  0.25567270  1
  Y3+  Y55  1  0.49730405  0.74927450  0.75743690  1
  Y3+  Y56  1  0.74901336  -0.00008595  0.25885531  1
  Y3+  Y57  1  0.75086381  0.00081833  0.75820476  1
  Y3+  Y58  1  0.74973303  0.25029001  0.26231252  1
  Y3+  Y59  1  0.74951033  0.24758515  0.75478884  1
  Y3+  Y60  1  0.75064251  0.49814243  0.25712096  1
  Y3+  Y61  1  0.75114155  0.49957807  0.75514817  1
  Y3+  Y62  1  0.75051808  0.75184970  0.25285233  1
  Y3+  Y63  1  0.75196356  0.75138984  0.75809262  1
  Fe3+  Fe64  1  0.87449337  0.62556884  0.37464641  1
  Fe3+  Fe65  1  0.12548994  0.37452520  0.87667556  1
  Fe3+  Fe66  1  0.12579533  0.87499354  0.87825600  1
  Fe3+  Fe67  1  0.37545567  0.62389073  0.37449536  1
  Fe3+  Fe68  1  0.12522817  0.62511543  0.37991528  1
  Fe3+  Fe69  1  0.37565257  0.37664642  0.37692680  1
  Fe3+  Fe70  1  0.12574419  0.12443789  0.87601430  1
  Fe3+  Fe71  1  0.87637310  0.62436311  0.87718680  1
  Fe3+  Fe72  1  0.62455024  0.87347880  0.38062879  1
  Fe3+  Fe73  1  0.12633128  0.37665752  0.37704922  1
  Fe3+  Fe74  1  0.37376735  0.12441987  0.87715864  1
  Fe3+  Fe75  1  0.62500651  0.62542895  0.37662540  1
  Fe3+  Fe76  1  0.62472313  0.37457196  0.87626763  1
  Fe3+  Fe77  1  0.62407764  0.87530299  0.87683774  1
  Fe3+  Fe78  1  0.62410134  0.37673131  0.38092129  1
  Fe3+  Fe79  1  0.87368349  0.87408500  0.37684147  1
  Fe3+  Fe80  1  0.37375908  0.87624240  0.88078619  1
  Fe3+  Fe81  1  0.87591989  0.37438875  0.88036671  1
  Fe3+  Fe82  1  0.62573108  0.62522915  0.87848363  1
  Fe3+  Fe83  1  0.12405244  0.62536701  0.87406859  1
  Fe3+  Fe84  1  0.12468409  0.87623764  0.63549700  1
  Fe3+  Fe85  1  0.37521769  0.87648741  0.13584416  1
  Fe3+  Fe86  1  0.12445684  0.12444016  0.63579223  1
  Fe3+  Fe87  1  0.87480946  0.37315013  0.13544074  1
  Fe3+  Fe88  1  0.62511833  0.62529730  0.13316029  1
  Fe3+  Fe89  1  0.87617027  0.12437426  0.63927532  1
  Fe3+  Fe90  1  0.62558519  0.12555381  0.14141506  1
  Fe3+  Fe91  1  0.62489139  0.87538044  0.63521118  1
  Fe3+  Fe92  1  0.87456516  0.12485994  0.14053706  1
  Fe3+  Fe93  1  0.12489627  0.62509629  0.63330639  1
  Fe3+  Fe94  1  0.62478764  0.37426923  0.63526913  1
  Fe3+  Fe95  1  0.37543710  0.37342254  0.13850365  1
  Cu2+  Cu96  1  0.37449165  0.37336024  0.86229671  1
  Cu2+  Cu97  1  0.87539178  0.12423807  0.36288309  1
  Cu2+  Cu98  1  0.37485630  0.12612449  0.37119049  1
  Cu2+  Cu99  1  0.12488972  0.12544063  0.36659766  1
  Cu2+  Cu100  1  0.62422996  0.12448766  0.85950438  1
  Cu2+  Cu101  1  0.37632224  0.87393569  0.37121176  1
  Cu2+  Cu102  1  0.87578807  0.12582638  0.86449500  1
  Cu2+  Cu103  1  0.62497429  0.12475146  0.37594337  1
  Cu2+  Cu104  1  0.37369611  0.62581232  0.87394752  1
  Cu2+  Cu105  1  0.12461410  0.87402461  0.36587559  1
  Cu2+  Cu106  1  0.87557373  0.87452411  0.87263860  1
  Cu2+  Cu107  1  0.87482443  0.37635649  0.37301559  1
  Cu2+  Cu108  1  0.37532740  0.62520626  0.14038243  1
  Cu2+  Cu109  1  0.12515481  0.37417868  0.64781159  1
  Cu2+  Cu110  1  0.37527488  0.12501376  0.15349661  1
  Cu2+  Cu111  1  0.37605775  0.37452960  0.65128174  1
  Cu2+  Cu112  1  0.62492589  0.62508875  0.65327369  1
  Cu2+  Cu113  1  0.12593857  0.87582724  0.15284455  1
  Cu2+  Cu114  1  0.87474463  0.62489036  0.14990129  1
  Cu2+  Cu115  1  0.12451960  0.12515202  0.15680510  1
  Cu2+  Cu116  1  0.62431542  0.87661767  0.14985693  1
  Cu2+  Cu117  1  0.37355969  0.62514447  0.65419547  1
  Cu2+  Cu118  1  0.12487031  0.37451838  0.15211872  1
  Cu2+  Cu119  1  0.37394238  0.12427757  0.64207058  1
  Cu2+  Cu120  1  0.62531855  0.12438319  0.64092668  1
  Cu2+  Cu121  1  0.87430819  0.37265862  0.64233985  1
  Cu2+  Cu122  1  0.87471546  0.87740991  0.14377889  1
  Cu2+  Cu123  1  0.12493279  0.62550137  0.15497125  1
  Cu2+  Cu124  1  0.62536473  0.37342489  0.14936527  1
  Cu2+  Cu125  1  0.87624543  0.62507433  0.65303010  1
  Cu2+  Cu126  1  0.87500587  0.87640520  0.64918932  1
  Cu2+  Cu127  1  0.37454443  0.87559821  0.64157016  1
  O2-  O128  1  0.12674154  0.12539485  -0.00378009  1
  O2-  O129  1  0.12310385  0.12459694  0.51571689  1
  O2-  O130  1  0.12468082  0.37479377  -0.00344745  1
  O2-  O131  1  0.12588215  0.37755112  0.49707661  1
  O2-  O132  1  0.12352064  0.62535335  -0.00593111  1
  O2-  O133  1  0.12552691  0.62437576  0.50563348  1
  O2-  O134  1  0.12644387  0.87443400  -0.00202277  1
  O2-  O135  1  0.12391986  0.87557797  0.51537471  1
  O2-  O136  1  0.37368319  0.12467041  -0.00270728  1
  O2-  O137  1  0.37325752  0.12553969  0.50668527  1
  O2-  O138  1  0.37502247  0.37219507  0.01776512  1
  O2-  O139  1  0.37618706  0.37862979  0.49693167  1
  O2-  O140  1  0.37423263  0.62513243  0.00632234  1
  O2-  O141  1  0.37551329  0.62353364  0.49460534  1
  O2-  O142  1  0.37370003  0.87713954  0.00692613  1
  O2-  O143  1  0.37600114  0.87402763  0.50626468  1
  O2-  O144  1  0.62579826  0.12525793  0.02090345  1
  O2-  O145  1  0.62572650  0.12504255  0.50826686  1
  O2-  O146  1  0.62583290  0.37421375  -0.00368637  1
  O2-  O147  1  0.62434646  0.37758308  0.50735382  1
  O2-  O148  1  0.62579879  0.62509244  0.00476698  1
  O2-  O149  1  0.62490179  0.62505976  0.49607484  1
  O2-  O150  1  0.62415413  0.87576109  -0.00313596  1
  O2-  O151  1  0.62507093  0.87235266  0.50693939  1
  O2-  O152  1  0.87428345  0.12552238  0.02042669  1
  O2-  O153  1  0.87725153  0.12481500  0.51879240  1
  O2-  O154  1  0.87561429  0.37379502  0.00701843  1
  O2-  O155  1  0.87395376  0.37528948  0.50672879  1
  O2-  O156  1  0.87744773  0.62397336  -0.00312108  1
  O2-  O157  1  0.87386375  0.62546805  0.49474542  1
  O2-  O158  1  0.87582826  0.87632096  0.00806710  1
  O2-  O159  1  0.87325080  0.87240503  0.49693246  1
  O2-  O160  1  0.12533908  0.00058830  0.16677497  1
  O2-  O161  1  0.12458370  -0.00001382  0.66812811  1
  O2-  O162  1  0.12462822  0.24973285  0.16639498  1
  O2-  O163  1  0.12480482  0.24968310  0.66449185  1
  O2-  O164  1  0.12470676  0.50037356  0.16278616  1
  O2-  O165  1  0.12452092  0.50114488  0.66089463  1
  O2-  O166  1  0.12525007  0.75018267  0.16519794  1
  O2-  O167  1  0.12395380  0.74885234  0.66171791  1
  O2-  O168  1  0.37513919  -0.00049195  0.16498060  1
  O2-  O169  1  0.37513887  -0.00016595  0.66628169  1
  O2-  O170  1  0.37497491  0.24954711  0.16809040  1
  O2-  O171  1  0.37545233  0.25090754  0.66345171  1
  O2-  O172  1  0.37524610  0.49816078  0.16192619  1
  O2-  O173  1  0.37539928  0.50032525  0.66593993  1
  O2-  O174  1  0.37529712  0.75315740  0.16128321  1
  O2-  O175  1  0.37486147  0.74863585  0.66606280  1
  O2-  O176  1  0.62415993  0.00130848  0.17063548  1
  O2-  O177  1  0.62521187  -0.00310012  0.66380320  1
  O2-  O178  1  0.62533471  0.24910802  0.17139901  1
  O2-  O179  1  0.62471004  0.25226841  0.66345950  1
  O2-  O180  1  0.62623614  0.50087990  0.16056365  1
  O2-  O181  1  0.62497001  0.49928972  0.66390774  1
  O2-  O182  1  0.62492242  0.74951526  0.16030432  1
  O2-  O183  1  0.62541247  0.75070239  0.66391840  1
  O2-  O184  1  0.87502951  0.00230865  0.17026532  1
  O2-  O185  1  0.87478044  0.00062961  0.66885868  1
  O2-  O186  1  0.87558187  0.25103939  0.16843171  1
  O2-  O187  1  0.87464737  0.24763015  0.66982069  1
  O2-  O188  1  0.87451927  0.49780300  0.16039466  1
  O2-  O189  1  0.87489474  0.50041616  0.66447474  1
  O2-  O190  1  0.87472263  0.74961382  0.16202562  1
  O2-  O191  1  0.87488320  0.75024763  0.66293915  1
  O2-  O192  1  -0.00028237  0.12568772  0.16707819  1
  O2-  O193  1  0.00061044  0.12487123  0.67056277  1
  O2-  O194  1  -0.00132601  0.37521862  0.16314681  1
  O2-  O195  1  0.00059525  0.37455439  0.66484891  1
  O2-  O196  1  0.00004461  0.62498659  0.16612857  1
  O2-  O197  1  0.00155888  0.62446079  0.65923835  1
  O2-  O198  1  0.00192130  0.87546319  0.16533470  1
  O2-  O199  1  0.00027349  0.87481830  0.66628836  1
  O2-  O200  1  0.24936103  0.12525649  0.16522962  1
  O2-  O201  1  0.24787980  0.12519912  0.66404296  1
  O2-  O202  1  0.24995300  0.37461685  0.16476316  1
  O2-  O203  1  0.25106475  0.37540122  0.66300400  1
  O2-  O204  1  0.24882765  0.62561517  0.16535167  1
  O2-  O205  1  0.24790281  0.62472829  0.66187925  1
  O2-  O206  1  0.25178405  0.87556907  0.16465235  1
  O2-  O207  1  0.24780988  0.87391797  0.66591182  1
  O2-  O208  1  0.50065391  0.12513164  0.16769428  1
  O2-  O209  1  0.49931820  0.12453212  0.66388058  1
  O2-  O210  1  0.49999980  0.37440302  0.16621236  1
  O2-  O211  1  0.50179579  0.37616033  0.66430958  1
  O2-  O212  1  0.50346262  0.62505665  0.16129104  1
  O2-  O213  1  0.49852983  0.62529907  0.66649604  1
  O2-  O214  1  0.49821229  0.87585044  0.16296493  1
  O2-  O215  1  0.50232853  0.87348916  0.66469223  1
  O2-  O216  1  0.75016012  0.12580768  0.17221943  1
  O2-  O217  1  0.75174503  0.12429030  0.66749709  1
  O2-  O218  1  0.75194874  0.37454478  0.16499623  1
  O2-  O219  1  0.74680207  0.37566067  0.66529632  1
  O2-  O220  1  0.74810092  0.62533052  0.16037731  1
  O2-  O221  1  0.75150960  0.62465171  0.66574281  1
  O2-  O222  1  0.74818249  0.87605615  0.16565454  1
  O2-  O223  1  0.74880267  0.87409805  0.66371132  1
  O2-  O224  1  0.12503261  -0.00009324  0.35153277  1
  O2-  O225  1  0.12513271  -0.00027880  0.84668838  1
  O2-  O226  1  0.12489461  0.25127056  0.34988942  1
  O2-  O227  1  0.12498788  0.24999984  0.84516011  1
  O2-  O228  1  0.12491885  0.50224947  0.34518844  1
  O2-  O229  1  0.12461113  0.49908394  0.84301516  1
  O2-  O230  1  0.12528136  0.74764198  0.34944325  1
  O2-  O231  1  0.12500492  0.75050865  0.84244234  1
  O2-  O232  1  0.37511431  0.00010797  0.34962214  1
  O2-  O233  1  0.37536758  -0.00123744  0.84719163  1
  O2-  O234  1  0.37519241  0.25303661  0.34908185  1
  O2-  O235  1  0.37551885  0.24852690  0.84623014  1
  O2-  O236  1  0.37577328  0.50057729  0.34007316  1
  O2-  O237  1  0.37480831  0.49795988  0.85051091  1
  O2-  O238  1  0.37520752  0.74709198  0.34354390  1
  O2-  O239  1  0.37507000  0.75400037  0.84939348  1
  O2-  O240  1  0.62550767  -0.00325299  0.35379313  1
  O2-  O241  1  0.62466961  0.00000280  0.84713293  1
  O2-  O242  1  0.62533872  0.25325346  0.35415998  1
  O2-  O243  1  0.62501971  0.24961074  0.84705257  1
  O2-  O244  1  0.62513021  0.49988719  0.34409792  1
  O2-  O245  1  0.62560740  0.50086986  0.84768780  1
  O2-  O246  1  0.62505164  0.75052640  0.34406277  1
  O2-  O247  1  0.62500085  0.74878236  0.84735689  1
  O2-  O248  1  0.87454348  -0.00074744  0.35141194  1
  O2-  O249  1  0.87453499  0.00197799  0.85139487  1
  O2-  O250  1  0.87520668  0.24799319  0.35133023  1
  O2-  O251  1  0.87451602  0.25175225  0.85246067  1
  O2-  O252  1  0.87475403  0.50306688  0.34255826  1
  O2-  O253  1  0.87471928  0.49788153  0.84721199  1
  O2-  O254  1  0.87482201  0.74992561  0.34252544  1
  O2-  O255  1  0.87478909  0.74755770  0.84564978  1
  O2-  O256  1  -0.00075117  0.12486855  0.35021258  1
  O2-  O257  1  0.00078592  0.12555364  0.85011323  1
  O2-  O258  1  0.00214191  0.37596600  0.34686164  1
  O2-  O259  1  -0.00123587  0.37464672  0.84719066  1
  O2-  O260  1  0.00123818  0.62537887  0.34930386  1
  O2-  O261  1  -0.00008567  0.62401910  0.84029684  1
  O2-  O262  1  -0.00132657  0.87464726  0.34859580  1
  O2-  O263  1  0.00186486  0.87493861  0.84770200  1
  O2-  O264  1  0.24902085  0.12505636  0.34936782  1
  O2-  O265  1  0.25019083  0.12459821  0.84269931  1
  O2-  O266  1  0.25043511  0.37654708  0.34546702  1
  O2-  O267  1  0.24955371  0.37472886  0.84643450  1
  O2-  O268  1  0.24888481  0.62508099  0.34782710  1
  O2-  O269  1  0.24737912  0.62490041  0.84425408  1
  O2-  O270  1  0.24908455  0.87419922  0.34948735  1
  O2-  O271  1  0.25126784  0.87510840  0.84641554  1
  O2-  O272  1  0.49996164  0.12518512  0.34984114  1
  O2-  O273  1  0.49877264  0.12449657  0.84673073  1
  O2-  O274  1  0.50142330  0.37648581  0.34760031  1
  O2-  O275  1  0.50029496  0.37498396  0.84795915  1
  O2-  O276  1  0.50081500  0.62506474  0.34177637  1
  O2-  O277  1  0.50284432  0.62485659  0.85121696  1
  O2-  O278  1  0.50321608  0.87378513  0.34718721  1
  O2-  O279  1  0.49849183  0.87477306  0.84833234  1
  O2-  O280  1  0.75208629  0.12528689  0.35274062  1
  O2-  O281  1  0.74997319  0.12535793  0.85084963  1
  O2-  O282  1  0.74695259  0.37622035  0.34951013  1
  O2-  O283  1  0.75143679  0.37446108  0.84842526  1
  O2-  O284  1  0.74927047  0.62521663  0.34193133  1
  O2-  O285  1  0.74964136  0.62413690  0.84874063  1
  O2-  O286  1  0.74860809  0.87404042  0.34732683  1
  O2-  O287  1  0.74819821  0.87498533  0.84740480  1
