# generated using pymatgen
data_BaYFeCuO5
_symmetry_space_group_name_H-M   'P 1'
_cell_length_a   15.67671852
_cell_length_b   15.67394381
_cell_length_c   15.50504341
_cell_angle_alpha   89.99026046
_cell_angle_beta   90.00895892
_cell_angle_gamma   90.00201028
_symmetry_Int_Tables_number   1
_chemical_formula_structural   BaYFeCuO5
_chemical_formula_sum   'Ba32 Y32 Fe32 Cu32 O160'
_cell_volume   3809.83722462
_cell_formula_units_Z   32
loop_
 _symmetry_equiv_pos_site_id
 _symmetry_equiv_pos_as_xyz
  1  'x, y, z'
loop_
 _atom_type_symbol
 _atom_type_oxidation_number
  Ba2+  2.0
  Y3+  3.0
  Fe3+  3.0
  Cu2+  2.0
  O2-  -2.0
loop_
 _atom_site_type_symbol
 _atom_site_label
 _atom_site_symmetry_multiplicity
 _atom_site_fract_x
 _atom_site_fract_y
 _atom_site_fract_z
 _atom_site_occupancy
  Ba2+  Ba0  1  -0.00003607  0.00000030  0.01431836  1
  Ba2+  Ba1  1  -0.00066133  0.00176716  0.52617858  1
  Ba2+  Ba2  1  -0.00381002  0.24735038  0.01058722  1
  Ba2+  Ba3  1  -0.00334007  0.24938293  0.52155556  1
  Ba2+  Ba4  1  -0.00515002  0.50210292  0.01267910  1
  Ba2+  Ba5  1  -0.00294112  0.48917482  0.51222033  1
  Ba2+  Ba6  1  -0.00068231  0.75036415  0.01652573  1
  Ba2+  Ba7  1  -0.00073522  0.76022026  0.51708178  1
  Ba2+  Ba8  1  0.24538037  -0.00244474  0.01118237  1
  Ba2+  Ba9  1  0.24996853  -0.00039825  0.51843322  1
  Ba2+  Ba10  1  0.24495077  0.24505681  0.00152279  1
  Ba2+  Ba11  1  0.24457938  0.24401156  0.51321429  1
  Ba2+  Ba12  1  0.23992671  0.50024914  0.00662161  1
  Ba2+  Ba13  1  0.25004296  0.49978617  0.50663612  1
  Ba2+  Ba14  1  0.24263632  0.75639185  0.01500713  1
  Ba2+  Ba15  1  0.25498086  0.75628193  0.51242211  1
  Ba2+  Ba16  1  0.49590794  0.00487621  0.01077708  1
  Ba2+  Ba17  1  0.50314275  0.00133776  0.51272601  1
  Ba2+  Ba18  1  0.50848434  0.24911526  0.00770508  1
  Ba2+  Ba19  1  0.50702963  0.24254720  0.49699054  1
  Ba2+  Ba20  1  0.51183984  0.49723904  0.01228714  1
  Ba2+  Ba21  1  0.50501959  0.50463689  0.48980726  1
  Ba2+  Ba22  1  0.50028768  0.75020835  0.01609837  1
  Ba2+  Ba23  1  0.50047436  0.75244568  0.50512648  1
  Ba2+  Ba24  1  0.75723543  0.00622729  0.01392126  1
  Ba2+  Ba25  1  0.74854671  0.00308095  0.52151414  1
  Ba2+  Ba26  1  0.75150877  0.25103515  0.01782677  1
  Ba2+  Ba27  1  0.75055908  0.24814060  0.50681254  1
  Ba2+  Ba28  1  0.75227585  0.49876049  0.01802884  1
  Ba2+  Ba29  1  0.74801841  0.49238516  0.49654498  1
  Ba2+  Ba30  1  0.75784578  0.74372340  0.01559413  1
  Ba2+  Ba31  1  0.74512336  0.75542269  0.51234265  1
  Y3+  Y32  1  -0.00017001  0.00067033  0.24984431  1
  Y3+  Y33  1  -0.00076050  0.00020398  0.75960415  1
  Y3+  Y34  1  -0.00352547  0.24915195  0.25595686  1
  Y3+  Y35  1  -0.00198542  0.25015152  0.75682029  1
  Y3+  Y36  1  -0.00331737  0.49984447  0.25779317  1
  Y3+  Y37  1  -0.00203256  0.49759458  0.75716765  1
  Y3+  Y38  1  -0.00023740  0.75034267  0.25315042  1
  Y3+  Y39  1  -0.00089899  0.75174573  0.75933508  1
  Y3+  Y40  1  0.24913782  -0.00048338  0.25344336  1
  Y3+  Y41  1  0.24869880  -0.00095093  0.75927495  1
  Y3+  Y42  1  0.25007492  0.24741198  0.25873704  1
  Y3+  Y43  1  0.24825636  0.25000552  0.75792493  1
  Y3+  Y44  1  0.25015522  0.50148242  0.25867849  1
  Y3+  Y45  1  0.24816896  0.49832645  0.75729004  1
  Y3+  Y46  1  0.24926607  0.75146151  0.25500279  1
  Y3+  Y47  1  0.24860290  0.75292154  0.75813360  1
  Y3+  Y48  1  0.50029371  0.00258393  0.25680143  1
  Y3+  Y49  1  0.50064991  0.00098566  0.75661435  1
  Y3+  Y50  1  0.50434467  0.24822036  0.25810034  1
  Y3+  Y51  1  0.50201035  0.24890063  0.76032492  1
  Y3+  Y52  1  0.50358913  0.50019111  0.25606224  1
  Y3+  Y53  1  0.50185852  0.49808726  0.76255922  1
  Y3+  Y54  1  0.50011798  0.74892251  0.25656741  1
  Y3+  Y55  1  0.50031064  0.75213975  0.75655807  1
  Y3+  Y56  1  0.75133692  0.00353846  0.25390606  1
  Y3+  Y57  1  0.75084292  0.00232123  0.75610554  1
  Y3+  Y58  1  0.74981331  0.25030082  0.25843737  1
  Y3+  Y59  1  0.75090187  0.24949701  0.75677150  1
  Y3+  Y60  1  0.75036096  0.49791919  0.25694030  1
  Y3+  Y61  1  0.75139829  0.49795439  0.75965907  1
  Y3+  Y62  1  0.75142070  0.74782554  0.25510371  1
  Y3+  Y63  1  0.75153387  0.75006788  0.75754927  1
  Fe3+  Fe64  1  0.87542781  0.87677070  0.37521297  1
  Fe3+  Fe65  1  0.12318034  0.62549655  0.87562387  1
  Fe3+  Fe66  1  0.87487220  0.87528528  0.87705295  1
  Fe3+  Fe67  1  0.37502602  0.87536818  0.87787251  1
  Fe3+  Fe68  1  0.37504732  0.37340589  0.37992551  1
  Fe3+  Fe69  1  0.87450640  0.37437803  0.87717791  1
  Fe3+  Fe70  1  0.12369280  0.12307131  0.37648902  1
  Fe3+  Fe71  1  0.87611926  0.12362350  0.37656306  1
  Fe3+  Fe72  1  0.37480002  0.87673871  0.37400609  1
  Fe3+  Fe73  1  0.12424814  0.62643624  0.38036895  1
  Fe3+  Fe74  1  0.12358778  0.12451496  0.87549370  1
  Fe3+  Fe75  1  0.12381406  0.87655103  0.37544505  1
  Fe3+  Fe76  1  0.12399567  0.37342565  0.37750242  1
  Fe3+  Fe77  1  0.62609443  0.87526670  0.88006123  1
  Fe3+  Fe78  1  0.37487637  0.37444393  0.88238946  1
  Fe3+  Fe79  1  0.37458706  0.62510940  0.88134829  1
  Fe3+  Fe80  1  0.62668220  0.87642854  0.37300050  1
  Fe3+  Fe81  1  0.62659914  0.62533700  0.87932704  1
  Fe3+  Fe82  1  0.87536958  0.62608675  0.38038034  1
  Fe3+  Fe83  1  0.62644777  0.12492501  0.87764464  1
  Fe3+  Fe84  1  0.12451191  0.62534896  0.63413541  1
  Fe3+  Fe85  1  0.62585287  0.87590847  0.13353306  1
  Fe3+  Fe86  1  0.37464083  0.12638670  0.13721588  1
  Fe3+  Fe87  1  0.37689861  0.37509647  0.63525633  1
  Fe3+  Fe88  1  0.37644603  0.62426662  0.63807618  1
  Fe3+  Fe89  1  0.87386688  0.62440467  0.63354113  1
  Fe3+  Fe90  1  0.37475707  0.37432239  0.13606718  1
  Fe3+  Fe91  1  0.37563382  0.12565649  0.63922925  1
  Fe3+  Fe92  1  0.37414410  0.62415151  0.13492674  1
  Fe3+  Fe93  1  0.12474816  0.37422883  0.13839275  1
  Fe3+  Fe94  1  0.62452557  0.62370532  0.63807489  1
  Fe3+  Fe95  1  0.62398369  0.37516346  0.63812937  1
  Cu2+  Cu96  1  0.87577159  0.37340818  0.37301501  1
  Cu2+  Cu97  1  0.37488146  0.12495777  0.86548966  1
  Cu2+  Cu98  1  0.87472136  0.12531780  0.87138336  1
  Cu2+  Cu99  1  0.12387893  0.87497682  0.87210017  1
  Cu2+  Cu100  1  0.37434535  0.12384111  0.36429707  1
  Cu2+  Cu101  1  0.62511960  0.37427710  0.36149914  1
  Cu2+  Cu102  1  0.62697693  0.12252465  0.37133432  1
  Cu2+  Cu103  1  0.12383915  0.37486218  0.86287094  1
  Cu2+  Cu104  1  0.62653049  0.62653674  0.36075014  1
  Cu2+  Cu105  1  0.37438984  0.62590402  0.36220777  1
  Cu2+  Cu106  1  0.62686751  0.37448228  0.87473247  1
  Cu2+  Cu107  1  0.87520442  0.62480550  0.87138901  1
  Cu2+  Cu108  1  0.12499054  0.12476050  0.65461468  1
  Cu2+  Cu109  1  0.62428461  0.12632209  0.64291138  1
  Cu2+  Cu110  1  0.12530339  0.12641704  0.14944463  1
  Cu2+  Cu111  1  0.12549052  0.37539477  0.65118763  1
  Cu2+  Cu112  1  0.62476787  0.87478521  0.65385466  1
  Cu2+  Cu113  1  0.87558181  0.62396798  0.14393199  1
  Cu2+  Cu114  1  0.62551082  0.37427601  0.14359406  1
  Cu2+  Cu115  1  0.37555015  0.87505582  0.65359637  1
  Cu2+  Cu116  1  0.12512227  0.87471045  0.65310362  1
  Cu2+  Cu117  1  0.87460732  0.12544496  0.65245273  1
  Cu2+  Cu118  1  0.87413526  0.87470933  0.65259597  1
  Cu2+  Cu119  1  0.62515204  0.12492361  0.14981055  1
  Cu2+  Cu120  1  0.12442659  0.87532115  0.14065492  1
  Cu2+  Cu121  1  0.37576001  0.87526875  0.14842115  1
  Cu2+  Cu122  1  0.87418459  0.87498635  0.14807923  1
  Cu2+  Cu123  1  0.87526752  0.37474261  0.15244760  1
  Cu2+  Cu124  1  0.12492045  0.62377113  0.15332508  1
  Cu2+  Cu125  1  0.62552022  0.62524642  0.15131402  1
  Cu2+  Cu126  1  0.87286740  0.37544746  0.64220183  1
  Cu2+  Cu127  1  0.87531345  0.12626732  0.14017930  1
  O2-  O128  1  0.12428011  0.12499445  -0.00367828  1
  O2-  O129  1  0.12389796  0.12230191  0.49657387  1
  O2-  O130  1  0.12602412  0.37489460  0.01828402  1
  O2-  O131  1  0.12596995  0.37358598  0.49774453  1
  O2-  O132  1  0.12370468  0.62503750  -0.00399653  1
  O2-  O133  1  0.12566991  0.62643001  0.50662306  1
  O2-  O134  1  0.12417678  0.87478324  0.00666323  1
  O2-  O135  1  0.12545870  0.87648020  0.49551313  1
  O2-  O136  1  0.37454484  0.12794374  0.01715001  1
  O2-  O137  1  0.37518686  0.12544379  0.51888100  1
  O2-  O138  1  0.37365001  0.37499288  0.00960252  1
  O2-  O139  1  0.37655448  0.37520996  0.50897493  1
  O2-  O140  1  0.37374377  0.62410367  0.00710307  1
  O2-  O141  1  0.37688185  0.62442880  0.51823092  1
  O2-  O142  1  0.37547355  0.87401582  -0.00224667  1
  O2-  O143  1  0.37523813  0.87611675  0.49429313  1
  O2-  O144  1  0.62603306  0.12418166  -0.00192402  1
  O2-  O145  1  0.62543525  0.12331672  0.50716688  1
  O2-  O146  1  0.62666947  0.37475054  0.00981396  1
  O2-  O147  1  0.62117148  0.37625389  0.51798213  1
  O2-  O148  1  0.62634971  0.62648344  -0.00056544  1
  O2-  O149  1  0.62272179  0.62533656  0.51807399  1
  O2-  O150  1  0.62554531  0.87483068  0.00503763  1
  O2-  O151  1  0.62514668  0.87609771  0.49332763  1
  O2-  O152  1  0.87556082  0.12617192  0.00651707  1
  O2-  O153  1  0.87647434  0.12268958  0.49687721  1
  O2-  O154  1  0.87533584  0.37548664  -0.00220866  1
  O2-  O155  1  0.87431190  0.37399933  0.50691530  1
  O2-  O156  1  0.87613583  0.62415889  0.00716524  1
  O2-  O157  1  0.87403381  0.62614473  0.50683400  1
  O2-  O158  1  0.87471231  0.87386998  -0.00290924  1
  O2-  O159  1  0.87439701  0.87663448  0.49525199  1
  O2-  O160  1  0.12554831  0.00221992  0.15991913  1
  O2-  O161  1  0.12534359  -0.00086286  0.66499074  1
  O2-  O162  1  0.12615211  0.25104538  0.16759431  1
  O2-  O163  1  0.12629737  0.25027406  0.66440716  1
  O2-  O164  1  0.12609821  0.49856223  0.16992571  1
  O2-  O165  1  0.12548270  0.50271407  0.66259241  1
  O2-  O166  1  0.12525278  0.74805607  0.16507614  1
  O2-  O167  1  0.12584948  0.74809983  0.66212049  1
  O2-  O168  1  0.37544960  0.00098242  0.16219117  1
  O2-  O169  1  0.37503492  -0.00024467  0.66532186  1
  O2-  O170  1  0.37502995  0.25151735  0.16914804  1
  O2-  O171  1  0.37376481  0.25231964  0.66720232  1
  O2-  O172  1  0.37440055  0.49998573  0.16512657  1
  O2-  O173  1  0.37454772  0.49875926  0.66908448  1
  O2-  O174  1  0.37481310  0.74790575  0.16104397  1
  O2-  O175  1  0.37515970  0.74956955  0.66553703  1
  O2-  O176  1  0.62465920  -0.00109814  0.15871818  1
  O2-  O177  1  0.62422871  -0.00134411  0.66516233  1
  O2-  O178  1  0.62467316  0.24831581  0.16679100  1
  O2-  O179  1  0.62378099  0.25227467  0.66836233  1
  O2-  O180  1  0.62491481  0.50139010  0.16646519  1
  O2-  O181  1  0.62365638  0.50020156  0.67204395  1
  O2-  O182  1  0.62470429  0.75141839  0.16155592  1
  O2-  O183  1  0.62434639  0.74917776  0.66613713  1
  O2-  O184  1  0.87488512  -0.00082518  0.15971052  1
  O2-  O185  1  0.87480252  -0.00016154  0.66464880  1
  O2-  O186  1  0.87493341  0.25148673  0.16527862  1
  O2-  O187  1  0.87471136  0.24921121  0.66528155  1
  O2-  O188  1  0.87518859  0.49840340  0.16843889  1
  O2-  O189  1  0.87513694  0.50350299  0.66475479  1
  O2-  O190  1  0.87514746  0.75077059  0.16530955  1
  O2-  O191  1  0.87435242  0.74802563  0.66222778  1
  O2-  O192  1  0.00180758  0.12611270  0.16156515  1
  O2-  O193  1  0.00023305  0.12523758  0.66302702  1
  O2-  O194  1  0.00017696  0.37579251  0.16491735  1
  O2-  O195  1  0.00072702  0.37569496  0.66200283  1
  O2-  O196  1  0.00153552  0.62394809  0.16751819  1
  O2-  O197  1  -0.00012108  0.62581338  0.65741484  1
  O2-  O198  1  -0.00187270  0.87431679  0.16260893  1
  O2-  O199  1  -0.00032396  0.87374290  0.66237888  1
  O2-  O200  1  0.25049727  0.12603940  0.16637864  1
  O2-  O201  1  0.25040283  0.12516764  0.66671675  1
  O2-  O202  1  0.25166730  0.37571561  0.16783733  1
  O2-  O203  1  0.25226600  0.37641803  0.66466082  1
  O2-  O204  1  0.25161356  0.62403006  0.16436493  1
  O2-  O205  1  0.24942729  0.62445711  0.66468875  1
  O2-  O206  1  0.25143010  0.87451458  0.16366464  1
  O2-  O207  1  0.25008528  0.87424672  0.66458776  1
  O2-  O208  1  0.49962596  0.12559518  0.16627320  1
  O2-  O209  1  0.49792007  0.12564789  0.67035856  1
  O2-  O210  1  0.49670352  0.37570810  0.16474318  1
  O2-  O211  1  0.49825804  0.37538799  0.67316723  1
  O2-  O212  1  0.49774612  0.62441548  0.16206049  1
  O2-  O213  1  0.49978890  0.62484480  0.67373074  1
  O2-  O214  1  0.50221207  0.87430740  0.16111680  1
  O2-  O215  1  0.50032837  0.87451586  0.66687805  1
  O2-  O216  1  0.74872525  0.12555071  0.16381772  1
  O2-  O217  1  0.75092446  0.12484489  0.66392443  1
  O2-  O218  1  0.75182528  0.37517012  0.16608977  1
  O2-  O219  1  0.74743499  0.37611252  0.66597792  1
  O2-  O220  1  0.74951288  0.62456358  0.16682329  1
  O2-  O221  1  0.75030740  0.62571279  0.66398604  1
  O2-  O222  1  0.74834554  0.87445061  0.16053248  1
  O2-  O223  1  0.74954077  0.87429825  0.66435576  1
  O2-  O224  1  0.12489543  -0.00060477  0.34058502  1
  O2-  O225  1  0.12545753  0.00123855  0.84737952  1
  O2-  O226  1  0.12637336  0.24903562  0.34735048  1
  O2-  O227  1  0.12573541  0.24994102  0.84800058  1
  O2-  O228  1  0.12620488  0.50161936  0.35256947  1
  O2-  O229  1  0.12579522  0.50033251  0.84603495  1
  O2-  O230  1  0.12528666  0.74946721  0.34803455  1
  O2-  O231  1  0.12526964  0.74844973  0.84451374  1
  O2-  O232  1  0.37502474  -0.00042921  0.34345757  1
  O2-  O233  1  0.37545417  -0.00080668  0.84800876  1
  O2-  O234  1  0.37478913  0.25096328  0.35285611  1
  O2-  O235  1  0.37449024  0.25216702  0.85122825  1
  O2-  O236  1  0.37486683  0.49842966  0.35107242  1
  O2-  O237  1  0.37412210  0.50017461  0.85259223  1
  O2-  O238  1  0.37497001  0.75117885  0.34486094  1
  O2-  O239  1  0.37546989  0.74833004  0.84810167  1
  O2-  O240  1  0.62524556  -0.00214896  0.34026961  1
  O2-  O241  1  0.62472988  -0.00146964  0.84812740  1
  O2-  O242  1  0.62478631  0.25005636  0.35062515  1
  O2-  O243  1  0.62393409  0.24839892  0.84913132  1
  O2-  O244  1  0.62412233  0.50067957  0.35063509  1
  O2-  O245  1  0.62445178  0.50160642  0.85089939  1
  O2-  O246  1  0.62494836  0.75146748  0.34447280  1
  O2-  O247  1  0.62405374  0.75139167  0.84799937  1
  O2-  O248  1  0.87596949  -0.00020715  0.34013472  1
  O2-  O249  1  0.87394280  -0.00134306  0.84744476  1
  O2-  O250  1  0.87523842  0.24763502  0.34740471  1
  O2-  O251  1  0.87554092  0.25143162  0.84731281  1
  O2-  O252  1  0.87553075  0.50288432  0.35266891  1
  O2-  O253  1  0.87538214  0.49803293  0.84643065  1
  O2-  O254  1  0.87557353  0.74920867  0.34800186  1
  O2-  O255  1  0.87455900  0.75167852  0.84493972  1
  O2-  O256  1  0.00030999  0.12454917  0.34197479  1
  O2-  O257  1  0.00088557  0.12530401  0.84559435  1
  O2-  O258  1  0.00260336  0.37547785  0.34584509  1
  O2-  O259  1  -0.00084836  0.37529747  0.84545462  1
  O2-  O260  1  0.00037370  0.62548592  0.35140730  1
  O2-  O261  1  0.00136229  0.62440568  0.84137783  1
  O2-  O262  1  0.00004429  0.87381164  0.34326865  1
  O2-  O263  1  -0.00187979  0.87488139  0.84560239  1
  O2-  O264  1  0.24889138  0.12438042  0.34804239  1
  O2-  O265  1  0.24960956  0.12593599  0.84833771  1
  O2-  O266  1  0.25090010  0.37567547  0.34960657  1
  O2-  O267  1  0.25159003  0.37577003  0.85079158  1
  O2-  O268  1  0.24744948  0.62515147  0.34929932  1
  O2-  O269  1  0.25141796  0.62418164  0.84785368  1
  O2-  O270  1  0.24925049  0.87459875  0.34441030  1
  O2-  O271  1  0.25173824  0.87416259  0.84776885  1
  O2-  O272  1  0.49914765  0.12444546  0.34952642  1
  O2-  O273  1  0.50056411  0.12446083  0.85114472  1
  O2-  O274  1  0.49856725  0.37518566  0.34950269  1
  O2-  O275  1  0.49737326  0.37569370  0.85537099  1
  O2-  O276  1  0.50043858  0.62542696  0.34699581  1
  O2-  O277  1  0.49858516  0.62453960  0.85358833  1
  O2-  O278  1  0.50003252  0.87449997  0.34362230  1
  O2-  O279  1  0.50159139  0.87467179  0.84981945  1
  O2-  O280  1  0.75260947  0.12408775  0.34610152  1
  O2-  O281  1  0.74847383  0.12472700  0.84586419  1
  O2-  O282  1  0.74844103  0.37543328  0.35022493  1
  O2-  O283  1  0.75159567  0.37478892  0.84636828  1
  O2-  O284  1  0.75238041  0.62570754  0.35119124  1
  O2-  O285  1  0.74814603  0.62572071  0.84548883  1
  O2-  O286  1  0.75142769  0.87419394  0.34191586  1
  O2-  O287  1  0.74823109  0.87452797  0.84732502  1
