# generated using pymatgen
data_BaYFeCuO5
_symmetry_space_group_name_H-M   'P 1'
_cell_length_a   15.67480457
_cell_length_b   15.67470706
_cell_length_c   15.50432309
_cell_angle_alpha   90.00503260
_cell_angle_beta   90.00247778
_cell_angle_gamma   89.99710300
_symmetry_Int_Tables_number   1
_chemical_formula_structural   BaYFeCuO5
_chemical_formula_sum   'Ba32 Y32 Fe32 Cu32 O160'
_cell_volume   3809.38068515
_cell_formula_units_Z   32
loop_
 _symmetry_equiv_pos_site_id
 _symmetry_equiv_pos_as_xyz
  1  'x, y, z'
loop_
 _atom_type_symbol
 _atom_type_oxidation_number
  Ba2+  2.0
  Y3+  3.0
  Fe3+  3.0
  Cu2+  2.0
  O2-  -2.0
loop_
 _atom_site_type_symbol
 _atom_site_label
 _atom_site_symmetry_multiplicity
 _atom_site_fract_x
 _atom_site_fract_y
 _atom_site_fract_z
 _atom_site_occupancy
  Ba2+  Ba0  1  -0.00728217  0.00452428  0.01299879  1
  Ba2+  Ba1  1  -0.00379264  0.00826708  0.50663178  1
  Ba2+  Ba2  1  0.00144970  0.25307646  0.01017140  1
  Ba2+  Ba3  1  -0.00071850  0.25007612  0.52200855  1
  Ba2+  Ba4  1  0.00231300  0.49576261  0.01125910  1
  Ba2+  Ba5  1  -0.00591057  0.49696253  0.51824431  1
  Ba2+  Ba6  1  -0.00475322  0.74560666  0.01118206  1
  Ba2+  Ba7  1  -0.00963814  0.74643776  0.50150546  1
  Ba2+  Ba8  1  0.25868960  0.00229217  0.00676266  1
  Ba2+  Ba9  1  0.25120784  0.00613544  0.51388869  1
  Ba2+  Ba10  1  0.24808545  0.25237814  0.01059403  1
  Ba2+  Ba11  1  0.24885964  0.25030977  0.52024331  1
  Ba2+  Ba12  1  0.24671966  0.49657990  0.01134852  1
  Ba2+  Ba13  1  0.25389766  0.49511421  0.51292385  1
  Ba2+  Ba14  1  0.25700401  0.74880575  0.00531510  1
  Ba2+  Ba15  1  0.25783674  0.74893253  0.50659574  1
  Ba2+  Ba16  1  0.50077513  -0.00019120  0.02315103  1
  Ba2+  Ba17  1  0.49114314  0.00017220  0.50580404  1
  Ba2+  Ba18  1  0.50131872  0.24844208  0.02646041  1
  Ba2+  Ba19  1  0.49841863  0.25807154  0.50514982  1
  Ba2+  Ba20  1  0.49653711  0.49472286  0.01231440  1
  Ba2+  Ba21  1  0.50607071  0.49989932  0.50739508  1
  Ba2+  Ba22  1  0.49580266  0.75747914  0.00667608  1
  Ba2+  Ba23  1  0.50018656  0.74113551  0.50865999  1
  Ba2+  Ba24  1  0.74809113  0.00162913  0.02904257  1
  Ba2+  Ba25  1  0.75996392  0.00228299  0.50189410  1
  Ba2+  Ba26  1  0.75010301  0.24884754  0.02725307  1
  Ba2+  Ba27  1  0.75397961  0.25585343  0.51041078  1
  Ba2+  Ba28  1  0.75403598  0.49429509  0.01271414  1
  Ba2+  Ba29  1  0.74765911  0.50145865  0.51177780  1
  Ba2+  Ba30  1  0.75206744  0.75558475  0.01444697  1
  Ba2+  Ba31  1  0.75264813  0.73969780  0.50303425  1
  Y3+  Y32  1  -0.00281717  0.00014335  0.25949758  1
  Y3+  Y33  1  0.00039664  0.00391064  0.75587587  1
  Y3+  Y34  1  -0.00104170  0.25088712  0.25442990  1
  Y3+  Y35  1  0.00185586  0.24993977  0.75812959  1
  Y3+  Y36  1  0.00096872  0.49929034  0.25513410  1
  Y3+  Y37  1  -0.00137638  0.49897281  0.75903524  1
  Y3+  Y38  1  -0.00144952  0.74876831  0.25887049  1
  Y3+  Y39  1  -0.00188893  0.74785444  0.75753242  1
  Y3+  Y40  1  0.25220218  -0.00177272  0.25590083  1
  Y3+  Y41  1  0.24979702  0.00200750  0.75975254  1
  Y3+  Y42  1  0.25068424  0.25258159  0.25338206  1
  Y3+  Y43  1  0.24608093  0.24921803  0.76029801  1
  Y3+  Y44  1  0.24873150  0.49785907  0.25376229  1
  Y3+  Y45  1  0.24990964  0.49943993  0.76052929  1
  Y3+  Y46  1  0.25060818  0.75058732  0.25548526  1
  Y3+  Y47  1  0.25285893  0.75016600  0.76069537  1
  Y3+  Y48  1  0.49853023  -0.00144102  0.25722189  1
  Y3+  Y49  1  0.49852865  -0.00025655  0.75639412  1
  Y3+  Y50  1  0.50040005  0.25275781  0.25913251  1
  Y3+  Y51  1  0.50126852  0.25065714  0.75228891  1
  Y3+  Y52  1  0.50141499  0.49752340  0.26049797  1
  Y3+  Y53  1  0.50169135  0.50213287  0.75503282  1
  Y3+  Y54  1  0.49971123  0.75097137  0.25834461  1
  Y3+  Y55  1  0.49931151  0.74778640  0.75883228  1
  Y3+  Y56  1  0.75251663  0.00009231  0.26141498  1
  Y3+  Y57  1  0.75086165  0.00176851  0.75161214  1
  Y3+  Y58  1  0.75008006  0.25101849  0.26077315  1
  Y3+  Y59  1  0.75073418  0.25155659  0.75007179  1
  Y3+  Y60  1  0.74844590  0.49935750  0.26202536  1
  Y3+  Y61  1  0.75007157  0.50121362  0.75274084  1
  Y3+  Y62  1  0.75100618  0.74889746  0.26223354  1
  Y3+  Y63  1  0.75004222  0.74582007  0.75532071  1
  Fe3+  Fe64  1  0.12439634  0.62510054  0.87750758  1
  Fe3+  Fe65  1  0.62572349  0.62431057  0.88133193  1
  Fe3+  Fe66  1  0.37650427  0.37389370  0.87670648  1
  Fe3+  Fe67  1  0.62457960  0.87450133  0.38009427  1
  Fe3+  Fe68  1  0.12512563  0.62353092  0.38008674  1
  Fe3+  Fe69  1  0.87328932  0.37404559  0.87501088  1
  Fe3+  Fe70  1  0.37315492  0.12660739  0.37525103  1
  Fe3+  Fe71  1  0.12525537  0.12699481  0.37602944  1
  Fe3+  Fe72  1  0.87311801  0.87594188  0.87597189  1
  Fe3+  Fe73  1  0.37763779  0.12651018  0.87610434  1
  Fe3+  Fe74  1  0.87671800  0.37522655  0.37579511  1
  Fe3+  Fe75  1  0.62610166  0.12575973  0.87507843  1
  Fe3+  Fe76  1  0.62471224  0.12531947  0.37892618  1
  Fe3+  Fe77  1  0.37431026  0.62322422  0.37580134  1
  Fe3+  Fe78  1  0.12390753  0.87602739  0.88044582  1
  Fe3+  Fe79  1  0.62630139  0.87734070  0.87517563  1
  Fe3+  Fe80  1  0.12526485  0.37425973  0.37722966  1
  Fe3+  Fe81  1  0.62561265  0.37312964  0.87607931  1
  Fe3+  Fe82  1  0.12527237  0.87527714  0.38082871  1
  Fe3+  Fe83  1  0.87232731  0.12575868  0.87529814  1
  Fe3+  Fe84  1  0.12431491  0.87474226  0.13510544  1
  Fe3+  Fe85  1  0.62421380  0.12454286  0.63037012  1
  Fe3+  Fe86  1  0.87563650  0.87461602  0.63565363  1
  Fe3+  Fe87  1  0.12568285  0.62540230  0.63478444  1
  Fe3+  Fe88  1  0.37520224  0.37553669  0.63925280  1
  Fe3+  Fe89  1  0.87431699  0.62395342  0.13931960  1
  Fe3+  Fe90  1  0.62471566  0.62520635  0.13590542  1
  Fe3+  Fe91  1  0.37459291  0.87475345  0.63845068  1
  Fe3+  Fe92  1  0.12512253  0.12364060  0.13613169  1
  Fe3+  Fe93  1  0.12444396  0.87452051  0.63473915  1
  Fe3+  Fe94  1  0.62530267  0.87415752  0.63206088  1
  Fe3+  Fe95  1  0.37552207  0.62453824  0.13773729  1
  Cu2+  Cu96  1  0.62439561  0.62450406  0.37140916  1
  Cu2+  Cu97  1  0.12406339  0.12432939  0.86833992  1
  Cu2+  Cu98  1  0.12445656  0.37493340  0.87214455  1
  Cu2+  Cu99  1  0.87586902  0.62191244  0.37143865  1
  Cu2+  Cu100  1  0.37346903  0.37515416  0.36236875  1
  Cu2+  Cu101  1  0.62513054  0.37489501  0.37346114  1
  Cu2+  Cu102  1  0.87644310  0.12771189  0.37193524  1
  Cu2+  Cu103  1  0.37405038  0.87468159  0.36456605  1
  Cu2+  Cu104  1  0.37657237  0.87657732  0.87252422  1
  Cu2+  Cu105  1  0.37624571  0.62379976  0.86575736  1
  Cu2+  Cu106  1  0.87359764  0.62435132  0.86529393  1
  Cu2+  Cu107  1  0.87579074  0.87450021  0.36595300  1
  Cu2+  Cu108  1  0.12451765  0.37465215  0.14047670  1
  Cu2+  Cu109  1  0.12531826  0.37593168  0.65262542  1
  Cu2+  Cu110  1  0.87455689  0.37543785  0.15247678  1
  Cu2+  Cu111  1  0.87533454  0.87417544  0.15613560  1
  Cu2+  Cu112  1  0.37419313  0.62487805  0.65267287  1
  Cu2+  Cu113  1  0.87572831  0.62520977  0.64233852  1
  Cu2+  Cu114  1  0.87492885  0.12534280  0.63981842  1
  Cu2+  Cu115  1  0.37471565  0.87411621  0.14290970  1
  Cu2+  Cu116  1  0.62550601  0.37605856  0.15404665  1
  Cu2+  Cu117  1  0.62568600  0.87378973  0.15733842  1
  Cu2+  Cu118  1  0.62478423  0.37590981  0.63965866  1
  Cu2+  Cu119  1  0.87525313  0.12541175  0.15560168  1
  Cu2+  Cu120  1  0.37517332  0.12539620  0.65086239  1
  Cu2+  Cu121  1  0.12493435  0.62591165  0.14978730  1
  Cu2+  Cu122  1  0.62473905  0.62591136  0.64274802  1
  Cu2+  Cu123  1  0.37545539  0.37543962  0.15117232  1
  Cu2+  Cu124  1  0.87566209  0.37557389  0.65140223  1
  Cu2+  Cu125  1  0.12534521  0.12479644  0.65216814  1
  Cu2+  Cu126  1  0.37475117  0.12538895  0.15309855  1
  Cu2+  Cu127  1  0.62502885  0.12482480  0.15921434  1
  O2-  O128  1  0.12391116  0.12149728  0.01579172  1
  O2-  O129  1  0.12641512  0.12767433  0.49631738  1
  O2-  O130  1  0.12465195  0.37483424  0.00642472  1
  O2-  O131  1  0.12545460  0.37425796  0.49714431  1
  O2-  O132  1  0.12392160  0.62627915  -0.00228726  1
  O2-  O133  1  0.12582793  0.62424000  0.50683932  1
  O2-  O134  1  0.12375200  0.87567298  0.00767540  1
  O2-  O135  1  0.12525401  0.87474788  0.50810248  1
  O2-  O136  1  0.37998199  0.12596234  -0.00389924  1
  O2-  O137  1  0.37165083  0.12611373  0.49549185  1
  O2-  O138  1  0.37744862  0.37224744  -0.00304033  1
  O2-  O139  1  0.37361685  0.37596650  0.51827369  1
  O2-  O140  1  0.37687689  0.62526687  0.01730088  1
  O2-  O141  1  0.37345742  0.62328483  0.49652231  1
  O2-  O142  1  0.37666814  0.87641837  0.00746979  1
  O2-  O143  1  0.37201369  0.87496969  0.51800815  1
  O2-  O144  1  0.62633089  0.12486670  -0.00539848  1
  O2-  O145  1  0.62354400  0.12450575  0.50447516  1
  O2-  O146  1  0.62606852  0.37189323  -0.00412427  1
  O2-  O147  1  0.62439739  0.37516250  0.50643443  1
  O2-  O148  1  0.62578047  0.62493130  0.00837640  1
  O2-  O149  1  0.62432183  0.62585254  0.50717210  1
  O2-  O150  1  0.62709632  0.87898091  -0.00492818  1
  O2-  O151  1  0.62383022  0.87350174  0.50644047  1
  O2-  O152  1  0.87012790  0.12450745  -0.00475751  1
  O2-  O153  1  0.87647439  0.12693947  0.50596984  1
  O2-  O154  1  0.87236543  0.37231838  -0.00472209  1
  O2-  O155  1  0.87786511  0.37514888  0.49630443  1
  O2-  O156  1  0.87287427  0.62587403  0.01867205  1
  O2-  O157  1  0.87638909  0.62271430  0.50733475  1
  O2-  O158  1  0.87121370  0.87761958  -0.00409536  1
  O2-  O159  1  0.87809867  0.87461378  0.51542764  1
  O2-  O160  1  0.12401466  -0.00183196  0.16861660  1
  O2-  O161  1  0.12563536  -0.00182772  0.66224982  1
  O2-  O162  1  0.12532058  0.24746698  0.16250763  1
  O2-  O163  1  0.12524684  0.25017888  0.66478731  1
  O2-  O164  1  0.12470198  0.50094078  0.16388421  1
  O2-  O165  1  0.12603876  0.50205459  0.66302836  1
  O2-  O166  1  0.12426467  0.75259678  0.16821164  1
  O2-  O167  1  0.12536808  0.75048078  0.66352132  1
  O2-  O168  1  0.37551492  0.00075885  0.16661355  1
  O2-  O169  1  0.37374257  -0.00020049  0.66397879  1
  O2-  O170  1  0.37517651  0.25051797  0.16350698  1
  O2-  O171  1  0.37536665  0.24980702  0.66250587  1
  O2-  O172  1  0.37571572  0.50046125  0.16458477  1
  O2-  O173  1  0.37351851  0.50036851  0.66736527  1
  O2-  O174  1  0.37467296  0.74774534  0.16833335  1
  O2-  O175  1  0.37456230  0.75068691  0.66808579  1
  O2-  O176  1  0.62496842  -0.00083433  0.16912206  1
  O2-  O177  1  0.62479980  -0.00089770  0.65812297  1
  O2-  O178  1  0.62543985  0.25029315  0.16638919  1
  O2-  O179  1  0.62436808  0.24731015  0.65845871  1
  O2-  O180  1  0.62468314  0.50200611  0.16329808  1
  O2-  O181  1  0.62490606  0.50077542  0.66631534  1
  O2-  O182  1  0.62583917  0.74820708  0.16513063  1
  O2-  O183  1  0.62438601  0.75349912  0.66718481  1
  O2-  O184  1  0.87495078  -0.00070947  0.16721989  1
  O2-  O185  1  0.87592856  -0.00192650  0.66313221  1
  O2-  O186  1  0.87418214  0.25067276  0.16305513  1
  O2-  O187  1  0.87549381  0.25216687  0.66107910  1
  O2-  O188  1  0.87495203  0.50035131  0.16423878  1
  O2-  O189  1  0.87595517  0.49833436  0.66591853  1
  O2-  O190  1  0.87479686  0.74875704  0.16848607  1
  O2-  O191  1  0.87584388  0.75245416  0.66874918  1
  O2-  O192  1  -0.00006844  0.12368749  0.16441692  1
  O2-  O193  1  0.00137704  0.12498688  0.66560766  1
  O2-  O194  1  -0.00165831  0.37516603  0.16245242  1
  O2-  O195  1  0.00021958  0.37563776  0.66515714  1
  O2-  O196  1  -0.00057518  0.62573481  0.16615680  1
  O2-  O197  1  0.00372413  0.62551505  0.66393797  1
  O2-  O198  1  0.00099016  0.87442205  0.16320158  1
  O2-  O199  1  0.00191002  0.87487469  0.66692481  1
  O2-  O200  1  0.24986327  0.12304343  0.16255443  1
  O2-  O201  1  0.24986176  0.12466336  0.66699225  1
  O2-  O202  1  0.25111541  0.37570567  0.16251453  1
  O2-  O203  1  0.25058241  0.37481618  0.66829566  1
  O2-  O204  1  0.25022411  0.62522456  0.16557062  1
  O2-  O205  1  0.24793833  0.62651687  0.66402537  1
  O2-  O206  1  0.24684390  0.87478610  0.16376435  1
  O2-  O207  1  0.24834703  0.87493703  0.66795091  1
  O2-  O208  1  0.49976647  0.12473661  0.16710745  1
  O2-  O209  1  0.50165337  0.12328277  0.65910953  1
  O2-  O210  1  0.50084363  0.37496948  0.16648895  1
  O2-  O211  1  0.49824200  0.37613176  0.66535696  1
  O2-  O212  1  0.50170800  0.62556925  0.16563115  1
  O2-  O213  1  0.49813088  0.62591659  0.66639811  1
  O2-  O214  1  0.50145441  0.87428858  0.16733727  1
  O2-  O215  1  0.50054650  0.87559625  0.66207479  1
  O2-  O216  1  0.75062325  0.12412856  0.16888841  1
  O2-  O217  1  0.74678650  0.12421519  0.65749522  1
  O2-  O218  1  0.74981640  0.37561212  0.16647113  1
  O2-  O219  1  0.75201830  0.37581672  0.65966888  1
  O2-  O220  1  0.74841874  0.62516486  0.16698502  1
  O2-  O221  1  0.75058847  0.62571651  0.66443930  1
  O2-  O222  1  0.75050208  0.87464761  0.16922984  1
  O2-  O223  1  0.74910341  0.87532266  0.65936938  1
  O2-  O224  1  0.12538116  -0.00110863  0.35200547  1
  O2-  O225  1  0.12409174  -0.00237843  0.84731790  1
  O2-  O226  1  0.12550713  0.25058704  0.34220117  1
  O2-  O227  1  0.12432587  0.24880176  0.84958433  1
  O2-  O228  1  0.12605251  0.50068999  0.34746033  1
  O2-  O229  1  0.12478436  0.50204978  0.84682712  1
  O2-  O230  1  0.12500940  0.74978158  0.35430764  1
  O2-  O231  1  0.12472939  0.75175847  0.84757678  1
  O2-  O232  1  0.37376773  0.00018197  0.34941228  1
  O2-  O233  1  0.37539130  0.00292684  0.84474482  1
  O2-  O234  1  0.37502972  0.25001948  0.34622271  1
  O2-  O235  1  0.37537790  0.24993036  0.84198378  1
  O2-  O236  1  0.37342722  0.49999491  0.34600742  1
  O2-  O237  1  0.37587879  0.49886144  0.84913825  1
  O2-  O238  1  0.37411603  0.74949332  0.34948926  1
  O2-  O239  1  0.37561843  0.74882604  0.85134263  1
  O2-  O240  1  0.62499624  -0.00042647  0.35344690  1
  O2-  O241  1  0.62563956  0.00125443  0.83864831  1
  O2-  O242  1  0.62363249  0.24712530  0.35036119  1
  O2-  O243  1  0.62569883  0.24980780  0.83910803  1
  O2-  O244  1  0.62424544  0.49979340  0.34770404  1
  O2-  O245  1  0.62481030  0.50068945  0.85013245  1
  O2-  O246  1  0.62450672  0.75275105  0.34958826  1
  O2-  O247  1  0.62542573  0.74878461  0.85110366  1
  O2-  O248  1  0.87593883  -0.00050585  0.35161989  1
  O2-  O249  1  0.87486787  0.00052734  0.84183230  1
  O2-  O250  1  0.87600458  0.25263324  0.34450864  1
  O2-  O251  1  0.87433140  0.24964846  0.84161897  1
  O2-  O252  1  0.87604443  0.49764955  0.34439225  1
  O2-  O253  1  0.87425972  0.49973270  0.84897677  1
  O2-  O254  1  0.87578660  0.74961967  0.35153096  1
  O2-  O255  1  0.87432270  0.75019886  0.85011975  1
  O2-  O256  1  0.00276764  0.12446536  0.34536024  1
  O2-  O257  1  -0.00172581  0.12454674  0.84880323  1
  O2-  O258  1  0.00181599  0.37551338  0.34312990  1
  O2-  O259  1  -0.00232578  0.37511435  0.84810428  1
  O2-  O260  1  0.00403103  0.62523471  0.34915970  1
  O2-  O261  1  -0.00016848  0.62607739  0.84704009  1
  O2-  O262  1  0.00279202  0.87421784  0.34871433  1
  O2-  O263  1  -0.00026554  0.87445264  0.84925023  1
  O2-  O264  1  0.24946091  0.12467021  0.34204146  1
  O2-  O265  1  0.25044112  0.12449936  0.85124754  1
  O2-  O266  1  0.24871862  0.37506881  0.34504003  1
  O2-  O267  1  0.25174530  0.37495719  0.84989704  1
  O2-  O268  1  0.24813425  0.62600809  0.34789830  1
  O2-  O269  1  0.24968054  0.62609584  0.84784177  1
  O2-  O270  1  0.24715603  0.87388903  0.34797987  1
  O2-  O271  1  0.24726155  0.87517800  0.85236845  1
  O2-  O272  1  0.49998897  0.12358575  0.35021671  1
  O2-  O273  1  0.50156317  0.12544934  0.83995340  1
  O2-  O274  1  0.49784522  0.37524013  0.35115439  1
  O2-  O275  1  0.50119619  0.37474271  0.84365333  1
  O2-  O276  1  0.49758141  0.62506373  0.34722167  1
  O2-  O277  1  0.50289842  0.62540305  0.85053524  1
  O2-  O278  1  0.50102441  0.87557588  0.35155571  1
  O2-  O279  1  0.50312440  0.87501928  0.84332637  1
  O2-  O280  1  0.74772278  0.12483709  0.35263036  1
  O2-  O281  1  0.74957893  0.12520371  0.83709796  1
  O2-  O282  1  0.75162221  0.37468732  0.34950017  1
  O2-  O283  1  0.74929127  0.37556943  0.84034786  1
  O2-  O284  1  0.74999611  0.62474460  0.34971523  1
  O2-  O285  1  0.74745335  0.62491176  0.84827976  1
  O2-  O286  1  0.74875560  0.87494110  0.35390317  1
  O2-  O287  1  0.74992418  0.87474572  0.83862918  1
