# generated using pymatgen
data_BaYFeCuO5
_symmetry_space_group_name_H-M   'P 1'
_cell_length_a   15.67839958
_cell_length_b   15.67751353
_cell_length_c   15.51748044
_cell_angle_alpha   90.00304417
_cell_angle_beta   90.00412049
_cell_angle_gamma   90.00730931
_symmetry_Int_Tables_number   1
_chemical_formula_structural   BaYFeCuO5
_chemical_formula_sum   'Ba32 Y32 Fe32 Cu32 O160'
_cell_volume   3814.17060105
_cell_formula_units_Z   32
loop_
 _symmetry_equiv_pos_site_id
 _symmetry_equiv_pos_as_xyz
  1  'x, y, z'
loop_
 _atom_type_symbol
 _atom_type_oxidation_number
  Ba2+  2.0
  Y3+  3.0
  Fe3+  3.0
  Cu2+  2.0
  O2-  -2.0
loop_
 _atom_site_type_symbol
 _atom_site_label
 _atom_site_symmetry_multiplicity
 _atom_site_fract_x
 _atom_site_fract_y
 _atom_site_fract_z
 _atom_site_occupancy
  Ba2+  Ba0  1  -0.00229651  -0.01069455  0.01131941  1
  Ba2+  Ba1  1  0.00138300  0.00043598  0.49207342  1
  Ba2+  Ba2  1  0.00017402  0.26004873  0.01744045  1
  Ba2+  Ba3  1  -0.00041784  0.25000836  0.50544228  1
  Ba2+  Ba4  1  0.00069075  0.50134098  0.02490447  1
  Ba2+  Ba5  1  0.00134662  0.50162207  0.51865523  1
  Ba2+  Ba6  1  -0.00136669  0.74945436  0.02149228  1
  Ba2+  Ba7  1  0.00428831  0.74796369  0.51095632  1
  Ba2+  Ba8  1  0.25803904  -0.00084430  0.00632605  1
  Ba2+  Ba9  1  0.24789899  -0.00225745  0.52075712  1
  Ba2+  Ba10  1  0.25978476  0.25385924  0.01043675  1
  Ba2+  Ba11  1  0.24477003  0.24510063  0.51237088  1
  Ba2+  Ba12  1  0.25186035  0.49702713  0.01171545  1
  Ba2+  Ba13  1  0.24313905  0.50607060  0.51551466  1
  Ba2+  Ba14  1  0.24940564  0.74877731  0.00688137  1
  Ba2+  Ba15  1  0.24688747  0.74931147  0.52170716  1
  Ba2+  Ba16  1  0.50031966  0.00562162  -0.00289715  1
  Ba2+  Ba17  1  0.48967998  -0.00053444  0.51836649  1
  Ba2+  Ba18  1  0.49759495  0.24738987  0.01273707  1
  Ba2+  Ba19  1  0.50267073  0.25330066  0.51139576  1
  Ba2+  Ba20  1  0.49392269  0.49273862  0.00586884  1
  Ba2+  Ba21  1  0.50636089  0.50223984  0.51724594  1
  Ba2+  Ba22  1  0.49594455  0.75423935  -0.00926980  1
  Ba2+  Ba23  1  0.49470910  0.74561675  0.52139200  1
  Ba2+  Ba24  1  0.74466108  -0.00366216  0.00147945  1
  Ba2+  Ba25  1  0.75971890  0.00076030  0.49442279  1
  Ba2+  Ba26  1  0.74198913  0.25155181  0.01790526  1
  Ba2+  Ba27  1  0.75199422  0.25766051  0.50763000  1
  Ba2+  Ba28  1  0.75460174  0.49630564  0.02166341  1
  Ba2+  Ba29  1  0.74984484  0.49850250  0.51998461  1
  Ba2+  Ba30  1  0.75690082  0.75493115  0.00685735  1
  Ba2+  Ba31  1  0.75552925  0.74500317  0.51335499  1
  Y3+  Y32  1  -0.00071851  -0.00202304  0.25474871  1
  Y3+  Y33  1  -0.00057270  -0.00191657  0.76198398  1
  Y3+  Y34  1  0.00044005  0.24965802  0.25742868  1
  Y3+  Y35  1  -0.00015984  0.25235967  0.75612548  1
  Y3+  Y36  1  0.00232974  0.50196952  0.25680257  1
  Y3+  Y37  1  0.00071189  0.50083938  0.75174558  1
  Y3+  Y38  1  0.00079694  0.74991867  0.25654029  1
  Y3+  Y39  1  0.00037790  0.74937440  0.75610265  1
  Y3+  Y40  1  0.24969386  0.00080025  0.25426630  1
  Y3+  Y41  1  0.25307547  0.00046816  0.76032887  1
  Y3+  Y42  1  0.25231282  0.25062625  0.25342942  1
  Y3+  Y43  1  0.25236634  0.25019799  0.75944701  1
  Y3+  Y44  1  0.24876485  0.50030237  0.25553545  1
  Y3+  Y45  1  0.25072555  0.50087380  0.75704226  1
  Y3+  Y46  1  0.24653417  0.74818779  0.25629830  1
  Y3+  Y47  1  0.25047497  0.74877839  0.75665045  1
  Y3+  Y48  1  0.50004442  0.00298925  0.25528077  1
  Y3+  Y49  1  0.49883578  0.00147638  0.76125765  1
  Y3+  Y50  1  0.50056223  0.25094417  0.25506920  1
  Y3+  Y51  1  0.49911986  0.24945305  0.75972061  1
  Y3+  Y52  1  0.50039832  0.49673065  0.25740412  1
  Y3+  Y53  1  0.49879027  0.49964407  0.75660515  1
  Y3+  Y54  1  0.50012961  0.74931899  0.25872266  1
  Y3+  Y55  1  0.49787531  0.74945147  0.75679090  1
  Y3+  Y56  1  0.75102599  0.00000908  0.25451469  1
  Y3+  Y57  1  0.74899225  -0.00073157  0.76317967  1
  Y3+  Y58  1  0.74663184  0.25070048  0.25843814  1
  Y3+  Y59  1  0.74804252  0.25068648  0.75642566  1
  Y3+  Y60  1  0.74902499  0.49814825  0.25745660  1
  Y3+  Y61  1  0.74950212  0.49968776  0.75280052  1
  Y3+  Y62  1  0.75311580  0.75096957  0.25583098  1
  Y3+  Y63  1  0.75074519  0.75052424  0.75924500  1
  Fe3+  Fe64  1  0.12466728  0.37634563  0.87603886  1
  Fe3+  Fe65  1  0.87535467  0.37622855  0.37506749  1
  Fe3+  Fe66  1  0.62526704  0.37548003  0.87572217  1
  Fe3+  Fe67  1  0.87488045  0.37658819  0.87561045  1
  Fe3+  Fe68  1  0.12431465  0.62397732  0.87712409  1
  Fe3+  Fe69  1  0.62558494  0.62378866  0.87917599  1
  Fe3+  Fe70  1  0.87500230  0.12670365  0.88261401  1
  Fe3+  Fe71  1  0.87606826  0.62351987  0.87647606  1
  Fe3+  Fe72  1  0.87590509  0.62443303  0.37567613  1
  Fe3+  Fe73  1  0.12510797  0.87362468  0.87785384  1
  Fe3+  Fe74  1  0.62536410  0.62502540  0.37705455  1
  Fe3+  Fe75  1  0.37424221  0.87443668  0.37826824  1
  Fe3+  Fe76  1  0.37368820  0.12462667  0.37726977  1
  Fe3+  Fe77  1  0.62434941  0.12467469  0.38056887  1
  Fe3+  Fe78  1  0.62449419  0.87448371  0.38228061  1
  Fe3+  Fe79  1  0.12437941  0.12615859  0.88218494  1
  Fe3+  Fe80  1  0.37471613  0.37560562  0.38061458  1
  Fe3+  Fe81  1  0.12656776  0.87457117  0.37499357  1
  Fe3+  Fe82  1  0.12591044  0.37511189  0.37593049  1
  Fe3+  Fe83  1  0.37409603  0.62486902  0.37841068  1
  Fe3+  Fe84  1  0.12567611  0.12491415  0.13369564  1
  Fe3+  Fe85  1  0.62342726  0.87449441  0.13754310  1
  Fe3+  Fe86  1  0.87608810  0.87684936  0.63875023  1
  Fe3+  Fe87  1  0.37628744  0.62550013  0.13628505  1
  Fe3+  Fe88  1  0.62576797  0.12397335  0.63513654  1
  Fe3+  Fe89  1  0.37607394  0.87447948  0.13732012  1
  Fe3+  Fe90  1  0.37409805  0.37471313  0.63491162  1
  Fe3+  Fe91  1  0.62423543  0.62569566  0.13270882  1
  Fe3+  Fe92  1  0.87509138  0.12371260  0.63958107  1
  Fe3+  Fe93  1  0.12333279  0.12381216  0.64136607  1
  Fe3+  Fe94  1  0.87406680  0.12520918  0.13535566  1
  Fe3+  Fe95  1  0.62591622  0.87587553  0.63597840  1
  Cu2+  Cu96  1  0.37401822  0.87464898  0.86057893  1
  Cu2+  Cu97  1  0.87623942  0.87347935  0.87365257  1
  Cu2+  Cu98  1  0.37455744  0.12659904  0.87240799  1
  Cu2+  Cu99  1  0.37438457  0.62410193  0.86407503  1
  Cu2+  Cu100  1  0.87493620  0.12597477  0.35872973  1
  Cu2+  Cu101  1  0.62555120  0.12687960  0.87280647  1
  Cu2+  Cu102  1  0.12529193  0.62497639  0.37182391  1
  Cu2+  Cu103  1  0.37491823  0.37545574  0.86908444  1
  Cu2+  Cu104  1  0.12599629  0.12495532  0.35772231  1
  Cu2+  Cu105  1  0.62446245  0.37575503  0.37409328  1
  Cu2+  Cu106  1  0.62442535  0.87380149  0.86215557  1
  Cu2+  Cu107  1  0.87521616  0.87397323  0.36202735  1
  Cu2+  Cu108  1  0.62531583  0.62634711  0.65319901  1
  Cu2+  Cu109  1  0.37515595  0.12579864  0.65263911  1
  Cu2+  Cu110  1  0.12441283  0.62576931  0.64259579  1
  Cu2+  Cu111  1  0.87476628  0.37425379  0.15411924  1
  Cu2+  Cu112  1  0.37486472  0.87507336  0.65474504  1
  Cu2+  Cu113  1  0.87425480  0.62466731  0.15158634  1
  Cu2+  Cu114  1  0.62453784  0.12410325  0.14229928  1
  Cu2+  Cu115  1  0.87526612  0.37399376  0.64940251  1
  Cu2+  Cu116  1  0.12583546  0.62506334  0.14780900  1
  Cu2+  Cu117  1  0.62444617  0.37398892  0.64173799  1
  Cu2+  Cu118  1  0.87417839  0.87524824  0.14291940  1
  Cu2+  Cu119  1  0.37569127  0.37570330  0.14341791  1
  Cu2+  Cu120  1  0.12552909  0.37370736  0.65015773  1
  Cu2+  Cu121  1  0.87478684  0.62583838  0.65073464  1
  Cu2+  Cu122  1  0.62431969  0.37576986  0.15155058  1
  Cu2+  Cu123  1  0.37459933  0.62412888  0.65248241  1
  Cu2+  Cu124  1  0.12592241  0.37459288  0.15145008  1
  Cu2+  Cu125  1  0.12436381  0.87652845  0.65522209  1
  Cu2+  Cu126  1  0.37583426  0.12452373  0.14235702  1
  Cu2+  Cu127  1  0.12609476  0.87518327  0.14796014  1
  O2-  O128  1  0.12459553  0.12643432  0.00758708  1
  O2-  O129  1  0.12245669  0.12298626  0.52122515  1
  O2-  O130  1  0.12379452  0.37739897  -0.00408211  1
  O2-  O131  1  0.12508412  0.37354656  0.49591810  1
  O2-  O132  1  0.12368557  0.62410176  -0.00294727  1
  O2-  O133  1  0.12461452  0.62609260  0.50711191  1
  O2-  O134  1  0.12495274  0.87189496  -0.00206352  1
  O2-  O135  1  0.12613340  0.87602766  0.49506069  1
  O2-  O136  1  0.37522606  0.12512107  0.00666265  1
  O2-  O137  1  0.37177382  0.12332737  0.49715417  1
  O2-  O138  1  0.37554640  0.37560311  0.00745865  1
  O2-  O139  1  0.37352500  0.37499685  0.50647671  1
  O2-  O140  1  0.37669262  0.62590714  0.01631932  1
  O2-  O141  1  0.37451175  0.62526548  0.49828449  1
  O2-  O142  1  0.37769667  0.87406912  0.01735550  1
  O2-  O143  1  0.37258822  0.87471024  0.49799403  1
  O2-  O144  1  0.62590553  0.12577349  0.00752006  1
  O2-  O145  1  0.62556670  0.12315074  0.50788110  1
  O2-  O146  1  0.62582424  0.37628078  -0.00420508  1
  O2-  O147  1  0.62502949  0.37494929  0.50706534  1
  O2-  O148  1  0.62472705  0.62496065  0.00590150  1
  O2-  O149  1  0.62607751  0.62633438  0.49692305  1
  O2-  O150  1  0.62265448  0.87395025  0.01771423  1
  O2-  O151  1  0.62587937  0.87501975  0.50873451  1
  O2-  O152  1  0.87387866  0.12710911  0.00879413  1
  O2-  O153  1  0.87728789  0.12272444  0.51994407  1
  O2-  O154  1  0.87522732  0.37705205  -0.00475337  1
  O2-  O155  1  0.87624018  0.37601097  0.49530003  1
  O2-  O156  1  0.87574612  0.62269793  -0.00369785  1
  O2-  O157  1  0.87474830  0.62391095  0.49583972  1
  O2-  O158  1  0.87484328  0.87394250  0.00833551  1
  O2-  O159  1  0.87584479  0.87803324  0.51879413  1
  O2-  O160  1  0.12466163  0.00202244  0.16202027  1
  O2-  O161  1  0.12546195  0.00080564  0.67335542  1
  O2-  O162  1  0.12485774  0.24834340  0.16316245  1
  O2-  O163  1  0.12524116  0.24877061  0.66765380  1
  O2-  O164  1  0.12562884  0.49934838  0.16368520  1
  O2-  O165  1  0.12478860  0.49805841  0.66125465  1
  O2-  O166  1  0.12471891  0.75005304  0.16396640  1
  O2-  O167  1  0.12483770  0.75254821  0.66410198  1
  O2-  O168  1  0.37540978  -0.00216362  0.16660706  1
  O2-  O169  1  0.37518482  0.00056856  0.66641024  1
  O2-  O170  1  0.37587254  0.25030171  0.16611343  1
  O2-  O171  1  0.37445610  0.25136818  0.66264827  1
  O2-  O172  1  0.37570805  0.50250994  0.16698064  1
  O2-  O173  1  0.37502826  0.49839944  0.66197518  1
  O2-  O174  1  0.37543705  0.74956145  0.16882054  1
  O2-  O175  1  0.37507514  0.74946261  0.66423282  1
  O2-  O176  1  0.62498017  -0.00245262  0.17061627  1
  O2-  O177  1  0.62424878  -0.00022124  0.66557817  1
  O2-  O178  1  0.62482639  0.25193655  0.16702900  1
  O2-  O179  1  0.62559576  0.24613577  0.66181101  1
  O2-  O180  1  0.62507233  0.50180641  0.16120104  1
  O2-  O181  1  0.62472384  0.50168716  0.66294863  1
  O2-  O182  1  0.62492960  0.74857092  0.16694820  1
  O2-  O183  1  0.62533141  0.75243407  0.66424777  1
  O2-  O184  1  0.87502774  0.00307928  0.16471065  1
  O2-  O185  1  0.87439933  -0.00008507  0.67592418  1
  O2-  O186  1  0.87522788  0.24865198  0.16365007  1
  O2-  O187  1  0.87426690  0.24853138  0.66650176  1
  O2-  O188  1  0.87436618  0.49929902  0.16256288  1
  O2-  O189  1  0.87472519  0.49982420  0.65943935  1
  O2-  O190  1  0.87482542  0.74853847  0.16477515  1
  O2-  O191  1  0.87424155  0.75172465  0.66523173  1
  O2-  O192  1  -0.00007121  0.12559112  0.16102502  1
  O2-  O193  1  -0.00079957  0.12482887  0.67433227  1
  O2-  O194  1  0.00036372  0.37444263  0.16270184  1
  O2-  O195  1  0.00006446  0.37343979  0.66201249  1
  O2-  O196  1  0.00009560  0.62457817  0.16301440  1
  O2-  O197  1  -0.00155600  0.62569142  0.66318812  1
  O2-  O198  1  0.00151864  0.87532925  0.16336963  1
  O2-  O199  1  -0.00051921  0.87617845  0.66794731  1
  O2-  O200  1  0.24795804  0.12510744  0.16092898  1
  O2-  O201  1  0.24968972  0.12473520  0.66757746  1
  O2-  O202  1  0.24929928  0.37501454  0.16474555  1
  O2-  O203  1  0.25168621  0.37442260  0.66330067  1
  O2-  O204  1  0.25077003  0.62523422  0.16381631  1
  O2-  O205  1  0.25049625  0.62504004  0.66633717  1
  O2-  O206  1  0.25086205  0.87461668  0.16268833  1
  O2-  O207  1  0.24976172  0.87603458  0.66521635  1
  O2-  O208  1  0.49994267  0.12523655  0.16804963  1
  O2-  O209  1  0.50151472  0.12455780  0.66212240  1
  O2-  O210  1  0.50137286  0.37538569  0.16799431  1
  O2-  O211  1  0.49679083  0.37470008  0.66281486  1
  O2-  O212  1  0.50182775  0.62520168  0.16673680  1
  O2-  O213  1  0.50003168  0.62561995  0.66551552  1
  O2-  O214  1  0.49993596  0.87423744  0.17364914  1
  O2-  O215  1  0.50177626  0.87491346  0.66226756  1
  O2-  O216  1  0.75237748  0.12564063  0.16604576  1
  O2-  O217  1  0.74884817  0.12357662  0.66712905  1
  O2-  O218  1  0.74949457  0.37451077  0.16437048  1
  O2-  O219  1  0.75086506  0.37451243  0.66300516  1
  O2-  O220  1  0.74781114  0.62512117  0.16134062  1
  O2-  O221  1  0.75023614  0.62588131  0.66546535  1
  O2-  O222  1  0.74770356  0.87470932  0.16847218  1
  O2-  O223  1  0.74907769  0.87566439  0.66718874  1
  O2-  O224  1  0.12465646  -0.00012044  0.34485949  1
  O2-  O225  1  0.12435806  0.00136056  0.85456285  1
  O2-  O226  1  0.12551498  0.24999517  0.34652961  1
  O2-  O227  1  0.12382089  0.24970016  0.84907913  1
  O2-  O228  1  0.12576293  0.49810389  0.34608107  1
  O2-  O229  1  0.12519629  0.50036534  0.84211889  1
  O2-  O230  1  0.12478406  0.75165130  0.34593470  1
  O2-  O231  1  0.12593617  0.74891487  0.84528756  1
  O2-  O232  1  0.37539172  -0.00036761  0.34594551  1
  O2-  O233  1  0.37512181  -0.00079531  0.85088815  1
  O2-  O234  1  0.37491345  0.25082688  0.34937125  1
  O2-  O235  1  0.37501575  0.25101306  0.84609795  1
  O2-  O236  1  0.37504085  0.49876273  0.34830364  1
  O2-  O237  1  0.37505088  0.50049537  0.84563664  1
  O2-  O238  1  0.37588106  0.75027882  0.34637286  1
  O2-  O239  1  0.37521566  0.74975530  0.84873173  1
  O2-  O240  1  0.62560110  -0.00035752  0.35366302  1
  O2-  O241  1  0.62487680  -0.00177120  0.85005012  1
  O2-  O242  1  0.62470232  0.24643036  0.35189576  1
  O2-  O243  1  0.62530974  0.25285011  0.84388403  1
  O2-  O244  1  0.62466115  0.50244906  0.34421438  1
  O2-  O245  1  0.62498892  0.50131258  0.84562589  1
  O2-  O246  1  0.62510126  0.75147703  0.34817787  1
  O2-  O247  1  0.62430544  0.74766608  0.84962698  1
  O2-  O248  1  0.87482210  0.00039960  0.34885037  1
  O2-  O249  1  0.87505855  0.00258374  0.85653692  1
  O2-  O250  1  0.87519977  0.25073767  0.34704254  1
  O2-  O251  1  0.87541226  0.25018193  0.84810311  1
  O2-  O252  1  0.87504985  0.50001345  0.34298997  1
  O2-  O253  1  0.87450677  0.50011274  0.84044459  1
  O2-  O254  1  0.87474795  0.74935404  0.34736979  1
  O2-  O255  1  0.87454208  0.74715050  0.84656921  1
  O2-  O256  1  0.00031616  0.12487820  0.34642204  1
  O2-  O257  1  -0.00038720  0.12565211  0.85457257  1
  O2-  O258  1  0.00055149  0.37397878  0.34430871  1
  O2-  O259  1  -0.00017919  0.37554184  0.84317726  1
  O2-  O260  1  -0.00122391  0.62514601  0.34573968  1
  O2-  O261  1  0.00043459  0.62436116  0.84339687  1
  O2-  O262  1  0.00046432  0.87604880  0.34656165  1
  O2-  O263  1  0.00228977  0.87469130  0.84784393  1
  O2-  O264  1  0.25123808  0.12524425  0.34298245  1
  O2-  O265  1  0.24634091  0.12574426  0.85104524  1
  O2-  O266  1  0.25169668  0.37437306  0.34672586  1
  O2-  O267  1  0.24801639  0.37484977  0.84620294  1
  O2-  O268  1  0.25196048  0.62475127  0.34527757  1
  O2-  O269  1  0.24937673  0.62455088  0.84922532  1
  O2-  O270  1  0.25077102  0.87545805  0.34236377  1
  O2-  O271  1  0.24904063  0.87519248  0.84858370  1
  O2-  O272  1  0.50050975  0.12438700  0.35043597  1
  O2-  O273  1  0.50017449  0.12534782  0.84719205  1
  O2-  O274  1  0.49665467  0.37477000  0.35107025  1
  O2-  O275  1  0.50159989  0.37619933  0.84554669  1
  O2-  O276  1  0.49965485  0.62524931  0.34647877  1
  O2-  O277  1  0.50141371  0.62471687  0.85083547  1
  O2-  O278  1  0.50129348  0.87519781  0.35271289  1
  O2-  O279  1  0.49902798  0.87456569  0.84735138  1
  O2-  O280  1  0.74796870  0.12416405  0.35073405  1
  O2-  O281  1  0.75336268  0.12527215  0.84958943  1
  O2-  O282  1  0.75146027  0.37463272  0.34692454  1
  O2-  O283  1  0.75027435  0.37549717  0.84335818  1
  O2-  O284  1  0.75023976  0.62579810  0.34344178  1
  O2-  O285  1  0.74886284  0.62509275  0.84859852  1
  O2-  O286  1  0.74821716  0.87547847  0.35186945  1
  O2-  O287  1  0.74907490  0.87440749  0.84998611  1
