# generated using pymatgen
data_BaYFeCuO5
_symmetry_space_group_name_H-M   'P 1'
_cell_length_a   15.66467600
_cell_length_b   15.66424149
_cell_length_c   15.47099575
_cell_angle_alpha   89.99303936
_cell_angle_beta   90.00246573
_cell_angle_gamma   89.99580049
_symmetry_Int_Tables_number   1
_chemical_formula_structural   BaYFeCuO5
_chemical_formula_sum   'Ba32 Y32 Fe32 Cu32 O160'
_cell_volume   3796.19968115
_cell_formula_units_Z   32
loop_
 _symmetry_equiv_pos_site_id
 _symmetry_equiv_pos_as_xyz
  1  'x, y, z'
loop_
 _atom_type_symbol
 _atom_type_oxidation_number
  Ba2+  2.0
  Y3+  3.0
  Fe3+  3.0
  Cu2+  2.0
  O2-  -2.0
loop_
 _atom_site_type_symbol
 _atom_site_label
 _atom_site_symmetry_multiplicity
 _atom_site_fract_x
 _atom_site_fract_y
 _atom_site_fract_z
 _atom_site_occupancy
  Ba2+  Ba0  1  -0.00898420  0.00443581  0.01190840  1
  Ba2+  Ba1  1  0.01018808  -0.00162356  0.51167379  1
  Ba2+  Ba2  1  -0.00262647  0.24764031  0.01977811  1
  Ba2+  Ba3  1  0.00500233  0.25433620  0.52070695  1
  Ba2+  Ba4  1  -0.00659924  0.49734900  0.01550554  1
  Ba2+  Ba5  1  -0.00479902  0.49580992  0.52185357  1
  Ba2+  Ba6  1  -0.01265478  0.75071086  0.00676028  1
  Ba2+  Ba7  1  0.00120916  0.75152841  0.51169203  1
  Ba2+  Ba8  1  0.25722322  0.00152585  0.00553526  1
  Ba2+  Ba9  1  0.24562268  0.00334548  0.51775386  1
  Ba2+  Ba10  1  0.24498292  0.24501410  0.01232001  1
  Ba2+  Ba11  1  0.25206581  0.25192388  0.52123262  1
  Ba2+  Ba12  1  0.24924601  0.49930347  0.01636955  1
  Ba2+  Ba13  1  0.25711650  0.49339127  0.50543104  1
  Ba2+  Ba14  1  0.26126912  0.75319666  0.01244279  1
  Ba2+  Ba15  1  0.24858499  0.75189972  0.50082801  1
  Ba2+  Ba16  1  0.50203909  -0.00356790  -0.00292773  1
  Ba2+  Ba17  1  0.50278876  0.00497473  0.51206054  1
  Ba2+  Ba18  1  0.50447499  0.24368567  0.00055680  1
  Ba2+  Ba19  1  0.49729254  0.25401859  0.51171177  1
  Ba2+  Ba20  1  0.50110344  0.50011366  0.01720797  1
  Ba2+  Ba21  1  0.50122116  0.49988773  0.50532568  1
  Ba2+  Ba22  1  0.49924476  0.76026327  0.01210880  1
  Ba2+  Ba23  1  0.50651260  0.74241754  0.50613275  1
  Ba2+  Ba24  1  0.75117186  -0.00129044  0.00097960  1
  Ba2+  Ba25  1  0.74154631  0.00027383  0.50690427  1
  Ba2+  Ba26  1  0.75279266  0.24634822  0.01239543  1
  Ba2+  Ba27  1  0.74548377  0.25557019  0.51227533  1
  Ba2+  Ba28  1  0.75581552  0.49826639  0.01575040  1
  Ba2+  Ba29  1  0.74661696  0.50138557  0.52146076  1
  Ba2+  Ba30  1  0.75343169  0.75791323  0.00717057  1
  Ba2+  Ba31  1  0.74414995  0.74266080  0.51768089  1
  Y3+  Y32  1  -0.00053825  -0.00015899  0.25619595  1
  Y3+  Y33  1  -0.00030006  -0.00111688  0.75801487  1
  Y3+  Y34  1  -0.00056300  0.24883629  0.25282161  1
  Y3+  Y35  1  0.00003486  0.24976885  0.75693456  1
  Y3+  Y36  1  -0.00151367  0.49952376  0.25273535  1
  Y3+  Y37  1  -0.00279567  0.50099559  0.75818724  1
  Y3+  Y38  1  -0.00151155  0.75190404  0.25636162  1
  Y3+  Y39  1  -0.00288526  0.75001809  0.75826206  1
  Y3+  Y40  1  0.24875370  -0.00179791  0.25725385  1
  Y3+  Y41  1  0.25071843  -0.00029732  0.75718730  1
  Y3+  Y42  1  0.24953743  0.25089061  0.25648981  1
  Y3+  Y43  1  0.25131403  0.24906759  0.75578566  1
  Y3+  Y44  1  0.25218694  0.50008930  0.25763614  1
  Y3+  Y45  1  0.25066228  0.49822185  0.75549710  1
  Y3+  Y46  1  0.25153747  0.75114633  0.25747342  1
  Y3+  Y47  1  0.25001131  0.75249540  0.75765767  1
  Y3+  Y48  1  0.50094041  -0.00206236  0.25644935  1
  Y3+  Y49  1  0.50004024  -0.00073119  0.76064010  1
  Y3+  Y50  1  0.50110286  0.25140171  0.25940502  1
  Y3+  Y51  1  0.49828798  0.24932710  0.75616879  1
  Y3+  Y52  1  0.49948914  0.50132408  0.26018677  1
  Y3+  Y53  1  0.50137838  0.49920697  0.75389364  1
  Y3+  Y54  1  0.49999391  0.74941665  0.25628233  1
  Y3+  Y55  1  0.50282832  0.75219275  0.75908384  1
  Y3+  Y56  1  0.75054181  -0.00079467  0.25414402  1
  Y3+  Y57  1  0.74968364  -0.00105529  0.76194213  1
  Y3+  Y58  1  0.75003456  0.24990232  0.25518944  1
  Y3+  Y59  1  0.75026810  0.24927788  0.75909613  1
  Y3+  Y60  1  0.74944275  0.50080669  0.25478610  1
  Y3+  Y61  1  0.75052502  0.50201613  0.75694265  1
  Y3+  Y62  1  0.74994308  0.75031740  0.25403529  1
  Y3+  Y63  1  0.74970196  0.74978827  0.76074091  1
  Fe3+  Fe64  1  0.12507836  0.12599518  0.37579825  1
  Fe3+  Fe65  1  0.62551291  0.87426062  0.37711523  1
  Fe3+  Fe66  1  0.37481685  0.37478643  0.87972638  1
  Fe3+  Fe67  1  0.12469115  0.37504215  0.87748303  1
  Fe3+  Fe68  1  0.87425607  0.62414384  0.37732089  1
  Fe3+  Fe69  1  0.37574701  0.62433698  0.87818982  1
  Fe3+  Fe70  1  0.62527693  0.37534640  0.87778158  1
  Fe3+  Fe71  1  0.12422840  0.12490463  0.87623042  1
  Fe3+  Fe72  1  0.87468609  0.87496457  0.38081110  1
  Fe3+  Fe73  1  0.87512004  0.37410471  0.87551591  1
  Fe3+  Fe74  1  0.37544421  0.87575320  0.38047091  1
  Fe3+  Fe75  1  0.12495595  0.62504205  0.88029016  1
  Fe3+  Fe76  1  0.37496127  0.12551349  0.37837224  1
  Fe3+  Fe77  1  0.62597021  0.37559993  0.37525076  1
  Fe3+  Fe78  1  0.12412807  0.37501558  0.37488916  1
  Fe3+  Fe79  1  0.87476346  0.12567303  0.38095494  1
  Fe3+  Fe80  1  0.62518333  0.62470422  0.88043565  1
  Fe3+  Fe81  1  0.87541884  0.37509570  0.37588513  1
  Fe3+  Fe82  1  0.12468595  0.87467677  0.88026622  1
  Fe3+  Fe83  1  0.12363081  0.62385940  0.37844275  1
  Fe3+  Fe84  1  0.62511674  0.12523729  0.64060832  1
  Fe3+  Fe85  1  0.37602865  0.37361007  0.13509211  1
  Fe3+  Fe86  1  0.62518074  0.62592825  0.13480691  1
  Fe3+  Fe87  1  0.12482702  0.62647445  0.13451177  1
  Fe3+  Fe88  1  0.87503828  0.12472587  0.63450846  1
  Fe3+  Fe89  1  0.37536267  0.62569291  0.63719855  1
  Fe3+  Fe90  1  0.37594463  0.12413215  0.13784318  1
  Fe3+  Fe91  1  0.12573925  0.62491499  0.63525120  1
  Fe3+  Fe92  1  0.62440572  0.12399097  0.13860899  1
  Fe3+  Fe93  1  0.87355862  0.87535141  0.63542866  1
  Fe3+  Fe94  1  0.12481160  0.87566733  0.13404120  1
  Fe3+  Fe95  1  0.37645097  0.87457116  0.63534618  1
  Cu2+  Cu96  1  0.37445614  0.87446393  0.87054086  1
  Cu2+  Cu97  1  0.37487131  0.62550356  0.36396429  1
  Cu2+  Cu98  1  0.62518373  0.12558810  0.86292226  1
  Cu2+  Cu99  1  0.62542478  0.87461469  0.87264863  1
  Cu2+  Cu100  1  0.62546783  0.12512134  0.36356995  1
  Cu2+  Cu101  1  0.87585813  0.12581271  0.87120057  1
  Cu2+  Cu102  1  0.62674147  0.62470473  0.36972614  1
  Cu2+  Cu103  1  0.37434570  0.12542635  0.86284706  1
  Cu2+  Cu104  1  0.12451077  0.87544429  0.37291277  1
  Cu2+  Cu105  1  0.87588284  0.87558057  0.86961095  1
  Cu2+  Cu106  1  0.37475503  0.37388723  0.37129180  1
  Cu2+  Cu107  1  0.87452472  0.62415599  0.87335332  1
  Cu2+  Cu108  1  0.87412261  0.37427524  0.65175842  1
  Cu2+  Cu109  1  0.62509441  0.87602368  0.14221613  1
  Cu2+  Cu110  1  0.87465551  0.62566740  0.65094718  1
  Cu2+  Cu111  1  0.87385083  0.12405804  0.14393342  1
  Cu2+  Cu112  1  0.62426764  0.37451588  0.14758267  1
  Cu2+  Cu113  1  0.62510272  0.87534762  0.65237076  1
  Cu2+  Cu114  1  0.87470787  0.87583691  0.14375650  1
  Cu2+  Cu115  1  0.12552215  0.12384726  0.14946923  1
  Cu2+  Cu116  1  0.87469245  0.62628677  0.14115730  1
  Cu2+  Cu117  1  0.12517244  0.87347917  0.64279533  1
  Cu2+  Cu118  1  0.37536258  0.87651452  0.14498329  1
  Cu2+  Cu119  1  0.12539510  0.37520703  0.14723783  1
  Cu2+  Cu120  1  0.12528133  0.37620556  0.65283217  1
  Cu2+  Cu121  1  0.37526180  0.62524106  0.15111055  1
  Cu2+  Cu122  1  0.87426982  0.37431086  0.15023198  1
  Cu2+  Cu123  1  0.62403714  0.62490244  0.64606908  1
  Cu2+  Cu124  1  0.37592383  0.37564326  0.64295551  1
  Cu2+  Cu125  1  0.37541499  0.12417102  0.65142495  1
  Cu2+  Cu126  1  0.62490109  0.37446060  0.65293510  1
  Cu2+  Cu127  1  0.12465321  0.12494210  0.65287656  1
  O2-  O128  1  0.12349518  0.12530251  -0.00358043  1
  O2-  O129  1  0.12562610  0.12739141  0.49627644  1
  O2-  O130  1  0.12498566  0.37496189  -0.00278201  1
  O2-  O131  1  0.12442182  0.37588546  0.49527928  1
  O2-  O132  1  0.12528377  0.62593095  0.00685387  1
  O2-  O133  1  0.12475906  0.62337664  0.50664783  1
  O2-  O134  1  0.12494907  0.87476373  0.00690470  1
  O2-  O135  1  0.12565451  0.87419069  0.50725154  1
  O2-  O136  1  0.37661147  0.12491352  0.01747637  1
  O2-  O137  1  0.37345438  0.12591287  0.49885197  1
  O2-  O138  1  0.37527251  0.37412573  0.00672548  1
  O2-  O139  1  0.37501997  0.37432278  0.50707164  1
  O2-  O140  1  0.37483213  0.62286465  -0.00167238  1
  O2-  O141  1  0.37382750  0.62552010  0.51708718  1
  O2-  O142  1  0.37451508  0.87667556  0.00673587  1
  O2-  O143  1  0.37563095  0.87511413  0.50746693  1
  O2-  O144  1  0.62473058  0.12400554  0.01808234  1
  O2-  O145  1  0.62527040  0.12609928  0.51969592  1
  O2-  O146  1  0.62455377  0.37537331  -0.00224628  1
  O2-  O147  1  0.62536746  0.37594466  0.49614829  1
  O2-  O148  1  0.62457917  0.62507564  0.00686390  1
  O2-  O149  1  0.62547777  0.62331658  0.50656886  1
  O2-  O150  1  0.62501466  0.87578186  0.00696321  1
  O2-  O151  1  0.62491781  0.87393422  0.49759272  1
  O2-  O152  1  0.87461383  0.12617448  0.00676525  1
  O2-  O153  1  0.87539172  0.12568215  0.50726291  1
  O2-  O154  1  0.87531794  0.37308928  -0.00387539  1
  O2-  O155  1  0.87568742  0.37505269  0.49578354  1
  O2-  O156  1  0.87494119  0.62402230  0.00648899  1
  O2-  O157  1  0.87516976  0.62316654  0.49754059  1
  O2-  O158  1  0.87571104  0.87678451  0.00728799  1
  O2-  O159  1  0.87405260  0.87491416  0.50712884  1
  O2-  O160  1  0.12540825  -0.00200863  0.16446094  1
  O2-  O161  1  0.12503362  0.00035696  0.66528145  1
  O2-  O162  1  0.12490515  0.24975319  0.16123893  1
  O2-  O163  1  0.12491496  0.25066064  0.66288196  1
  O2-  O164  1  0.12581173  0.50224429  0.16094556  1
  O2-  O165  1  0.12527975  0.50234962  0.66471656  1
  O2-  O166  1  0.12546037  0.75055989  0.16483953  1
  O2-  O167  1  0.12452382  0.74629364  0.66643862  1
  O2-  O168  1  0.37397199  0.00201180  0.17035739  1
  O2-  O169  1  0.37478702  -0.00192569  0.66261886  1
  O2-  O170  1  0.37478132  0.25053721  0.16418702  1
  O2-  O171  1  0.37486127  0.24861290  0.66603479  1
  O2-  O172  1  0.37411378  0.49819082  0.16198713  1
  O2-  O173  1  0.37442664  0.50211843  0.66725095  1
  O2-  O174  1  0.37452348  0.74953625  0.16690853  1
  O2-  O175  1  0.37537819  0.75125783  0.66615902  1
  O2-  O176  1  0.62464406  0.00130065  0.16951986  1
  O2-  O177  1  0.62552440  0.00069648  0.66658626  1
  O2-  O178  1  0.62414341  0.24973685  0.16561930  1
  O2-  O179  1  0.62497309  0.24952170  0.66689108  1
  O2-  O180  1  0.62476467  0.50119567  0.16012012  1
  O2-  O181  1  0.62517611  0.49831026  0.66603769  1
  O2-  O182  1  0.62432271  0.74811907  0.16272701  1
  O2-  O183  1  0.62510309  0.75143830  0.66730494  1
  O2-  O184  1  0.87555434  0.00023182  0.16999369  1
  O2-  O185  1  0.87518825  0.00030921  0.66246250  1
  O2-  O186  1  0.87511052  0.25067991  0.16480167  1
  O2-  O187  1  0.87580905  0.24795323  0.66140608  1
  O2-  O188  1  0.87537726  0.49871144  0.16083934  1
  O2-  O189  1  0.87462390  0.49984250  0.66398936  1
  O2-  O190  1  0.87566529  0.75060779  0.16721711  1
  O2-  O191  1  0.87458208  0.75176950  0.66361627  1
  O2-  O192  1  0.00146116  0.12421451  0.16463696  1
  O2-  O193  1  -0.00164477  0.12443309  0.66044753  1
  O2-  O194  1  -0.00015004  0.37514536  0.16140637  1
  O2-  O195  1  -0.00009545  0.37600648  0.66271107  1
  O2-  O196  1  0.00300946  0.62576513  0.16307979  1
  O2-  O197  1  0.00115573  0.62488258  0.66300240  1
  O2-  O198  1  0.00310066  0.87505624  0.16493118  1
  O2-  O199  1  -0.00350608  0.87438646  0.66290384  1
  O2-  O200  1  0.25055501  0.12547582  0.16361740  1
  O2-  O201  1  0.24949121  0.12471647  0.66490477  1
  O2-  O202  1  0.25219267  0.37483708  0.16161121  1
  O2-  O203  1  0.24900960  0.37531369  0.66699832  1
  O2-  O204  1  0.24819207  0.62581509  0.16346278  1
  O2-  O205  1  0.24935422  0.62559397  0.66688967  1
  O2-  O206  1  0.24737190  0.87427040  0.16436260  1
  O2-  O207  1  0.25324130  0.87422282  0.66481192  1
  O2-  O208  1  0.49959525  0.12537637  0.17080365  1
  O2-  O209  1  0.50061581  0.12456654  0.66745193  1
  O2-  O210  1  0.49755165  0.37571315  0.16466712  1
  O2-  O211  1  0.50130631  0.37459855  0.66755110  1
  O2-  O212  1  0.50152453  0.62457946  0.16426248  1
  O2-  O213  1  0.49841833  0.62533350  0.66799423  1
  O2-  O214  1  0.49951621  0.87487856  0.16770400  1
  O2-  O215  1  0.49893112  0.87539570  0.66460843  1
  O2-  O216  1  0.74797470  0.12535873  0.16942602  1
  O2-  O217  1  0.75192934  0.12530527  0.66530962  1
  O2-  O218  1  0.74982070  0.37436541  0.16300706  1
  O2-  O219  1  0.74983586  0.37427263  0.66383111  1
  O2-  O220  1  0.74744970  0.62505695  0.16244303  1
  O2-  O221  1  0.75045305  0.62518749  0.66619255  1
  O2-  O222  1  0.75005792  0.87516933  0.16648727  1
  O2-  O223  1  0.75145953  0.87526590  0.66370578  1
  O2-  O224  1  0.12399931  0.00224945  0.34730010  1
  O2-  O225  1  0.12528024  -0.00147091  0.84890969  1
  O2-  O226  1  0.12446300  0.24993429  0.34268428  1
  O2-  O227  1  0.12611353  0.25064887  0.84521085  1
  O2-  O228  1  0.12438460  0.50115701  0.34468936  1
  O2-  O229  1  0.12549973  0.50076829  0.84826094  1
  O2-  O230  1  0.12471457  0.74677027  0.35045211  1
  O2-  O231  1  0.12573333  0.74964028  0.85118383  1
  O2-  O232  1  0.37542627  -0.00096042  0.35116362  1
  O2-  O233  1  0.37426510  0.00112564  0.84755384  1
  O2-  O234  1  0.37467160  0.24770057  0.34472562  1
  O2-  O235  1  0.37447795  0.25213273  0.85060295  1
  O2-  O236  1  0.37444085  0.50135023  0.34729056  1
  O2-  O237  1  0.37467785  0.49859407  0.84834070  1
  O2-  O238  1  0.37421665  0.75198293  0.35184992  1
  O2-  O239  1  0.37388694  0.74723929  0.84714725  1
  O2-  O240  1  0.62525306  -0.00088936  0.35080101  1
  O2-  O241  1  0.62476381  0.00177811  0.84988658  1
  O2-  O242  1  0.62599304  0.25028381  0.34769447  1
  O2-  O243  1  0.62436138  0.25068435  0.84869919  1
  O2-  O244  1  0.62540815  0.49854323  0.34312134  1
  O2-  O245  1  0.62410386  0.50055779  0.84852372  1
  O2-  O246  1  0.62517426  0.75199062  0.34529939  1
  O2-  O247  1  0.62487607  0.74701044  0.85098265  1
  O2-  O248  1  0.87511089  0.00042155  0.35411965  1
  O2-  O249  1  0.87604507  0.00004869  0.84685638  1
  O2-  O250  1  0.87492707  0.24881565  0.34751877  1
  O2-  O251  1  0.87544312  0.25198698  0.84362869  1
  O2-  O252  1  0.87571648  0.49953604  0.34222756  1
  O2-  O253  1  0.87550616  0.49755219  0.84690806  1
  O2-  O254  1  0.87565856  0.75112291  0.34977432  1
  O2-  O255  1  0.87553328  0.75011602  0.84842579  1
  O2-  O256  1  -0.00161232  0.12512617  0.34778878  1
  O2-  O257  1  0.00256315  0.12485392  0.84240878  1
  O2-  O258  1  -0.00026284  0.37486221  0.34236798  1
  O2-  O259  1  0.00081985  0.37527053  0.84458588  1
  O2-  O260  1  0.00003572  0.62522875  0.34592180  1
  O2-  O261  1  0.00344473  0.62535418  0.84800483  1
  O2-  O262  1  -0.00372163  0.87497132  0.34902577  1
  O2-  O263  1  0.00357407  0.87398062  0.84690837  1
  O2-  O264  1  0.24988229  0.12437548  0.34421603  1
  O2-  O265  1  0.24897398  0.12455010  0.84823915  1
  O2-  O266  1  0.24750460  0.37605471  0.34437048  1
  O2-  O267  1  0.25103446  0.37577504  0.84971487  1
  O2-  O268  1  0.24788312  0.62488313  0.34934000  1
  O2-  O269  1  0.24885268  0.62431014  0.84898305  1
  O2-  O270  1  0.25308172  0.87470467  0.34842765  1
  O2-  O271  1  0.24669640  0.87452384  0.84889488  1
  O2-  O272  1  0.50025002  0.12498443  0.35128680  1
  O2-  O273  1  0.49931505  0.12525518  0.85127425  1
  O2-  O274  1  0.50178905  0.37516734  0.34738121  1
  O2-  O275  1  0.49860265  0.37470498  0.85037580  1
  O2-  O276  1  0.49912372  0.62525418  0.34932750  1
  O2-  O277  1  0.50109107  0.62432977  0.84955217  1
  O2-  O278  1  0.49884706  0.87453376  0.34986321  1
  O2-  O279  1  0.49959435  0.87485760  0.84854456  1
  O2-  O280  1  0.75160296  0.12451962  0.35312076  1
  O2-  O281  1  0.74903139  0.12500909  0.84823288  1
  O2-  O282  1  0.75110819  0.37463825  0.34453697  1
  O2-  O283  1  0.74954433  0.37489708  0.84607560  1
  O2-  O284  1  0.75279361  0.62545063  0.34359086  1
  O2-  O285  1  0.74690035  0.62424461  0.84984771  1
  O2-  O286  1  0.75183589  0.87547635  0.34881291  1
  O2-  O287  1  0.75051896  0.87524375  0.84806189  1
