# generated using pymatgen
data_BaYFeCuO5
_symmetry_space_group_name_H-M   'P 1'
_cell_length_a   15.66488778
_cell_length_b   15.66546665
_cell_length_c   15.46914203
_cell_angle_alpha   90.00544394
_cell_angle_beta   89.99946496
_cell_angle_gamma   89.99968362
_symmetry_Int_Tables_number   1
_chemical_formula_structural   BaYFeCuO5
_chemical_formula_sum   'Ba32 Y32 Fe32 Cu32 O160'
_cell_volume   3796.09305042
_cell_formula_units_Z   32
loop_
 _symmetry_equiv_pos_site_id
 _symmetry_equiv_pos_as_xyz
  1  'x, y, z'
loop_
 _atom_type_symbol
 _atom_type_oxidation_number
  Ba2+  2.0
  Y3+  3.0
  Fe3+  3.0
  Cu2+  2.0
  O2-  -2.0
loop_
 _atom_site_type_symbol
 _atom_site_label
 _atom_site_symmetry_multiplicity
 _atom_site_fract_x
 _atom_site_fract_y
 _atom_site_fract_z
 _atom_site_occupancy
  Ba2+  Ba0  1  -0.00572417  -0.00811661  0.01793513  1
  Ba2+  Ba1  1  -0.00266390  0.00503918  0.50182161  1
  Ba2+  Ba2  1  -0.00475858  0.25451926  0.01348627  1
  Ba2+  Ba3  1  -0.00326162  0.25744145  0.51237346  1
  Ba2+  Ba4  1  0.00029223  0.50703445  0.00591633  1
  Ba2+  Ba5  1  -0.00639661  0.49751270  0.51812655  1
  Ba2+  Ba6  1  -0.00215887  0.74706231  0.01128955  1
  Ba2+  Ba7  1  -0.00543551  0.74179464  0.50647732  1
  Ba2+  Ba8  1  0.25466565  -0.00770673  0.01604302  1
  Ba2+  Ba9  1  0.25793724  0.00047341  0.50605307  1
  Ba2+  Ba10  1  0.25506280  0.25716536  0.00744095  1
  Ba2+  Ba11  1  0.25475307  0.25643454  0.51287853  1
  Ba2+  Ba12  1  0.25152110  0.50412252  0.00194606  1
  Ba2+  Ba13  1  0.25536541  0.49613585  0.52489559  1
  Ba2+  Ba14  1  0.25156077  0.74639159  0.01059163  1
  Ba2+  Ba15  1  0.25914862  0.74791069  0.51852381  1
  Ba2+  Ba16  1  0.49527426  -0.00731119  0.01602336  1
  Ba2+  Ba17  1  0.49252117  0.00000380  0.50626719  1
  Ba2+  Ba18  1  0.49480283  0.25677669  0.00739304  1
  Ba2+  Ba19  1  0.49945988  0.25995612  0.50595149  1
  Ba2+  Ba20  1  0.49529112  0.50152316  0.00634774  1
  Ba2+  Ba21  1  0.50230893  0.49875364  0.52343270  1
  Ba2+  Ba22  1  0.49628027  0.74858784  0.01410621  1
  Ba2+  Ba23  1  0.49653680  0.74270423  0.52245729  1
  Ba2+  Ba24  1  0.75578313  -0.00761296  0.01794999  1
  Ba2+  Ba25  1  0.75262010  0.00483967  0.50175055  1
  Ba2+  Ba26  1  0.75453084  0.25399078  0.01404293  1
  Ba2+  Ba27  1  0.74914695  0.26048890  0.50626185  1
  Ba2+  Ba28  1  0.75301079  0.50422389  0.01196061  1
  Ba2+  Ba29  1  0.74828049  0.49944746  0.51744557  1
  Ba2+  Ba30  1  0.75424773  0.74933319  0.01654866  1
  Ba2+  Ba31  1  0.75021733  0.73674193  0.51119538  1
  Y3+  Y32  1  -0.00123879  -0.00067926  0.25725460  1
  Y3+  Y33  1  -0.00086731  -0.00131958  0.75791773  1
  Y3+  Y34  1  -0.00200970  0.24961368  0.25752156  1
  Y3+  Y35  1  0.00131912  0.25321962  0.75814831  1
  Y3+  Y36  1  -0.00158235  0.50333487  0.25448491  1
  Y3+  Y37  1  -0.00012098  0.50159147  0.76014923  1
  Y3+  Y38  1  -0.00077687  0.74684112  0.25483951  1
  Y3+  Y39  1  -0.00222082  0.74710374  0.76052563  1
  Y3+  Y40  1  0.25202274  -0.00055782  0.25554402  1
  Y3+  Y41  1  0.25165001  -0.00164092  0.75819886  1
  Y3+  Y42  1  0.25305005  0.24996262  0.25480790  1
  Y3+  Y43  1  0.24977948  0.25433112  0.76091506  1
  Y3+  Y44  1  0.25074853  0.50173881  0.24947745  1
  Y3+  Y45  1  0.25027304  0.49959278  0.76416673  1
  Y3+  Y46  1  0.24988307  0.74829819  0.25121742  1
  Y3+  Y47  1  0.25251520  0.74843586  0.76225243  1
  Y3+  Y48  1  0.49802781  -0.00044190  0.25527130  1
  Y3+  Y49  1  0.49886038  -0.00174099  0.75836777  1
  Y3+  Y50  1  0.49812992  0.25127140  0.25616820  1
  Y3+  Y51  1  0.50118656  0.25471975  0.75967938  1
  Y3+  Y52  1  0.50019146  0.50035767  0.25171000  1
  Y3+  Y53  1  0.50017804  0.49858961  0.76120729  1
  Y3+  Y54  1  0.49987855  0.74815481  0.25083129  1
  Y3+  Y55  1  0.49721315  0.74885124  0.76041587  1
  Y3+  Y56  1  0.75103225  -0.00081545  0.25680199  1
  Y3+  Y57  1  0.75041504  -0.00124202  0.75787175  1
  Y3+  Y58  1  0.75043652  0.25103553  0.25898761  1
  Y3+  Y59  1  0.74790541  0.25369587  0.75692565  1
  Y3+  Y60  1  0.75064151  0.50199466  0.25690934  1
  Y3+  Y61  1  0.74962687  0.50050644  0.75657909  1
  Y3+  Y62  1  0.75102613  0.74665769  0.25526369  1
  Y3+  Y63  1  0.75230836  0.74718802  0.75835032  1
  Fe3+  Fe64  1  0.62356172  0.12612644  0.37892194  1
  Fe3+  Fe65  1  0.12456698  0.12457568  0.88124733  1
  Fe3+  Fe66  1  0.37521977  0.12446270  0.87884741  1
  Fe3+  Fe67  1  0.12595815  0.87340601  0.38004943  1
  Fe3+  Fe68  1  0.62397093  0.87287836  0.37960012  1
  Fe3+  Fe69  1  0.12615016  0.37699492  0.37696496  1
  Fe3+  Fe70  1  0.87438713  0.87338170  0.37925983  1
  Fe3+  Fe71  1  0.87495233  0.37700864  0.37468580  1
  Fe3+  Fe72  1  0.62572383  0.62507587  0.87771273  1
  Fe3+  Fe73  1  0.37484471  0.37784482  0.37368720  1
  Fe3+  Fe74  1  0.62541636  0.12504439  0.88147451  1
  Fe3+  Fe75  1  0.87445529  0.37597865  0.87603095  1
  Fe3+  Fe76  1  0.12437245  0.87475932  0.87653491  1
  Fe3+  Fe77  1  0.12663419  0.62326283  0.38052875  1
  Fe3+  Fe78  1  0.37497128  0.62368650  0.37461094  1
  Fe3+  Fe79  1  0.37553624  0.87218134  0.37492031  1
  Fe3+  Fe80  1  0.87473086  0.12456351  0.87775698  1
  Fe3+  Fe81  1  0.12631348  0.12674740  0.37935630  1
  Fe3+  Fe82  1  0.62579149  0.87443971  0.87689743  1
  Fe3+  Fe83  1  0.62311115  0.62337915  0.37556637  1
  Fe3+  Fe84  1  0.12575573  0.12577369  0.63469950  1
  Fe3+  Fe85  1  0.87504174  0.87479230  0.63365429  1
  Fe3+  Fe86  1  0.87452160  0.12639829  0.63671374  1
  Fe3+  Fe87  1  0.62507955  0.87459525  0.63304407  1
  Fe3+  Fe88  1  0.12512637  0.87482724  0.63293424  1
  Fe3+  Fe89  1  0.37572001  0.12669256  0.63865663  1
  Fe3+  Fe90  1  0.62482236  0.12485980  0.13549720  1
  Fe3+  Fe91  1  0.62423910  0.12556300  0.63434308  1
  Fe3+  Fe92  1  0.62566822  0.37557785  0.13642293  1
  Fe3+  Fe93  1  0.12411698  0.37574971  0.13564452  1
  Fe3+  Fe94  1  0.12508770  0.12473383  0.13492575  1
  Fe3+  Fe95  1  0.12545997  0.62467054  0.63659068  1
  Cu2+  Cu96  1  0.87405223  0.62521887  0.87109395  1
  Cu2+  Cu97  1  0.62395224  0.37713805  0.37012675  1
  Cu2+  Cu98  1  0.12458710  0.62586824  0.87179146  1
  Cu2+  Cu99  1  0.87492308  0.62365876  0.37231449  1
  Cu2+  Cu100  1  0.12367113  0.37506839  0.86857976  1
  Cu2+  Cu101  1  0.37495113  0.12555216  0.36316402  1
  Cu2+  Cu102  1  0.62631818  0.37527251  0.86906566  1
  Cu2+  Cu103  1  0.37529264  0.87519333  0.87248427  1
  Cu2+  Cu104  1  0.87458615  0.87448100  0.87108176  1
  Cu2+  Cu105  1  0.87491431  0.12583536  0.36430245  1
  Cu2+  Cu106  1  0.37538373  0.37538969  0.87256398  1
  Cu2+  Cu107  1  0.37588752  0.62521852  0.87152431  1
  Cu2+  Cu108  1  0.87528993  0.87341158  0.14772885  1
  Cu2+  Cu109  1  0.37467349  0.87366745  0.14319792  1
  Cu2+  Cu110  1  0.87541108  0.62449049  0.64327262  1
  Cu2+  Cu111  1  0.37496431  0.62429275  0.13967199  1
  Cu2+  Cu112  1  0.12442378  0.87450995  0.15231404  1
  Cu2+  Cu113  1  0.62547627  0.62460369  0.14526576  1
  Cu2+  Cu114  1  0.37447761  0.62387688  0.65770592  1
  Cu2+  Cu115  1  0.62452878  0.62560303  0.65458258  1
  Cu2+  Cu116  1  0.37499802  0.87552047  0.65243814  1
  Cu2+  Cu117  1  0.87506403  0.37581887  0.15205560  1
  Cu2+  Cu118  1  0.37522098  0.37483473  0.65806144  1
  Cu2+  Cu119  1  0.37480346  0.37560923  0.14097284  1
  Cu2+  Cu120  1  0.87516802  0.62455792  0.14241370  1
  Cu2+  Cu121  1  0.87496515  0.37488423  0.65435476  1
  Cu2+  Cu122  1  0.62489047  0.37503046  0.64293290  1
  Cu2+  Cu123  1  0.12514063  0.37553762  0.65228781  1
  Cu2+  Cu124  1  0.12452200  0.62507276  0.14080499  1
  Cu2+  Cu125  1  0.87475147  0.12493230  0.15199249  1
  Cu2+  Cu126  1  0.62544805  0.87433774  0.15151798  1
  Cu2+  Cu127  1  0.37522812  0.12516437  0.14649921  1
  O2-  O128  1  0.12398654  0.12359596  0.00690924  1
  O2-  O129  1  0.12650377  0.12702784  0.50721470  1
  O2-  O130  1  0.12277222  0.37331386  0.01522739  1
  O2-  O131  1  0.12702389  0.37601197  0.49734004  1
  O2-  O132  1  0.12444088  0.62650350  0.00616968  1
  O2-  O133  1  0.12735689  0.62284993  0.50731381  1
  O2-  O134  1  0.12363047  0.87664070  -0.00311667  1
  O2-  O135  1  0.12661090  0.87485995  0.50618461  1
  O2-  O136  1  0.37489074  0.12315119  -0.00075014  1
  O2-  O137  1  0.37503130  0.12669086  0.51787670  1
  O2-  O138  1  0.37491458  0.37505946  0.00649257  1
  O2-  O139  1  0.37476963  0.37789757  0.49450994  1
  O2-  O140  1  0.37542291  0.62564136  0.00557588  1
  O2-  O141  1  0.37496767  0.62286886  0.49482315  1
  O2-  O142  1  0.37498151  0.87515697  0.00691706  1
  O2-  O143  1  0.37594411  0.87256783  0.49567890  1
  O2-  O144  1  0.62601039  0.12378029  0.00734559  1
  O2-  O145  1  0.62351633  0.12594847  0.50753447  1
  O2-  O146  1  0.62710330  0.37241976  0.01572824  1
  O2-  O147  1  0.62388377  0.37597823  0.50817693  1
  O2-  O148  1  0.62639536  0.62710943  -0.00199760  1
  O2-  O149  1  0.62179098  0.62366248  0.49604847  1
  O2-  O150  1  0.62657110  0.87638861  -0.00280895  1
  O2-  O151  1  0.62352363  0.87394074  0.50580881  1
  O2-  O152  1  0.87504853  0.12303389  -0.00221369  1
  O2-  O153  1  0.87555254  0.12627756  0.51634310  1
  O2-  O154  1  0.87469275  0.37447267  -0.00313365  1
  O2-  O155  1  0.87486381  0.37620318  0.49610741  1
  O2-  O156  1  0.87440978  0.62578188  0.00704597  1
  O2-  O157  1  0.87543371  0.62318049  0.50787849  1
  O2-  O158  1  0.87509689  0.87474571  0.00729701  1
  O2-  O159  1  0.87449223  0.87507708  0.50711759  1
  O2-  O160  1  0.12435829  0.00165234  0.16710527  1
  O2-  O161  1  0.12490555  0.00032989  0.65996673  1
  O2-  O162  1  0.12406641  0.24826043  0.16514047  1
  O2-  O163  1  0.12527898  0.24842357  0.66463993  1
  O2-  O164  1  0.12390825  0.49836058  0.16475187  1
  O2-  O165  1  0.12534176  0.50146676  0.66421429  1
  O2-  O166  1  0.12399496  0.75111188  0.16735517  1
  O2-  O167  1  0.12539404  0.75068544  0.65806341  1
  O2-  O168  1  0.37491302  0.00031263  0.16672380  1
  O2-  O169  1  0.37497956  0.00138431  0.66422815  1
  O2-  O170  1  0.37530011  0.24921432  0.16512441  1
  O2-  O171  1  0.37483841  0.24978521  0.66787677  1
  O2-  O172  1  0.37473909  0.50013701  0.16012796  1
  O2-  O173  1  0.37463981  0.49897111  0.66650685  1
  O2-  O174  1  0.37484024  0.74932148  0.16306262  1
  O2-  O175  1  0.37423112  0.75029027  0.66346014  1
  O2-  O176  1  0.62565756  0.00164903  0.16737715  1
  O2-  O177  1  0.62501900  -0.00013497  0.66046208  1
  O2-  O178  1  0.62562312  0.24853351  0.16691802  1
  O2-  O179  1  0.62481265  0.24648605  0.66642775  1
  O2-  O180  1  0.62618194  0.49946102  0.16208903  1
  O2-  O181  1  0.62462430  0.50199726  0.66633232  1
  O2-  O182  1  0.62579943  0.74970440  0.16440778  1
  O2-  O183  1  0.62540261  0.75204271  0.66037881  1
  O2-  O184  1  0.87483669  -0.00003432  0.16914979  1
  O2-  O185  1  0.87544046  -0.00069077  0.66260745  1
  O2-  O186  1  0.87501027  0.24985683  0.16455102  1
  O2-  O187  1  0.87516825  0.24927637  0.66659585  1
  O2-  O188  1  0.87506887  0.49924968  0.16321182  1
  O2-  O189  1  0.87559356  0.49843049  0.66520967  1
  O2-  O190  1  0.87519141  0.74940792  0.16820743  1
  O2-  O191  1  0.87540658  0.75362979  0.66286744  1
  O2-  O192  1  0.00134949  0.12395211  0.16516781  1
  O2-  O193  1  0.00129260  0.12479566  0.66389182  1
  O2-  O194  1  -0.00024622  0.37348522  0.16667207  1
  O2-  O195  1  -0.00004371  0.37377057  0.66335685  1
  O2-  O196  1  -0.00025504  0.62544156  0.16685673  1
  O2-  O197  1  0.00338623  0.62553381  0.66419136  1
  O2-  O198  1  0.00080927  0.87581921  0.17102918  1
  O2-  O199  1  0.00031026  0.87652933  0.66001379  1
  O2-  O200  1  0.24812154  0.12422891  0.16352967  1
  O2-  O201  1  0.24902549  0.12493062  0.66588160  1
  O2-  O202  1  0.24779186  0.37347877  0.16426051  1
  O2-  O203  1  0.25043414  0.37412934  0.66658887  1
  O2-  O204  1  0.24967765  0.62554393  0.16348903  1
  O2-  O205  1  0.24858384  0.62524258  0.66521218  1
  O2-  O206  1  0.24848887  0.87568783  0.16630609  1
  O2-  O207  1  0.24810433  0.87642553  0.66210404  1
  O2-  O208  1  0.50201568  0.12424336  0.16338787  1
  O2-  O209  1  0.50118172  0.12408415  0.66659657  1
  O2-  O210  1  0.50201218  0.37396574  0.16402592  1
  O2-  O211  1  0.49878937  0.37430549  0.66714916  1
  O2-  O212  1  0.50126766  0.62511447  0.16124329  1
  O2-  O213  1  0.49900777  0.62583598  0.66508041  1
  O2-  O214  1  0.50135190  0.87567027  0.16487982  1
  O2-  O215  1  0.50177215  0.87588036  0.66229146  1
  O2-  O216  1  0.74836426  0.12431561  0.16477271  1
  O2-  O217  1  0.74875638  0.12374344  0.66381942  1
  O2-  O218  1  0.75018677  0.37363426  0.16607523  1
  O2-  O219  1  0.75116510  0.37429436  0.66412018  1
  O2-  O220  1  0.74937791  0.62530927  0.16522636  1
  O2-  O221  1  0.74903605  0.62546505  0.66311883  1
  O2-  O222  1  0.74924232  0.87536318  0.16954180  1
  O2-  O223  1  0.75017407  0.87670833  0.65961128  1
  O2-  O224  1  0.12493799  -0.00062241  0.35382938  1
  O2-  O225  1  0.12447727  0.00175147  0.84354211  1
  O2-  O226  1  0.12564467  0.24959360  0.34832504  1
  O2-  O227  1  0.12455384  0.24741533  0.84995292  1
  O2-  O228  1  0.12549165  0.50125444  0.34586076  1
  O2-  O229  1  0.12434074  0.49935519  0.84975939  1
  O2-  O230  1  0.12517875  0.74990732  0.35266720  1
  O2-  O231  1  0.12458491  0.75195153  0.84267175  1
  O2-  O232  1  0.37500764  -0.00131268  0.35005391  1
  O2-  O233  1  0.37518170  0.00237454  0.84507299  1
  O2-  O234  1  0.37448796  0.25084473  0.34810789  1
  O2-  O235  1  0.37498664  0.24782908  0.84923376  1
  O2-  O236  1  0.37419435  0.50098287  0.33952784  1
  O2-  O237  1  0.37517948  0.49980181  0.85059901  1
  O2-  O238  1  0.37426403  0.74939142  0.34333741  1
  O2-  O239  1  0.37534437  0.75027719  0.84797266  1
  O2-  O240  1  0.62452433  -0.00093177  0.35396905  1
  O2-  O241  1  0.62565212  0.00168694  0.84422196  1
  O2-  O242  1  0.62442703  0.24830803  0.35158430  1
  O2-  O243  1  0.62537295  0.24818440  0.85075892  1
  O2-  O244  1  0.62405186  0.50155498  0.34299569  1
  O2-  O245  1  0.62576108  0.49999559  0.84997166  1
  O2-  O246  1  0.62502442  0.75103317  0.34781503  1
  O2-  O247  1  0.62528863  0.75024830  0.84320841  1
  O2-  O248  1  0.87521093  -0.00175819  0.35327193  1
  O2-  O249  1  0.87471592  0.00256037  0.84319483  1
  O2-  O250  1  0.87509417  0.25083054  0.34762689  1
  O2-  O251  1  0.87511415  0.24918606  0.84710321  1
  O2-  O252  1  0.87582297  0.49889351  0.34430177  1
  O2-  O253  1  0.87491240  0.49891437  0.84796178  1
  O2-  O254  1  0.87516560  0.75237300  0.35157765  1
  O2-  O255  1  0.87479508  0.74959094  0.84626704  1
  O2-  O256  1  0.00287242  0.12449983  0.35083971  1
  O2-  O257  1  0.00116895  0.12474047  0.84710630  1
  O2-  O258  1  0.00108036  0.37406400  0.34746142  1
  O2-  O259  1  -0.00121893  0.37429417  0.84683321  1
  O2-  O260  1  0.00370256  0.62559984  0.35118477  1
  O2-  O261  1  -0.00083020  0.62529172  0.84778202  1
  O2-  O262  1  0.00055344  0.87582269  0.35582692  1
  O2-  O263  1  0.00129514  0.87594603  0.84304158  1
  O2-  O264  1  0.24813762  0.12402903  0.34848786  1
  O2-  O265  1  0.24824790  0.12462551  0.84945217  1
  O2-  O266  1  0.25012584  0.37453288  0.34363322  1
  O2-  O267  1  0.24815976  0.37443890  0.85134325  1
  O2-  O268  1  0.24888895  0.62543026  0.34575272  1
  O2-  O269  1  0.25030769  0.62533295  0.84938153  1
  O2-  O270  1  0.24908983  0.87566037  0.34891236  1
  O2-  O271  1  0.24806722  0.87626131  0.84562237  1
  O2-  O272  1  0.50155509  0.12425101  0.34835334  1
  O2-  O273  1  0.50201740  0.12469742  0.84985353  1
  O2-  O274  1  0.49776026  0.37450414  0.34472140  1
  O2-  O275  1  0.50207174  0.37417023  0.85087658  1
  O2-  O276  1  0.49912637  0.62579519  0.34182837  1
  O2-  O277  1  0.50232478  0.62510413  0.84786032  1
  O2-  O278  1  0.50088201  0.87543777  0.34721375  1
  O2-  O279  1  0.50254279  0.87623276  0.84579852  1
  O2-  O280  1  0.74731432  0.12412266  0.35054612  1
  O2-  O281  1  0.74857380  0.12499540  0.84695519  1
  O2-  O282  1  0.75092204  0.37452914  0.34787405  1
  O2-  O283  1  0.75096057  0.37397689  0.84632873  1
  O2-  O284  1  0.74804297  0.62542063  0.34820469  1
  O2-  O285  1  0.74844993  0.62521155  0.84538569  1
  O2-  O286  1  0.74924687  0.87638533  0.35385719  1
  O2-  O287  1  0.74806418  0.87579732  0.84241819  1
