# generated using pymatgen
data_BaYFeCuO5
_symmetry_space_group_name_H-M   'P 1'
_cell_length_a   15.65541946
_cell_length_b   15.65454979
_cell_length_c   15.45162903
_cell_angle_alpha   89.99422257
_cell_angle_beta   90.00542213
_cell_angle_gamma   90.00026366
_symmetry_Int_Tables_number   1
_chemical_formula_structural   BaYFeCuO5
_chemical_formula_sum   'Ba32 Y32 Fe32 Cu32 O160'
_cell_volume   3786.86269889
_cell_formula_units_Z   32
loop_
 _symmetry_equiv_pos_site_id
 _symmetry_equiv_pos_as_xyz
  1  'x, y, z'
loop_
 _atom_type_symbol
 _atom_type_oxidation_number
  Ba2+  2.0
  Y3+  3.0
  Fe3+  3.0
  Cu2+  2.0
  O2-  -2.0
loop_
 _atom_site_type_symbol
 _atom_site_label
 _atom_site_symmetry_multiplicity
 _atom_site_fract_x
 _atom_site_fract_y
 _atom_site_fract_z
 _atom_site_occupancy
  Ba2+  Ba0  1  0.00299305  0.00195013  0.02184927  1
  Ba2+  Ba1  1  -0.00302213  -0.01030096  0.51044168  1
  Ba2+  Ba2  1  0.00378029  0.24763038  -0.00006881  1
  Ba2+  Ba3  1  -0.00126205  0.25948416  0.51769883  1
  Ba2+  Ba4  1  -0.00068243  0.49954255  0.00521656  1
  Ba2+  Ba5  1  0.00018877  0.50353387  0.52083062  1
  Ba2+  Ba6  1  -0.00072909  0.75082788  0.02588574  1
  Ba2+  Ba7  1  -0.00161310  0.74823537  0.51450634  1
  Ba2+  Ba8  1  0.24498688  0.00407597  0.01222377  1
  Ba2+  Ba9  1  0.25349591  0.00288497  0.51080958  1
  Ba2+  Ba10  1  0.24891482  0.24891743  0.00606656  1
  Ba2+  Ba11  1  0.25415567  0.24753152  0.51113269  1
  Ba2+  Ba12  1  0.24886828  0.49227109  0.00525703  1
  Ba2+  Ba13  1  0.23881158  0.50139863  0.51199008  1
  Ba2+  Ba14  1  0.24429701  0.75524667  0.01267183  1
  Ba2+  Ba15  1  0.23857481  0.74789368  0.51171148  1
  Ba2+  Ba16  1  0.49021793  -0.00014736  0.00654210  1
  Ba2+  Ba17  1  0.50648097  0.00699039  0.50701059  1
  Ba2+  Ba18  1  0.49291329  0.25565640  0.01691070  1
  Ba2+  Ba19  1  0.50607851  0.24353810  0.50654349  1
  Ba2+  Ba20  1  0.50402766  0.49551310  0.01243322  1
  Ba2+  Ba21  1  0.50741715  0.49233939  0.50693937  1
  Ba2+  Ba22  1  0.50319240  0.74650165  0.00126724  1
  Ba2+  Ba23  1  0.50715379  0.75704372  0.50695322  1
  Ba2+  Ba24  1  0.76032787  -0.00056530  0.01844898  1
  Ba2+  Ba25  1  0.74380371  -0.00503961  0.50615386  1
  Ba2+  Ba26  1  0.75512132  0.25446871  0.01105444  1
  Ba2+  Ba27  1  0.74128618  0.25313904  0.51047035  1
  Ba2+  Ba28  1  0.74823383  0.50281781  0.01154034  1
  Ba2+  Ba29  1  0.75362897  0.49426060  0.51813986  1
  Ba2+  Ba30  1  0.75318013  0.74326308  0.01749631  1
  Ba2+  Ba31  1  0.75519468  0.75737178  0.51082696  1
  Y3+  Y32  1  -0.00109337  -0.00056980  0.25688822  1
  Y3+  Y33  1  0.00053810  -0.00089083  0.75473167  1
  Y3+  Y34  1  0.00019939  0.24785727  0.25518920  1
  Y3+  Y35  1  0.00103732  0.25204985  0.75923740  1
  Y3+  Y36  1  0.00132189  0.50359503  0.25658554  1
  Y3+  Y37  1  -0.00021490  0.49867813  0.75612536  1
  Y3+  Y38  1  -0.00049074  0.74957281  0.25977915  1
  Y3+  Y39  1  -0.00070599  0.74991579  0.75044874  1
  Y3+  Y40  1  0.24971796  0.00345959  0.25716094  1
  Y3+  Y41  1  0.25036633  0.00096085  0.75692227  1
  Y3+  Y42  1  0.25281774  0.24820296  0.25559621  1
  Y3+  Y43  1  0.24987983  0.25008160  0.75910702  1
  Y3+  Y44  1  0.24945924  0.50060058  0.25683964  1
  Y3+  Y45  1  0.24874896  0.49808522  0.75823791  1
  Y3+  Y46  1  0.24678883  0.74831053  0.25884487  1
  Y3+  Y47  1  0.24896387  0.75075880  0.75569186  1
  Y3+  Y48  1  0.50051257  0.00261484  0.26204849  1
  Y3+  Y49  1  0.50054255  0.00073007  0.75349222  1
  Y3+  Y50  1  0.49992848  0.25031111  0.26034059  1
  Y3+  Y51  1  0.50001324  0.24972136  0.75440058  1
  Y3+  Y52  1  0.50162673  0.49762774  0.25534313  1
  Y3+  Y53  1  0.50114211  0.49893096  0.76060497  1
  Y3+  Y54  1  0.50249862  0.74933246  0.25769165  1
  Y3+  Y55  1  0.50188429  0.75067782  0.75888392  1
  Y3+  Y56  1  0.75061259  -0.00094144  0.26149406  1
  Y3+  Y57  1  0.74893126  -0.00144531  0.75229976  1
  Y3+  Y58  1  0.74710525  0.25033808  0.25894795  1
  Y3+  Y59  1  0.74892271  0.25133382  0.75428091  1
  Y3+  Y60  1  0.74736603  0.50032361  0.25532368  1
  Y3+  Y61  1  0.75039067  0.49924036  0.75867095  1
  Y3+  Y62  1  0.75107262  0.75060440  0.25838704  1
  Y3+  Y63  1  0.75005247  0.75031700  0.75528352  1
  Fe3+  Fe64  1  0.12474215  0.87522887  0.37671329  1
  Fe3+  Fe65  1  0.37435162  0.62495557  0.87945194  1
  Fe3+  Fe66  1  0.87499639  0.12382380  0.87495742  1
  Fe3+  Fe67  1  0.37475468  0.87493386  0.38016969  1
  Fe3+  Fe68  1  0.37476647  0.37543336  0.37996927  1
  Fe3+  Fe69  1  0.62628092  0.62446528  0.38003166  1
  Fe3+  Fe70  1  0.12404556  0.12599676  0.38011890  1
  Fe3+  Fe71  1  0.12349922  0.87518990  0.87492656  1
  Fe3+  Fe72  1  0.62523093  0.37381486  0.87711538  1
  Fe3+  Fe73  1  0.87614385  0.87458605  0.87660249  1
  Fe3+  Fe74  1  0.62644610  0.87578820  0.88043887  1
  Fe3+  Fe75  1  0.87502617  0.12581394  0.38024347  1
  Fe3+  Fe76  1  0.37512177  0.12503862  0.87529983  1
  Fe3+  Fe77  1  0.12408358  0.37513510  0.37757947  1
  Fe3+  Fe78  1  0.37494525  0.62466897  0.38169090  1
  Fe3+  Fe79  1  0.87554123  0.62609393  0.87536664  1
  Fe3+  Fe80  1  0.87487375  0.62404492  0.37757261  1
  Fe3+  Fe81  1  0.87526176  0.37594073  0.37639525  1
  Fe3+  Fe82  1  0.12375211  0.62630569  0.87654832  1
  Fe3+  Fe83  1  0.62563015  0.12461726  0.88048098  1
  Fe3+  Fe84  1  0.37559895  0.62447747  0.63457697  1
  Fe3+  Fe85  1  0.87410570  0.12517849  0.63341142  1
  Fe3+  Fe86  1  0.62466623  0.87555938  0.13582426  1
  Fe3+  Fe87  1  0.62467278  0.12487777  0.13467323  1
  Fe3+  Fe88  1  0.37541427  0.37503589  0.63530148  1
  Fe3+  Fe89  1  0.37454346  0.62499059  0.13574058  1
  Fe3+  Fe90  1  0.37541555  0.87497794  0.63496598  1
  Fe3+  Fe91  1  0.37491089  0.87492477  0.13925064  1
  Fe3+  Fe92  1  0.62526535  0.62482621  0.63566762  1
  Fe3+  Fe93  1  0.12460552  0.12511276  0.63463883  1
  Fe3+  Fe94  1  0.12504622  0.37455425  0.13817097  1
  Fe3+  Fe95  1  0.87577464  0.37525402  0.13729544  1
  Cu2+  Cu96  1  0.62582704  0.37574139  0.37153391  1
  Cu2+  Cu97  1  0.12413626  0.62431197  0.37242665  1
  Cu2+  Cu98  1  0.12488584  0.37518030  0.86274122  1
  Cu2+  Cu99  1  0.37469113  0.12543238  0.37419659  1
  Cu2+  Cu100  1  0.37467403  0.87486546  0.86288344  1
  Cu2+  Cu101  1  0.87450685  0.37494275  0.86372362  1
  Cu2+  Cu102  1  0.37580790  0.37447840  0.87230407  1
  Cu2+  Cu103  1  0.87548769  0.87463203  0.37183184  1
  Cu2+  Cu104  1  0.62636574  0.62497175  0.87286857  1
  Cu2+  Cu105  1  0.12438890  0.12356291  0.87025169  1
  Cu2+  Cu106  1  0.62623922  0.12544604  0.36989356  1
  Cu2+  Cu107  1  0.62501092  0.87456111  0.37095141  1
  Cu2+  Cu108  1  0.12503756  0.12638695  0.14260919  1
  Cu2+  Cu109  1  0.87519521  0.62412756  0.15234863  1
  Cu2+  Cu110  1  0.12602426  0.37413050  0.65228690  1
  Cu2+  Cu111  1  0.87373067  0.62449999  0.64884403  1
  Cu2+  Cu112  1  0.12556806  0.62453394  0.14781680  1
  Cu2+  Cu113  1  0.37555811  0.12526504  0.64133305  1
  Cu2+  Cu114  1  0.62398421  0.62533502  0.14169480  1
  Cu2+  Cu115  1  0.12590461  0.87588487  0.64784076  1
  Cu2+  Cu116  1  0.62550156  0.12507406  0.64329961  1
  Cu2+  Cu117  1  0.37406068  0.37531597  0.14359345  1
  Cu2+  Cu118  1  0.12531609  0.87542761  0.15516014  1
  Cu2+  Cu119  1  0.62509851  0.37393984  0.15076712  1
  Cu2+  Cu120  1  0.12525407  0.62464809  0.64348244  1
  Cu2+  Cu121  1  0.62429783  0.87468319  0.64327835  1
  Cu2+  Cu122  1  0.87481449  0.87486918  0.15383401  1
  Cu2+  Cu123  1  0.62390652  0.37523220  0.64398311  1
  Cu2+  Cu124  1  0.37598170  0.12472471  0.15267473  1
  Cu2+  Cu125  1  0.87435933  0.87544206  0.64086827  1
  Cu2+  Cu126  1  0.87410106  0.12612827  0.15325107  1
  Cu2+  Cu127  1  0.87475884  0.37438622  0.65306127  1
  O2-  O128  1  0.12461543  0.12436111  0.00652901  1
  O2-  O129  1  0.12399793  0.12627725  0.50653625  1
  O2-  O130  1  0.12448088  0.37424557  0.01731030  1
  O2-  O131  1  0.12356001  0.37527926  0.49825083  1
  O2-  O132  1  0.12388507  0.62766645  -0.00307160  1
  O2-  O133  1  0.12412204  0.62428192  0.50780557  1
  O2-  O134  1  0.12316304  0.87536183  -0.00452546  1
  O2-  O135  1  0.12533708  0.87531997  0.49740598  1
  O2-  O136  1  0.37426862  0.12445623  -0.00359254  1
  O2-  O137  1  0.37441036  0.12526408  0.50700328  1
  O2-  O138  1  0.37413792  0.37564897  0.00740166  1
  O2-  O139  1  0.37511664  0.37595692  0.50734784  1
  O2-  O140  1  0.37375567  0.62601567  0.00784787  1
  O2-  O141  1  0.37561427  0.62428880  0.50809801  1
  O2-  O142  1  0.37486597  0.87356122  0.01880555  1
  O2-  O143  1  0.37520377  0.87451108  0.50744253  1
  O2-  O144  1  0.62517524  0.12450555  0.00656093  1
  O2-  O145  1  0.62723466  0.12503962  0.50702748  1
  O2-  O146  1  0.62560769  0.37323065  -0.00192657  1
  O2-  O147  1  0.62521468  0.37585346  0.50704130  1
  O2-  O148  1  0.62501659  0.62565420  0.00751363  1
  O2-  O149  1  0.62575028  0.62475794  0.50727711  1
  O2-  O150  1  0.62576003  0.87577524  0.00798396  1
  O2-  O151  1  0.62395369  0.87450837  0.50704098  1
  O2-  O152  1  0.87592343  0.12372914  -0.00441185  1
  O2-  O153  1  0.87478391  0.12624303  0.50644599  1
  O2-  O154  1  0.87656851  0.37456862  0.01654684  1
  O2-  O155  1  0.87609031  0.37665503  0.49704577  1
  O2-  O156  1  0.87671816  0.62647372  -0.00397713  1
  O2-  O157  1  0.87381341  0.62314806  0.49802589  1
  O2-  O158  1  0.87672547  0.87487868  -0.00346767  1
  O2-  O159  1  0.87517315  0.87488762  0.50597454  1
  O2-  O160  1  0.12556786  -0.00027393  0.16638062  1
  O2-  O161  1  0.12490140  0.00184387  0.66034662  1
  O2-  O162  1  0.12491724  0.25147536  0.16839954  1
  O2-  O163  1  0.12508747  0.24834342  0.66393121  1
  O2-  O164  1  0.12610966  0.49960376  0.16511021  1
  O2-  O165  1  0.12578222  0.49814193  0.66651749  1
  O2-  O166  1  0.12562840  0.75005477  0.16477987  1
  O2-  O167  1  0.12654328  0.75157108  0.66195588  1
  O2-  O168  1  0.37520441  -0.00062197  0.16777551  1
  O2-  O169  1  0.37532143  -0.00244543  0.66186198  1
  O2-  O170  1  0.37612684  0.24854540  0.16661312  1
  O2-  O171  1  0.37482886  0.25255794  0.66226821  1
  O2-  O172  1  0.37486571  0.50298962  0.16574955  1
  O2-  O173  1  0.37554980  0.50035043  0.66378083  1
  O2-  O174  1  0.37493205  0.74922693  0.16904717  1
  O2-  O175  1  0.37520640  0.74948416  0.66215000  1
  O2-  O176  1  0.62545824  -0.00003188  0.16277206  1
  O2-  O177  1  0.62441465  -0.00036890  0.66669971  1
  O2-  O178  1  0.62432627  0.24759919  0.16348885  1
  O2-  O179  1  0.62453513  0.25065196  0.66534400  1
  O2-  O180  1  0.62395857  0.49843929  0.16464481  1
  O2-  O181  1  0.62384909  0.50284660  0.66408566  1
  O2-  O182  1  0.62442388  0.75362988  0.16485503  1
  O2-  O183  1  0.62409315  0.74670436  0.66485620  1
  O2-  O184  1  0.87423568  0.00070409  0.16547810  1
  O2-  O185  1  0.87517827  0.00288642  0.66162984  1
  O2-  O186  1  0.87429000  0.25103846  0.16748877  1
  O2-  O187  1  0.87534717  0.24856221  0.66322722  1
  O2-  O188  1  0.87455995  0.49947878  0.16410261  1
  O2-  O189  1  0.87476447  0.49909291  0.66521368  1
  O2-  O190  1  0.87488946  0.74931282  0.16455982  1
  O2-  O191  1  0.87407766  0.74901614  0.66170611  1
  O2-  O192  1  -0.00215088  0.12457609  0.16737317  1
  O2-  O193  1  -0.00019280  0.12552212  0.65955903  1
  O2-  O194  1  0.00025975  0.37551237  0.16811543  1
  O2-  O195  1  0.00027022  0.37451446  0.66387788  1
  O2-  O196  1  0.00016419  0.62497109  0.16409531  1
  O2-  O197  1  -0.00167798  0.62455867  0.66186240  1
  O2-  O198  1  0.00009136  0.87571405  0.16450905  1
  O2-  O199  1  0.00152166  0.87505409  0.66030342  1
  O2-  O200  1  0.25212318  0.12510814  0.16697337  1
  O2-  O201  1  0.24712615  0.12480303  0.66210065  1
  O2-  O202  1  0.24830076  0.37504953  0.16953538  1
  O2-  O203  1  0.25250753  0.37571001  0.66315578  1
  O2-  O204  1  0.25179897  0.62603385  0.16614727  1
  O2-  O205  1  0.25367648  0.62454527  0.66441062  1
  O2-  O206  1  0.25052053  0.87463531  0.16792850  1
  O2-  O207  1  0.25222195  0.87494621  0.66222818  1
  O2-  O208  1  0.50215636  0.12388452  0.16393117  1
  O2-  O209  1  0.50039892  0.12483198  0.66631040  1
  O2-  O210  1  0.50108937  0.37500104  0.16643670  1
  O2-  O211  1  0.49695851  0.37601936  0.66491248  1
  O2-  O212  1  0.49669267  0.62564776  0.16756560  1
  O2-  O213  1  0.49956132  0.62534035  0.66506459  1
  O2-  O214  1  0.50114911  0.87544922  0.16752646  1
  O2-  O215  1  0.49692941  0.87357067  0.66724404  1
  O2-  O216  1  0.74784846  0.12497208  0.16271879  1
  O2-  O217  1  0.75252329  0.12532594  0.66458874  1
  O2-  O218  1  0.75013194  0.37470138  0.16440726  1
  O2-  O219  1  0.75036329  0.37518797  0.66445174  1
  O2-  O220  1  0.75082978  0.62509317  0.16448571  1
  O2-  O221  1  0.74821470  0.62434661  0.66296625  1
  O2-  O222  1  0.74852695  0.87519968  0.16326163  1
  O2-  O223  1  0.74932112  0.87481245  0.66575085  1
  O2-  O224  1  0.12471716  0.00180238  0.34980307  1
  O2-  O225  1  0.12526721  -0.00241724  0.84245237  1
  O2-  O226  1  0.12502476  0.24938587  0.34944390  1
  O2-  O227  1  0.12485265  0.25106105  0.84878833  1
  O2-  O228  1  0.12564409  0.49793833  0.34640340  1
  O2-  O229  1  0.12558226  0.50098239  0.84978734  1
  O2-  O230  1  0.12571179  0.75127621  0.34825345  1
  O2-  O231  1  0.12528122  0.75019640  0.84276121  1
  O2-  O232  1  0.37483092  -0.00272047  0.35165675  1
  O2-  O233  1  0.37575958  0.00051025  0.84530446  1
  O2-  O234  1  0.37441397  0.25334155  0.35095574  1
  O2-  O235  1  0.37566332  0.24768543  0.84496886  1
  O2-  O236  1  0.37555789  0.50043035  0.35081242  1
  O2-  O237  1  0.37467356  0.50308706  0.84881369  1
  O2-  O238  1  0.37526994  0.74936189  0.35290819  1
  O2-  O239  1  0.37564116  0.74827363  0.84751778  1
  O2-  O240  1  0.62487918  0.00014575  0.34736443  1
  O2-  O241  1  0.62499780  -0.00006547  0.85084259  1
  O2-  O242  1  0.62518840  0.25048409  0.34802811  1
  O2-  O243  1  0.62519469  0.24760263  0.84786237  1
  O2-  O244  1  0.62397716  0.50338371  0.34854883  1
  O2-  O245  1  0.62518078  0.49802828  0.84739193  1
  O2-  O246  1  0.62422527  0.74631281  0.34898202  1
  O2-  O247  1  0.62463105  0.75370064  0.84927449  1
  O2-  O248  1  0.87561374  0.00298670  0.35066706  1
  O2-  O249  1  0.87429941  -0.00094375  0.84225205  1
  O2-  O250  1  0.87530170  0.24928735  0.34915643  1
  O2-  O251  1  0.87458089  0.24941240  0.84733017  1
  O2-  O252  1  0.87483530  0.50022390  0.34380125  1
  O2-  O253  1  0.87501776  0.50022500  0.84915591  1
  O2-  O254  1  0.87426873  0.74785177  0.34771586  1
  O2-  O255  1  0.87483521  0.75083917  0.84249151  1
  O2-  O256  1  0.00020353  0.12577592  0.35102646  1
  O2-  O257  1  -0.00211993  0.12482191  0.84274935  1
  O2-  O258  1  -0.00006300  0.37432557  0.34611556  1
  O2-  O259  1  0.00007381  0.37482103  0.84912670  1
  O2-  O260  1  -0.00162557  0.62491334  0.34730479  1
  O2-  O261  1  0.00006794  0.62462519  0.84291978  1
  O2-  O262  1  0.00196527  0.87542823  0.34733932  1
  O2-  O263  1  -0.00062010  0.87504030  0.84107291  1
  O2-  O264  1  0.24645584  0.12519419  0.35121091  1
  O2-  O265  1  0.25146602  0.12454229  0.84552757  1
  O2-  O266  1  0.25097268  0.37601159  0.35141423  1
  O2-  O267  1  0.24908145  0.37481726  0.84762388  1
  O2-  O268  1  0.25302200  0.62457800  0.35100377  1
  O2-  O269  1  0.25027160  0.62568433  0.84787398  1
  O2-  O270  1  0.25106791  0.87472300  0.34991976  1
  O2-  O271  1  0.24951135  0.87430455  0.84602744  1
  O2-  O272  1  0.50038906  0.12545754  0.34872853  1
  O2-  O273  1  0.50207882  0.12362026  0.84911834  1
  O2-  O274  1  0.49742363  0.37602982  0.35111280  1
  O2-  O275  1  0.50230811  0.37478838  0.84670884  1
  O2-  O276  1  0.49975509  0.62537893  0.35275488  1
  O2-  O277  1  0.49766358  0.62567076  0.85036673  1
  O2-  O278  1  0.49695751  0.87373176  0.35029109  1
  O2-  O279  1  0.50184369  0.87499968  0.85277715  1
  O2-  O280  1  0.75313308  0.12516352  0.34757027  1
  O2-  O281  1  0.74849413  0.12426679  0.84739068  1
  O2-  O282  1  0.75196639  0.37509710  0.34622143  1
  O2-  O283  1  0.74876456  0.37391912  0.84723261  1
  O2-  O284  1  0.74889421  0.62478216  0.34773111  1
  O2-  O285  1  0.75221293  0.62551426  0.84588459  1
  O2-  O286  1  0.74982174  0.87488563  0.34755801  1
  O2-  O287  1  0.74942799  0.87549688  0.84822774  1
