# generated using pymatgen
data_BaYFeCuO5
_symmetry_space_group_name_H-M   'P 1'
_cell_length_a   15.65795510
_cell_length_b   15.66178216
_cell_length_c   15.46017846
_cell_angle_alpha   90.00225587
_cell_angle_beta   89.99505841
_cell_angle_gamma   90.00114106
_symmetry_Int_Tables_number   1
_chemical_formula_structural   BaYFeCuO5
_chemical_formula_sum   'Ba32 Y32 Fe32 Cu32 O160'
_cell_volume   3791.32245569
_cell_formula_units_Z   32
loop_
 _symmetry_equiv_pos_site_id
 _symmetry_equiv_pos_as_xyz
  1  'x, y, z'
loop_
 _atom_type_symbol
 _atom_type_oxidation_number
  Ba2+  2.0
  Y3+  3.0
  Fe3+  3.0
  Cu2+  2.0
  O2-  -2.0
loop_
 _atom_site_type_symbol
 _atom_site_label
 _atom_site_symmetry_multiplicity
 _atom_site_fract_x
 _atom_site_fract_y
 _atom_site_fract_z
 _atom_site_occupancy
  Ba2+  Ba0  1  -0.00260374  -0.00751813  0.01564543  1
  Ba2+  Ba1  1  0.00099592  -0.00639894  0.51304235  1
  Ba2+  Ba2  1  -0.00992271  0.25032876  0.00645954  1
  Ba2+  Ba3  1  0.00031223  0.23887556  0.50661486  1
  Ba2+  Ba4  1  -0.00462939  0.50975843  0.00205373  1
  Ba2+  Ba5  1  0.00210744  0.51274525  0.50254408  1
  Ba2+  Ba6  1  0.00115701  0.74757208  0.01220138  1
  Ba2+  Ba7  1  0.00421964  0.75217607  0.50693815  1
  Ba2+  Ba8  1  0.25056861  -0.01162811  0.00692137  1
  Ba2+  Ba9  1  0.24514221  -0.00954176  0.50093414  1
  Ba2+  Ba10  1  0.25559930  0.25499962  0.01250125  1
  Ba2+  Ba11  1  0.25190987  0.25095229  0.50151373  1
  Ba2+  Ba12  1  0.24682089  0.50489719  0.01204880  1
  Ba2+  Ba13  1  0.24880229  0.50352254  0.50735038  1
  Ba2+  Ba14  1  0.24363213  0.75451505  0.00684372  1
  Ba2+  Ba15  1  0.24341535  0.75625493  0.50774396  1
  Ba2+  Ba16  1  0.50433156  -0.00792300  0.00984919  1
  Ba2+  Ba17  1  0.50210327  -0.00660314  0.51721840  1
  Ba2+  Ba18  1  0.50637657  0.25358433  0.02389908  1
  Ba2+  Ba19  1  0.49756519  0.25052767  0.51021545  1
  Ba2+  Ba20  1  0.50555706  0.49674415  0.02412717  1
  Ba2+  Ba21  1  0.49735775  0.49933178  0.51012642  1
  Ba2+  Ba22  1  0.50371380  0.75719272  0.01000445  1
  Ba2+  Ba23  1  0.50218953  0.75645201  0.51719152  1
  Ba2+  Ba24  1  0.74781784  -0.00202633  0.01725933  1
  Ba2+  Ba25  1  0.75126417  -0.00262900  0.52495202  1
  Ba2+  Ba26  1  0.74802422  0.24998219  0.01806603  1
  Ba2+  Ba27  1  0.75044984  0.23911581  0.51582684  1
  Ba2+  Ba28  1  0.75234139  0.50361447  0.01086793  1
  Ba2+  Ba29  1  0.75009949  0.51056814  0.50663025  1
  Ba2+  Ba30  1  0.75042271  0.74947506  0.01503813  1
  Ba2+  Ba31  1  0.75088679  0.75329954  0.51855209  1
  Y3+  Y32  1  0.00163327  -0.00331108  0.25631900  1
  Y3+  Y33  1  0.00089120  -0.00367988  0.75759072  1
  Y3+  Y34  1  -0.00009806  0.24797275  0.25768734  1
  Y3+  Y35  1  -0.00084761  0.24993694  0.75782800  1
  Y3+  Y36  1  0.00061735  0.50648053  0.25733517  1
  Y3+  Y37  1  0.00030786  0.50408467  0.76051012  1
  Y3+  Y38  1  0.00191857  0.74907931  0.25586751  1
  Y3+  Y39  1  0.00340566  0.74958056  0.76017706  1
  Y3+  Y40  1  0.24911714  -0.00562538  0.25731201  1
  Y3+  Y41  1  0.25023309  -0.00642215  0.75883156  1
  Y3+  Y42  1  0.25133776  0.25060635  0.25949975  1
  Y3+  Y43  1  0.25138824  0.25144335  0.75649286  1
  Y3+  Y44  1  0.24991092  0.50207118  0.25974313  1
  Y3+  Y45  1  0.24869681  0.50300821  0.75627914  1
  Y3+  Y46  1  0.24742911  0.75244376  0.25720680  1
  Y3+  Y47  1  0.24757270  0.75207564  0.75897843  1
  Y3+  Y48  1  0.49925959  -0.00397027  0.25412656  1
  Y3+  Y49  1  0.49968867  -0.00410734  0.75885683  1
  Y3+  Y50  1  0.49902396  0.25117560  0.26006319  1
  Y3+  Y51  1  0.49893627  0.24967643  0.75212897  1
  Y3+  Y52  1  0.49888297  0.49938057  0.26021755  1
  Y3+  Y53  1  0.49901731  0.50068869  0.75214341  1
  Y3+  Y54  1  0.49932418  0.75325192  0.25442150  1
  Y3+  Y55  1  0.49972678  0.75386384  0.75875148  1
  Y3+  Y56  1  0.75004136  -0.00178249  0.25086800  1
  Y3+  Y57  1  0.74873877  -0.00169558  0.75736524  1
  Y3+  Y58  1  0.74957137  0.24805726  0.25615488  1
  Y3+  Y59  1  0.75081769  0.24868095  0.75558564  1
  Y3+  Y60  1  0.75037939  0.50356968  0.25608136  1
  Y3+  Y61  1  0.75201666  0.50228351  0.75837107  1
  Y3+  Y62  1  0.75141863  0.74950353  0.25247915  1
  Y3+  Y63  1  0.74918971  0.75068810  0.75990612  1
  Fe3+  Fe64  1  0.12355271  0.37535447  0.37957193  1
  Fe3+  Fe65  1  0.62525799  0.12219367  0.37632462  1
  Fe3+  Fe66  1  0.37594381  0.12526372  0.88059380  1
  Fe3+  Fe67  1  0.62666766  0.37469125  0.37931025  1
  Fe3+  Fe68  1  0.37507212  0.12196381  0.37868367  1
  Fe3+  Fe69  1  0.62637559  0.87532117  0.37456769  1
  Fe3+  Fe70  1  0.37518858  0.62801361  0.37918926  1
  Fe3+  Fe71  1  0.87390286  0.12407298  0.87685421  1
  Fe3+  Fe72  1  0.87479830  0.37538885  0.38108725  1
  Fe3+  Fe73  1  0.62366583  0.62444572  0.87618332  1
  Fe3+  Fe74  1  0.87450722  0.12180653  0.37498037  1
  Fe3+  Fe75  1  0.87440220  0.87423708  0.87707025  1
  Fe3+  Fe76  1  0.37730278  0.37612204  0.87673636  1
  Fe3+  Fe77  1  0.62494662  0.37489221  0.87320580  1
  Fe3+  Fe78  1  0.12562508  0.12482122  0.88191230  1
  Fe3+  Fe79  1  0.12446301  0.37519180  0.88053754  1
  Fe3+  Fe80  1  0.37592529  0.62505010  0.87978805  1
  Fe3+  Fe81  1  0.87385757  0.87424012  0.37482259  1
  Fe3+  Fe82  1  0.62491896  0.62776987  0.37679466  1
  Fe3+  Fe83  1  0.62408466  0.12577788  0.87560859  1
  Fe3+  Fe84  1  0.37426823  0.62713131  0.63551671  1
  Fe3+  Fe85  1  0.12636034  0.12358405  0.63914938  1
  Fe3+  Fe86  1  0.87599403  0.62673903  0.63955603  1
  Fe3+  Fe87  1  0.12416793  0.37576695  0.63521423  1
  Fe3+  Fe88  1  0.37514162  0.12392224  0.13543587  1
  Fe3+  Fe89  1  0.12543026  0.12520742  0.13491948  1
  Fe3+  Fe90  1  0.87655061  0.37559039  0.63390451  1
  Fe3+  Fe91  1  0.87567257  0.37643901  0.13997406  1
  Fe3+  Fe92  1  0.12384731  0.37598974  0.13642425  1
  Fe3+  Fe93  1  0.62637050  0.37532266  0.63282172  1
  Fe3+  Fe94  1  0.37481041  0.62609173  0.13574071  1
  Fe3+  Fe95  1  0.37337055  0.12267548  0.63513626  1
  Cu2+  Cu96  1  0.87401910  0.62636928  0.87224760  1
  Cu2+  Cu97  1  0.12558240  0.62663974  0.37272516  1
  Cu2+  Cu98  1  0.37609727  0.87424124  0.37315749  1
  Cu2+  Cu99  1  0.37489477  0.37589434  0.37503768  1
  Cu2+  Cu100  1  0.87437881  0.62676484  0.36314730  1
  Cu2+  Cu101  1  0.12591522  0.62535197  0.87369742  1
  Cu2+  Cu102  1  0.12346336  0.87447064  0.36884882  1
  Cu2+  Cu103  1  0.12507822  0.12380049  0.36218559  1
  Cu2+  Cu104  1  0.87400576  0.37506594  0.86235336  1
  Cu2+  Cu105  1  0.37518936  0.87395330  0.87338949  1
  Cu2+  Cu106  1  0.62615714  0.87528678  0.87193516  1
  Cu2+  Cu107  1  0.12381962  0.87511349  0.87324027  1
  Cu2+  Cu108  1  0.37435573  0.37569494  0.15391544  1
  Cu2+  Cu109  1  0.87588721  0.87390215  0.65379370  1
  Cu2+  Cu110  1  0.87563198  0.12479592  0.14848975  1
  Cu2+  Cu111  1  0.12573856  0.62498070  0.14321274  1
  Cu2+  Cu112  1  0.12495262  0.87436782  0.14224141  1
  Cu2+  Cu113  1  0.12476863  0.87428350  0.64496750  1
  Cu2+  Cu114  1  0.37305954  0.37538569  0.63883195  1
  Cu2+  Cu115  1  0.62397762  0.62508363  0.15114668  1
  Cu2+  Cu116  1  0.62494356  0.62518638  0.64971080  1
  Cu2+  Cu117  1  0.62543860  0.87463430  0.65470535  1
  Cu2+  Cu118  1  0.87554512  0.62519360  0.14193257  1
  Cu2+  Cu119  1  0.62526770  0.87419422  0.14036306  1
  Cu2+  Cu120  1  0.12498253  0.62587564  0.64331826  1
  Cu2+  Cu121  1  0.62392928  0.12471331  0.15152005  1
  Cu2+  Cu122  1  0.62600565  0.37555939  0.15795267  1
  Cu2+  Cu123  1  0.37362521  0.87457696  0.64241458  1
  Cu2+  Cu124  1  0.87649542  0.12382624  0.65267946  1
  Cu2+  Cu125  1  0.62400548  0.12441082  0.64971719  1
  Cu2+  Cu126  1  0.87571370  0.87436892  0.14897804  1
  Cu2+  Cu127  1  0.37415010  0.87419935  0.14160028  1
  O2-  O128  1  0.12529669  0.12757075  0.00830678  1
  O2-  O129  1  0.12683749  0.12439719  0.51882139  1
  O2-  O130  1  0.12386565  0.37452681  0.00840771  1
  O2-  O131  1  0.12347272  0.37402618  0.50813172  1
  O2-  O132  1  0.12619874  0.62298882  0.00781614  1
  O2-  O133  1  0.12581828  0.62575249  0.50754602  1
  O2-  O134  1  0.12314858  0.87586030  0.00792338  1
  O2-  O135  1  0.12297809  0.87539287  0.50799253  1
  O2-  O136  1  0.37743172  0.12727650  0.00715755  1
  O2-  O137  1  0.37322752  0.12254979  0.50699074  1
  O2-  O138  1  0.37957462  0.37473986  -0.00331990  1
  O2-  O139  1  0.37412098  0.37437800  0.50641826  1
  O2-  O140  1  0.37702876  0.62300851  0.00691239  1
  O2-  O141  1  0.37509422  0.62748826  0.50669950  1
  O2-  O142  1  0.37567047  0.87477660  0.00695484  1
  O2-  O143  1  0.37584165  0.87540456  0.50711053  1
  O2-  O144  1  0.62411339  0.12887121  -0.00430631  1
  O2-  O145  1  0.62608598  0.12203104  0.49627119  1
  O2-  O146  1  0.62471175  0.37454592  -0.00640719  1
  O2-  O147  1  0.62719059  0.37408751  0.50534453  1
  O2-  O148  1  0.62272405  0.62128070  -0.00360971  1
  O2-  O149  1  0.62533219  0.62827108  0.49703038  1
  O2-  O150  1  0.62671556  0.87496339  0.00612382  1
  O2-  O151  1  0.62719580  0.87603208  0.49501497  1
  O2-  O152  1  0.87223358  0.12658186  -0.00289345  1
  O2-  O153  1  0.87465969  0.12157235  0.49548140  1
  O2-  O154  1  0.87431695  0.37551130  0.01921757  1
  O2-  O155  1  0.87619800  0.37479071  0.50757507  1
  O2-  O156  1  0.87342057  0.62464763  0.00806687  1
  O2-  O157  1  0.87488262  0.62662362  0.51856678  1
  O2-  O158  1  0.87361203  0.87517387  -0.00221986  1
  O2-  O159  1  0.87306608  0.87600170  0.49513610  1
  O2-  O160  1  0.12607033  0.00337330  0.16235978  1
  O2-  O161  1  0.12523621  0.00095549  0.66918265  1
  O2-  O162  1  0.12527606  0.25035106  0.16537961  1
  O2-  O163  1  0.12501024  0.25095505  0.66667968  1
  O2-  O164  1  0.12556155  0.49705096  0.16764335  1
  O2-  O165  1  0.12436923  0.49763000  0.66441083  1
  O2-  O166  1  0.12559035  0.74973224  0.16474371  1
  O2-  O167  1  0.12528519  0.74987550  0.66679921  1
  O2-  O168  1  0.37381470  0.00254152  0.16263535  1
  O2-  O169  1  0.37463447  0.00172575  0.66639706  1
  O2-  O170  1  0.37508667  0.24922173  0.16530511  1
  O2-  O171  1  0.37340855  0.24682566  0.66228234  1
  O2-  O172  1  0.37495696  0.50087668  0.16607437  1
  O2-  O173  1  0.37429607  0.50321087  0.66226937  1
  O2-  O174  1  0.37514151  0.74738876  0.16346660  1
  O2-  O175  1  0.37567373  0.74804837  0.66599997  1
  O2-  O176  1  0.62441280  0.00109920  0.16124467  1
  O2-  O177  1  0.62442077  -0.00026431  0.66515493  1
  O2-  O178  1  0.62441578  0.25003434  0.16672908  1
  O2-  O179  1  0.62529742  0.25171893  0.65911343  1
  O2-  O180  1  0.62459422  0.50002265  0.16870808  1
  O2-  O181  1  0.62586374  0.49765277  0.65913779  1
  O2-  O182  1  0.62426069  0.74861295  0.16286750  1
  O2-  O183  1  0.62473768  0.75039999  0.66505409  1
  O2-  O184  1  0.87555653  -0.00053912  0.15981404  1
  O2-  O185  1  0.87598022  -0.00114815  0.66442593  1
  O2-  O186  1  0.87556797  0.25087108  0.16844004  1
  O2-  O187  1  0.87649249  0.25162080  0.66112595  1
  O2-  O188  1  0.87542728  0.49855217  0.17170630  1
  O2-  O189  1  0.87560522  0.49889135  0.66507191  1
  O2-  O190  1  0.87533497  0.75140604  0.16310981  1
  O2-  O191  1  0.87432424  0.74999081  0.66654556  1
  O2-  O192  1  0.00236810  0.12645169  0.16255119  1
  O2-  O193  1  0.00153651  0.12578495  0.66868179  1
  O2-  O194  1  0.00133069  0.37409639  0.16887255  1
  O2-  O195  1  -0.00010194  0.37432204  0.66591432  1
  O2-  O196  1  0.00104721  0.62463136  0.16591874  1
  O2-  O197  1  -0.00134719  0.62459859  0.66894690  1
  O2-  O198  1  -0.00136157  0.87537663  0.16445664  1
  O2-  O199  1  -0.00073486  0.87497827  0.66620404  1
  O2-  O200  1  0.25026081  0.12789404  0.16253157  1
  O2-  O201  1  0.25081009  0.12518790  0.67228398  1
  O2-  O202  1  0.24767080  0.37411190  0.16366556  1
  O2-  O203  1  0.24619215  0.37504851  0.66741799  1
  O2-  O204  1  0.25289631  0.62325976  0.16555085  1
  O2-  O205  1  0.25196564  0.62470952  0.66610987  1
  O2-  O206  1  0.24990658  0.87470166  0.16597713  1
  O2-  O207  1  0.24930303  0.87445663  0.66831948  1
  O2-  O208  1  0.49775721  0.12615841  0.16526684  1
  O2-  O209  1  0.49765800  0.12543059  0.66037752  1
  O2-  O210  1  0.50070120  0.37502429  0.16697104  1
  O2-  O211  1  0.50277786  0.37475303  0.65761372  1
  O2-  O212  1  0.49817620  0.62321286  0.16494862  1
  O2-  O213  1  0.49911622  0.62418435  0.66014666  1
  O2-  O214  1  0.49939319  0.87515876  0.16349370  1
  O2-  O215  1  0.50122443  0.87531481  0.66507765  1
  O2-  O216  1  0.74948573  0.12635885  0.16128347  1
  O2-  O217  1  0.75065474  0.12550354  0.66129941  1
  O2-  O218  1  0.75078776  0.37452242  0.16837202  1
  O2-  O219  1  0.75170325  0.37416516  0.65930381  1
  O2-  O220  1  0.74799128  0.62401187  0.16302953  1
  O2-  O221  1  0.75053908  0.62458839  0.66548786  1
  O2-  O222  1  0.75217214  0.87480508  0.16110147  1
  O2-  O223  1  0.75021196  0.87503741  0.66314052  1
  O2-  O224  1  0.12510096  0.00025100  0.34610126  1
  O2-  O225  1  0.12636293  0.00396635  0.85158360  1
  O2-  O226  1  0.12459115  0.25145410  0.35063178  1
  O2-  O227  1  0.12500593  0.25053897  0.85037727  1
  O2-  O228  1  0.12417667  0.49774874  0.35187118  1
  O2-  O229  1  0.12550388  0.49629651  0.84894198  1
  O2-  O230  1  0.12488023  0.75038078  0.34782133  1
  O2-  O231  1  0.12556818  0.75017252  0.85012267  1
  O2-  O232  1  0.37467771  0.00164015  0.34662243  1
  O2-  O233  1  0.37420532  0.00363109  0.85095924  1
  O2-  O234  1  0.37436737  0.24619152  0.35054000  1
  O2-  O235  1  0.37519699  0.24990445  0.84529296  1
  O2-  O236  1  0.37524113  0.50400244  0.35092838  1
  O2-  O237  1  0.37499241  0.50031860  0.84495551  1
  O2-  O238  1  0.37554529  0.74793095  0.34691736  1
  O2-  O239  1  0.37574474  0.74667285  0.85034188  1
  O2-  O240  1  0.62491450  -0.00006096  0.34137313  1
  O2-  O241  1  0.62426674  0.00245910  0.84786905  1
  O2-  O242  1  0.62562402  0.24998433  0.35000834  1
  O2-  O243  1  0.62451495  0.25009915  0.83967643  1
  O2-  O244  1  0.62539508  0.49946402  0.35247957  1
  O2-  O245  1  0.62450480  0.49935323  0.84035863  1
  O2-  O246  1  0.62511234  0.75059528  0.34368866  1
  O2-  O247  1  0.62375409  0.74819601  0.84849914  1
  O2-  O248  1  0.87509681  -0.00048131  0.34113948  1
  O2-  O249  1  0.87513603  0.00066743  0.84604439  1
  O2-  O250  1  0.87524190  0.25047151  0.35084365  1
  O2-  O251  1  0.87514345  0.24890304  0.84494567  1
  O2-  O252  1  0.87504334  0.49915290  0.35514770  1
  O2-  O253  1  0.87477864  0.49916038  0.84864991  1
  O2-  O254  1  0.87441176  0.75040700  0.34599234  1
  O2-  O255  1  0.87473903  0.75140866  0.84764764  1
  O2-  O256  1  -0.00059510  0.12553151  0.34670210  1
  O2-  O257  1  0.00128482  0.12688198  0.85186895  1
  O2-  O258  1  -0.00096224  0.37411357  0.35233640  1
  O2-  O259  1  0.00105639  0.37413944  0.85174343  1
  O2-  O260  1  -0.00138483  0.62512349  0.35018415  1
  O2-  O261  1  0.00028261  0.62398233  0.85149196  1
  O2-  O262  1  -0.00185458  0.87510719  0.34723245  1
  O2-  O263  1  -0.00165235  0.87605198  0.84832340  1
  O2-  O264  1  0.25103938  0.12525790  0.34862702  1
  O2-  O265  1  0.25057922  0.12856501  0.85631651  1
  O2-  O266  1  0.24615902  0.37452828  0.34924405  1
  O2-  O267  1  0.24989095  0.37398839  0.85151228  1
  O2-  O268  1  0.25250276  0.62464953  0.34993379  1
  O2-  O269  1  0.25320878  0.62331400  0.85089547  1
  O2-  O270  1  0.24892258  0.87505653  0.34975881  1
  O2-  O271  1  0.24972520  0.87464444  0.85152379  1
  O2-  O272  1  0.49939811  0.12529698  0.34899063  1
  O2-  O273  1  0.49838853  0.12627177  0.84413879  1
  O2-  O274  1  0.50409032  0.37451467  0.35135729  1
  O2-  O275  1  0.49986599  0.37478493  0.83848588  1
  O2-  O276  1  0.49970166  0.62476121  0.34827628  1
  O2-  O277  1  0.49856384  0.62347892  0.84340336  1
  O2-  O278  1  0.50263772  0.87536360  0.34552879  1
  O2-  O279  1  0.49995906  0.87556807  0.84920139  1
  O2-  O280  1  0.75007079  0.12508323  0.34321974  1
  O2-  O281  1  0.74950024  0.12600888  0.84361181  1
  O2-  O282  1  0.75076340  0.37494225  0.35149316  1
  O2-  O283  1  0.74898725  0.37466971  0.84261385  1
  O2-  O284  1  0.74909028  0.62447278  0.34644242  1
  O2-  O285  1  0.74764344  0.62396598  0.84696232  1
  O2-  O286  1  0.74977908  0.87514990  0.34098841  1
  O2-  O287  1  0.75156379  0.87571307  0.84532928  1
