# generated using pymatgen
data_BaYFeCuO5
_symmetry_space_group_name_H-M   'P 1'
_cell_length_a   15.66346209
_cell_length_b   15.66578201
_cell_length_c   15.46913074
_cell_angle_alpha   90.00317519
_cell_angle_beta   89.99788293
_cell_angle_gamma   89.99939701
_symmetry_Int_Tables_number   1
_chemical_formula_structural   BaYFeCuO5
_chemical_formula_sum   'Ba32 Y32 Fe32 Cu32 O160'
_cell_volume   3795.82121294
_cell_formula_units_Z   32
loop_
 _symmetry_equiv_pos_site_id
 _symmetry_equiv_pos_as_xyz
  1  'x, y, z'
loop_
 _atom_type_symbol
 _atom_type_oxidation_number
  Ba2+  2.0
  Y3+  3.0
  Fe3+  3.0
  Cu2+  2.0
  O2-  -2.0
loop_
 _atom_site_type_symbol
 _atom_site_label
 _atom_site_symmetry_multiplicity
 _atom_site_fract_x
 _atom_site_fract_y
 _atom_site_fract_z
 _atom_site_occupancy
  Ba2+  Ba0  1  0.00444249  0.00854258  0.01242973  1
  Ba2+  Ba1  1  0.00446096  0.00516693  0.50218526  1
  Ba2+  Ba2  1  0.00036536  0.24506290  0.00658349  1
  Ba2+  Ba3  1  0.00501246  0.25545216  0.50021194  1
  Ba2+  Ba4  1  0.00344818  0.50112681  0.01258081  1
  Ba2+  Ba5  1  0.00501455  0.49526749  0.51231177  1
  Ba2+  Ba6  1  0.00687167  0.74475603  0.01699383  1
  Ba2+  Ba7  1  0.00426582  0.74440000  0.51115395  1
  Ba2+  Ba8  1  0.25041789  0.00424562  0.00701442  1
  Ba2+  Ba9  1  0.25226559  0.00931625  0.50698501  1
  Ba2+  Ba10  1  0.24589156  0.24161610  0.01218274  1
  Ba2+  Ba11  1  0.25426764  0.25540989  0.49975040  1
  Ba2+  Ba12  1  0.24575761  0.50781438  0.01119591  1
  Ba2+  Ba13  1  0.25485587  0.49576067  0.51216805  1
  Ba2+  Ba14  1  0.25012509  0.74631644  0.00652661  1
  Ba2+  Ba15  1  0.25236144  0.73944455  0.51793991  1
  Ba2+  Ba16  1  0.49877706  -0.00013153  0.00576278  1
  Ba2+  Ba17  1  0.50470584  0.00745215  0.51621518  1
  Ba2+  Ba18  1  0.50145961  0.24292211  0.01653026  1
  Ba2+  Ba19  1  0.49915070  0.25184019  0.51738942  1
  Ba2+  Ba20  1  0.49654719  0.50250261  0.00988964  1
  Ba2+  Ba21  1  0.49754245  0.49661003  0.52290271  1
  Ba2+  Ba22  1  0.49454645  0.75544979  0.00128598  1
  Ba2+  Ba23  1  0.50334977  0.74435249  0.52377640  1
  Ba2+  Ba24  1  0.74562101  0.00484125  0.01246908  1
  Ba2+  Ba25  1  0.73870027  0.00357229  0.51099178  1
  Ba2+  Ba26  1  0.75329823  0.24630050  0.01147452  1
  Ba2+  Ba27  1  0.74148564  0.25268151  0.51617199  1
  Ba2+  Ba28  1  0.75485958  0.49489826  0.01014582  1
  Ba2+  Ba29  1  0.74377288  0.49506395  0.52215820  1
  Ba2+  Ba30  1  0.74693664  0.75418270  0.01085732  1
  Ba2+  Ba31  1  0.73983343  0.74878849  0.51773395  1
  Y3+  Y32  1  0.00154237  0.00251478  0.25606967  1
  Y3+  Y33  1  -0.00030631  0.00324596  0.76050294  1
  Y3+  Y34  1  0.00312857  0.24915297  0.25517217  1
  Y3+  Y35  1  -0.00197845  0.24985589  0.76165003  1
  Y3+  Y36  1  0.00226025  0.49977313  0.25478250  1
  Y3+  Y37  1  0.00037358  0.49841950  0.75973330  1
  Y3+  Y38  1  0.00105737  0.74876675  0.25573008  1
  Y3+  Y39  1  0.00193158  0.74843155  0.75780347  1
  Y3+  Y40  1  0.24920467  0.00278246  0.25574052  1
  Y3+  Y41  1  0.25218364  0.00271784  0.76109101  1
  Y3+  Y42  1  0.24930465  0.25055807  0.25661915  1
  Y3+  Y43  1  0.25223015  0.24845289  0.75980768  1
  Y3+  Y44  1  0.25014848  0.49856885  0.25505326  1
  Y3+  Y45  1  0.25103079  0.50188464  0.75970472  1
  Y3+  Y46  1  0.24992233  0.74796445  0.25350364  1
  Y3+  Y47  1  0.25123983  0.74672877  0.76121913  1
  Y3+  Y48  1  0.50176202  0.00193724  0.25441302  1
  Y3+  Y49  1  0.49979314  0.00090880  0.75914837  1
  Y3+  Y50  1  0.50007816  0.24897799  0.25690890  1
  Y3+  Y51  1  0.49779297  0.24845387  0.75585323  1
  Y3+  Y52  1  0.49797002  0.49835202  0.25296166  1
  Y3+  Y53  1  0.49726933  0.49957830  0.75843558  1
  Y3+  Y54  1  0.49976880  0.75057310  0.25108292  1
  Y3+  Y55  1  0.49952176  0.75093784  0.76159439  1
  Y3+  Y56  1  0.74775971  0.00202822  0.25571918  1
  Y3+  Y57  1  0.74752698  0.00102620  0.75858981  1
  Y3+  Y58  1  0.74768725  0.24787734  0.25568624  1
  Y3+  Y59  1  0.75167152  0.24973475  0.75797574  1
  Y3+  Y60  1  0.74977963  0.49922511  0.25278347  1
  Y3+  Y61  1  0.75098005  0.49681423  0.75808328  1
  Y3+  Y62  1  0.74940595  0.75109312  0.25344966  1
  Y3+  Y63  1  0.74729681  0.75234013  0.75892499  1
  Fe3+  Fe64  1  0.87377043  0.37581537  0.37764177  1
  Fe3+  Fe65  1  0.37580189  0.87382594  0.38112404  1
  Fe3+  Fe66  1  0.37702884  0.62439666  0.37537619  1
  Fe3+  Fe67  1  0.87572119  0.87579079  0.87955842  1
  Fe3+  Fe68  1  0.37457089  0.37391071  0.88082983  1
  Fe3+  Fe69  1  0.62556895  0.62433113  0.87815117  1
  Fe3+  Fe70  1  0.37658185  0.12554784  0.37587719  1
  Fe3+  Fe71  1  0.87526263  0.62553554  0.87723311  1
  Fe3+  Fe72  1  0.62392626  0.62406741  0.37382905  1
  Fe3+  Fe73  1  0.62480611  0.12576566  0.87502001  1
  Fe3+  Fe74  1  0.87422135  0.87454148  0.38034107  1
  Fe3+  Fe75  1  0.62316959  0.87423057  0.37602745  1
  Fe3+  Fe76  1  0.12528815  0.37456963  0.87982591  1
  Fe3+  Fe77  1  0.12676461  0.87401163  0.38023846  1
  Fe3+  Fe78  1  0.12608655  0.62366235  0.37631222  1
  Fe3+  Fe79  1  0.87383813  0.12602530  0.37988722  1
  Fe3+  Fe80  1  0.87322296  0.62418291  0.37955024  1
  Fe3+  Fe81  1  0.62359590  0.37578894  0.37377450  1
  Fe3+  Fe82  1  0.62479107  0.37387712  0.87821685  1
  Fe3+  Fe83  1  0.12477514  0.87522256  0.87711706  1
  Fe3+  Fe84  1  0.37481429  0.87565856  0.63568262  1
  Fe3+  Fe85  1  0.62483566  0.62496498  0.13227174  1
  Fe3+  Fe86  1  0.37418346  0.37387388  0.13420794  1
  Fe3+  Fe87  1  0.12578801  0.87543654  0.63480683  1
  Fe3+  Fe88  1  0.12543431  0.12654240  0.63836603  1
  Fe3+  Fe89  1  0.37381117  0.87617956  0.13769496  1
  Fe3+  Fe90  1  0.12603712  0.37418606  0.64104742  1
  Fe3+  Fe91  1  0.87551348  0.12593398  0.63452546  1
  Fe3+  Fe92  1  0.87465936  0.62428365  0.63492162  1
  Fe3+  Fe93  1  0.87618025  0.37342536  0.13770044  1
  Fe3+  Fe94  1  0.87626249  0.87622571  0.13555072  1
  Fe3+  Fe95  1  0.87509437  0.87599714  0.63338392  1
  Cu2+  Cu96  1  0.87501720  0.37462316  0.86697040  1
  Cu2+  Cu97  1  0.12510465  0.12513214  0.87107851  1
  Cu2+  Cu98  1  0.12530608  0.37611292  0.36065339  1
  Cu2+  Cu99  1  0.62493430  0.87596756  0.87379314  1
  Cu2+  Cu100  1  0.37581456  0.12575568  0.87442996  1
  Cu2+  Cu101  1  0.12396295  0.62462047  0.87078047  1
  Cu2+  Cu102  1  0.37637892  0.37614166  0.36975451  1
  Cu2+  Cu103  1  0.87402786  0.12426732  0.87329926  1
  Cu2+  Cu104  1  0.62440022  0.12586803  0.37182031  1
  Cu2+  Cu105  1  0.12549628  0.12570224  0.36373079  1
  Cu2+  Cu106  1  0.37399607  0.87565147  0.86246362  1
  Cu2+  Cu107  1  0.37517297  0.62414794  0.87380178  1
  Cu2+  Cu108  1  0.62427743  0.37448258  0.65711662  1
  Cu2+  Cu109  1  0.62489980  0.37440988  0.14344004  1
  Cu2+  Cu110  1  0.62477040  0.12516316  0.15054569  1
  Cu2+  Cu111  1  0.87538430  0.12498206  0.14303526  1
  Cu2+  Cu112  1  0.87486855  0.62514273  0.14835641  1
  Cu2+  Cu113  1  0.12546022  0.12511242  0.14516289  1
  Cu2+  Cu114  1  0.12538905  0.37446294  0.14659248  1
  Cu2+  Cu115  1  0.12549225  0.87545920  0.15077626  1
  Cu2+  Cu116  1  0.12549192  0.62478558  0.14410974  1
  Cu2+  Cu117  1  0.62484921  0.12580128  0.64473154  1
  Cu2+  Cu118  1  0.37337790  0.37421675  0.64429038  1
  Cu2+  Cu119  1  0.62434148  0.87587030  0.65339068  1
  Cu2+  Cu120  1  0.62420005  0.87582750  0.13883926  1
  Cu2+  Cu121  1  0.37526421  0.62529476  0.65599952  1
  Cu2+  Cu122  1  0.87612180  0.37409149  0.64863999  1
  Cu2+  Cu123  1  0.37403315  0.12483579  0.65097151  1
  Cu2+  Cu124  1  0.12480762  0.62427900  0.65248546  1
  Cu2+  Cu125  1  0.62534116  0.62422847  0.65795672  1
  Cu2+  Cu126  1  0.37493082  0.62548339  0.13983123  1
  Cu2+  Cu127  1  0.37476473  0.12442609  0.14272430  1
  O2-  O128  1  0.12470227  0.12414310  0.00858712  1
  O2-  O129  1  0.12476931  0.12693382  0.51783906  1
  O2-  O130  1  0.12480114  0.37491779  0.00036071  1
  O2-  O131  1  0.12638093  0.37482297  0.51991066  1
  O2-  O132  1  0.12359327  0.62577746  0.00651480  1
  O2-  O133  1  0.12568633  0.62384652  0.49678531  1
  O2-  O134  1  0.12376873  0.87499959  -0.00249590  1
  O2-  O135  1  0.12602051  0.87390825  0.50748041  1
  O2-  O136  1  0.37558323  0.12425380  0.00761642  1
  O2-  O137  1  0.37644989  0.12619847  0.49702577  1
  O2-  O138  1  0.37408712  0.37388144  0.00686685  1
  O2-  O139  1  0.37592665  0.37591887  0.50813741  1
  O2-  O140  1  0.37551410  0.62576441  0.00646255  1
  O2-  O141  1  0.37793588  0.62424271  0.49580682  1
  O2-  O142  1  0.37248038  0.87629399  0.01690894  1
  O2-  O143  1  0.37643797  0.87337917  0.50724676  1
  O2-  O144  1  0.62568964  0.12562250  -0.00381105  1
  O2-  O145  1  0.62461403  0.12648745  0.50663092  1
  O2-  O146  1  0.62613551  0.37360571  -0.00185869  1
  O2-  O147  1  0.62332372  0.37781483  0.49428292  1
  O2-  O148  1  0.62688111  0.62520343  0.00451935  1
  O2-  O149  1  0.62396306  0.62353901  0.49385008  1
  O2-  O150  1  0.62537868  0.87538158  0.00624456  1
  O2-  O151  1  0.62340076  0.87224454  0.49651896  1
  O2-  O152  1  0.87432827  0.12355858  0.00818521  1
  O2-  O153  1  0.87490931  0.12599078  0.50727650  1
  O2-  O154  1  0.87642187  0.37376306  0.01668601  1
  O2-  O155  1  0.87333073  0.37750572  0.49783601  1
  O2-  O156  1  0.87520735  0.62628273  -0.00265759  1
  O2-  O157  1  0.87289592  0.62403620  0.50576168  1
  O2-  O158  1  0.87690716  0.87559129  0.00664212  1
  O2-  O159  1  0.87345415  0.87423889  0.50657421  1
  O2-  O160  1  0.12425650  -0.00094589  0.16951794  1
  O2-  O161  1  0.12361040  -0.00091944  0.66332967  1
  O2-  O162  1  0.12520960  0.25077494  0.16655195  1
  O2-  O163  1  0.12485077  0.24922156  0.67084776  1
  O2-  O164  1  0.12455309  0.49916299  0.16339841  1
  O2-  O165  1  0.12389077  0.50008006  0.66713318  1
  O2-  O166  1  0.12429636  0.75092257  0.16667681  1
  O2-  O167  1  0.12464495  0.75111742  0.66176475  1
  O2-  O168  1  0.37440067  -0.00104684  0.16968368  1
  O2-  O169  1  0.37447088  -0.00173141  0.66210503  1
  O2-  O170  1  0.37506034  0.25193054  0.16337602  1
  O2-  O171  1  0.37389421  0.24800019  0.66658244  1
  O2-  O172  1  0.37485195  0.49718769  0.16054945  1
  O2-  O173  1  0.37523814  0.50199003  0.66748823  1
  O2-  O174  1  0.37451962  0.75188897  0.16613574  1
  O2-  O175  1  0.37469428  0.75144712  0.66383778  1
  O2-  O176  1  0.62573169  0.00218751  0.16551516  1
  O2-  O177  1  0.62526154  -0.00021267  0.66443707  1
  O2-  O178  1  0.62522077  0.24860780  0.16357826  1
  O2-  O179  1  0.62535550  0.25098992  0.66391275  1
  O2-  O180  1  0.62607177  0.50189988  0.15785722  1
  O2-  O181  1  0.62514748  0.49930925  0.66702816  1
  O2-  O182  1  0.62610339  0.74728328  0.16140958  1
  O2-  O183  1  0.62611400  0.75006199  0.66562981  1
  O2-  O184  1  0.87597949  -0.00255125  0.16855696  1
  O2-  O185  1  0.87633418  -0.00009832  0.66100299  1
  O2-  O186  1  0.87502950  0.25107869  0.16911338  1
  O2-  O187  1  0.87533777  0.24803418  0.66383697  1
  O2-  O188  1  0.87501566  0.49911016  0.16428251  1
  O2-  O189  1  0.87506280  0.50151924  0.66297103  1
  O2-  O190  1  0.87555205  0.75206483  0.16453353  1
  O2-  O191  1  0.87411889  0.75065405  0.66006305  1
  O2-  O192  1  0.00087309  0.12450087  0.16834886  1
  O2-  O193  1  -0.00103448  0.12457125  0.66612597  1
  O2-  O194  1  -0.00003991  0.37503760  0.16744129  1
  O2-  O195  1  0.00114785  0.37484618  0.66744530  1
  O2-  O196  1  -0.00095482  0.62558229  0.16801742  1
  O2-  O197  1  -0.00261056  0.62629544  0.66074831  1
  O2-  O198  1  -0.00103183  0.87458403  0.16768540  1
  O2-  O199  1  -0.00008118  0.87376224  0.66012722  1
  O2-  O200  1  0.24969650  0.12478932  0.16662041  1
  O2-  O201  1  0.24900980  0.12343273  0.66757444  1
  O2-  O202  1  0.25143490  0.37462266  0.16420177  1
  O2-  O203  1  0.24826358  0.37588214  0.67022953  1
  O2-  O204  1  0.25019768  0.62512417  0.16479574  1
  O2-  O205  1  0.25001428  0.62524781  0.66510254  1
  O2-  O206  1  0.25000813  0.87531890  0.17014305  1
  O2-  O207  1  0.24971379  0.87477976  0.66109974  1
  O2-  O208  1  0.50183064  0.12468916  0.16224751  1
  O2-  O209  1  0.49806984  0.12487367  0.66429059  1
  O2-  O210  1  0.49872051  0.37481087  0.15903341  1
  O2-  O211  1  0.50029727  0.37493204  0.66710600  1
  O2-  O212  1  0.50278751  0.62498955  0.15904003  1
  O2-  O213  1  0.50079304  0.62552068  0.66702962  1
  O2-  O214  1  0.49819602  0.87550113  0.16479008  1
  O2-  O215  1  0.49820344  0.87443440  0.66415028  1
  O2-  O216  1  0.74797903  0.12430397  0.16494144  1
  O2-  O217  1  0.75353624  0.12430206  0.66280127  1
  O2-  O218  1  0.75047680  0.37474762  0.16368765  1
  O2-  O219  1  0.74992063  0.37538906  0.66414399  1
  O2-  O220  1  0.74841379  0.62576421  0.16243117  1
  O2-  O221  1  0.75173965  0.62509777  0.66316350  1
  O2-  O222  1  0.75291814  0.87522484  0.16281484  1
  O2-  O223  1  0.75189979  0.87551612  0.66346424  1
  O2-  O224  1  0.12473058  -0.00255989  0.35380436  1
  O2-  O225  1  0.12465334  -0.00130531  0.84549272  1
  O2-  O226  1  0.12501608  0.25115143  0.35092318  1
  O2-  O227  1  0.12415618  0.25159033  0.85028414  1
  O2-  O228  1  0.12457274  0.50136569  0.34564064  1
  O2-  O229  1  0.12430704  0.49786463  0.84886021  1
  O2-  O230  1  0.12421726  0.75019220  0.34910387  1
  O2-  O231  1  0.12416334  0.75160080  0.84501970  1
  O2-  O232  1  0.37395272  -0.00205248  0.35200128  1
  O2-  O233  1  0.37489948  -0.00068541  0.84704997  1
  O2-  O234  1  0.37469656  0.24912161  0.34665892  1
  O2-  O235  1  0.37563123  0.25312839  0.84939614  1
  O2-  O236  1  0.37537977  0.50214438  0.34284987  1
  O2-  O237  1  0.37496042  0.49641129  0.85100382  1
  O2-  O238  1  0.37521793  0.75073100  0.34722286  1
  O2-  O239  1  0.37516399  0.75098859  0.84875518  1
  O2-  O240  1  0.62571526  -0.00253013  0.34816028  1
  O2-  O241  1  0.62506818  0.00171462  0.84686960  1
  O2-  O242  1  0.62538443  0.25200971  0.34598317  1
  O2-  O243  1  0.62512283  0.25057345  0.84485387  1
  O2-  O244  1  0.62566163  0.50096306  0.33851738  1
  O2-  O245  1  0.62654221  0.50029381  0.85022095  1
  O2-  O246  1  0.62585348  0.74997879  0.34187493  1
  O2-  O247  1  0.62531305  0.74745478  0.85031497  1
  O2-  O248  1  0.87600065  -0.00059694  0.35413721  1
  O2-  O249  1  0.87512618  -0.00318044  0.84624543  1
  O2-  O250  1  0.87552252  0.24940479  0.35149246  1
  O2-  O251  1  0.87457978  0.25047230  0.84866675  1
  O2-  O252  1  0.87438739  0.50185335  0.34650750  1
  O2-  O253  1  0.87398412  0.50098818  0.84760867  1
  O2-  O254  1  0.87524130  0.74995774  0.35034215  1
  O2-  O255  1  0.87515152  0.75174913  0.84505301  1
  O2-  O256  1  -0.00125039  0.12448887  0.35270537  1
  O2-  O257  1  -0.00022856  0.12439050  0.84899229  1
  O2-  O258  1  -0.00085732  0.37586404  0.35029266  1
  O2-  O259  1  -0.00005649  0.37526884  0.84964187  1
  O2-  O260  1  -0.00165683  0.62576510  0.35149345  1
  O2-  O261  1  -0.00234476  0.62541999  0.84381841  1
  O2-  O262  1  -0.00001181  0.87424034  0.35427364  1
  O2-  O263  1  -0.00124928  0.87488612  0.84409743  1
  O2-  O264  1  0.25044610  0.12482477  0.34957967  1
  O2-  O265  1  0.25012482  0.12489949  0.85052302  1
  O2-  O266  1  0.24897097  0.37583916  0.34884977  1
  O2-  O267  1  0.25088754  0.37457670  0.85088214  1
  O2-  O268  1  0.25047852  0.62549164  0.34646928  1
  O2-  O269  1  0.24981960  0.62524926  0.84996096  1
  O2-  O270  1  0.25040861  0.87385395  0.35394749  1
  O2-  O271  1  0.24925549  0.87480036  0.84562183  1
  O2-  O272  1  0.49835652  0.12417450  0.34399064  1
  O2-  O273  1  0.50179138  0.12503759  0.84700984  1
  O2-  O274  1  0.50161371  0.37605306  0.34097176  1
  O2-  O275  1  0.49932603  0.37591193  0.85034802  1
  O2-  O276  1  0.50048782  0.62577698  0.33923801  1
  O2-  O277  1  0.50307746  0.62431567  0.85145907  1
  O2-  O278  1  0.49844763  0.87420528  0.34567219  1
  O2-  O279  1  0.49788261  0.87498663  0.84943977  1
  O2-  O280  1  0.75303080  0.12409511  0.34850820  1
  O2-  O281  1  0.74802453  0.12482933  0.84529813  1
  O2-  O282  1  0.75005373  0.37587857  0.34365564  1
  O2-  O283  1  0.74969263  0.37480115  0.84821644  1
  O2-  O284  1  0.75097990  0.62617007  0.34530581  1
  O2-  O285  1  0.74930670  0.62586534  0.84644502  1
  O2-  O286  1  0.75145096  0.87436144  0.34708469  1
  O2-  O287  1  0.75328814  0.87438657  0.84858120  1
