# generated using pymatgen
data_BaYFeCuO5
_symmetry_space_group_name_H-M   'P 1'
_cell_length_a   15.64917796
_cell_length_b   15.65234315
_cell_length_c   15.44157144
_cell_angle_alpha   89.99919214
_cell_angle_beta   89.99284110
_cell_angle_gamma   90.00125131
_symmetry_Int_Tables_number   1
_chemical_formula_structural   BaYFeCuO5
_chemical_formula_sum   'Ba32 Y32 Fe32 Cu32 O160'
_cell_volume   3782.35580992
_cell_formula_units_Z   32
loop_
 _symmetry_equiv_pos_site_id
 _symmetry_equiv_pos_as_xyz
  1  'x, y, z'
loop_
 _atom_type_symbol
 _atom_type_oxidation_number
  Ba2+  2.0
  Y3+  3.0
  Fe3+  3.0
  Cu2+  2.0
  O2-  -2.0
loop_
 _atom_site_type_symbol
 _atom_site_label
 _atom_site_symmetry_multiplicity
 _atom_site_fract_x
 _atom_site_fract_y
 _atom_site_fract_z
 _atom_site_occupancy
  Ba2+  Ba0  1  -0.00738420  0.00576501  0.00716026  1
  Ba2+  Ba1  1  0.00083144  -0.00254778  0.51166331  1
  Ba2+  Ba2  1  0.00300485  0.24205100  0.00748338  1
  Ba2+  Ba3  1  -0.00739046  0.24705989  0.50679534  1
  Ba2+  Ba4  1  0.00069927  0.49644827  0.00187139  1
  Ba2+  Ba5  1  -0.01107355  0.49817603  0.51156522  1
  Ba2+  Ba6  1  -0.01166575  0.75357796  0.00221972  1
  Ba2+  Ba7  1  -0.00275048  0.75709643  0.51672272  1
  Ba2+  Ba8  1  0.24672643  0.00363476  0.01201413  1
  Ba2+  Ba9  1  0.24584390  -0.00850390  0.50147292  1
  Ba2+  Ba10  1  0.23702907  0.24859385  0.00724662  1
  Ba2+  Ba11  1  0.24858288  0.24815650  0.50644181  1
  Ba2+  Ba12  1  0.24403209  0.49324320  0.00756425  1
  Ba2+  Ba13  1  0.25875301  0.50110298  0.51927863  1
  Ba2+  Ba14  1  0.25504512  0.75530308  0.01229952  1
  Ba2+  Ba15  1  0.25477462  0.75860278  0.51100525  1
  Ba2+  Ba16  1  0.50738206  -0.00528673  0.01595629  1
  Ba2+  Ba17  1  0.50430047  -0.00919591  0.50932270  1
  Ba2+  Ba18  1  0.51087863  0.25122629  0.01100498  1
  Ba2+  Ba19  1  0.50132022  0.24864398  0.51616157  1
  Ba2+  Ba20  1  0.51027261  0.49845096  0.01060656  1
  Ba2+  Ba21  1  0.49841526  0.50683733  0.52248854  1
  Ba2+  Ba22  1  0.50808186  0.75554865  0.01559381  1
  Ba2+  Ba23  1  0.50088604  0.75463479  0.51500134  1
  Ba2+  Ba24  1  0.75262122  -0.00209745  0.01088483  1
  Ba2+  Ba25  1  0.74889999  -0.00182536  0.52149765  1
  Ba2+  Ba26  1  0.74843072  0.24375471  0.01232239  1
  Ba2+  Ba27  1  0.75621591  0.24696605  0.51724450  1
  Ba2+  Ba28  1  0.74502273  0.50248719  0.00708497  1
  Ba2+  Ba29  1  0.75469687  0.50319290  0.51752081  1
  Ba2+  Ba30  1  0.74929743  0.75646016  0.00572644  1
  Ba2+  Ba31  1  0.74739410  0.75209009  0.52101344  1
  Y3+  Y32  1  0.00035909  0.00132123  0.25566446  1
  Y3+  Y33  1  -0.00257772  0.00040707  0.75999401  1
  Y3+  Y34  1  0.00014127  0.24795545  0.25609118  1
  Y3+  Y35  1  -0.00152141  0.24819242  0.76062144  1
  Y3+  Y36  1  -0.00103686  0.49730089  0.25840853  1
  Y3+  Y37  1  -0.00248100  0.49924137  0.75817835  1
  Y3+  Y38  1  -0.00072799  0.75278713  0.25739150  1
  Y3+  Y39  1  -0.00344558  0.75258189  0.75756296  1
  Y3+  Y40  1  0.24834776  -0.00125538  0.25927310  1
  Y3+  Y41  1  0.24852285  -0.00090465  0.75608527  1
  Y3+  Y42  1  0.24609481  0.24826333  0.25582274  1
  Y3+  Y43  1  0.24794538  0.24972722  0.76006382  1
  Y3+  Y44  1  0.24807683  0.49892132  0.25530621  1
  Y3+  Y45  1  0.24987669  0.49893061  0.75950505  1
  Y3+  Y46  1  0.25060417  0.75372534  0.25990908  1
  Y3+  Y47  1  0.25074671  0.75275052  0.75395580  1
  Y3+  Y48  1  0.50171313  -0.00420114  0.25836836  1
  Y3+  Y49  1  0.50276661  -0.00233485  0.75409959  1
  Y3+  Y50  1  0.50288191  0.24963682  0.25518460  1
  Y3+  Y51  1  0.50136887  0.25024132  0.75731715  1
  Y3+  Y52  1  0.50384146  0.50012817  0.25373960  1
  Y3+  Y53  1  0.50089013  0.50008156  0.75814810  1
  Y3+  Y54  1  0.50226552  0.75446003  0.25809855  1
  Y3+  Y55  1  0.50181942  0.75251884  0.75396303  1
  Y3+  Y56  1  0.74967324  -0.00147205  0.25275096  1
  Y3+  Y57  1  0.75110131  -0.00153683  0.75986766  1
  Y3+  Y58  1  0.75139611  0.24951295  0.25550859  1
  Y3+  Y59  1  0.75172485  0.24855526  0.75828584  1
  Y3+  Y60  1  0.74969246  0.49838793  0.25644237  1
  Y3+  Y61  1  0.75149062  0.50071043  0.75807618  1
  Y3+  Y62  1  0.74784142  0.75286815  0.25357330  1
  Y3+  Y63  1  0.75052748  0.75264841  0.75903511  1
  Fe3+  Fe64  1  0.37576537  0.37404854  0.87982793  1
  Fe3+  Fe65  1  0.37622555  0.87583355  0.87753822  1
  Fe3+  Fe66  1  0.37646593  0.37568156  0.37610878  1
  Fe3+  Fe67  1  0.87413938  0.12357141  0.37576161  1
  Fe3+  Fe68  1  0.12479170  0.62662655  0.87927507  1
  Fe3+  Fe69  1  0.12483451  0.62547492  0.38112525  1
  Fe3+  Fe70  1  0.87367479  0.37404149  0.87947370  1
  Fe3+  Fe71  1  0.62612002  0.12426595  0.37777937  1
  Fe3+  Fe72  1  0.62550954  0.62579600  0.37716615  1
  Fe3+  Fe73  1  0.12479395  0.87562973  0.87955628  1
  Fe3+  Fe74  1  0.37555854  0.62596207  0.87956769  1
  Fe3+  Fe75  1  0.87338514  0.87543522  0.37634663  1
  Fe3+  Fe76  1  0.62498265  0.62646543  0.87508398  1
  Fe3+  Fe77  1  0.62600102  0.37519154  0.38067528  1
  Fe3+  Fe78  1  0.37598835  0.62481126  0.37433504  1
  Fe3+  Fe79  1  0.37558018  0.12456846  0.37852972  1
  Fe3+  Fe80  1  0.37564748  0.12426046  0.88015297  1
  Fe3+  Fe81  1  0.87388033  0.62621593  0.37665762  1
  Fe3+  Fe82  1  0.62475841  0.12376554  0.87532697  1
  Fe3+  Fe83  1  0.12453685  0.37552652  0.38077933  1
  Fe3+  Fe84  1  0.12443516  0.62574817  0.63573082  1
  Fe3+  Fe85  1  0.12399219  0.37464258  0.63618294  1
  Fe3+  Fe86  1  0.37559754  0.12453404  0.13497404  1
  Fe3+  Fe87  1  0.12419772  0.12454821  0.63784698  1
  Fe3+  Fe88  1  0.37455100  0.12383725  0.63500520  1
  Fe3+  Fe89  1  0.87472388  0.62511713  0.13571677  1
  Fe3+  Fe90  1  0.37478255  0.37381515  0.13362666  1
  Fe3+  Fe91  1  0.12400312  0.62562023  0.13422380  1
  Fe3+  Fe92  1  0.12390057  0.87509898  0.13485592  1
  Fe3+  Fe93  1  0.62603185  0.37512859  0.63639247  1
  Fe3+  Fe94  1  0.37583892  0.62528679  0.13309930  1
  Fe3+  Fe95  1  0.87545775  0.37432781  0.13504382  1
  Cu2+  Cu96  1  0.12434426  0.12486256  0.36680396  1
  Cu2+  Cu97  1  0.62717023  0.87489505  0.37199121  1
  Cu2+  Cu98  1  0.87393619  0.12508826  0.87242858  1
  Cu2+  Cu99  1  0.87383386  0.37444099  0.37273681  1
  Cu2+  Cu100  1  0.12494066  0.12379269  0.87181422  1
  Cu2+  Cu101  1  0.12303841  0.87419986  0.37178610  1
  Cu2+  Cu102  1  0.12385521  0.37459983  0.87158652  1
  Cu2+  Cu103  1  0.87403129  0.87600866  0.87209567  1
  Cu2+  Cu104  1  0.62440066  0.87545581  0.87045483  1
  Cu2+  Cu105  1  0.87450595  0.62507174  0.86632165  1
  Cu2+  Cu106  1  0.37598986  0.87496689  0.37121717  1
  Cu2+  Cu107  1  0.62581107  0.37460827  0.87081415  1
  Cu2+  Cu108  1  0.62609120  0.87521459  0.14237339  1
  Cu2+  Cu109  1  0.62472211  0.12419556  0.15128321  1
  Cu2+  Cu110  1  0.37442921  0.37376224  0.65278036  1
  Cu2+  Cu111  1  0.87557534  0.37426444  0.64408177  1
  Cu2+  Cu112  1  0.12471702  0.12396933  0.14404341  1
  Cu2+  Cu113  1  0.87549106  0.12430603  0.65309486  1
  Cu2+  Cu114  1  0.87502761  0.87583495  0.65270950  1
  Cu2+  Cu115  1  0.62539931  0.12508798  0.64894287  1
  Cu2+  Cu116  1  0.12346613  0.37468349  0.14230022  1
  Cu2+  Cu117  1  0.37444818  0.62580700  0.65503983  1
  Cu2+  Cu118  1  0.87543253  0.62605010  0.65346059  1
  Cu2+  Cu119  1  0.37468467  0.87538277  0.14966432  1
  Cu2+  Cu120  1  0.62550359  0.62511642  0.65231889  1
  Cu2+  Cu121  1  0.12431241  0.87580030  0.64397490  1
  Cu2+  Cu122  1  0.62580315  0.87519362  0.64339762  1
  Cu2+  Cu123  1  0.87572095  0.87510601  0.14164427  1
  Cu2+  Cu124  1  0.62680156  0.37475393  0.14101412  1
  Cu2+  Cu125  1  0.37482306  0.87666265  0.64293052  1
  Cu2+  Cu126  1  0.87496170  0.12475871  0.14166430  1
  Cu2+  Cu127  1  0.62571992  0.62551067  0.14900351  1
  O2-  O128  1  0.12558511  0.12302970  0.00769899  1
  O2-  O129  1  0.12547395  0.12565881  0.51714990  1
  O2-  O130  1  0.12437987  0.37578356  0.00732948  1
  O2-  O131  1  0.12560193  0.37617389  0.50841141  1
  O2-  O132  1  0.12470426  0.62621794  0.00721316  1
  O2-  O133  1  0.12596662  0.62435615  0.50764753  1
  O2-  O134  1  0.12515698  0.87434439  0.00693843  1
  O2-  O135  1  0.12390880  0.87347089  0.50755873  1
  O2-  O136  1  0.37615185  0.12559047  0.00698664  1
  O2-  O137  1  0.37470456  0.12495282  0.50660812  1
  O2-  O138  1  0.37482138  0.37319211  0.00654332  1
  O2-  O139  1  0.37720780  0.37704112  0.49641162  1
  O2-  O140  1  0.37538034  0.62562551  0.00544813  1
  O2-  O141  1  0.37537558  0.62337936  0.49465975  1
  O2-  O142  1  0.37600889  0.87523452  -0.00201307  1
  O2-  O143  1  0.37525757  0.87558171  0.50658357  1
  O2-  O144  1  0.62341466  0.12423604  -0.00359355  1
  O2-  O145  1  0.62563338  0.12641669  0.49809821  1
  O2-  O146  1  0.62606082  0.37501852  0.00643334  1
  O2-  O147  1  0.62453715  0.37593583  0.50711399  1
  O2-  O148  1  0.62413039  0.62561823  -0.00369453  1
  O2-  O149  1  0.62474356  0.62403995  0.49735437  1
  O2-  O150  1  0.62544267  0.87529354  0.00675988  1
  O2-  O151  1  0.62693020  0.87403312  0.50792985  1
  O2-  O152  1  0.87388619  0.12664647  0.00734504  1
  O2-  O153  1  0.87416524  0.12309553  0.49679347  1
  O2-  O154  1  0.87464646  0.37470508  0.00764922  1
  O2-  O155  1  0.87416885  0.37487584  0.50823669  1
  O2-  O156  1  0.87638959  0.62284795  0.01526497  1
  O2-  O157  1  0.87422024  0.62660183  0.49738451  1
  O2-  O158  1  0.87508233  0.87539829  0.00631223  1
  O2-  O159  1  0.87364092  0.87522989  0.49733665  1
  O2-  O160  1  0.12628239  -0.00314262  0.16383753  1
  O2-  O161  1  0.12478713  0.00205827  0.66818225  1
  O2-  O162  1  0.12515890  0.24930671  0.16716292  1
  O2-  O163  1  0.12552362  0.25107057  0.66525935  1
  O2-  O164  1  0.12540237  0.50350212  0.16459412  1
  O2-  O165  1  0.12567515  0.50012658  0.66422424  1
  O2-  O166  1  0.12615752  0.74954976  0.16271804  1
  O2-  O167  1  0.12494644  0.74743638  0.66543677  1
  O2-  O168  1  0.37484639  0.00158359  0.16275909  1
  O2-  O169  1  0.37471862  0.00350122  0.66617707  1
  O2-  O170  1  0.37557104  0.24965786  0.16328293  1
  O2-  O171  1  0.37419474  0.24777394  0.66419533  1
  O2-  O172  1  0.37391968  0.49999055  0.15719944  1
  O2-  O173  1  0.37358751  0.49955552  0.66740579  1
  O2-  O174  1  0.37443288  0.74794815  0.16093718  1
  O2-  O175  1  0.37393551  0.74969524  0.66572756  1
  O2-  O176  1  0.62406236  0.00088031  0.16497754  1
  O2-  O177  1  0.62481762  0.00155407  0.66443823  1
  O2-  O178  1  0.62448653  0.24846885  0.16599306  1
  O2-  O179  1  0.62463451  0.25177797  0.66226611  1
  O2-  O180  1  0.62561364  0.50112172  0.16464749  1
  O2-  O181  1  0.62451130  0.49893318  0.66350982  1
  O2-  O182  1  0.62423356  0.74918560  0.16406381  1
  O2-  O183  1  0.62481773  0.74842548  0.66468112  1
  O2-  O184  1  0.87559350  -0.00027565  0.16260941  1
  O2-  O185  1  0.87543611  0.00007222  0.66572798  1
  O2-  O186  1  0.87531446  0.25199709  0.16379363  1
  O2-  O187  1  0.87536516  0.24839039  0.66682843  1
  O2-  O188  1  0.87581755  0.49930792  0.16519378  1
  O2-  O189  1  0.87585863  0.50135481  0.66720119  1
  O2-  O190  1  0.87602361  0.74823121  0.16381385  1
  O2-  O191  1  0.87601640  0.75071132  0.66497525  1
  O2-  O192  1  0.00029586  0.12502864  0.16616105  1
  O2-  O193  1  0.00039371  0.12556334  0.66717275  1
  O2-  O194  1  -0.00305708  0.37565408  0.16776684  1
  O2-  O195  1  0.00318824  0.37570981  0.66585100  1
  O2-  O196  1  0.00127690  0.62496544  0.16713845  1
  O2-  O197  1  0.00188914  0.62451233  0.66489794  1
  O2-  O198  1  0.00300152  0.87379907  0.16434756  1
  O2-  O199  1  -0.00138728  0.87507271  0.66706219  1
  O2-  O200  1  0.25320106  0.12530658  0.16525085  1
  O2-  O201  1  0.25029477  0.12588472  0.66728734  1
  O2-  O202  1  0.25309554  0.37474186  0.16506229  1
  O2-  O203  1  0.24736781  0.37547396  0.66528049  1
  O2-  O204  1  0.25005821  0.62452246  0.16097768  1
  O2-  O205  1  0.24792412  0.62406103  0.66633274  1
  O2-  O206  1  0.24830557  0.87408444  0.16375880  1
  O2-  O207  1  0.24978688  0.87556330  0.66700295  1
  O2-  O208  1  0.49865623  0.12539420  0.16339859  1
  O2-  O209  1  0.49844461  0.12669539  0.66209404  1
  O2-  O210  1  0.49691520  0.37516704  0.16219254  1
  O2-  O211  1  0.50157073  0.37500417  0.66424054  1
  O2-  O212  1  0.49868578  0.62347847  0.15949029  1
  O2-  O213  1  0.49914217  0.62400209  0.66427271  1
  O2-  O214  1  0.49897513  0.87506633  0.16533311  1
  O2-  O215  1  0.50007938  0.87523661  0.66319096  1
  O2-  O216  1  0.74800414  0.12549532  0.16248103  1
  O2-  O217  1  0.75071386  0.12568729  0.66347669  1
  O2-  O218  1  0.75354185  0.37506565  0.16479563  1
  O2-  O219  1  0.74768789  0.37540879  0.66411949  1
  O2-  O220  1  0.75056924  0.62409688  0.16309098  1
  O2-  O221  1  0.75089854  0.62455775  0.66449021  1
  O2-  O222  1  0.75064311  0.87492070  0.16223322  1
  O2-  O223  1  0.75151268  0.87500289  0.66668577  1
  O2-  O224  1  0.12529573  0.00076242  0.34809415  1
  O2-  O225  1  0.12645274  -0.00324636  0.85069334  1
  O2-  O226  1  0.12601028  0.25236187  0.35209578  1
  O2-  O227  1  0.12533044  0.24967449  0.84813402  1
  O2-  O228  1  0.12548933  0.50006094  0.34922971  1
  O2-  O229  1  0.12540009  0.50340906  0.84992100  1
  O2-  O230  1  0.12535480  0.74612482  0.34709978  1
  O2-  O231  1  0.12627048  0.75045481  0.85077778  1
  O2-  O232  1  0.37476037  0.00324652  0.34831195  1
  O2-  O233  1  0.37397916  0.00090924  0.84903394  1
  O2-  O234  1  0.37438929  0.24987035  0.34759710  1
  O2-  O235  1  0.37540967  0.24985430  0.85002483  1
  O2-  O236  1  0.37498716  0.49925958  0.33911910  1
  O2-  O237  1  0.37407763  0.50037622  0.85304905  1
  O2-  O238  1  0.37443052  0.74762597  0.34439575  1
  O2-  O239  1  0.37370567  0.74900586  0.84936982  1
  O2-  O240  1  0.62449415  0.00144965  0.34771812  1
  O2-  O241  1  0.62362105  0.00116938  0.84629509  1
  O2-  O242  1  0.62426326  0.25115399  0.34906058  1
  O2-  O243  1  0.62337312  0.24814066  0.84542787  1
  O2-  O244  1  0.62440792  0.49869543  0.34735266  1
  O2-  O245  1  0.62417317  0.50207510  0.84676935  1
  O2-  O246  1  0.62528905  0.74864919  0.34658650  1
  O2-  O247  1  0.62400107  0.74910461  0.84696192  1
  O2-  O248  1  0.87542924  0.00014290  0.34378847  1
  O2-  O249  1  0.87496837  0.00057087  0.84976984  1
  O2-  O250  1  0.87531493  0.24790470  0.34704493  1
  O2-  O251  1  0.87478001  0.25208964  0.85065541  1
  O2-  O252  1  0.87559886  0.50194089  0.34697403  1
  O2-  O253  1  0.87550587  0.49845518  0.85148379  1
  O2-  O254  1  0.87548047  0.74953769  0.34362054  1
  O2-  O255  1  0.87525606  0.74927415  0.84965189  1
  O2-  O256  1  -0.00039209  0.12522752  0.34898710  1
  O2-  O257  1  -0.00009896  0.12493663  0.85045281  1
  O2-  O258  1  0.00297197  0.37571337  0.35210570  1
  O2-  O259  1  -0.00339846  0.37594975  0.84968492  1
  O2-  O260  1  0.00134539  0.62397545  0.35005057  1
  O2-  O261  1  0.00192924  0.62559193  0.85075934  1
  O2-  O262  1  -0.00268747  0.87433163  0.34646704  1
  O2-  O263  1  0.00271695  0.87410421  0.85112397  1
  O2-  O264  1  0.25116400  0.12594377  0.35063236  1
  O2-  O265  1  0.25339765  0.12595620  0.85073449  1
  O2-  O266  1  0.24899262  0.37561953  0.34885347  1
  O2-  O267  1  0.25319897  0.37518328  0.85008945  1
  O2-  O268  1  0.24879012  0.62354388  0.34557961  1
  O2-  O269  1  0.25044603  0.62476684  0.85171839  1
  O2-  O270  1  0.24974795  0.87471446  0.34851083  1
  O2-  O271  1  0.24975193  0.87426397  0.84943785  1
  O2-  O272  1  0.49943198  0.12650724  0.34750320  1
  O2-  O273  1  0.49789969  0.12522365  0.84587268  1
  O2-  O274  1  0.50180145  0.37458947  0.34501328  1
  O2-  O275  1  0.49687417  0.37544176  0.84896384  1
  O2-  O276  1  0.50071764  0.62396220  0.34185244  1
  O2-  O277  1  0.49777397  0.62456579  0.84757673  1
  O2-  O278  1  0.50095496  0.87486110  0.34949125  1
  O2-  O279  1  0.49782254  0.87505896  0.84502528  1
  O2-  O280  1  0.74975116  0.12558715  0.34380348  1
  O2-  O281  1  0.74800165  0.12560890  0.84695322  1
  O2-  O282  1  0.74660828  0.37493771  0.34808947  1
  O2-  O283  1  0.75247800  0.37551226  0.84780472  1
  O2-  O284  1  0.74959536  0.62399303  0.34387189  1
  O2-  O285  1  0.74945937  0.62459870  0.84845052  1
  O2-  O286  1  0.75200518  0.87491005  0.34350851  1
  O2-  O287  1  0.74921848  0.87498946  0.85019903  1
