# generated using pymatgen
data_BaYFeCuO5
_symmetry_space_group_name_H-M   'P 1'
_cell_length_a   15.66643755
_cell_length_b   15.66477181
_cell_length_c   15.46761041
_cell_angle_alpha   89.99660762
_cell_angle_beta   89.99407827
_cell_angle_gamma   90.00060956
_symmetry_Int_Tables_number   1
_chemical_formula_structural   BaYFeCuO5
_chemical_formula_sum   'Ba32 Y32 Fe32 Cu32 O160'
_cell_volume   3795.92432911
_cell_formula_units_Z   32
loop_
 _symmetry_equiv_pos_site_id
 _symmetry_equiv_pos_as_xyz
  1  'x, y, z'
loop_
 _atom_type_symbol
 _atom_type_oxidation_number
  Ba2+  2.0
  Y3+  3.0
  Fe3+  3.0
  Cu2+  2.0
  O2-  -2.0
loop_
 _atom_site_type_symbol
 _atom_site_label
 _atom_site_symmetry_multiplicity
 _atom_site_fract_x
 _atom_site_fract_y
 _atom_site_fract_z
 _atom_site_occupancy
  Ba2+  Ba0  1  -0.00418340  0.00389053  0.02175562  1
  Ba2+  Ba1  1  0.00019449  -0.01045723  0.51610852  1
  Ba2+  Ba2  1  0.00389083  0.24651422  0.02539782  1
  Ba2+  Ba3  1  0.00045940  0.24875347  0.50609262  1
  Ba2+  Ba4  1  0.00619140  0.50535001  0.01751852  1
  Ba2+  Ba5  1  -0.00723810  0.50827704  0.50588236  1
  Ba2+  Ba6  1  -0.00120333  0.74437340  0.01665336  1
  Ba2+  Ba7  1  -0.00779198  0.75210523  0.51666001  1
  Ba2+  Ba8  1  0.25877870  0.00246877  0.00978341  1
  Ba2+  Ba9  1  0.25956134  -0.00149030  0.51862016  1
  Ba2+  Ba10  1  0.24836316  0.24411706  0.01836005  1
  Ba2+  Ba11  1  0.26357307  0.24866018  0.50702043  1
  Ba2+  Ba12  1  0.24716090  0.50808255  0.01122478  1
  Ba2+  Ba13  1  0.25843618  0.49384097  0.50681308  1
  Ba2+  Ba14  1  0.25585785  0.74483213  0.00598142  1
  Ba2+  Ba15  1  0.25106538  0.75974748  0.51991268  1
  Ba2+  Ba16  1  0.49854299  0.00201329  0.01139029  1
  Ba2+  Ba17  1  0.49864485  0.00294356  0.49873612  1
  Ba2+  Ba18  1  0.50522738  0.24372298  0.00665971  1
  Ba2+  Ba19  1  0.49484656  0.24910025  0.50680582  1
  Ba2+  Ba20  1  0.50302662  0.50369583  0.00147421  1
  Ba2+  Ba21  1  0.50285600  0.49347326  0.51915860  1
  Ba2+  Ba22  1  0.49506660  0.75090112  0.00701451  1
  Ba2+  Ba23  1  0.50505215  0.75459808  0.51253642  1
  Ba2+  Ba24  1  0.74755596  0.00235560  0.02030382  1
  Ba2+  Ba25  1  0.74267862  -0.00542293  0.49983903  1
  Ba2+  Ba26  1  0.74159351  0.24598297  0.01118507  1
  Ba2+  Ba27  1  0.73828024  0.24979862  0.50702733  1
  Ba2+  Ba28  1  0.74360340  0.50076556  0.00619155  1
  Ba2+  Ba29  1  0.74574851  0.50776454  0.51760425  1
  Ba2+  Ba30  1  0.75060756  0.75108922  0.01745404  1
  Ba2+  Ba31  1  0.75076553  0.74816207  0.51292694  1
  Y3+  Y32  1  -0.00102176  -0.00043046  0.25632458  1
  Y3+  Y33  1  0.00037227  -0.00318385  0.75505642  1
  Y3+  Y34  1  0.00129049  0.25012364  0.25902494  1
  Y3+  Y35  1  -0.00023197  0.25059032  0.75353329  1
  Y3+  Y36  1  0.00026881  0.50334449  0.25758357  1
  Y3+  Y37  1  -0.00030675  0.50255956  0.75617145  1
  Y3+  Y38  1  -0.00185179  0.74772563  0.25649220  1
  Y3+  Y39  1  -0.00005787  0.74950340  0.75625420  1
  Y3+  Y40  1  0.25472328  0.00143278  0.25406420  1
  Y3+  Y41  1  0.25474571  -0.00079153  0.75979752  1
  Y3+  Y42  1  0.25419066  0.24926635  0.25892402  1
  Y3+  Y43  1  0.25530371  0.24882648  0.75589131  1
  Y3+  Y44  1  0.25102921  0.50084906  0.25539495  1
  Y3+  Y45  1  0.25188217  0.50098944  0.75941459  1
  Y3+  Y46  1  0.25186061  0.74913856  0.25126947  1
  Y3+  Y47  1  0.25126251  0.75054656  0.76299167  1
  Y3+  Y48  1  0.49984815  0.00158717  0.25328319  1
  Y3+  Y49  1  0.49693754  0.00218203  0.76279190  1
  Y3+  Y50  1  0.49920949  0.24797137  0.25619565  1
  Y3+  Y51  1  0.49973007  0.24969398  0.76000513  1
  Y3+  Y52  1  0.49859392  0.49871388  0.25506558  1
  Y3+  Y53  1  0.50173348  0.49873102  0.76066875  1
  Y3+  Y54  1  0.49928812  0.75210833  0.25272791  1
  Y3+  Y55  1  0.49905739  0.74912639  0.76280690  1
  Y3+  Y56  1  0.74618854  -0.00035774  0.25474145  1
  Y3+  Y57  1  0.74841138  0.00010238  0.75919565  1
  Y3+  Y58  1  0.74553968  0.24926329  0.25380018  1
  Y3+  Y59  1  0.74532980  0.25056736  0.76077840  1
  Y3+  Y60  1  0.74990856  0.50148230  0.25602402  1
  Y3+  Y61  1  0.74691114  0.50031653  0.75831773  1
  Y3+  Y62  1  0.75022552  0.75051796  0.25767146  1
  Y3+  Y63  1  0.74991782  0.74793058  0.75632200  1
  Fe3+  Fe64  1  0.12444916  0.37398722  0.87610320  1
  Fe3+  Fe65  1  0.12578021  0.37555977  0.37950735  1
  Fe3+  Fe66  1  0.12424927  0.87526413  0.87975346  1
  Fe3+  Fe67  1  0.87293347  0.37553593  0.37914746  1
  Fe3+  Fe68  1  0.87524556  0.87529623  0.87798270  1
  Fe3+  Fe69  1  0.87611001  0.37414900  0.88009032  1
  Fe3+  Fe70  1  0.12641336  0.87465085  0.37540308  1
  Fe3+  Fe71  1  0.87368469  0.12442419  0.37908478  1
  Fe3+  Fe72  1  0.62384851  0.37596215  0.37539373  1
  Fe3+  Fe73  1  0.12649184  0.62721554  0.38034799  1
  Fe3+  Fe74  1  0.37536830  0.87425416  0.37431601  1
  Fe3+  Fe75  1  0.87412507  0.87446790  0.37457549  1
  Fe3+  Fe76  1  0.62581524  0.87506165  0.87968142  1
  Fe3+  Fe77  1  0.12667022  0.12259964  0.37963937  1
  Fe3+  Fe78  1  0.12406737  0.12522322  0.87413028  1
  Fe3+  Fe79  1  0.87612481  0.12542621  0.87583529  1
  Fe3+  Fe80  1  0.37611454  0.62558840  0.38041466  1
  Fe3+  Fe81  1  0.37424261  0.37424722  0.88058174  1
  Fe3+  Fe82  1  0.87511089  0.62471882  0.87694148  1
  Fe3+  Fe83  1  0.62379226  0.62556736  0.37676230  1
  Fe3+  Fe84  1  0.37558717  0.37537249  0.13451926  1
  Fe3+  Fe85  1  0.87445885  0.37542062  0.13541118  1
  Fe3+  Fe86  1  0.62360907  0.87599110  0.64020095  1
  Fe3+  Fe87  1  0.87298371  0.12390439  0.63237886  1
  Fe3+  Fe88  1  0.12617190  0.62549932  0.63424729  1
  Fe3+  Fe89  1  0.12568656  0.37530158  0.63229504  1
  Fe3+  Fe90  1  0.87344387  0.37470943  0.63351848  1
  Fe3+  Fe91  1  0.12648950  0.12394500  0.63288107  1
  Fe3+  Fe92  1  0.37617351  0.62539691  0.63642161  1
  Fe3+  Fe93  1  0.62421046  0.62523684  0.13740894  1
  Fe3+  Fe94  1  0.62327494  0.12436309  0.63886571  1
  Fe3+  Fe95  1  0.12577359  0.87520712  0.13387985  1
  Cu2+  Cu96  1  0.62556923  0.12345549  0.87244467  1
  Cu2+  Cu97  1  0.37463224  0.12630912  0.87380744  1
  Cu2+  Cu98  1  0.12391150  0.62482609  0.87101383  1
  Cu2+  Cu99  1  0.62449241  0.12520458  0.36201771  1
  Cu2+  Cu100  1  0.62606613  0.62612515  0.86489654  1
  Cu2+  Cu101  1  0.37508994  0.62358515  0.87161280  1
  Cu2+  Cu102  1  0.62526439  0.37436144  0.87473239  1
  Cu2+  Cu103  1  0.62393813  0.87456194  0.36001645  1
  Cu2+  Cu104  1  0.87364604  0.62562430  0.37279651  1
  Cu2+  Cu105  1  0.37510166  0.87528204  0.87439361  1
  Cu2+  Cu106  1  0.37546666  0.12418012  0.37113630  1
  Cu2+  Cu107  1  0.37611465  0.37586130  0.36979012  1
  Cu2+  Cu108  1  0.62473998  0.37414546  0.65391806  1
  Cu2+  Cu109  1  0.12622062  0.87477315  0.65284378  1
  Cu2+  Cu110  1  0.62348574  0.62522033  0.65359211  1
  Cu2+  Cu111  1  0.62461797  0.87448450  0.14725926  1
  Cu2+  Cu112  1  0.87412882  0.62481469  0.64286641  1
  Cu2+  Cu113  1  0.87277921  0.87560256  0.65170058  1
  Cu2+  Cu114  1  0.37524701  0.87504107  0.14025749  1
  Cu2+  Cu115  1  0.87522705  0.87505573  0.15042225  1
  Cu2+  Cu116  1  0.37602940  0.62429062  0.14223754  1
  Cu2+  Cu117  1  0.87444157  0.12630486  0.15560891  1
  Cu2+  Cu118  1  0.12585990  0.37536093  0.15427320  1
  Cu2+  Cu119  1  0.87408217  0.62435763  0.15080414  1
  Cu2+  Cu120  1  0.37700813  0.12467705  0.64382014  1
  Cu2+  Cu121  1  0.62393046  0.37572862  0.14055489  1
  Cu2+  Cu122  1  0.37571193  0.37513930  0.64556264  1
  Cu2+  Cu123  1  0.62389310  0.12495941  0.14376857  1
  Cu2+  Cu124  1  0.37574059  0.12610139  0.14248705  1
  Cu2+  Cu125  1  0.37731995  0.87449525  0.65628874  1
  Cu2+  Cu126  1  0.12561769  0.62600874  0.14473128  1
  Cu2+  Cu127  1  0.12584763  0.12423451  0.15669894  1
  O2-  O128  1  0.12119570  0.12650011  -0.00606552  1
  O2-  O129  1  0.12678166  0.12143801  0.50559677  1
  O2-  O130  1  0.12206878  0.37277885  -0.00413043  1
  O2-  O131  1  0.12535574  0.37583516  0.50588679  1
  O2-  O132  1  0.12373010  0.62508114  0.00630896  1
  O2-  O133  1  0.12677262  0.62743006  0.50680603  1
  O2-  O134  1  0.12306253  0.87591421  0.00619301  1
  O2-  O135  1  0.12632973  0.87500902  0.49560862  1
  O2-  O136  1  0.37368276  0.12732174  0.00758395  1
  O2-  O137  1  0.37633766  0.12358165  0.50759792  1
  O2-  O138  1  0.37258037  0.37447469  0.00733998  1
  O2-  O139  1  0.37651223  0.37582431  0.50773488  1
  O2-  O140  1  0.37506338  0.62275304  0.00671572  1
  O2-  O141  1  0.37587255  0.62685383  0.50738951  1
  O2-  O142  1  0.37375797  0.87515526  0.00720062  1
  O2-  O143  1  0.37584224  0.87364875  0.49496704  1
  O2-  O144  1  0.62652355  0.12313411  0.00831371  1
  O2-  O145  1  0.62389595  0.12381609  0.51819986  1
  O2-  O146  1  0.62629845  0.37526410  0.00717325  1
  O2-  O147  1  0.62575083  0.37665454  0.49604438  1
  O2-  O148  1  0.62590288  0.62612705  0.01634449  1
  O2-  O149  1  0.62340524  0.62532345  0.49726604  1
  O2-  O150  1  0.62809278  0.87470806  0.00019426  1
  O2-  O151  1  0.62323097  0.87631698  0.51940112  1
  O2-  O152  1  0.87883719  0.12716035  -0.00449330  1
  O2-  O153  1  0.87262591  0.12333592  0.50558309  1
  O2-  O154  1  0.87788025  0.37319705  0.00606777  1
  O2-  O155  1  0.87265107  0.37527240  0.50604123  1
  O2-  O156  1  0.87633170  0.62350002  -0.00268854  1
  O2-  O157  1  0.87388175  0.62631243  0.50719493  1
  O2-  O158  1  0.87681814  0.87614804  -0.00233372  1
  O2-  O159  1  0.87361097  0.87520490  0.49540580  1
  O2-  O160  1  0.12384842  -0.00118825  0.16263782  1
  O2-  O161  1  0.12499580  0.00093585  0.66285703  1
  O2-  O162  1  0.12474546  0.24914498  0.16985066  1
  O2-  O163  1  0.12261245  0.24954906  0.65583649  1
  O2-  O164  1  0.12458227  0.50013747  0.16906281  1
  O2-  O165  1  0.12473789  0.50033075  0.65945863  1
  O2-  O166  1  0.12401629  0.75290072  0.16341976  1
  O2-  O167  1  0.12573424  0.74879191  0.66383418  1
  O2-  O168  1  0.37495410  0.00085473  0.16345082  1
  O2-  O169  1  0.37507099  -0.00168848  0.66747467  1
  O2-  O170  1  0.37381816  0.25297255  0.16590538  1
  O2-  O171  1  0.37563987  0.25052450  0.66550514  1
  O2-  O172  1  0.37373841  0.49728834  0.16618866  1
  O2-  O173  1  0.37410882  0.50277840  0.66400653  1
  O2-  O174  1  0.37477617  0.74964753  0.16375015  1
  O2-  O175  1  0.37527212  0.74795995  0.66516031  1
  O2-  O176  1  0.62525976  -0.00134195  0.16485883  1
  O2-  O177  1  0.62565707  0.00062509  0.66991413  1
  O2-  O178  1  0.62478646  0.25038686  0.16529143  1
  O2-  O179  1  0.62530000  0.24932763  0.66686715  1
  O2-  O180  1  0.62571549  0.50188767  0.16576577  1
  O2-  O181  1  0.62536005  0.49924773  0.66520600  1
  O2-  O182  1  0.62594313  0.74948061  0.16562435  1
  O2-  O183  1  0.62475748  0.75040684  0.66595283  1
  O2-  O184  1  0.87565319  0.00152201  0.16423644  1
  O2-  O185  1  0.87492871  0.00217565  0.66224931  1
  O2-  O186  1  0.87651804  0.25221735  0.16856641  1
  O2-  O187  1  0.87701457  0.24941418  0.65868751  1
  O2-  O188  1  0.87640926  0.49792570  0.16523034  1
  O2-  O189  1  0.87517160  0.49636251  0.66358957  1
  O2-  O190  1  0.87564438  0.74944714  0.16273491  1
  O2-  O191  1  0.87460525  0.75133248  0.66423665  1
  O2-  O192  1  0.00035195  0.12602425  0.16936917  1
  O2-  O193  1  -0.00031032  0.12432869  0.65419950  1
  O2-  O194  1  -0.00073821  0.37473425  0.16685105  1
  O2-  O195  1  0.00029080  0.37488365  0.65828423  1
  O2-  O196  1  -0.00150211  0.62449682  0.16706877  1
  O2-  O197  1  0.00330534  0.62512472  0.66054564  1
  O2-  O198  1  0.00133043  0.87587821  0.16375431  1
  O2-  O199  1  -0.00115422  0.87498541  0.66091962  1
  O2-  O200  1  0.24929840  0.12568305  0.16602964  1
  O2-  O201  1  0.24782985  0.12534089  0.66244471  1
  O2-  O202  1  0.25096341  0.37507631  0.16467679  1
  O2-  O203  1  0.24597836  0.37471255  0.66415620  1
  O2-  O204  1  0.25036648  0.62463591  0.16709853  1
  O2-  O205  1  0.25010580  0.62534783  0.66236330  1
  O2-  O206  1  0.24727249  0.87556315  0.16222363  1
  O2-  O207  1  0.25226528  0.87446630  0.66580376  1
  O2-  O208  1  0.49974991  0.12555826  0.16518550  1
  O2-  O209  1  0.50158050  0.12520827  0.67086109  1
  O2-  O210  1  0.49714996  0.37571154  0.16280646  1
  O2-  O211  1  0.50145461  0.37574300  0.66937273  1
  O2-  O212  1  0.50161470  0.62477444  0.16716954  1
  O2-  O213  1  0.49832078  0.62401636  0.66505282  1
  O2-  O214  1  0.50051369  0.87492923  0.16370972  1
  O2-  O215  1  0.50084064  0.87412428  0.67070181  1
  O2-  O216  1  0.75057003  0.12576824  0.16622078  1
  O2-  O217  1  0.75088697  0.12646563  0.66498124  1
  O2-  O218  1  0.75265334  0.37490589  0.16246760  1
  O2-  O219  1  0.75172967  0.37367284  0.66490198  1
  O2-  O220  1  0.74971486  0.62483234  0.16544224  1
  O2-  O221  1  0.74789193  0.62396876  0.66474914  1
  O2-  O222  1  0.75113524  0.87532167  0.16459919  1
  O2-  O223  1  0.74850060  0.87528627  0.66619269  1
  O2-  O224  1  0.12447915  0.00045668  0.34561945  1
  O2-  O225  1  0.12351883  -0.00105119  0.84644857  1
  O2-  O226  1  0.12347760  0.24953769  0.35563909  1
  O2-  O227  1  0.12415775  0.25044544  0.83791411  1
  O2-  O228  1  0.12469754  0.50080053  0.35406966  1
  O2-  O229  1  0.12394142  0.49691181  0.84238485  1
  O2-  O230  1  0.12573245  0.74924109  0.34568661  1
  O2-  O231  1  0.12436470  0.75329196  0.84858278  1
  O2-  O232  1  0.37508973  -0.00202858  0.34604798  1
  O2-  O233  1  0.37410873  0.00100331  0.85118036  1
  O2-  O234  1  0.37493356  0.25025634  0.34976674  1
  O2-  O235  1  0.37405978  0.25280423  0.84859742  1
  O2-  O236  1  0.37395497  0.50333546  0.34991991  1
  O2-  O237  1  0.37438858  0.49640156  0.84826021  1
  O2-  O238  1  0.37466255  0.74835865  0.34586623  1
  O2-  O239  1  0.37435158  0.74914038  0.84972209  1
  O2-  O240  1  0.62530818  0.00038908  0.34988757  1
  O2-  O241  1  0.62595800  -0.00194972  0.84865016  1
  O2-  O242  1  0.62550606  0.25062988  0.34853667  1
  O2-  O243  1  0.62595779  0.24870216  0.85022227  1
  O2-  O244  1  0.62500279  0.50032919  0.34470407  1
  O2-  O245  1  0.62597114  0.50163294  0.85016447  1
  O2-  O246  1  0.62440273  0.74931431  0.34741748  1
  O2-  O247  1  0.62634616  0.75082954  0.84813960  1
  O2-  O248  1  0.87497117  0.00129963  0.34784026  1
  O2-  O249  1  0.87682570  -0.00003849  0.84403023  1
  O2-  O250  1  0.87636027  0.25007691  0.35395730  1
  O2-  O251  1  0.87604143  0.25118865  0.84254411  1
  O2-  O252  1  0.87574975  0.49667918  0.34965216  1
  O2-  O253  1  0.87588591  0.49797863  0.84760199  1
  O2-  O254  1  0.87498387  0.75205947  0.34531419  1
  O2-  O255  1  0.87556874  0.75024141  0.84639182  1
  O2-  O256  1  -0.00011894  0.12526163  0.35384981  1
  O2-  O257  1  -0.00004705  0.12555642  0.83566031  1
  O2-  O258  1  0.00037721  0.37465381  0.35283923  1
  O2-  O259  1  -0.00157105  0.37436432  0.84115130  1
  O2-  O260  1  0.00327516  0.62497329  0.35132171  1
  O2-  O261  1  -0.00266896  0.62450161  0.84226687  1
  O2-  O262  1  0.00046652  0.87526455  0.34593444  1
  O2-  O263  1  0.00043956  0.87494985  0.84432630  1
  O2-  O264  1  0.24739871  0.12522062  0.34936098  1
  O2-  O265  1  0.24724498  0.12538223  0.84519453  1
  O2-  O266  1  0.24683190  0.37523644  0.34955625  1
  O2-  O267  1  0.25042259  0.37482530  0.84703801  1
  O2-  O268  1  0.25029820  0.62485499  0.35126724  1
  O2-  O269  1  0.24947425  0.62390811  0.84661126  1
  O2-  O270  1  0.25048138  0.87453790  0.34283880  1
  O2-  O271  1  0.24717756  0.87558033  0.85109153  1
  O2-  O272  1  0.50101051  0.12501210  0.34834812  1
  O2-  O273  1  0.50009623  0.12551308  0.85290774  1
  O2-  O274  1  0.50169842  0.37537695  0.34469438  1
  O2-  O275  1  0.49747698  0.37513243  0.85393334  1
  O2-  O276  1  0.49845903  0.62499135  0.34832416  1
  O2-  O277  1  0.50172765  0.62435950  0.84989802  1
  O2-  O278  1  0.49962710  0.87453861  0.34679636  1
  O2-  O279  1  0.50175306  0.87414926  0.85198828  1
  O2-  O280  1  0.75164504  0.12594133  0.35075303  1
  O2-  O281  1  0.75307158  0.12519995  0.84612376  1
  O2-  O282  1  0.75046288  0.37424704  0.34553765  1
  O2-  O283  1  0.75378075  0.37473320  0.85042029  1
  O2-  O284  1  0.74753080  0.62450987  0.34692774  1
  O2-  O285  1  0.75177058  0.62381923  0.84721390  1
  O2-  O286  1  0.74914787  0.87580952  0.34812719  1
  O2-  O287  1  0.75125558  0.87516855  0.84612322  1
