# generated using pymatgen
data_BaYFeCuO5
_symmetry_space_group_name_H-M   'P 1'
_cell_length_a   15.66376590
_cell_length_b   15.66586968
_cell_length_c   15.47093714
_cell_angle_alpha   89.99760037
_cell_angle_beta   90.00165539
_cell_angle_gamma   89.99564949
_symmetry_Int_Tables_number   1
_chemical_formula_structural   BaYFeCuO5
_chemical_formula_sum   'Ba32 Y32 Fe32 Cu32 O160'
_cell_volume   3796.35933702
_cell_formula_units_Z   32
loop_
 _symmetry_equiv_pos_site_id
 _symmetry_equiv_pos_as_xyz
  1  'x, y, z'
loop_
 _atom_type_symbol
 _atom_type_oxidation_number
  Ba2+  2.0
  Y3+  3.0
  Fe3+  3.0
  Cu2+  2.0
  O2-  -2.0
loop_
 _atom_site_type_symbol
 _atom_site_label
 _atom_site_symmetry_multiplicity
 _atom_site_fract_x
 _atom_site_fract_y
 _atom_site_fract_z
 _atom_site_occupancy
  Ba2+  Ba0  1  -0.00698277  0.00602680  0.01515276  1
  Ba2+  Ba1  1  -0.00310987  0.00164182  0.49944891  1
  Ba2+  Ba2  1  -0.00161749  0.24682037  0.01282009  1
  Ba2+  Ba3  1  -0.00352945  0.23884722  0.50282218  1
  Ba2+  Ba4  1  -0.00427835  0.49474821  0.01092206  1
  Ba2+  Ba5  1  -0.00582343  0.50469361  0.51172024  1
  Ba2+  Ba6  1  -0.01012578  0.75039522  0.01673338  1
  Ba2+  Ba7  1  -0.00577558  0.75632818  0.51267060  1
  Ba2+  Ba8  1  0.25690917  0.00659429  0.01592240  1
  Ba2+  Ba9  1  0.24765956  -0.00656529  0.49530969  1
  Ba2+  Ba10  1  0.25414700  0.24924045  0.01772259  1
  Ba2+  Ba11  1  0.24558280  0.24423392  0.50263127  1
  Ba2+  Ba12  1  0.25633905  0.49188460  0.00665463  1
  Ba2+  Ba13  1  0.25563202  0.50552275  0.51254255  1
  Ba2+  Ba14  1  0.25972490  0.75040462  0.00579572  1
  Ba2+  Ba15  1  0.25762209  0.75734401  0.50704261  1
  Ba2+  Ba16  1  0.49953213  0.00166551  0.02189069  1
  Ba2+  Ba17  1  0.50451345  -0.00862499  0.51003088  1
  Ba2+  Ba18  1  0.49222285  0.24561033  0.01040508  1
  Ba2+  Ba19  1  0.51111663  0.25146556  0.51183832  1
  Ba2+  Ba20  1  0.49433617  0.50149835  0.00402070  1
  Ba2+  Ba21  1  0.50871525  0.50505013  0.51125420  1
  Ba2+  Ba22  1  0.50301980  0.75128244  0.01884857  1
  Ba2+  Ba23  1  0.50366060  0.75262721  0.51135058  1
  Ba2+  Ba24  1  0.75047205  0.00092266  0.02120154  1
  Ba2+  Ba25  1  0.75008097  -0.00068667  0.51621126  1
  Ba2+  Ba26  1  0.75512137  0.24320181  0.00504702  1
  Ba2+  Ba27  1  0.74676121  0.24486902  0.51226547  1
  Ba2+  Ba28  1  0.75187533  0.50523039  0.01350628  1
  Ba2+  Ba29  1  0.74136972  0.50402968  0.51073953  1
  Ba2+  Ba30  1  0.74833727  0.75124121  0.02544668  1
  Ba2+  Ba31  1  0.74467732  0.75101467  0.51402557  1
  Y3+  Y32  1  -0.00091579  0.00307105  0.25669798  1
  Y3+  Y33  1  -0.00387526  0.00184087  0.75698150  1
  Y3+  Y34  1  0.00017067  0.24618811  0.25756484  1
  Y3+  Y35  1  -0.00413943  0.24752795  0.75925352  1
  Y3+  Y36  1  -0.00047890  0.49935727  0.25710620  1
  Y3+  Y37  1  -0.00189814  0.49978925  0.75742645  1
  Y3+  Y38  1  -0.00131447  0.75141761  0.25636638  1
  Y3+  Y39  1  -0.00181267  0.75060196  0.75639743  1
  Y3+  Y40  1  0.25067148  0.00022571  0.25721702  1
  Y3+  Y41  1  0.25302893  -0.00022084  0.75791372  1
  Y3+  Y42  1  0.24981909  0.24904328  0.25500795  1
  Y3+  Y43  1  0.25325391  0.24905413  0.76095104  1
  Y3+  Y44  1  0.25070440  0.49764335  0.25648184  1
  Y3+  Y45  1  0.25414138  0.50037122  0.75990440  1
  Y3+  Y46  1  0.25162953  0.75326958  0.25893518  1
  Y3+  Y47  1  0.25361681  0.75047629  0.75585832  1
  Y3+  Y48  1  0.50020196  -0.00216154  0.25815121  1
  Y3+  Y49  1  0.50095517  -0.00109007  0.75437323  1
  Y3+  Y50  1  0.50051951  0.25004373  0.25554294  1
  Y3+  Y51  1  0.50087538  0.25020828  0.75897304  1
  Y3+  Y52  1  0.50297742  0.49927736  0.25874501  1
  Y3+  Y53  1  0.50034311  0.50076770  0.75567066  1
  Y3+  Y54  1  0.50269850  0.75247934  0.26147801  1
  Y3+  Y55  1  0.50007425  0.75024586  0.75177189  1
  Y3+  Y56  1  0.74965214  0.00087335  0.25716389  1
  Y3+  Y57  1  0.75076118  0.00110514  0.75409832  1
  Y3+  Y58  1  0.74915451  0.24788299  0.25836389  1
  Y3+  Y59  1  0.75049438  0.24807111  0.75601646  1
  Y3+  Y60  1  0.74618596  0.50072198  0.26002580  1
  Y3+  Y61  1  0.74798561  0.50020604  0.75392796  1
  Y3+  Y62  1  0.74607914  0.75057001  0.25885844  1
  Y3+  Y63  1  0.74855043  0.75076600  0.75080154  1
  Fe3+  Fe64  1  0.12441239  0.37389596  0.87630268  1
  Fe3+  Fe65  1  0.87325539  0.62573264  0.87486662  1
  Fe3+  Fe66  1  0.62509438  0.62704157  0.87615136  1
  Fe3+  Fe67  1  0.12428225  0.37564222  0.38080192  1
  Fe3+  Fe68  1  0.62496289  0.12401656  0.37589817  1
  Fe3+  Fe69  1  0.37772379  0.87562235  0.87707203  1
  Fe3+  Fe70  1  0.87280420  0.87498068  0.87665324  1
  Fe3+  Fe71  1  0.12538785  0.12415356  0.87895418  1
  Fe3+  Fe72  1  0.62490681  0.12286225  0.87682020  1
  Fe3+  Fe73  1  0.37611713  0.12481829  0.37942212  1
  Fe3+  Fe74  1  0.37614132  0.62530849  0.37785213  1
  Fe3+  Fe75  1  0.62609416  0.37510821  0.87937841  1
  Fe3+  Fe76  1  0.37611353  0.37480314  0.38070445  1
  Fe3+  Fe77  1  0.12519958  0.62548196  0.88004982  1
  Fe3+  Fe78  1  0.87355320  0.37442863  0.38048678  1
  Fe3+  Fe79  1  0.12454828  0.87532989  0.88165346  1
  Fe3+  Fe80  1  0.62574692  0.87470579  0.87675895  1
  Fe3+  Fe81  1  0.12497081  0.62660432  0.37971634  1
  Fe3+  Fe82  1  0.87384511  0.62577280  0.37655212  1
  Fe3+  Fe83  1  0.87342374  0.87561491  0.37489749  1
  Fe3+  Fe84  1  0.87370992  0.37426487  0.14018113  1
  Fe3+  Fe85  1  0.12502220  0.37414697  0.63413290  1
  Fe3+  Fe86  1  0.62458704  0.37434226  0.13403849  1
  Fe3+  Fe87  1  0.37550115  0.62464813  0.13999054  1
  Fe3+  Fe88  1  0.12499106  0.87669736  0.63852237  1
  Fe3+  Fe89  1  0.37532971  0.12422079  0.63336391  1
  Fe3+  Fe90  1  0.12552177  0.62609579  0.63521107  1
  Fe3+  Fe91  1  0.12539742  0.12413624  0.63777268  1
  Fe3+  Fe92  1  0.12567309  0.62449115  0.13439512  1
  Fe3+  Fe93  1  0.37543720  0.37412988  0.63455492  1
  Fe3+  Fe94  1  0.12523207  0.87536590  0.13456532  1
  Fe3+  Fe95  1  0.87464620  0.37437578  0.63489332  1
  Cu2+  Cu96  1  0.37631932  0.62616562  0.86250899  1
  Cu2+  Cu97  1  0.12348996  0.87454486  0.36084051  1
  Cu2+  Cu98  1  0.62606229  0.87591065  0.37145816  1
  Cu2+  Cu99  1  0.62466690  0.62582034  0.37127486  1
  Cu2+  Cu100  1  0.87375869  0.37543428  0.86225843  1
  Cu2+  Cu101  1  0.37644115  0.37401901  0.87164714  1
  Cu2+  Cu102  1  0.37634359  0.12379916  0.87117246  1
  Cu2+  Cu103  1  0.37615861  0.87531133  0.37173390  1
  Cu2+  Cu104  1  0.87361000  0.12459899  0.37162568  1
  Cu2+  Cu105  1  0.62515995  0.37412980  0.37310963  1
  Cu2+  Cu106  1  0.87397956  0.12369179  0.87212986  1
  Cu2+  Cu107  1  0.12556377  0.12480480  0.36205412  1
  Cu2+  Cu108  1  0.37563242  0.12494234  0.14743359  1
  Cu2+  Cu109  1  0.62530831  0.87557484  0.64080678  1
  Cu2+  Cu110  1  0.62484118  0.87563466  0.15210830  1
  Cu2+  Cu111  1  0.87554218  0.12484494  0.64032331  1
  Cu2+  Cu112  1  0.12448781  0.37479164  0.15159893  1
  Cu2+  Cu113  1  0.12519840  0.12471907  0.14960227  1
  Cu2+  Cu114  1  0.62450719  0.62540659  0.64292392  1
  Cu2+  Cu115  1  0.87584564  0.87572007  0.64948395  1
  Cu2+  Cu116  1  0.37508976  0.87431613  0.15303515  1
  Cu2+  Cu117  1  0.87491123  0.87530132  0.15289222  1
  Cu2+  Cu118  1  0.87453096  0.62415269  0.15427859  1
  Cu2+  Cu119  1  0.62471813  0.12575142  0.14958109  1
  Cu2+  Cu120  1  0.62517130  0.37469392  0.64241948  1
  Cu2+  Cu121  1  0.87531442  0.62491144  0.64808249  1
  Cu2+  Cu122  1  0.37601937  0.37555736  0.14493169  1
  Cu2+  Cu123  1  0.37440323  0.87616250  0.64092483  1
  Cu2+  Cu124  1  0.87410344  0.12605182  0.14460558  1
  Cu2+  Cu125  1  0.62405566  0.62425250  0.15158160  1
  Cu2+  Cu126  1  0.37482755  0.62511181  0.64902560  1
  Cu2+  Cu127  1  0.62413942  0.12498963  0.65086953  1
  O2-  O128  1  0.12581987  0.12574511  -0.00038807  1
  O2-  O129  1  0.12546936  0.12257225  0.51716245  1
  O2-  O130  1  0.12422569  0.37491464  -0.00322876  1
  O2-  O131  1  0.12434153  0.37558939  0.50744612  1
  O2-  O132  1  0.12511431  0.62395186  0.00712850  1
  O2-  O133  1  0.12481008  0.62697353  0.50712965  1
  O2-  O134  1  0.12497812  0.87449384  0.00741603  1
  O2-  O135  1  0.12418294  0.87508660  0.51807121  1
  O2-  O136  1  0.37540034  0.12453998  0.00723987  1
  O2-  O137  1  0.37468365  0.12490092  0.50647689  1
  O2-  O138  1  0.37555992  0.37481918  0.00734690  1
  O2-  O139  1  0.37491378  0.37464242  0.50746802  1
  O2-  O140  1  0.37399736  0.62426677  0.01885707  1
  O2-  O141  1  0.37460455  0.62517402  0.49832433  1
  O2-  O142  1  0.37746770  0.87490873  -0.00236341  1
  O2-  O143  1  0.37394815  0.87647345  0.50625024  1
  O2-  O144  1  0.62490705  0.12338749  -0.00273605  1
  O2-  O145  1  0.62481167  0.12412112  0.49673232  1
  O2-  O146  1  0.62552825  0.37582541  0.00660691  1
  O2-  O147  1  0.62597629  0.37461416  0.50755059  1
  O2-  O148  1  0.62598252  0.62690337  -0.00343200  1
  O2-  O149  1  0.62482151  0.62619423  0.50694900  1
  O2-  O150  1  0.62527186  0.87415797  -0.00298459  1
  O2-  O151  1  0.62675980  0.87536075  0.50686077  1
  O2-  O152  1  0.87471927  0.12521268  0.00784467  1
  O2-  O153  1  0.87499031  0.12410855  0.50703267  1
  O2-  O154  1  0.87450439  0.37515605  0.01928666  1
  O2-  O155  1  0.87506614  0.37486369  0.50759121  1
  O2-  O156  1  0.87458200  0.62504771  -0.00463695  1
  O2-  O157  1  0.87630563  0.62654157  0.49687046  1
  O2-  O158  1  0.87299212  0.87385218  -0.00308028  1
  O2-  O159  1  0.87522234  0.87530942  0.49556172  1
  O2-  O160  1  0.12541247  -0.00197608  0.16207049  1
  O2-  O161  1  0.12559089  0.00061341  0.67111614  1
  O2-  O162  1  0.12506523  0.24970536  0.16748428  1
  O2-  O163  1  0.12591536  0.25155256  0.66235510  1
  O2-  O164  1  0.12508384  0.50216490  0.16690491  1
  O2-  O165  1  0.12534546  0.49957590  0.66036083  1
  O2-  O166  1  0.12423354  0.74963343  0.16120592  1
  O2-  O167  1  0.12469978  0.74909071  0.66704633  1
  O2-  O168  1  0.37428167  -0.00183046  0.16635516  1
  O2-  O169  1  0.37436924  0.00355872  0.66363158  1
  O2-  O170  1  0.37480764  0.25029904  0.16906316  1
  O2-  O171  1  0.37407359  0.24973244  0.66222768  1
  O2-  O172  1  0.37380897  0.50170277  0.17012937  1
  O2-  O173  1  0.37374884  0.49793202  0.66335475  1
  O2-  O174  1  0.37444218  0.74931066  0.16626032  1
  O2-  O175  1  0.37350644  0.74923087  0.66306588  1
  O2-  O176  1  0.62483266  0.00040577  0.16325295  1
  O2-  O177  1  0.62494501  0.00200807  0.66307980  1
  O2-  O178  1  0.62460791  0.25169034  0.16335969  1
  O2-  O179  1  0.62475436  0.24829692  0.66649511  1
  O2-  O180  1  0.62538100  0.49804752  0.16461417  1
  O2-  O181  1  0.62452700  0.50031212  0.66628249  1
  O2-  O182  1  0.62439383  0.75002350  0.16485771  1
  O2-  O183  1  0.62491677  0.74994711  0.66251061  1
  O2-  O184  1  0.87520171  -0.00055703  0.16387817  1
  O2-  O185  1  0.87575925  -0.00051970  0.66432404  1
  O2-  O186  1  0.87517981  0.25178677  0.17051008  1
  O2-  O187  1  0.87584709  0.25267483  0.66434979  1
  O2-  O188  1  0.87494050  0.49906149  0.16897253  1
  O2-  O189  1  0.87667800  0.49819927  0.66206506  1
  O2-  O190  1  0.87640785  0.74930008  0.16224123  1
  O2-  O191  1  0.87763280  0.74999951  0.66136172  1
  O2-  O192  1  0.00063372  0.12572173  0.16572284  1
  O2-  O193  1  0.00268627  0.12589509  0.66803237  1
  O2-  O194  1  -0.00075636  0.37570502  0.16908904  1
  O2-  O195  1  0.00069246  0.37599477  0.66224046  1
  O2-  O196  1  0.00215616  0.62396924  0.16356525  1
  O2-  O197  1  0.00263940  0.62410564  0.66386224  1
  O2-  O198  1  0.00176067  0.87452041  0.16244353  1
  O2-  O199  1  0.00097284  0.87471094  0.66824986  1
  O2-  O200  1  0.24974165  0.12529413  0.16762508  1
  O2-  O201  1  0.25117721  0.12620209  0.66559063  1
  O2-  O202  1  0.24864456  0.37505338  0.16842412  1
  O2-  O203  1  0.25002935  0.37557344  0.66106569  1
  O2-  O204  1  0.24829056  0.62530091  0.16783883  1
  O2-  O205  1  0.24766082  0.62439676  0.66542110  1
  O2-  O206  1  0.24787822  0.87405149  0.16433040  1
  O2-  O207  1  0.24794724  0.87458772  0.66943749  1
  O2-  O208  1  0.50085823  0.12525573  0.16660362  1
  O2-  O209  1  0.49862074  0.12631230  0.66061086  1
  O2-  O210  1  0.50325297  0.37542937  0.16548615  1
  O2-  O211  1  0.49656411  0.37445755  0.66351036  1
  O2-  O212  1  0.49964201  0.62443833  0.16614580  1
  O2-  O213  1  0.49829279  0.62433187  0.66428882  1
  O2-  O214  1  0.50011007  0.87493198  0.16570076  1
  O2-  O215  1  0.49962264  0.87536286  0.66217280  1
  O2-  O216  1  0.74847958  0.12599204  0.16486905  1
  O2-  O217  1  0.74799004  0.12577629  0.66243992  1
  O2-  O218  1  0.74787750  0.37520784  0.16607994  1
  O2-  O219  1  0.75297456  0.37511592  0.66392134  1
  O2-  O220  1  0.74922778  0.62427280  0.16376684  1
  O2-  O221  1  0.75175749  0.62431045  0.66229569  1
  O2-  O222  1  0.75005552  0.87451320  0.16339817  1
  O2-  O223  1  0.75233877  0.87509223  0.66149797  1
  O2-  O224  1  0.12479585  -0.00023914  0.34774690  1
  O2-  O225  1  0.12508559  -0.00206867  0.85106683  1
  O2-  O226  1  0.12499463  0.25268865  0.35303407  1
  O2-  O227  1  0.12448528  0.24944036  0.84398847  1
  O2-  O228  1  0.12478292  0.50043853  0.35213195  1
  O2-  O229  1  0.12488080  0.50181410  0.84633542  1
  O2-  O230  1  0.12489460  0.74762447  0.34614089  1
  O2-  O231  1  0.12543320  0.74975221  0.85201889  1
  O2-  O232  1  0.37420953  0.00295821  0.35032639  1
  O2-  O233  1  0.37509474  -0.00258923  0.84480280  1
  O2-  O234  1  0.37326717  0.25033728  0.35339953  1
  O2-  O235  1  0.37591896  0.24951445  0.84624152  1
  O2-  O236  1  0.37347958  0.49842004  0.35131831  1
  O2-  O237  1  0.37506864  0.50142311  0.84874147  1
  O2-  O238  1  0.37353743  0.74861858  0.34782840  1
  O2-  O239  1  0.37432610  0.75132529  0.84645079  1
  O2-  O240  1  0.62430292  0.00183790  0.34575668  1
  O2-  O241  1  0.62525718  -0.00123329  0.84379838  1
  O2-  O242  1  0.62434009  0.24795826  0.34644398  1
  O2-  O243  1  0.62595747  0.25095716  0.85006685  1
  O2-  O244  1  0.62452389  0.49991432  0.34918257  1
  O2-  O245  1  0.62535820  0.49996449  0.84921996  1
  O2-  O246  1  0.62526459  0.75052655  0.34921600  1
  O2-  O247  1  0.62509535  0.75011956  0.84263726  1
  O2-  O248  1  0.87607036  -0.00085744  0.34617084  1
  O2-  O249  1  0.87527520  -0.00253405  0.84615300  1
  O2-  O250  1  0.87610449  0.25241893  0.35284318  1
  O2-  O251  1  0.87456641  0.25108311  0.84868910  1
  O2-  O252  1  0.87651392  0.49912958  0.35105607  1
  O2-  O253  1  0.87559099  0.50145803  0.84544839  1
  O2-  O254  1  0.87567883  0.74968578  0.34416165  1
  O2-  O255  1  0.87560781  0.74979053  0.84280889  1
  O2-  O256  1  0.00136820  0.12510689  0.34991499  1
  O2-  O257  1  0.00145199  0.12475031  0.84892074  1
  O2-  O258  1  0.00030899  0.37630003  0.35336527  1
  O2-  O259  1  0.00000193  0.37608475  0.84552304  1
  O2-  O260  1  0.00121789  0.62466964  0.34781015  1
  O2-  O261  1  0.00119053  0.62506038  0.84755708  1
  O2-  O262  1  -0.00102261  0.87428917  0.34595600  1
  O2-  O263  1  0.00095401  0.87346458  0.84995681  1
  O2-  O264  1  0.25162338  0.12543860  0.35215789  1
  O2-  O265  1  0.24828951  0.12461551  0.84642000  1
  O2-  O266  1  0.24942914  0.37570998  0.35364150  1
  O2-  O267  1  0.24797374  0.37575903  0.84446498  1
  O2-  O268  1  0.24865809  0.62435555  0.35058037  1
  O2-  O269  1  0.24861930  0.62507870  0.85098891  1
  O2-  O270  1  0.24792337  0.87501110  0.34895931  1
  O2-  O271  1  0.24902087  0.87388893  0.85100944  1
  O2-  O272  1  0.49820739  0.12603331  0.34881716  1
  O2-  O273  1  0.50275111  0.12509699  0.84336156  1
  O2-  O274  1  0.49660169  0.37457584  0.34935530  1
  O2-  O275  1  0.50438646  0.37557172  0.84782072  1
  O2-  O276  1  0.49816918  0.62429814  0.34761120  1
  O2-  O277  1  0.50095445  0.62458061  0.84715703  1
  O2-  O278  1  0.50088615  0.87530117  0.34964586  1
  O2-  O279  1  0.50100549  0.87439658  0.84310195  1
  O2-  O280  1  0.74842855  0.12539119  0.34660541  1
  O2-  O281  1  0.74814846  0.12522011  0.84520430  1
  O2-  O282  1  0.75302069  0.37545101  0.34883916  1
  O2-  O283  1  0.74823614  0.37570496  0.84837780  1
  O2-  O284  1  0.75141363  0.62423607  0.34701841  1
  O2-  O285  1  0.74963160  0.62463664  0.84318467  1
  O2-  O286  1  0.75135820  0.87528695  0.34534144  1
  O2-  O287  1  0.74973094  0.87425372  0.84228103  1
