# generated using pymatgen
data_BaYFeCuO5
_symmetry_space_group_name_H-M   'P 1'
_cell_length_a   15.67914520
_cell_length_b   15.67298726
_cell_length_c   15.50225255
_cell_angle_alpha   90.00148985
_cell_angle_beta   89.99205584
_cell_angle_gamma   90.00461412
_symmetry_Int_Tables_number   1
_chemical_formula_structural   BaYFeCuO5
_chemical_formula_sum   'Ba32 Y32 Fe32 Cu32 O160'
_cell_volume   3809.50865749
_cell_formula_units_Z   32
loop_
 _symmetry_equiv_pos_site_id
 _symmetry_equiv_pos_as_xyz
  1  'x, y, z'
loop_
 _atom_type_symbol
 _atom_type_oxidation_number
  Ba2+  2.0
  Y3+  3.0
  Fe3+  3.0
  Cu2+  2.0
  O2-  -2.0
loop_
 _atom_site_type_symbol
 _atom_site_label
 _atom_site_symmetry_multiplicity
 _atom_site_fract_x
 _atom_site_fract_y
 _atom_site_fract_z
 _atom_site_occupancy
  Ba2+  Ba0  1  -0.00292628  -0.01003995  0.01066273  1
  Ba2+  Ba1  1  -0.00446702  0.00543760  0.50163528  1
  Ba2+  Ba2  1  -0.00416416  0.25464860  0.02225660  1
  Ba2+  Ba3  1  0.00163956  0.25225553  0.51207277  1
  Ba2+  Ba4  1  -0.00151338  0.50362512  0.02290274  1
  Ba2+  Ba5  1  0.00579289  0.49300625  0.50732325  1
  Ba2+  Ba6  1  -0.00166463  0.75121439  0.01203333  1
  Ba2+  Ba7  1  0.00018468  0.75004803  0.49734727  1
  Ba2+  Ba8  1  0.24951627  -0.00821164  0.00522775  1
  Ba2+  Ba9  1  0.25856872  0.00150208  0.50781778  1
  Ba2+  Ba10  1  0.24909251  0.24981681  0.01618153  1
  Ba2+  Ba11  1  0.24686581  0.25239535  0.50052431  1
  Ba2+  Ba12  1  0.24395849  0.50605000  0.02313013  1
  Ba2+  Ba13  1  0.24786908  0.49698728  0.50122032  1
  Ba2+  Ba14  1  0.24477999  0.75108410  0.01304161  1
  Ba2+  Ba15  1  0.25888466  0.74882177  0.50838913  1
  Ba2+  Ba16  1  0.49626219  0.00316515  0.01302467  1
  Ba2+  Ba17  1  0.50130114  -0.00375519  0.51698751  1
  Ba2+  Ba18  1  0.50061694  0.24170884  0.01656463  1
  Ba2+  Ba19  1  0.49978790  0.24869523  0.50586257  1
  Ba2+  Ba20  1  0.49992152  0.50909215  0.01677196  1
  Ba2+  Ba21  1  0.49869530  0.50045397  0.50604873  1
  Ba2+  Ba22  1  0.49556524  0.74610638  0.01249639  1
  Ba2+  Ba23  1  0.50079763  0.75462486  0.51682430  1
  Ba2+  Ba24  1  0.75718033  0.00121906  0.01677694  1
  Ba2+  Ba25  1  0.74582900  -0.00154794  0.51278837  1
  Ba2+  Ba26  1  0.75509541  0.24618924  0.02052683  1
  Ba2+  Ba27  1  0.75090447  0.24710691  0.51812927  1
  Ba2+  Ba28  1  0.75757130  0.50630524  0.01528992  1
  Ba2+  Ba29  1  0.74569568  0.49623752  0.51152782  1
  Ba2+  Ba30  1  0.75975179  0.74657893  0.01058903  1
  Ba2+  Ba31  1  0.74230920  0.75724198  0.50681487  1
  Y3+  Y32  1  -0.00071166  -0.00242472  0.25523294  1
  Y3+  Y33  1  -0.00043288  -0.00235949  0.76078965  1
  Y3+  Y34  1  0.00146660  0.25114950  0.25917664  1
  Y3+  Y35  1  -0.00018076  0.25145791  0.75296803  1
  Y3+  Y36  1  0.00159217  0.50086385  0.25955952  1
  Y3+  Y37  1  -0.00078603  0.49936528  0.75441774  1
  Y3+  Y38  1  -0.00017544  0.75099445  0.25502490  1
  Y3+  Y39  1  -0.00174102  0.75116318  0.76267442  1
  Y3+  Y40  1  0.24975709  -0.00109272  0.25791291  1
  Y3+  Y41  1  0.25158063  -0.00343043  0.75801406  1
  Y3+  Y42  1  0.24797701  0.25097093  0.25881742  1
  Y3+  Y43  1  0.24880939  0.25000249  0.75543786  1
  Y3+  Y44  1  0.24678964  0.50025749  0.26061744  1
  Y3+  Y45  1  0.24906468  0.50023259  0.75329401  1
  Y3+  Y46  1  0.24858826  0.75027687  0.25921051  1
  Y3+  Y47  1  0.25159496  0.75259091  0.75753987  1
  Y3+  Y48  1  0.50034656  -0.00111267  0.25898572  1
  Y3+  Y49  1  0.49926316  -0.00209394  0.75500127  1
  Y3+  Y50  1  0.50030089  0.24957548  0.25612666  1
  Y3+  Y51  1  0.49950123  0.24761669  0.75660864  1
  Y3+  Y52  1  0.50058753  0.50054441  0.25725676  1
  Y3+  Y53  1  0.49984730  0.50269497  0.75557393  1
  Y3+  Y54  1  0.50049571  0.75152840  0.25970841  1
  Y3+  Y55  1  0.49948846  0.75153353  0.75429915  1
  Y3+  Y56  1  0.75095371  -0.00248465  0.25732193  1
  Y3+  Y57  1  0.74986568  -0.00146983  0.75668852  1
  Y3+  Y58  1  0.75031962  0.24924415  0.25553073  1
  Y3+  Y59  1  0.75154228  0.24921307  0.75501753  1
  Y3+  Y60  1  0.75097075  0.50204790  0.25556685  1
  Y3+  Y61  1  0.75142008  0.50135395  0.75669561  1
  Y3+  Y62  1  0.75134558  0.75185546  0.25660437  1
  Y3+  Y63  1  0.75027670  0.75019216  0.75834388  1
  Fe3+  Fe64  1  0.62599171  0.12474437  0.87727318  1
  Fe3+  Fe65  1  0.87547265  0.37532646  0.87627327  1
  Fe3+  Fe66  1  0.62530941  0.62545030  0.37622545  1
  Fe3+  Fe67  1  0.37411454  0.12491285  0.87699349  1
  Fe3+  Fe68  1  0.87463723  0.12507193  0.37480607  1
  Fe3+  Fe69  1  0.37466295  0.37604836  0.88166785  1
  Fe3+  Fe70  1  0.37549934  0.62531220  0.37577164  1
  Fe3+  Fe71  1  0.37331392  0.62495881  0.87581852  1
  Fe3+  Fe72  1  0.37533199  0.12502338  0.37500249  1
  Fe3+  Fe73  1  0.12411907  0.62429354  0.87559346  1
  Fe3+  Fe74  1  0.12392303  0.12524084  0.88092028  1
  Fe3+  Fe75  1  0.12585228  0.87601996  0.38003823  1
  Fe3+  Fe76  1  0.62561974  0.12491207  0.37503806  1
  Fe3+  Fe77  1  0.62535490  0.62507395  0.87695219  1
  Fe3+  Fe78  1  0.87334124  0.37468651  0.37617820  1
  Fe3+  Fe79  1  0.87594072  0.12559109  0.87637937  1
  Fe3+  Fe80  1  0.87455006  0.62536376  0.37975914  1
  Fe3+  Fe81  1  0.62513829  0.37496359  0.88147491  1
  Fe3+  Fe82  1  0.62482561  0.87495231  0.88067576  1
  Fe3+  Fe83  1  0.12477504  0.37556651  0.87836686  1
  Fe3+  Fe84  1  0.87490345  0.62564793  0.63346696  1
  Fe3+  Fe85  1  0.12500940  0.62626723  0.63466690  1
  Fe3+  Fe86  1  0.12451481  0.87485899  0.63484795  1
  Fe3+  Fe87  1  0.12483099  0.12354121  0.13586062  1
  Fe3+  Fe88  1  0.37442550  0.37450624  0.63750180  1
  Fe3+  Fe89  1  0.87604817  0.87465296  0.63737538  1
  Fe3+  Fe90  1  0.62399736  0.37476105  0.63891545  1
  Fe3+  Fe91  1  0.37445864  0.37572979  0.13593613  1
  Fe3+  Fe92  1  0.37441364  0.87452517  0.13926724  1
  Fe3+  Fe93  1  0.12544470  0.12344522  0.63747654  1
  Fe3+  Fe94  1  0.62595172  0.37577775  0.13434744  1
  Fe3+  Fe95  1  0.62524456  0.87451119  0.13449834  1
  Cu2+  Cu96  1  0.12458547  0.12421068  0.36237863  1
  Cu2+  Cu97  1  0.62579209  0.37474112  0.36017912  1
  Cu2+  Cu98  1  0.87593247  0.62377638  0.87116496  1
  Cu2+  Cu99  1  0.12489995  0.87415592  0.87337729  1
  Cu2+  Cu100  1  0.12458591  0.62613804  0.36803414  1
  Cu2+  Cu101  1  0.37637120  0.87426676  0.86500784  1
  Cu2+  Cu102  1  0.87354643  0.87479727  0.87275211  1
  Cu2+  Cu103  1  0.87479586  0.87521603  0.36476747  1
  Cu2+  Cu104  1  0.37607705  0.87525860  0.37261780  1
  Cu2+  Cu105  1  0.37570781  0.37491650  0.35969565  1
  Cu2+  Cu106  1  0.12399234  0.37463103  0.37136071  1
  Cu2+  Cu107  1  0.62458644  0.87574075  0.37105256  1
  Cu2+  Cu108  1  0.87584822  0.12359991  0.65150407  1
  Cu2+  Cu109  1  0.12533889  0.87481239  0.14415005  1
  Cu2+  Cu110  1  0.87513190  0.87440467  0.14384229  1
  Cu2+  Cu111  1  0.62543944  0.62644510  0.15068278  1
  Cu2+  Cu112  1  0.37441073  0.87504810  0.64225241  1
  Cu2+  Cu113  1  0.62537315  0.12382826  0.15007638  1
  Cu2+  Cu114  1  0.12579519  0.37482397  0.64142618  1
  Cu2+  Cu115  1  0.37382537  0.12457178  0.15150916  1
  Cu2+  Cu116  1  0.62469355  0.12489405  0.65177935  1
  Cu2+  Cu117  1  0.12479539  0.62591240  0.15668587  1
  Cu2+  Cu118  1  0.87648740  0.12456179  0.15269784  1
  Cu2+  Cu119  1  0.37434539  0.62544479  0.15459384  1
  Cu2+  Cu120  1  0.87579856  0.62580160  0.14647847  1
  Cu2+  Cu121  1  0.87474634  0.37528896  0.64753696  1
  Cu2+  Cu122  1  0.87522395  0.37578238  0.15394051  1
  Cu2+  Cu123  1  0.12501735  0.37517954  0.15245460  1
  Cu2+  Cu124  1  0.37481288  0.62464493  0.64888144  1
  Cu2+  Cu125  1  0.62573620  0.87502725  0.64572952  1
  Cu2+  Cu126  1  0.62535589  0.62515963  0.64932075  1
  Cu2+  Cu127  1  0.37438989  0.12530434  0.65153970  1
  O2-  O128  1  0.12396472  0.12535507  0.00717749  1
  O2-  O129  1  0.12548673  0.12394868  0.51749579  1
  O2-  O130  1  0.12459074  0.37608989  -0.00190974  1
  O2-  O131  1  0.12573112  0.37387766  0.50619421  1
  O2-  O132  1  0.12399582  0.62382235  -0.00409654  1
  O2-  O133  1  0.12502464  0.62588015  0.51457440  1
  O2-  O134  1  0.12557508  0.87412805  0.00837191  1
  O2-  O135  1  0.12480878  0.87637992  0.50869688  1
  O2-  O136  1  0.37445891  0.12587099  -0.00289684  1
  O2-  O137  1  0.37609560  0.12669098  0.49523585  1
  O2-  O138  1  0.37404332  0.37637636  0.00740793  1
  O2-  O139  1  0.37591893  0.37382630  0.51745681  1
  O2-  O140  1  0.37288453  0.62393507  -0.00406898  1
  O2-  O141  1  0.37698563  0.62381159  0.49611852  1
  O2-  O142  1  0.37490605  0.87386231  0.01838289  1
  O2-  O143  1  0.37587675  0.87557592  0.50789844  1
  O2-  O144  1  0.62606972  0.12522911  -0.00302240  1
  O2-  O145  1  0.62534089  0.12572775  0.49521856  1
  O2-  O146  1  0.62563785  0.37550072  0.00670866  1
  O2-  O147  1  0.62317891  0.37417420  0.51861396  1
  O2-  O148  1  0.62514690  0.62457148  -0.00302836  1
  O2-  O149  1  0.62456641  0.62421251  0.49634877  1
  O2-  O150  1  0.62467656  0.87471755  0.00729013  1
  O2-  O151  1  0.62463926  0.87644207  0.50720784  1
  O2-  O152  1  0.87627427  0.12739150  -0.00381623  1
  O2-  O153  1  0.87372417  0.12605096  0.49493181  1
  O2-  O154  1  0.87585075  0.37549602  -0.00386730  1
  O2-  O155  1  0.87197606  0.37357155  0.49631387  1
  O2-  O156  1  0.87719621  0.62385514  0.00740828  1
  O2-  O157  1  0.87385172  0.62546545  0.50662136  1
  O2-  O158  1  0.87383137  0.87446530  0.00835839  1
  O2-  O159  1  0.87640290  0.87503274  0.51737102  1
  O2-  O160  1  0.12528765  0.00225305  0.16518448  1
  O2-  O161  1  0.12452872  -0.00218337  0.66877023  1
  O2-  O162  1  0.12511184  0.24850939  0.16256127  1
  O2-  O163  1  0.12513374  0.24803779  0.66711261  1
  O2-  O164  1  0.12506780  0.50040279  0.16605240  1
  O2-  O165  1  0.12476455  0.50213751  0.66278257  1
  O2-  O166  1  0.12522069  0.74926573  0.16816812  1
  O2-  O167  1  0.12495027  0.75147466  0.66470728  1
  O2-  O168  1  0.37487156  -0.00049814  0.16567641  1
  O2-  O169  1  0.37482491  0.00142719  0.66573880  1
  O2-  O170  1  0.37495801  0.25195338  0.16068737  1
  O2-  O171  1  0.37482135  0.25039541  0.66851847  1
  O2-  O172  1  0.37508759  0.49898003  0.16280349  1
  O2-  O173  1  0.37572039  0.49930415  0.66566763  1
  O2-  O174  1  0.37522722  0.75000953  0.16691042  1
  O2-  O175  1  0.37507021  0.74850073  0.66398692  1
  O2-  O176  1  0.62460513  -0.00184529  0.16175382  1
  O2-  O177  1  0.62505534  0.00177317  0.66666348  1
  O2-  O178  1  0.62493891  0.25144036  0.16078790  1
  O2-  O179  1  0.62499072  0.25003630  0.66757510  1
  O2-  O180  1  0.62509962  0.49889709  0.16255478  1
  O2-  O181  1  0.62485897  0.49937014  0.66673464  1
  O2-  O182  1  0.62443236  0.75197624  0.16339774  1
  O2-  O183  1  0.62539163  0.74861123  0.66623342  1
  O2-  O184  1  0.87563971  0.00086457  0.16478957  1
  O2-  O185  1  0.87586950  -0.00131147  0.66752656  1
  O2-  O186  1  0.87543168  0.25037855  0.16202753  1
  O2-  O187  1  0.87507548  0.24906984  0.66165593  1
  O2-  O188  1  0.87512331  0.49959298  0.16746329  1
  O2-  O189  1  0.87449404  0.50212825  0.66072732  1
  O2-  O190  1  0.87524484  0.74992332  0.16824834  1
  O2-  O191  1  0.87489526  0.74897089  0.66670627  1
  O2-  O192  1  0.00196243  0.12528743  0.16436192  1
  O2-  O193  1  0.00084057  0.12422220  0.66620703  1
  O2-  O194  1  0.00013803  0.37539280  0.16597043  1
  O2-  O195  1  -0.00140077  0.37479117  0.66125994  1
  O2-  O196  1  0.00140492  0.62506787  0.16931374  1
  O2-  O197  1  -0.00130555  0.62531760  0.66233170  1
  O2-  O198  1  0.00017178  0.87478893  0.16718752  1
  O2-  O199  1  0.00121020  0.87447958  0.66729749  1
  O2-  O200  1  0.24799757  0.12565632  0.16370428  1
  O2-  O201  1  0.24924827  0.12393239  0.66888545  1
  O2-  O202  1  0.25162990  0.37522446  0.16380212  1
  O2-  O203  1  0.25167079  0.37480106  0.66872082  1
  O2-  O204  1  0.24939721  0.62520597  0.16617141  1
  O2-  O205  1  0.24943141  0.62532907  0.66390576  1
  O2-  O206  1  0.25163274  0.87467864  0.16950942  1
  O2-  O207  1  0.24696900  0.87531549  0.66467902  1
  O2-  O208  1  0.49925368  0.12554476  0.16145578  1
  O2-  O209  1  0.49916354  0.12539727  0.66462201  1
  O2-  O210  1  0.50014067  0.37539517  0.15963947  1
  O2-  O211  1  0.49952671  0.37449904  0.67246097  1
  O2-  O212  1  0.49993230  0.62453716  0.16174135  1
  O2-  O213  1  0.49990011  0.62490755  0.66465307  1
  O2-  O214  1  0.50101074  0.87508868  0.16417199  1
  O2-  O215  1  0.50052822  0.87508192  0.66619085  1
  O2-  O216  1  0.75135971  0.12497904  0.16172535  1
  O2-  O217  1  0.75091764  0.12480116  0.66283363  1
  O2-  O218  1  0.74862515  0.37544108  0.16043801  1
  O2-  O219  1  0.74916727  0.37483450  0.66599880  1
  O2-  O220  1  0.74924551  0.62541179  0.16577394  1
  O2-  O221  1  0.75203312  0.62467637  0.66257263  1
  O2-  O222  1  0.74726244  0.87497988  0.16378762  1
  O2-  O223  1  0.75194134  0.87499705  0.66634490  1
  O2-  O224  1  0.12483019  -0.00180367  0.34908454  1
  O2-  O225  1  0.12563712  0.00272885  0.85218462  1
  O2-  O226  1  0.12502019  0.24845001  0.34691610  1
  O2-  O227  1  0.12546594  0.24941651  0.84876385  1
  O2-  O228  1  0.12458940  0.50143819  0.35035676  1
  O2-  O229  1  0.12569560  0.49896623  0.84232989  1
  O2-  O230  1  0.12470841  0.75260676  0.35215603  1
  O2-  O231  1  0.12514171  0.74826920  0.84631405  1
  O2-  O232  1  0.37479320  0.00182002  0.34666597  1
  O2-  O233  1  0.37483283  0.00046431  0.84905326  1
  O2-  O234  1  0.37517180  0.25003776  0.34428218  1
  O2-  O235  1  0.37540774  0.25147059  0.84983662  1
  O2-  O236  1  0.37576816  0.49990590  0.34661937  1
  O2-  O237  1  0.37505903  0.49859087  0.84665947  1
  O2-  O238  1  0.37501522  0.74865296  0.34798400  1
  O2-  O239  1  0.37580022  0.74913157  0.84704128  1
  O2-  O240  1  0.62531694  0.00211170  0.34471798  1
  O2-  O241  1  0.62487429  -0.00071518  0.84942547  1
  O2-  O242  1  0.62503139  0.24936919  0.34382365  1
  O2-  O243  1  0.62395588  0.25121645  0.84896060  1
  O2-  O244  1  0.62520909  0.50062012  0.34628018  1
  O2-  O245  1  0.62438435  0.49830351  0.84828395  1
  O2-  O246  1  0.62585762  0.74845872  0.34646859  1
  O2-  O247  1  0.62414967  0.75085025  0.84913824  1
  O2-  O248  1  0.87542445  0.00025744  0.34733732  1
  O2-  O249  1  0.87447412  0.00218508  0.84881017  1
  O2-  O250  1  0.87464467  0.24980887  0.34336712  1
  O2-  O251  1  0.87517512  0.25038575  0.84290989  1
  O2-  O252  1  0.87437035  0.50163431  0.35008036  1
  O2-  O253  1  0.87440786  0.49722919  0.84270442  1
  O2-  O254  1  0.87465741  0.74877217  0.35215633  1
  O2-  O255  1  0.87431481  0.74961986  0.84928401  1
  O2-  O256  1  -0.00047478  0.12437241  0.34760500  1
  O2-  O257  1  0.00130996  0.12534615  0.84737503  1
  O2-  O258  1  -0.00280250  0.37508956  0.34871020  1
  O2-  O259  1  0.00066521  0.37458528  0.84294695  1
  O2-  O260  1  -0.00222960  0.62566573  0.35326551  1
  O2-  O261  1  0.00182436  0.62390751  0.84317570  1
  O2-  O262  1  0.00154973  0.87543213  0.35214533  1
  O2-  O263  1  -0.00091907  0.87525083  0.84940694  1
  O2-  O264  1  0.24986857  0.12553145  0.34720899  1
  O2-  O265  1  0.24875023  0.12567564  0.85048216  1
  O2-  O266  1  0.25053221  0.37479088  0.34850360  1
  O2-  O267  1  0.25124678  0.37424369  0.84961269  1
  O2-  O268  1  0.25039865  0.62454265  0.34940726  1
  O2-  O269  1  0.24981781  0.62474458  0.84381455  1
  O2-  O270  1  0.24787594  0.87572114  0.35221732  1
  O2-  O271  1  0.25217341  0.87475553  0.84866783  1
  O2-  O272  1  0.50044559  0.12630725  0.34343903  1
  O2-  O273  1  0.49999574  0.12500756  0.84705956  1
  O2-  O274  1  0.50108482  0.37487790  0.34461828  1
  O2-  O275  1  0.49968470  0.37509161  0.85440735  1
  O2-  O276  1  0.50057428  0.62416670  0.34371176  1
  O2-  O277  1  0.49971284  0.62423044  0.84692447  1
  O2-  O278  1  0.50016132  0.87529756  0.34594899  1
  O2-  O279  1  0.50212644  0.87532360  0.85031523  1
  O2-  O280  1  0.75025262  0.12513095  0.34303829  1
  O2-  O281  1  0.74979768  0.12596278  0.84459352  1
  O2-  O282  1  0.75085433  0.37554070  0.34291613  1
  O2-  O283  1  0.74834174  0.37449733  0.84804832  1
  O2-  O284  1  0.75134726  0.62497843  0.34824450  1
  O2-  O285  1  0.74787319  0.62427918  0.84548605  1
  O2-  O286  1  0.75129492  0.87512792  0.34765066  1
  O2-  O287  1  0.74629445  0.87458354  0.84881894  1
