# generated using pymatgen
data_BaYFeCuO5
_symmetry_space_group_name_H-M   'P 1'
_cell_length_a   15.67389159
_cell_length_b   15.66983155
_cell_length_c   15.49353463
_cell_angle_alpha   89.99959976
_cell_angle_beta   90.00134531
_cell_angle_gamma   90.00059516
_symmetry_Int_Tables_number   1
_chemical_formula_structural   BaYFeCuO5
_chemical_formula_sum   'Ba32 Y32 Fe32 Cu32 O160'
_cell_volume   3805.32429125
_cell_formula_units_Z   32
loop_
 _symmetry_equiv_pos_site_id
 _symmetry_equiv_pos_as_xyz
  1  'x, y, z'
loop_
 _atom_type_symbol
 _atom_type_oxidation_number
  Ba2+  2.0
  Y3+  3.0
  Fe3+  3.0
  Cu2+  2.0
  O2-  -2.0
loop_
 _atom_site_type_symbol
 _atom_site_label
 _atom_site_symmetry_multiplicity
 _atom_site_fract_x
 _atom_site_fract_y
 _atom_site_fract_z
 _atom_site_occupancy
  Ba2+  Ba0  1  0.00196880  -0.00763019  0.00759406  1
  Ba2+  Ba1  1  -0.00212918  0.00716141  0.49610065  1
  Ba2+  Ba2  1  0.00576441  0.25432078  0.01301451  1
  Ba2+  Ba3  1  0.00019274  0.25104310  0.50717216  1
  Ba2+  Ba4  1  0.00208253  0.50165653  0.02410063  1
  Ba2+  Ba5  1  -0.00108284  0.49734026  0.51923736  1
  Ba2+  Ba6  1  -0.00153757  0.75061600  0.02120859  1
  Ba2+  Ba7  1  -0.00306613  0.74492250  0.51188733  1
  Ba2+  Ba8  1  0.25325541  0.00244738  0.01249192  1
  Ba2+  Ba9  1  0.24614617  0.00321034  0.50304525  1
  Ba2+  Ba10  1  0.25477080  0.24984810  0.00584746  1
  Ba2+  Ba11  1  0.24167518  0.25185580  0.50741671  1
  Ba2+  Ba12  1  0.25073226  0.49681566  0.01179170  1
  Ba2+  Ba13  1  0.24773622  0.50025645  0.51822842  1
  Ba2+  Ba14  1  0.24874605  0.75064379  0.01816622  1
  Ba2+  Ba15  1  0.25260880  0.74512104  0.51154249  1
  Ba2+  Ba16  1  0.49987228  -0.00027259  0.01811975  1
  Ba2+  Ba17  1  0.50084386  -0.00018644  0.50723720  1
  Ba2+  Ba18  1  0.49090897  0.24541321  0.01095942  1
  Ba2+  Ba19  1  0.50033573  0.25056956  0.50674438  1
  Ba2+  Ba20  1  0.49214288  0.50147590  0.00464654  1
  Ba2+  Ba21  1  0.49656878  0.50450514  0.51330095  1
  Ba2+  Ba22  1  0.50312549  0.75331415  0.01202125  1
  Ba2+  Ba23  1  0.49715243  0.74480661  0.51260811  1
  Ba2+  Ba24  1  0.74605226  -0.00922912  0.01017137  1
  Ba2+  Ba25  1  0.75435984  0.00416199  0.50001596  1
  Ba2+  Ba26  1  0.74909568  0.24891625  0.01621229  1
  Ba2+  Ba27  1  0.75807783  0.24974419  0.50593559  1
  Ba2+  Ba28  1  0.75440637  0.50662396  0.02116055  1
  Ba2+  Ba29  1  0.75685269  0.50121126  0.51657376  1
  Ba2+  Ba30  1  0.75035863  0.75409433  0.01527813  1
  Ba2+  Ba31  1  0.75330581  0.74475383  0.51307914  1
  Y3+  Y32  1  -0.00107229  -0.00061975  0.25814474  1
  Y3+  Y33  1  0.00144580  0.00127570  0.75960190  1
  Y3+  Y34  1  -0.00074769  0.25101415  0.26035642  1
  Y3+  Y35  1  0.00261255  0.24958971  0.75495385  1
  Y3+  Y36  1  -0.00099771  0.49813163  0.25563120  1
  Y3+  Y37  1  0.00042968  0.49923061  0.75267048  1
  Y3+  Y38  1  -0.00129396  0.75177206  0.25544264  1
  Y3+  Y39  1  -0.00100936  0.74981614  0.75693828  1
  Y3+  Y40  1  0.25090515  0.00029585  0.25868286  1
  Y3+  Y41  1  0.24883816  0.00400025  0.75857596  1
  Y3+  Y42  1  0.25111451  0.25097174  0.25614688  1
  Y3+  Y43  1  0.24900213  0.24829470  0.75955502  1
  Y3+  Y44  1  0.25029694  0.49721457  0.25414478  1
  Y3+  Y45  1  0.25102548  0.50003675  0.75905376  1
  Y3+  Y46  1  0.25018681  0.75252185  0.25773173  1
  Y3+  Y47  1  0.25076195  0.74732929  0.75595540  1
  Y3+  Y48  1  0.49909634  -0.00070849  0.25573632  1
  Y3+  Y49  1  0.50097474  0.00044650  0.76017498  1
  Y3+  Y50  1  0.49732646  0.25019006  0.25458154  1
  Y3+  Y51  1  0.49812739  0.24937985  0.76053099  1
  Y3+  Y52  1  0.49840606  0.49883557  0.25493887  1
  Y3+  Y53  1  0.49780856  0.50112168  0.75904201  1
  Y3+  Y54  1  0.50033557  0.75244141  0.25629177  1
  Y3+  Y55  1  0.50066352  0.74851971  0.75840891  1
  Y3+  Y56  1  0.75026464  -0.00226060  0.25435369  1
  Y3+  Y57  1  0.74949774  -0.00210883  0.76166786  1
  Y3+  Y58  1  0.75178240  0.25149414  0.25803954  1
  Y3+  Y59  1  0.75044297  0.24974522  0.75584829  1
  Y3+  Y60  1  0.75195588  0.49967849  0.25638024  1
  Y3+  Y61  1  0.75142716  0.50063481  0.75425536  1
  Y3+  Y62  1  0.75054010  0.75159748  0.25345466  1
  Y3+  Y63  1  0.75001238  0.75102235  0.76000809  1
  Fe3+  Fe64  1  0.62535413  0.62453078  0.37578480  1
  Fe3+  Fe65  1  0.12467570  0.62406538  0.37524503  1
  Fe3+  Fe66  1  0.62524365  0.12573278  0.37568407  1
  Fe3+  Fe67  1  0.87545029  0.62485711  0.37399530  1
  Fe3+  Fe68  1  0.62541698  0.87388058  0.37954013  1
  Fe3+  Fe69  1  0.62475453  0.37634562  0.37895050  1
  Fe3+  Fe70  1  0.87583152  0.12514920  0.88193088  1
  Fe3+  Fe71  1  0.37468901  0.12583938  0.37897830  1
  Fe3+  Fe72  1  0.62573011  0.62463654  0.87734610  1
  Fe3+  Fe73  1  0.12439520  0.87435326  0.37916843  1
  Fe3+  Fe74  1  0.12508904  0.37630977  0.37539518  1
  Fe3+  Fe75  1  0.87641869  0.62455684  0.87630712  1
  Fe3+  Fe76  1  0.62545257  0.37551029  0.87982053  1
  Fe3+  Fe77  1  0.12579835  0.87392314  0.87581060  1
  Fe3+  Fe78  1  0.37474027  0.87473536  0.87662517  1
  Fe3+  Fe79  1  0.62518240  0.12495324  0.87837114  1
  Fe3+  Fe80  1  0.37422081  0.62418053  0.37500485  1
  Fe3+  Fe81  1  0.12460544  0.62499218  0.87650503  1
  Fe3+  Fe82  1  0.12431354  0.37569579  0.87592040  1
  Fe3+  Fe83  1  0.87523344  0.37574843  0.87796874  1
  Fe3+  Fe84  1  0.12458109  0.87546640  0.63360651  1
  Fe3+  Fe85  1  0.12513435  0.12501054  0.13913863  1
  Fe3+  Fe86  1  0.62567163  0.87527536  0.63493474  1
  Fe3+  Fe87  1  0.87532526  0.87628424  0.63726552  1
  Fe3+  Fe88  1  0.37496065  0.62576127  0.13741471  1
  Fe3+  Fe89  1  0.87521238  0.12443474  0.13599901  1
  Fe3+  Fe90  1  0.87500126  0.12391640  0.64088812  1
  Fe3+  Fe91  1  0.37471911  0.87538949  0.63567255  1
  Fe3+  Fe92  1  0.62485727  0.37442411  0.63513442  1
  Fe3+  Fe93  1  0.37450234  0.37417240  0.63795958  1
  Fe3+  Fe94  1  0.62389549  0.37537805  0.13457425  1
  Fe3+  Fe95  1  0.37533026  0.12496418  0.63530584  1
  Cu2+  Cu96  1  0.62430839  0.87417442  0.87226381  1
  Cu2+  Cu97  1  0.37493576  0.37561783  0.36589564  1
  Cu2+  Cu98  1  0.87506842  0.37649623  0.37293066  1
  Cu2+  Cu99  1  0.12476056  0.12616036  0.37183536  1
  Cu2+  Cu100  1  0.12435578  0.12524011  0.86717178  1
  Cu2+  Cu101  1  0.37418935  0.62600068  0.86606018  1
  Cu2+  Cu102  1  0.87424010  0.87393245  0.36558132  1
  Cu2+  Cu103  1  0.87412918  0.12515419  0.35872569  1
  Cu2+  Cu104  1  0.37536431  0.87481289  0.36855615  1
  Cu2+  Cu105  1  0.37462539  0.37461560  0.87223667  1
  Cu2+  Cu106  1  0.87573780  0.87385538  0.87389472  1
  Cu2+  Cu107  1  0.37489490  0.12381514  0.87256460  1
  Cu2+  Cu108  1  0.87511110  0.62597398  0.65211004  1
  Cu2+  Cu109  1  0.87549057  0.37331723  0.64151828  1
  Cu2+  Cu110  1  0.12551607  0.87631809  0.15434650  1
  Cu2+  Cu111  1  0.62432212  0.87510951  0.14365943  1
  Cu2+  Cu112  1  0.12597203  0.37446314  0.65130686  1
  Cu2+  Cu113  1  0.12473534  0.12401293  0.64077426  1
  Cu2+  Cu114  1  0.37477055  0.37460153  0.14145508  1
  Cu2+  Cu115  1  0.37414485  0.12467520  0.14488437  1
  Cu2+  Cu116  1  0.12586599  0.62541441  0.15178803  1
  Cu2+  Cu117  1  0.37508178  0.62480451  0.65345761  1
  Cu2+  Cu118  1  0.62512143  0.12454017  0.64984165  1
  Cu2+  Cu119  1  0.62525947  0.62495994  0.65084976  1
  Cu2+  Cu120  1  0.62404986  0.62489706  0.14940980  1
  Cu2+  Cu121  1  0.37454556  0.87533247  0.15278794  1
  Cu2+  Cu122  1  0.12532526  0.37388830  0.15117409  1
  Cu2+  Cu123  1  0.62509337  0.12544541  0.15132326  1
  Cu2+  Cu124  1  0.12491397  0.62552507  0.64974103  1
  Cu2+  Cu125  1  0.87537394  0.62562757  0.15217691  1
  Cu2+  Cu126  1  0.87539901  0.87615223  0.14269196  1
  Cu2+  Cu127  1  0.87493055  0.37418773  0.14813884  1
  O2-  O128  1  0.12513813  0.12457760  0.01878511  1
  O2-  O129  1  0.12424455  0.12493043  0.50756913  1
  O2-  O130  1  0.12379307  0.37658072  -0.00393383  1
  O2-  O131  1  0.12493860  0.37740264  0.49613049  1
  O2-  O132  1  0.12408702  0.62614010  -0.00365642  1
  O2-  O133  1  0.12461164  0.62387460  0.49509782  1
  O2-  O134  1  0.12632220  0.87263540  -0.00417526  1
  O2-  O135  1  0.12360757  0.87466571  0.50669481  1
  O2-  O136  1  0.37445401  0.12330528  0.00806458  1
  O2-  O137  1  0.37536421  0.12592839  0.50750679  1
  O2-  O138  1  0.37505718  0.37516956  0.00711494  1
  O2-  O139  1  0.37559666  0.37497423  0.51778287  1
  O2-  O140  1  0.37408310  0.62655000  0.01669070  1
  O2-  O141  1  0.37429371  0.62356140  0.49604069  1
  O2-  O142  1  0.37394528  0.87449112  -0.00296589  1
  O2-  O143  1  0.37623742  0.87481745  0.51553907  1
  O2-  O144  1  0.62467705  0.12540847  -0.00172267  1
  O2-  O145  1  0.62577737  0.12619541  0.49574333  1
  O2-  O146  1  0.62521987  0.37556175  0.00612341  1
  O2-  O147  1  0.62498283  0.37573036  0.50670746  1
  O2-  O148  1  0.62574356  0.62470240  -0.00276859  1
  O2-  O149  1  0.62557700  0.62400544  0.49563507  1
  O2-  O150  1  0.62368086  0.87432662  0.00779432  1
  O2-  O151  1  0.62641110  0.87426371  0.50716554  1
  O2-  O152  1  0.87570546  0.12520772  0.00891456  1
  O2-  O153  1  0.87464497  0.12435310  0.52003563  1
  O2-  O154  1  0.87480551  0.37664273  -0.00209112  1
  O2-  O155  1  0.87487988  0.37485232  0.50683472  1
  O2-  O156  1  0.87693308  0.62438412  -0.00353780  1
  O2-  O157  1  0.87523531  0.62444688  0.49479454  1
  O2-  O158  1  0.87617823  0.87435277  0.00791093  1
  O2-  O159  1  0.87386432  0.87676264  0.51725460  1
  O2-  O160  1  0.12472960  0.00088737  0.16999491  1
  O2-  O161  1  0.12552360  -0.00378425  0.66607013  1
  O2-  O162  1  0.12446634  0.24940401  0.16735548  1
  O2-  O163  1  0.12565264  0.25056110  0.66551868  1
  O2-  O164  1  0.12548659  0.49905333  0.16078759  1
  O2-  O165  1  0.12544494  0.50040364  0.66186161  1
  O2-  O166  1  0.12558616  0.75149045  0.16570037  1
  O2-  O167  1  0.12502883  0.75190899  0.65943628  1
  O2-  O168  1  0.37494881  -0.00127982  0.16861876  1
  O2-  O169  1  0.37589537  0.00061676  0.66413755  1
  O2-  O170  1  0.37513343  0.24985378  0.16689511  1
  O2-  O171  1  0.37610104  0.24874502  0.66667360  1
  O2-  O172  1  0.37497897  0.50155021  0.16323728  1
  O2-  O173  1  0.37540810  0.49955179  0.66603848  1
  O2-  O174  1  0.37456130  0.75044543  0.16606743  1
  O2-  O175  1  0.37561303  0.75023259  0.66289604  1
  O2-  O176  1  0.62443093  0.00162980  0.16795285  1
  O2-  O177  1  0.62468189  -0.00217270  0.66355609  1
  O2-  O178  1  0.62543951  0.25196559  0.16369454  1
  O2-  O179  1  0.62418287  0.25130903  0.66447232  1
  O2-  O180  1  0.62500922  0.49835345  0.16255405  1
  O2-  O181  1  0.62484644  0.49832498  0.66215577  1
  O2-  O182  1  0.62435446  0.74866851  0.16621748  1
  O2-  O183  1  0.62525940  0.75165344  0.66128253  1
  O2-  O184  1  0.87501661  0.00288460  0.16613203  1
  O2-  O185  1  0.87443209  -0.00096456  0.67332808  1
  O2-  O186  1  0.87426235  0.24806826  0.16407655  1
  O2-  O187  1  0.87455137  0.24763995  0.66947827  1
  O2-  O188  1  0.87463265  0.50022498  0.16204387  1
  O2-  O189  1  0.87454408  0.50154623  0.66133570  1
  O2-  O190  1  0.87520404  0.74941366  0.16468553  1
  O2-  O191  1  0.87462780  0.75125602  0.66363770  1
  O2-  O192  1  -0.00121933  0.12526055  0.16599687  1
  O2-  O193  1  -0.00162909  0.12392516  0.66925455  1
  O2-  O194  1  -0.00007710  0.37433348  0.16357994  1
  O2-  O195  1  0.00210603  0.37429405  0.66281785  1
  O2-  O196  1  0.00108192  0.62560470  0.16326588  1
  O2-  O197  1  -0.00007162  0.62565376  0.66142013  1
  O2-  O198  1  0.00150979  0.87575108  0.16626949  1
  O2-  O199  1  0.00069676  0.87466326  0.66418175  1
  O2-  O200  1  0.24822629  0.12432562  0.17002326  1
  O2-  O201  1  0.25353022  0.12471505  0.66363239  1
  O2-  O202  1  0.24890819  0.37417877  0.16475119  1
  O2-  O203  1  0.25083347  0.37471421  0.66562723  1
  O2-  O204  1  0.25044771  0.62612264  0.16644152  1
  O2-  O205  1  0.24981962  0.62517512  0.66359360  1
  O2-  O206  1  0.24985352  0.87616403  0.16749424  1
  O2-  O207  1  0.24942495  0.87426594  0.66065795  1
  O2-  O208  1  0.50095139  0.12520019  0.16699566  1
  O2-  O209  1  0.49876362  0.12472752  0.66149676  1
  O2-  O210  1  0.50240984  0.37468724  0.16580651  1
  O2-  O211  1  0.50065057  0.37517615  0.66605214  1
  O2-  O212  1  0.49877765  0.62539257  0.16712127  1
  O2-  O213  1  0.50045832  0.62454400  0.66469419  1
  O2-  O214  1  0.49856472  0.87552090  0.16717361  1
  O2-  O215  1  0.50111521  0.87462590  0.66268452  1
  O2-  O216  1  0.75153424  0.12547306  0.16235079  1
  O2-  O217  1  0.74988481  0.12443024  0.66858394  1
  O2-  O218  1  0.74813815  0.37496500  0.16348755  1
  O2-  O219  1  0.74725097  0.37436890  0.66372600  1
  O2-  O220  1  0.74987108  0.62491984  0.16240282  1
  O2-  O221  1  0.75008861  0.62504327  0.66349376  1
  O2-  O222  1  0.74978976  0.87534576  0.16541268  1
  O2-  O223  1  0.74914557  0.87498095  0.66677355  1
  O2-  O224  1  0.12452004  -0.00217439  0.35310629  1
  O2-  O225  1  0.12516322  0.00008917  0.84900808  1
  O2-  O226  1  0.12500722  0.25171243  0.34895591  1
  O2-  O227  1  0.12445902  0.25017591  0.84902611  1
  O2-  O228  1  0.12528576  0.50043504  0.34189479  1
  O2-  O229  1  0.12490398  0.50030639  0.84351442  1
  O2-  O230  1  0.12499460  0.75098374  0.34903865  1
  O2-  O231  1  0.12541596  0.74914366  0.84110576  1
  O2-  O232  1  0.37549268  0.00172847  0.35325576  1
  O2-  O233  1  0.37472922  -0.00176301  0.84539632  1
  O2-  O234  1  0.37630184  0.24889150  0.35095461  1
  O2-  O235  1  0.37519308  0.24936983  0.84935347  1
  O2-  O236  1  0.37546867  0.50082752  0.34442895  1
  O2-  O237  1  0.37534551  0.50117400  0.84956100  1
  O2-  O238  1  0.37522199  0.74910009  0.34831921  1
  O2-  O239  1  0.37476281  0.75077307  0.84463402  1
  O2-  O240  1  0.62525401  -0.00102031  0.35158960  1
  O2-  O241  1  0.62556538  0.00163531  0.84677788  1
  O2-  O242  1  0.62454735  0.25144599  0.34794843  1
  O2-  O243  1  0.62595638  0.25151193  0.84825312  1
  O2-  O244  1  0.62449072  0.49933626  0.34541393  1
  O2-  O245  1  0.62504856  0.49881029  0.84600880  1
  O2-  O246  1  0.62477869  0.75072679  0.34896505  1
  O2-  O247  1  0.62490753  0.74722994  0.84470444  1
  O2-  O248  1  0.87397730  -0.00044107  0.35031107  1
  O2-  O249  1  0.87493620  0.00268999  0.85432545  1
  O2-  O250  1  0.87381871  0.24932662  0.34878667  1
  O2-  O251  1  0.87413529  0.24950366  0.85101208  1
  O2-  O252  1  0.87458005  0.50236642  0.34391847  1
  O2-  O253  1  0.87502111  0.49944376  0.84242078  1
  O2-  O254  1  0.87449039  0.74926659  0.34702260  1
  O2-  O255  1  0.87537155  0.74771083  0.84506927  1
  O2-  O256  1  -0.00224229  0.12487024  0.34885338  1
  O2-  O257  1  -0.00185446  0.12515167  0.85189106  1
  O2-  O258  1  0.00149331  0.37529036  0.34646534  1
  O2-  O259  1  -0.00051031  0.37435488  0.84392147  1
  O2-  O260  1  0.00030231  0.62593813  0.34431142  1
  O2-  O261  1  0.00037304  0.62456060  0.84243823  1
  O2-  O262  1  0.00103327  0.87513845  0.35068267  1
  O2-  O263  1  0.00259697  0.87525726  0.84525810  1
  O2-  O264  1  0.25299075  0.12531691  0.35245345  1
  O2-  O265  1  0.24817786  0.12492271  0.84775941  1
  O2-  O266  1  0.25005585  0.37495429  0.34748415  1
  O2-  O267  1  0.24795272  0.37469874  0.84733839  1
  O2-  O268  1  0.24956220  0.62557530  0.34625255  1
  O2-  O269  1  0.24912674  0.62494566  0.84696306  1
  O2-  O270  1  0.24819551  0.87529165  0.35234699  1
  O2-  O271  1  0.24964316  0.87511257  0.84158294  1
  O2-  O272  1  0.49920752  0.12521773  0.34978482  1
  O2-  O273  1  0.50237149  0.12550313  0.84472982  1
  O2-  O274  1  0.50142964  0.37521810  0.35059297  1
  O2-  O275  1  0.50315383  0.37494702  0.84964537  1
  O2-  O276  1  0.50025797  0.62475977  0.34720446  1
  O2-  O277  1  0.50029925  0.62425793  0.84868782  1
  O2-  O278  1  0.50252568  0.87533564  0.35152827  1
  O2-  O279  1  0.49841245  0.87452607  0.84473151  1
  O2-  O280  1  0.74907591  0.12527029  0.34576221  1
  O2-  O281  1  0.75140486  0.12570893  0.85012571  1
  O2-  O282  1  0.74676394  0.37522349  0.34827303  1
  O2-  O283  1  0.74933119  0.37503042  0.84661762  1
  O2-  O284  1  0.74947909  0.62525691  0.34418054  1
  O2-  O285  1  0.75075634  0.62378149  0.84517533  1
  O2-  O286  1  0.74767166  0.87512261  0.34922528  1
  O2-  O287  1  0.74995387  0.87432209  0.84980869  1
