# generated using pymatgen
data_BaYFeCuO5
_symmetry_space_group_name_H-M   'P 1'
_cell_length_a   15.65454592
_cell_length_b   15.65468022
_cell_length_c   15.45244856
_cell_angle_alpha   89.99965859
_cell_angle_beta   90.00102475
_cell_angle_gamma   89.99942403
_symmetry_Int_Tables_number   1
_chemical_formula_structural   BaYFeCuO5
_chemical_formula_sum   'Ba32 Y32 Fe32 Cu32 O160'
_cell_volume   3786.88382518
_cell_formula_units_Z   32
loop_
 _symmetry_equiv_pos_site_id
 _symmetry_equiv_pos_as_xyz
  1  'x, y, z'
loop_
 _atom_type_symbol
 _atom_type_oxidation_number
  Ba2+  2.0
  Y3+  3.0
  Fe3+  3.0
  Cu2+  2.0
  O2-  -2.0
loop_
 _atom_site_type_symbol
 _atom_site_label
 _atom_site_symmetry_multiplicity
 _atom_site_fract_x
 _atom_site_fract_y
 _atom_site_fract_z
 _atom_site_occupancy
  Ba2+  Ba0  1  0.00655892  -0.00196089  0.01814802  1
  Ba2+  Ba1  1  -0.00596252  -0.00269643  0.51145076  1
  Ba2+  Ba2  1  0.01180115  0.24834003  0.00651108  1
  Ba2+  Ba3  1  -0.01020760  0.25238724  0.51044963  1
  Ba2+  Ba4  1  0.00207597  0.49827583  0.00238576  1
  Ba2+  Ba5  1  0.00108782  0.49351323  0.51808518  1
  Ba2+  Ba6  1  -0.00449577  0.75531149  0.01236186  1
  Ba2+  Ba7  1  0.00547905  0.75557985  0.51487993  1
  Ba2+  Ba8  1  0.25039868  -0.00015113  0.01885043  1
  Ba2+  Ba9  1  0.24768481  -0.00302161  0.51021914  1
  Ba2+  Ba10  1  0.24276457  0.24343756  0.01091051  1
  Ba2+  Ba11  1  0.24962776  0.25047962  0.51677294  1
  Ba2+  Ba12  1  0.24746963  0.49771134  0.00219760  1
  Ba2+  Ba13  1  0.24598840  0.50471860  0.52375119  1
  Ba2+  Ba14  1  0.25676734  0.75766264  0.00562294  1
  Ba2+  Ba15  1  0.24489581  0.74755252  0.51704647  1
  Ba2+  Ba16  1  0.49530513  -0.00851996  0.01156255  1
  Ba2+  Ba17  1  0.50885984  0.00338708  0.51017373  1
  Ba2+  Ba18  1  0.49819593  0.24749875  0.00680704  1
  Ba2+  Ba19  1  0.50746036  0.24424213  0.51669836  1
  Ba2+  Ba20  1  0.50396612  0.50612568  0.00198616  1
  Ba2+  Ba21  1  0.50455559  0.50433233  0.52294234  1
  Ba2+  Ba22  1  0.50081478  0.75616363  0.00596025  1
  Ba2+  Ba23  1  0.50570445  0.74828953  0.51696296  1
  Ba2+  Ba24  1  0.74784754  -0.01106594  0.01293255  1
  Ba2+  Ba25  1  0.74826404  0.00358603  0.51092416  1
  Ba2+  Ba26  1  0.74629162  0.25341482  0.00183959  1
  Ba2+  Ba27  1  0.75250334  0.24600639  0.51148969  1
  Ba2+  Ba28  1  0.74666417  0.50633878  0.00196385  1
  Ba2+  Ba29  1  0.74876225  0.49274000  0.51733449  1
  Ba2+  Ba30  1  0.74598000  0.75315941  0.01274934  1
  Ba2+  Ba31  1  0.74463048  0.75622348  0.51521321  1
  Y3+  Y32  1  0.00112845  -0.00048630  0.25996446  1
  Y3+  Y33  1  -0.00033481  0.00076637  0.75437061  1
  Y3+  Y34  1  -0.00048443  0.24933861  0.25764915  1
  Y3+  Y35  1  0.00058297  0.25024676  0.75756876  1
  Y3+  Y36  1  -0.00066878  0.49738740  0.25653411  1
  Y3+  Y37  1  0.00038293  0.49855058  0.75832779  1
  Y3+  Y38  1  0.00074617  0.75266347  0.25841859  1
  Y3+  Y39  1  0.00008119  0.75149700  0.75466018  1
  Y3+  Y40  1  0.24949399  -0.00126440  0.25666431  1
  Y3+  Y41  1  0.25001131  0.00000122  0.75683746  1
  Y3+  Y42  1  0.24810958  0.24845604  0.25310218  1
  Y3+  Y43  1  0.24750139  0.24926570  0.76014649  1
  Y3+  Y44  1  0.24896089  0.49884620  0.25356589  1
  Y3+  Y45  1  0.24911994  0.50127607  0.75978313  1
  Y3+  Y46  1  0.25013229  0.75339478  0.25747885  1
  Y3+  Y47  1  0.25171399  0.75063842  0.75693981  1
  Y3+  Y48  1  0.50096619  -0.00222289  0.25801362  1
  Y3+  Y49  1  0.50184109  -0.00146826  0.75627453  1
  Y3+  Y50  1  0.50002240  0.24741862  0.25756098  1
  Y3+  Y51  1  0.50193480  0.24820357  0.75666332  1
  Y3+  Y52  1  0.50046385  0.50109469  0.25519593  1
  Y3+  Y53  1  0.50075131  0.50184793  0.75870207  1
  Y3+  Y54  1  0.50172278  0.75276278  0.25537544  1
  Y3+  Y55  1  0.49986613  0.75232632  0.75907065  1
  Y3+  Y56  1  0.74798551  -0.00090689  0.26150434  1
  Y3+  Y57  1  0.74923633  -0.00098063  0.75350037  1
  Y3+  Y58  1  0.75213071  0.24822599  0.26233048  1
  Y3+  Y59  1  0.75035979  0.24956984  0.75434299  1
  Y3+  Y60  1  0.75104706  0.49951741  0.25787734  1
  Y3+  Y61  1  0.75023390  0.49901607  0.75727868  1
  Y3+  Y62  1  0.74723656  0.75251946  0.25659679  1
  Y3+  Y63  1  0.74868671  0.75287108  0.75686819  1
  Fe3+  Fe64  1  0.12488939  0.62421522  0.37583420  1
  Fe3+  Fe65  1  0.12437219  0.62745176  0.87829397  1
  Fe3+  Fe66  1  0.12532655  0.87663402  0.87541641  1
  Fe3+  Fe67  1  0.37473878  0.12556680  0.37786425  1
  Fe3+  Fe68  1  0.87507539  0.87553192  0.87526531  1
  Fe3+  Fe69  1  0.62517645  0.62458732  0.37666553  1
  Fe3+  Fe70  1  0.87496311  0.37489080  0.87920820  1
  Fe3+  Fe71  1  0.37539835  0.37442874  0.87813185  1
  Fe3+  Fe72  1  0.37438939  0.12319597  0.87640463  1
  Fe3+  Fe73  1  0.37564586  0.87387913  0.38060869  1
  Fe3+  Fe74  1  0.62565986  0.12318474  0.87977072  1
  Fe3+  Fe75  1  0.37505459  0.37576385  0.38053165  1
  Fe3+  Fe76  1  0.12575602  0.37496447  0.37698201  1
  Fe3+  Fe77  1  0.12449308  0.12518789  0.37965511  1
  Fe3+  Fe78  1  0.62414012  0.37490083  0.37749178  1
  Fe3+  Fe79  1  0.87431747  0.87423634  0.37713262  1
  Fe3+  Fe80  1  0.87515935  0.62445422  0.38135053  1
  Fe3+  Fe81  1  0.87568864  0.12359299  0.88063980  1
  Fe3+  Fe82  1  0.62566748  0.62731438  0.87401277  1
  Fe3+  Fe83  1  0.37477769  0.62416594  0.37825510  1
  Fe3+  Fe84  1  0.37509721  0.37449475  0.13323433  1
  Fe3+  Fe85  1  0.87444470  0.12419030  0.13487821  1
  Fe3+  Fe86  1  0.37556418  0.87566738  0.63526119  1
  Fe3+  Fe87  1  0.87457964  0.62547660  0.13659844  1
  Fe3+  Fe88  1  0.87467838  0.37430433  0.13425167  1
  Fe3+  Fe89  1  0.12502380  0.62600729  0.13333735  1
  Fe3+  Fe90  1  0.87480776  0.62546758  0.63573813  1
  Fe3+  Fe91  1  0.37556549  0.37469805  0.63675116  1
  Fe3+  Fe92  1  0.62507722  0.12439357  0.13521772  1
  Fe3+  Fe93  1  0.37539688  0.62566427  0.13464858  1
  Fe3+  Fe94  1  0.62530105  0.37513417  0.13587558  1
  Fe3+  Fe95  1  0.12442612  0.12541140  0.63533291  1
  Cu2+  Cu96  1  0.37486525  0.62599469  0.86671622  1
  Cu2+  Cu97  1  0.62411756  0.87453138  0.37368804  1
  Cu2+  Cu98  1  0.87530288  0.12445042  0.37185084  1
  Cu2+  Cu99  1  0.12538876  0.37452673  0.87208377  1
  Cu2+  Cu100  1  0.62511037  0.87620064  0.87090457  1
  Cu2+  Cu101  1  0.12459834  0.12291086  0.87031158  1
  Cu2+  Cu102  1  0.62479174  0.37454855  0.86377985  1
  Cu2+  Cu103  1  0.87522142  0.62652041  0.86351717  1
  Cu2+  Cu104  1  0.87494206  0.37578036  0.37277840  1
  Cu2+  Cu105  1  0.62473756  0.12517220  0.37063557  1
  Cu2+  Cu106  1  0.37473973  0.87646072  0.86890157  1
  Cu2+  Cu107  1  0.12570502  0.87473930  0.37392202  1
  Cu2+  Cu108  1  0.87474039  0.87555295  0.15306707  1
  Cu2+  Cu109  1  0.12496985  0.87396810  0.15215338  1
  Cu2+  Cu110  1  0.87481661  0.87502410  0.64870685  1
  Cu2+  Cu111  1  0.12395968  0.62503163  0.65531533  1
  Cu2+  Cu112  1  0.12545907  0.37440129  0.65312542  1
  Cu2+  Cu113  1  0.62505513  0.62494944  0.15063537  1
  Cu2+  Cu114  1  0.12412983  0.12418670  0.14450513  1
  Cu2+  Cu115  1  0.62485008  0.37468357  0.65350470  1
  Cu2+  Cu116  1  0.87493115  0.37459301  0.64519470  1
  Cu2+  Cu117  1  0.87521515  0.12502484  0.64358917  1
  Cu2+  Cu118  1  0.62581628  0.12473480  0.64524319  1
  Cu2+  Cu119  1  0.62445463  0.87515337  0.14335382  1
  Cu2+  Cu120  1  0.12433508  0.37519373  0.14013452  1
  Cu2+  Cu121  1  0.37543669  0.62542849  0.65290179  1
  Cu2+  Cu122  1  0.12550623  0.87608673  0.64186123  1
  Cu2+  Cu123  1  0.62471033  0.87574706  0.64249504  1
  Cu2+  Cu124  1  0.62626444  0.62542226  0.65380355  1
  Cu2+  Cu125  1  0.37558631  0.12454111  0.15033888  1
  Cu2+  Cu126  1  0.37510738  0.87461801  0.14415340  1
  Cu2+  Cu127  1  0.37486970  0.12486139  0.64862217  1
  O2-  O128  1  0.12480831  0.12235504  0.00814914  1
  O2-  O129  1  0.12443279  0.12675667  0.50669143  1
  O2-  O130  1  0.12580191  0.37552692  0.00615140  1
  O2-  O131  1  0.12720212  0.37661431  0.49718132  1
  O2-  O132  1  0.12428935  0.62780657  0.00609654  1
  O2-  O133  1  0.12472702  0.62238749  0.49609312  1
  O2-  O134  1  0.12484902  0.87511875  -0.00378484  1
  O2-  O135  1  0.12653086  0.87454734  0.50702530  1
  O2-  O136  1  0.37427868  0.12404396  -0.00312324  1
  O2-  O137  1  0.37477059  0.12856786  0.49790646  1
  O2-  O138  1  0.37543948  0.37441508  0.00627936  1
  O2-  O139  1  0.37539246  0.37636796  0.50662376  1
  O2-  O140  1  0.37488352  0.62525197  0.01413711  1
  O2-  O141  1  0.37455574  0.62191520  0.49796493  1
  O2-  O142  1  0.37422030  0.87584598  0.00790193  1
  O2-  O143  1  0.37573143  0.87351402  0.50722359  1
  O2-  O144  1  0.62533522  0.12392257  0.00740973  1
  O2-  O145  1  0.62597849  0.12635074  0.50712194  1
  O2-  O146  1  0.62444692  0.37540728  0.01553095  1
  O2-  O147  1  0.62310104  0.37586312  0.49774732  1
  O2-  O148  1  0.62584684  0.62702429  -0.00455453  1
  O2-  O149  1  0.62540263  0.62297188  0.49698556  1
  O2-  O150  1  0.62478236  0.87505679  0.00724959  1
  O2-  O151  1  0.62352485  0.87449031  0.50745411  1
  O2-  O152  1  0.87504959  0.12389386  0.00748459  1
  O2-  O153  1  0.87517395  0.12516664  0.50775064  1
  O2-  O154  1  0.87463312  0.37502645  0.00755653  1
  O2-  O155  1  0.87453246  0.37631106  0.50848288  1
  O2-  O156  1  0.87523939  0.62505456  0.01631975  1
  O2-  O157  1  0.87555942  0.62395010  0.50715001  1
  O2-  O158  1  0.87575102  0.87526625  -0.00401145  1
  O2-  O159  1  0.87457107  0.87303866  0.49793661  1
  O2-  O160  1  0.12506738  -0.00213117  0.16765221  1
  O2-  O161  1  0.12540422  0.00309376  0.66150497  1
  O2-  O162  1  0.12439937  0.25011014  0.16523288  1
  O2-  O163  1  0.12561945  0.24875991  0.66512063  1
  O2-  O164  1  0.12458840  0.50312660  0.15965845  1
  O2-  O165  1  0.12512866  0.49973322  0.66798421  1
  O2-  O166  1  0.12470432  0.74819991  0.16364360  1
  O2-  O167  1  0.12501988  0.74920907  0.66386331  1
  O2-  O168  1  0.37480024  0.00104614  0.16775330  1
  O2-  O169  1  0.37471582  -0.00087036  0.66001344  1
  O2-  O170  1  0.37553415  0.25135149  0.16222215  1
  O2-  O171  1  0.37521712  0.25174512  0.66411322  1
  O2-  O172  1  0.37509489  0.49901396  0.16293130  1
  O2-  O173  1  0.37508194  0.49886395  0.66610448  1
  O2-  O174  1  0.37479915  0.74751722  0.16793991  1
  O2-  O175  1  0.37501210  0.75093090  0.66242191  1
  O2-  O176  1  0.62529875  0.00310588  0.16539529  1
  O2-  O177  1  0.62496269  0.00023888  0.66560154  1
  O2-  O178  1  0.62464177  0.24906373  0.16301295  1
  O2-  O179  1  0.62478443  0.25063343  0.66824330  1
  O2-  O180  1  0.62553064  0.49883844  0.16377124  1
  O2-  O181  1  0.62526713  0.50022543  0.66601612  1
  O2-  O182  1  0.62482423  0.74876560  0.16478144  1
  O2-  O183  1  0.62518105  0.74925810  0.66374215  1
  O2-  O184  1  0.87396869  0.00100541  0.16271534  1
  O2-  O185  1  0.87523196  -0.00136728  0.66388116  1
  O2-  O186  1  0.87446295  0.24959737  0.16269277  1
  O2-  O187  1  0.87549959  0.25036016  0.66932758  1
  O2-  O188  1  0.87441155  0.49879259  0.16483745  1
  O2-  O189  1  0.87523770  0.50266264  0.66641991  1
  O2-  O190  1  0.87536553  0.75018781  0.16582752  1
  O2-  O191  1  0.87545655  0.74868976  0.66141303  1
  O2-  O192  1  -0.00390929  0.12430567  0.16524814  1
  O2-  O193  1  0.00272425  0.12583573  0.66523290  1
  O2-  O194  1  -0.00388852  0.37495412  0.16336687  1
  O2-  O195  1  0.00182282  0.37540490  0.66726782  1
  O2-  O196  1  0.00074548  0.62505753  0.16474301  1
  O2-  O197  1  -0.00162356  0.62442859  0.66446291  1
  O2-  O198  1  0.00006494  0.87495719  0.16447362  1
  O2-  O199  1  -0.00072781  0.87531222  0.66322131  1
  O2-  O200  1  0.25115122  0.12490811  0.16542988  1
  O2-  O201  1  0.24827936  0.12625668  0.66182633  1
  O2-  O202  1  0.25318761  0.37491716  0.16296654  1
  O2-  O203  1  0.25185962  0.37539697  0.66376954  1
  O2-  O204  1  0.24890320  0.62428967  0.16250664  1
  O2-  O205  1  0.24898785  0.62425713  0.66593123  1
  O2-  O206  1  0.24869683  0.87468873  0.16624035  1
  O2-  O207  1  0.25309460  0.87493762  0.66311023  1
  O2-  O208  1  0.50179892  0.12564530  0.16195432  1
  O2-  O209  1  0.49898038  0.12560765  0.66682013  1
  O2-  O210  1  0.49898148  0.37478283  0.16434818  1
  O2-  O211  1  0.49863832  0.37518192  0.66466819  1
  O2-  O212  1  0.49995736  0.62354346  0.16354048  1
  O2-  O213  1  0.50134220  0.62447850  0.66454415  1
  O2-  O214  1  0.50013089  0.87523801  0.16635029  1
  O2-  O215  1  0.49726421  0.87505807  0.66507732  1
  O2-  O216  1  0.74996238  0.12567721  0.16271175  1
  O2-  O217  1  0.75053236  0.12545505  0.66878148  1
  O2-  O218  1  0.75130348  0.37421301  0.16394309  1
  O2-  O219  1  0.74842522  0.37498523  0.66782291  1
  O2-  O220  1  0.75033322  0.62480245  0.16605103  1
  O2-  O221  1  0.75179357  0.62479695  0.66272825  1
  O2-  O222  1  0.75048785  0.87456151  0.16461151  1
  O2-  O223  1  0.75094738  0.87509379  0.66463525  1
  O2-  O224  1  0.12551984  0.00288578  0.35185357  1
  O2-  O225  1  0.12441952  -0.00151739  0.84294405  1
  O2-  O226  1  0.12605523  0.24929373  0.34765197  1
  O2-  O227  1  0.12491400  0.24925792  0.84947016  1
  O2-  O228  1  0.12529184  0.49951364  0.34070534  1
  O2-  O229  1  0.12505340  0.50322351  0.85268480  1
  O2-  O230  1  0.12546097  0.74747916  0.34628943  1
  O2-  O231  1  0.12504547  0.75020599  0.84683915  1
  O2-  O232  1  0.37466395  -0.00088218  0.35180080  1
  O2-  O233  1  0.37552608  0.00190082  0.84268804  1
  O2-  O234  1  0.37421913  0.25214102  0.34647934  1
  O2-  O235  1  0.37557390  0.25018753  0.84836893  1
  O2-  O236  1  0.37458915  0.49830174  0.34433133  1
  O2-  O237  1  0.37518867  0.49850579  0.85173705  1
  O2-  O238  1  0.37455080  0.74973156  0.34988822  1
  O2-  O239  1  0.37465169  0.75022836  0.84730952  1
  O2-  O240  1  0.62399005  -0.00013244  0.34922794  1
  O2-  O241  1  0.62549507  0.00283993  0.84857454  1
  O2-  O242  1  0.62401078  0.25193409  0.34480315  1
  O2-  O243  1  0.62514925  0.24789961  0.85283830  1
  O2-  O244  1  0.62414209  0.49983218  0.34327748  1
  O2-  O245  1  0.62496182  0.50051010  0.84959204  1
  O2-  O246  1  0.62478027  0.74749231  0.34718854  1
  O2-  O247  1  0.62517865  0.75023479  0.84630957  1
  O2-  O248  1  0.87532570  -0.00197645  0.34698638  1
  O2-  O249  1  0.87486940  0.00131547  0.84670343  1
  O2-  O250  1  0.87537930  0.25011683  0.34752231  1
  O2-  O251  1  0.87444362  0.24958304  0.85414670  1
  O2-  O252  1  0.87577758  0.50297158  0.34745939  1
  O2-  O253  1  0.87506411  0.49897226  0.85202537  1
  O2-  O254  1  0.87492548  0.74777148  0.34828452  1
  O2-  O255  1  0.87556880  0.75131344  0.84493995  1
  O2-  O256  1  0.00304704  0.12576272  0.34898740  1
  O2-  O257  1  -0.00321752  0.12539919  0.84931363  1
  O2-  O258  1  0.00265921  0.37491316  0.34615821  1
  O2-  O259  1  -0.00311610  0.37524551  0.85081348  1
  O2-  O260  1  -0.00086700  0.62445263  0.34694378  1
  O2-  O261  1  0.00159029  0.62548003  0.84959043  1
  O2-  O262  1  -0.00150284  0.87409333  0.34789340  1
  O2-  O263  1  0.00006841  0.87509640  0.84439625  1
  O2-  O264  1  0.24905656  0.12574963  0.34842567  1
  O2-  O265  1  0.25110882  0.12525939  0.84504815  1
  O2-  O266  1  0.25138462  0.37515617  0.34597801  1
  O2-  O267  1  0.25329823  0.37519439  0.84844653  1
  O2-  O268  1  0.25042146  0.62367182  0.34319383  1
  O2-  O269  1  0.24808044  0.62541381  0.85079013  1
  O2-  O270  1  0.25354266  0.87474381  0.34972186  1
  O2-  O271  1  0.24869011  0.87512243  0.84543566  1
  O2-  O272  1  0.49736794  0.12566273  0.34527316  1
  O2-  O273  1  0.50161400  0.12560928  0.85021590  1
  O2-  O274  1  0.49781497  0.37501840  0.34642032  1
  O2-  O275  1  0.49812802  0.37475874  0.84982982  1
  O2-  O276  1  0.49925729  0.62401064  0.34469559  1
  O2-  O277  1  0.50067663  0.62499055  0.84796553  1
  O2-  O278  1  0.49681261  0.87432525  0.34902010  1
  O2-  O279  1  0.49979889  0.87571525  0.84886868  1
  O2-  O280  1  0.75001779  0.12503397  0.34712959  1
  O2-  O281  1  0.75061056  0.12567478  0.85361891  1
  O2-  O282  1  0.74784241  0.37563139  0.34625907  1
  O2-  O283  1  0.75196837  0.37519038  0.85215561  1
  O2-  O284  1  0.75112447  0.62370056  0.34839801  1
  O2-  O285  1  0.74993470  0.62467542  0.84602711  1
  O2-  O286  1  0.75086918  0.87421034  0.34756283  1
  O2-  O287  1  0.75164133  0.87575528  0.84736012  1
