# generated using pymatgen
data_BaYFeCuO5
_symmetry_space_group_name_H-M   'P 1'
_cell_length_a   15.67148415
_cell_length_b   15.67825305
_cell_length_c   15.50444434
_cell_angle_alpha   90.00465912
_cell_angle_beta   90.00340959
_cell_angle_gamma   90.00355346
_symmetry_Int_Tables_number   1
_chemical_formula_structural   BaYFeCuO5
_chemical_formula_sum   'Ba32 Y32 Fe32 Cu32 O160'
_cell_volume   3809.46511347
_cell_formula_units_Z   32
loop_
 _symmetry_equiv_pos_site_id
 _symmetry_equiv_pos_as_xyz
  1  'x, y, z'
loop_
 _atom_type_symbol
 _atom_type_oxidation_number
  Ba2+  2.0
  Y3+  3.0
  Fe3+  3.0
  Cu2+  2.0
  O2-  -2.0
loop_
 _atom_site_type_symbol
 _atom_site_label
 _atom_site_symmetry_multiplicity
 _atom_site_fract_x
 _atom_site_fract_y
 _atom_site_fract_z
 _atom_site_occupancy
  Ba2+  Ba0  1  0.00212865  -0.00280480  0.01214750  1
  Ba2+  Ba1  1  -0.00335507  0.00216209  0.51752560  1
  Ba2+  Ba2  1  -0.00012691  0.25004413  0.01526271  1
  Ba2+  Ba3  1  -0.00136691  0.24993831  0.52435011  1
  Ba2+  Ba4  1  -0.00154191  0.50025135  0.02434889  1
  Ba2+  Ba5  1  -0.00536888  0.49510902  0.51918544  1
  Ba2+  Ba6  1  -0.00033828  0.75194436  0.02220345  1
  Ba2+  Ba7  1  -0.00614322  0.75379195  0.51066723  1
  Ba2+  Ba8  1  0.24148207  0.00250414  0.00782349  1
  Ba2+  Ba9  1  0.24115907  0.00193780  0.50672216  1
  Ba2+  Ba10  1  0.25244140  0.25204644  0.01098846  1
  Ba2+  Ba11  1  0.24583528  0.25495063  0.52206507  1
  Ba2+  Ba12  1  0.24880824  0.49288748  0.01504291  1
  Ba2+  Ba13  1  0.25472456  0.49533899  0.52232630  1
  Ba2+  Ba14  1  0.23802410  0.75191092  0.01199147  1
  Ba2+  Ba15  1  0.25102171  0.74828263  0.50709696  1
  Ba2+  Ba16  1  0.49965063  0.01039890  -0.00509260  1
  Ba2+  Ba17  1  0.51300020  0.00066092  0.50730122  1
  Ba2+  Ba18  1  0.50033292  0.25504521  -0.00237147  1
  Ba2+  Ba19  1  0.50762340  0.25183510  0.50624151  1
  Ba2+  Ba20  1  0.50623769  0.49260087  0.00749084  1
  Ba2+  Ba21  1  0.50088934  0.49948086  0.50725217  1
  Ba2+  Ba22  1  0.50746132  0.74260337  0.00743219  1
  Ba2+  Ba23  1  0.50876908  0.74778729  0.50480113  1
  Ba2+  Ba24  1  0.75579017  0.00475181  0.00076135  1
  Ba2+  Ba25  1  0.74759978  0.00026483  0.51756189  1
  Ba2+  Ba26  1  0.74745616  0.25292747  0.00175337  1
  Ba2+  Ba27  1  0.74889679  0.24735253  0.51311231  1
  Ba2+  Ba28  1  0.74645123  0.49845054  0.01595881  1
  Ba2+  Ba29  1  0.74904358  0.49978294  0.50547344  1
  Ba2+  Ba30  1  0.75444437  0.74329474  0.01754999  1
  Ba2+  Ba31  1  0.74848709  0.75269876  0.51299966  1
  Y3+  Y32  1  0.00170329  -0.00191701  0.25564394  1
  Y3+  Y33  1  -0.00129901  0.00078260  0.75803389  1
  Y3+  Y34  1  0.00059528  0.25112006  0.25354241  1
  Y3+  Y35  1  -0.00177847  0.24894203  0.75558285  1
  Y3+  Y36  1  -0.00086413  0.49973585  0.25498264  1
  Y3+  Y37  1  -0.00237025  0.49921173  0.75312572  1
  Y3+  Y38  1  0.00060380  0.75161068  0.25631190  1
  Y3+  Y39  1  -0.00164831  0.75107861  0.75574786  1
  Y3+  Y40  1  0.24692911  -0.00089352  0.25684771  1
  Y3+  Y41  1  0.24895638  0.00023097  0.75897198  1
  Y3+  Y42  1  0.24994049  0.25117025  0.25329075  1
  Y3+  Y43  1  0.25169298  0.25170331  0.75882040  1
  Y3+  Y44  1  0.25025696  0.49821030  0.25301826  1
  Y3+  Y45  1  0.25309574  0.49832418  0.75780657  1
  Y3+  Y46  1  0.24727946  0.75145849  0.25681644  1
  Y3+  Y47  1  0.24994912  0.74988774  0.75857255  1
  Y3+  Y48  1  0.50275087  0.00037896  0.26275247  1
  Y3+  Y49  1  0.50205208  0.00184222  0.75528543  1
  Y3+  Y50  1  0.50229494  0.25216604  0.25715985  1
  Y3+  Y51  1  0.50059981  0.25078613  0.76038058  1
  Y3+  Y52  1  0.50331648  0.49816728  0.25347410  1
  Y3+  Y53  1  0.50028850  0.49856903  0.76322455  1
  Y3+  Y54  1  0.50364033  0.74955180  0.25784168  1
  Y3+  Y55  1  0.50163218  0.74853412  0.75833197  1
  Y3+  Y56  1  0.74862695  -0.00001522  0.26059917  1
  Y3+  Y57  1  0.74971619  0.00155421  0.75493924  1
  Y3+  Y58  1  0.74719518  0.25174300  0.25777985  1
  Y3+  Y59  1  0.74913722  0.24779811  0.75849157  1
  Y3+  Y60  1  0.74731464  0.49925214  0.25388295  1
  Y3+  Y61  1  0.74893648  0.50010159  0.76010384  1
  Y3+  Y62  1  0.74878375  0.74903603  0.25751870  1
  Y3+  Y63  1  0.74965773  0.75007225  0.75687560  1
  Fe3+  Fe64  1  0.37460097  0.12604954  0.38164329  1
  Fe3+  Fe65  1  0.87572513  0.87449582  0.87619850  1
  Fe3+  Fe66  1  0.87541705  0.12583497  0.37700887  1
  Fe3+  Fe67  1  0.12484622  0.37531071  0.37608132  1
  Fe3+  Fe68  1  0.62604886  0.87478165  0.88005580  1
  Fe3+  Fe69  1  0.37523474  0.87523413  0.38055924  1
  Fe3+  Fe70  1  0.87455926  0.62433465  0.37587927  1
  Fe3+  Fe71  1  0.12344560  0.37605532  0.87486778  1
  Fe3+  Fe72  1  0.12479945  0.62358444  0.37912916  1
  Fe3+  Fe73  1  0.87496604  0.37407709  0.37559174  1
  Fe3+  Fe74  1  0.37472861  0.37481414  0.37591046  1
  Fe3+  Fe75  1  0.37432745  0.62461902  0.88086333  1
  Fe3+  Fe76  1  0.87482603  0.87596276  0.37599767  1
  Fe3+  Fe77  1  0.87585623  0.62460222  0.87633201  1
  Fe3+  Fe78  1  0.37509683  0.62362433  0.37535595  1
  Fe3+  Fe79  1  0.12289079  0.62421604  0.87565770  1
  Fe3+  Fe80  1  0.12401092  0.12610941  0.87529027  1
  Fe3+  Fe81  1  0.12368838  0.12687078  0.37664468  1
  Fe3+  Fe82  1  0.87571050  0.37529204  0.87655164  1
  Fe3+  Fe83  1  0.37443740  0.87486533  0.88110277  1
  Fe3+  Fe84  1  0.62508004  0.37531009  0.64055178  1
  Fe3+  Fe85  1  0.87421973  0.12494131  0.13714454  1
  Fe3+  Fe86  1  0.37619662  0.87463774  0.63524491  1
  Fe3+  Fe87  1  0.12468375  0.62480236  0.63377578  1
  Fe3+  Fe88  1  0.62546597  0.87702730  0.13418541  1
  Fe3+  Fe89  1  0.37631792  0.87606513  0.13490680  1
  Fe3+  Fe90  1  0.62466384  0.12504948  0.13820837  1
  Fe3+  Fe91  1  0.37603777  0.12448782  0.13885950  1
  Fe3+  Fe92  1  0.37544834  0.12530760  0.63511513  1
  Fe3+  Fe93  1  0.62475775  0.62400640  0.64067826  1
  Fe3+  Fe94  1  0.12497777  0.87479741  0.63741909  1
  Fe3+  Fe95  1  0.37521979  0.62521187  0.13420623  1
  Cu2+  Cu96  1  0.87575153  0.12530343  0.86394071  1
  Cu2+  Cu97  1  0.37391313  0.12492800  0.86191824  1
  Cu2+  Cu98  1  0.62540769  0.62411692  0.36092106  1
  Cu2+  Cu99  1  0.62671334  0.62498883  0.87446977  1
  Cu2+  Cu100  1  0.62640911  0.37511919  0.87163223  1
  Cu2+  Cu101  1  0.62666849  0.87453996  0.37287784  1
  Cu2+  Cu102  1  0.12367233  0.87407407  0.87131658  1
  Cu2+  Cu103  1  0.62646091  0.12594701  0.37427063  1
  Cu2+  Cu104  1  0.62537862  0.37557498  0.36348465  1
  Cu2+  Cu105  1  0.12432096  0.87477095  0.36673744  1
  Cu2+  Cu106  1  0.37421039  0.37524649  0.87365941  1
  Cu2+  Cu107  1  0.62546071  0.12462697  0.86267271  1
  Cu2+  Cu108  1  0.87358281  0.87612254  0.15167053  1
  Cu2+  Cu109  1  0.62464547  0.62495143  0.14240677  1
  Cu2+  Cu110  1  0.12556112  0.62476125  0.15198914  1
  Cu2+  Cu111  1  0.12511032  0.87567546  0.14277422  1
  Cu2+  Cu112  1  0.12489411  0.37452625  0.14867335  1
  Cu2+  Cu113  1  0.87385747  0.62515531  0.64781660  1
  Cu2+  Cu114  1  0.87490751  0.62496729  0.15319069  1
  Cu2+  Cu115  1  0.12533314  0.12518935  0.15042473  1
  Cu2+  Cu116  1  0.37643890  0.37397957  0.14089070  1
  Cu2+  Cu117  1  0.87401119  0.37386464  0.14890384  1
  Cu2+  Cu118  1  0.62493261  0.37302357  0.14267705  1
  Cu2+  Cu119  1  0.37725801  0.37465545  0.65367576  1
  Cu2+  Cu120  1  0.62442256  0.87433993  0.64496914  1
  Cu2+  Cu121  1  0.62422125  0.12596149  0.64431230  1
  Cu2+  Cu122  1  0.87256272  0.37475963  0.65144634  1
  Cu2+  Cu123  1  0.12556351  0.12489691  0.65277221  1
  Cu2+  Cu124  1  0.87440873  0.12492503  0.65209787  1
  Cu2+  Cu125  1  0.37599191  0.62507172  0.65228313  1
  Cu2+  Cu126  1  0.87456719  0.87517809  0.65124328  1
  Cu2+  Cu127  1  0.12468234  0.37557377  0.65228718  1
  O2-  O128  1  0.12431533  0.12624217  -0.00436047  1
  O2-  O129  1  0.12367084  0.12730419  0.49673553  1
  O2-  O130  1  0.12240642  0.37615305  -0.00525179  1
  O2-  O131  1  0.12503745  0.37543558  0.49602093  1
  O2-  O132  1  0.12211139  0.62432143  -0.00428799  1
  O2-  O133  1  0.12572940  0.62399203  0.50530034  1
  O2-  O134  1  0.12420572  0.87451084  0.00693898  1
  O2-  O135  1  0.12636606  0.87429566  0.51695345  1
  O2-  O136  1  0.37497042  0.12378841  0.01884384  1
  O2-  O137  1  0.37399026  0.12590999  0.50799974  1
  O2-  O138  1  0.37421187  0.37446058  0.00664878  1
  O2-  O139  1  0.37365162  0.37571790  0.49574361  1
  O2-  O140  1  0.37357299  0.62568293  0.00716528  1
  O2-  O141  1  0.37403763  0.62316812  0.49518678  1
  O2-  O142  1  0.37522077  0.87595651  0.00811282  1
  O2-  O143  1  0.37547629  0.87450448  0.50825511  1
  O2-  O144  1  0.62464617  0.12400400  0.01788923  1
  O2-  O145  1  0.62585908  0.12622989  0.50933494  1
  O2-  O146  1  0.62648711  0.37301571  0.00746637  1
  O2-  O147  1  0.62482590  0.37706331  0.51967287  1
  O2-  O148  1  0.62660539  0.62559313  0.00857495  1
  O2-  O149  1  0.62432768  0.62326839  0.52001491  1
  O2-  O150  1  0.62549651  0.87686275  0.00735846  1
  O2-  O151  1  0.62564682  0.87339855  0.50825644  1
  O2-  O152  1  0.87491629  0.12505742  0.01687447  1
  O2-  O153  1  0.87657351  0.12583478  0.49702960  1
  O2-  O154  1  0.87716715  0.37596571  -0.00348808  1
  O2-  O155  1  0.87522809  0.37391313  0.49550193  1
  O2-  O156  1  0.87836379  0.62512164  -0.00371294  1
  O2-  O157  1  0.87524601  0.62411146  0.49595343  1
  O2-  O158  1  0.87583755  0.87417917  -0.00384817  1
  O2-  O159  1  0.87435349  0.87632785  0.49641712  1
  O2-  O160  1  0.12575809  0.00103821  0.16580990  1
  O2-  O161  1  0.12580684  -0.00112541  0.66582019  1
  O2-  O162  1  0.12583371  0.25024800  0.16140858  1
  O2-  O163  1  0.12587451  0.25060937  0.66329364  1
  O2-  O164  1  0.12602113  0.49989207  0.16340343  1
  O2-  O165  1  0.12455989  0.50162342  0.66022789  1
  O2-  O166  1  0.12552357  0.74906378  0.16748672  1
  O2-  O167  1  0.12599723  0.74886385  0.66372005  1
  O2-  O168  1  0.37544847  -0.00146625  0.17050322  1
  O2-  O169  1  0.37464012  -0.00039781  0.66343658  1
  O2-  O170  1  0.37476288  0.24758613  0.16772615  1
  O2-  O171  1  0.37448551  0.24859239  0.66324009  1
  O2-  O172  1  0.37427489  0.50247586  0.16009211  1
  O2-  O173  1  0.37535088  0.49978444  0.66550375  1
  O2-  O174  1  0.37531042  0.75114961  0.16232476  1
  O2-  O175  1  0.37427275  0.75160405  0.66560159  1
  O2-  O176  1  0.62424215  -0.00100349  0.16824515  1
  O2-  O177  1  0.62407699  -0.00014369  0.66613911  1
  O2-  O178  1  0.62451381  0.24740500  0.16834288  1
  O2-  O179  1  0.62454298  0.25183785  0.66763484  1
  O2-  O180  1  0.62472242  0.49926574  0.16324077  1
  O2-  O181  1  0.62445260  0.49998353  0.67069374  1
  O2-  O182  1  0.62450607  0.75391380  0.16299078  1
  O2-  O183  1  0.62424676  0.74809018  0.66875045  1
  O2-  O184  1  0.87530331  0.00089092  0.16607555  1
  O2-  O185  1  0.87490674  0.00019466  0.66503209  1
  O2-  O186  1  0.87549782  0.24900918  0.16456401  1
  O2-  O187  1  0.87424818  0.24967333  0.66492678  1
  O2-  O188  1  0.87532598  0.49937375  0.16283413  1
  O2-  O189  1  0.87493880  0.50001732  0.66160700  1
  O2-  O190  1  0.87493513  0.75072581  0.16471765  1
  O2-  O191  1  0.87438398  0.75012830  0.66240785  1
  O2-  O192  1  0.00046975  0.12500091  0.16284029  1
  O2-  O193  1  0.00024681  0.12476642  0.66202961  1
  O2-  O194  1  0.00015455  0.37521807  0.16228288  1
  O2-  O195  1  -0.00172213  0.37481784  0.65977324  1
  O2-  O196  1  0.00029592  0.62522668  0.16553998  1
  O2-  O197  1  0.00113841  0.62575635  0.65741107  1
  O2-  O198  1  -0.00184469  0.87485169  0.16415595  1
  O2-  O199  1  0.00031151  0.87461496  0.66190683  1
  O2-  O200  1  0.25026558  0.12358054  0.16673273  1
  O2-  O201  1  0.25207682  0.12415220  0.66260834  1
  O2-  O202  1  0.24896479  0.37467523  0.16191943  1
  O2-  O203  1  0.25119580  0.37602267  0.66385414  1
  O2-  O204  1  0.25196306  0.62658429  0.16337995  1
  O2-  O205  1  0.24865146  0.62490018  0.66274148  1
  O2-  O206  1  0.25366516  0.87502407  0.16575904  1
  O2-  O207  1  0.25139678  0.87455046  0.66632654  1
  O2-  O208  1  0.50039506  0.12342104  0.17322510  1
  O2-  O209  1  0.49635575  0.12461303  0.66616643  1
  O2-  O210  1  0.50036899  0.37440115  0.16731387  1
  O2-  O211  1  0.50096700  0.37553106  0.67013597  1
  O2-  O212  1  0.49677376  0.62641591  0.16514026  1
  O2-  O213  1  0.50030257  0.62510830  0.67137067  1
  O2-  O214  1  0.50054160  0.87532142  0.16551860  1
  O2-  O215  1  0.49652596  0.87465536  0.66952331  1
  O2-  O216  1  0.74929791  0.12413901  0.16865700  1
  O2-  O217  1  0.75060477  0.12451971  0.66592290  1
  O2-  O218  1  0.75075393  0.37441709  0.16549258  1
  O2-  O219  1  0.74905989  0.37508958  0.66739946  1
  O2-  O220  1  0.75117883  0.62538750  0.16482275  1
  O2-  O221  1  0.74939345  0.62518177  0.66687366  1
  O2-  O222  1  0.74792110  0.87577981  0.16204792  1
  O2-  O223  1  0.75117640  0.87494378  0.66634098  1
  O2-  O224  1  0.12573260  0.00091848  0.34893775  1
  O2-  O225  1  0.12586941  0.00141004  0.84804013  1
  O2-  O226  1  0.12586773  0.25081053  0.34274221  1
  O2-  O227  1  0.12474158  0.25089283  0.84486808  1
  O2-  O228  1  0.12570790  0.50084191  0.34592833  1
  O2-  O229  1  0.12506583  0.50056218  0.84099475  1
  O2-  O230  1  0.12591118  0.74796707  0.35181253  1
  O2-  O231  1  0.12533904  0.74748390  0.84422349  1
  O2-  O232  1  0.37455643  0.00011551  0.35444630  1
  O2-  O233  1  0.37500225  -0.00224493  0.84909485  1
  O2-  O234  1  0.37499193  0.24932215  0.34862034  1
  O2-  O235  1  0.37467138  0.24844645  0.84799222  1
  O2-  O236  1  0.37532442  0.49960770  0.34166414  1
  O2-  O237  1  0.37420291  0.50334342  0.84983565  1
  O2-  O238  1  0.37458515  0.75070845  0.34755202  1
  O2-  O239  1  0.37507712  0.75015137  0.85078946  1
  O2-  O240  1  0.62498475  0.00009133  0.34970065  1
  O2-  O241  1  0.62395411  -0.00169974  0.85033271  1
  O2-  O242  1  0.62454041  0.25163932  0.35028059  1
  O2-  O243  1  0.62485255  0.24796511  0.84995239  1
  O2-  O244  1  0.62441936  0.50011927  0.34744596  1
  O2-  O245  1  0.62535439  0.50012628  0.85057178  1
  O2-  O246  1  0.62456889  0.74829462  0.34687432  1
  O2-  O247  1  0.62425241  0.75353874  0.85070520  1
  O2-  O248  1  0.87571957  0.00064473  0.34603153  1
  O2-  O249  1  0.87472271  -0.00008237  0.84860370  1
  O2-  O250  1  0.87538021  0.25057539  0.34374037  1
  O2-  O251  1  0.87568248  0.24999413  0.84852193  1
  O2-  O252  1  0.87503226  0.49973441  0.34449882  1
  O2-  O253  1  0.87564863  0.50001012  0.84350166  1
  O2-  O254  1  0.87559868  0.74929319  0.34707439  1
  O2-  O255  1  0.87508701  0.74999332  0.84401993  1
  O2-  O256  1  0.00027652  0.12543540  0.34287848  1
  O2-  O257  1  0.00101676  0.12496005  0.84454355  1
  O2-  O258  1  0.00061398  0.37573925  0.34332645  1
  O2-  O259  1  -0.00020243  0.37536070  0.84051555  1
  O2-  O260  1  0.00147727  0.62468827  0.34807307  1
  O2-  O261  1  -0.00061330  0.62477808  0.83872519  1
  O2-  O262  1  -0.00069997  0.87445071  0.34676132  1
  O2-  O263  1  -0.00204557  0.87502309  0.84286773  1
  O2-  O264  1  0.25094144  0.12432689  0.34890562  1
  O2-  O265  1  0.24893635  0.12492539  0.84544794  1
  O2-  O266  1  0.25001887  0.37542240  0.34259758  1
  O2-  O267  1  0.24762521  0.37549666  0.84672818  1
  O2-  O268  1  0.24871848  0.62548786  0.34618322  1
  O2-  O269  1  0.25065981  0.62590659  0.84740035  1
  O2-  O270  1  0.25177335  0.87470753  0.35078923  1
  O2-  O271  1  0.25305779  0.87397567  0.84971303  1
  O2-  O272  1  0.49721394  0.12443214  0.35510513  1
  O2-  O273  1  0.49922442  0.12390344  0.85033201  1
  O2-  O274  1  0.49993203  0.37528268  0.34974131  1
  O2-  O275  1  0.50052100  0.37454969  0.85272968  1
  O2-  O276  1  0.50001939  0.62577939  0.34815617  1
  O2-  O277  1  0.49753721  0.62615552  0.85457543  1
  O2-  O278  1  0.49712190  0.87447822  0.35024442  1
  O2-  O279  1  0.49963334  0.87516781  0.85433659  1
  O2-  O280  1  0.75219959  0.12555327  0.34813632  1
  O2-  O281  1  0.75019395  0.12423897  0.85020453  1
  O2-  O282  1  0.74995828  0.37577038  0.34842364  1
  O2-  O283  1  0.75226364  0.37422586  0.84828542  1
  O2-  O284  1  0.74996977  0.62463052  0.34790197  1
  O2-  O285  1  0.75248300  0.62582263  0.84769908  1
  O2-  O286  1  0.75241984  0.87432386  0.34441164  1
  O2-  O287  1  0.74903357  0.87584350  0.84939251  1
