# generated using pymatgen
data_BaYFeCuO5
_symmetry_space_group_name_H-M   'P 1'
_cell_length_a   15.66941865
_cell_length_b   15.66883164
_cell_length_c   15.47714990
_cell_angle_alpha   89.99669673
_cell_angle_beta   90.00312234
_cell_angle_gamma   89.99111432
_symmetry_Int_Tables_number   1
_chemical_formula_structural   BaYFeCuO5
_chemical_formula_sum   'Ba32 Y32 Fe32 Cu32 O160'
_cell_volume   3799.97273279
_cell_formula_units_Z   32
loop_
 _symmetry_equiv_pos_site_id
 _symmetry_equiv_pos_as_xyz
  1  'x, y, z'
loop_
 _atom_type_symbol
 _atom_type_oxidation_number
  Ba2+  2.0
  Y3+  3.0
  Fe3+  3.0
  Cu2+  2.0
  O2-  -2.0
loop_
 _atom_site_type_symbol
 _atom_site_label
 _atom_site_symmetry_multiplicity
 _atom_site_fract_x
 _atom_site_fract_y
 _atom_site_fract_z
 _atom_site_occupancy
  Ba2+  Ba0  1  0.00034845  0.00087371  0.02780129  1
  Ba2+  Ba1  1  -0.00030944  -0.01337674  0.50645109  1
  Ba2+  Ba2  1  0.00618835  0.24746163  0.01838929  1
  Ba2+  Ba3  1  -0.00662632  0.25745206  0.50690656  1
  Ba2+  Ba4  1  0.00443890  0.50614278  0.00602801  1
  Ba2+  Ba5  1  -0.00667834  0.50556991  0.50544057  1
  Ba2+  Ba6  1  -0.00120354  0.74661327  0.01575875  1
  Ba2+  Ba7  1  -0.00109359  0.75300683  0.50708491  1
  Ba2+  Ba8  1  0.25137230  -0.00142899  0.01148043  1
  Ba2+  Ba9  1  0.24755326  -0.00558953  0.51081416  1
  Ba2+  Ba10  1  0.24739971  0.25070831  0.01174507  1
  Ba2+  Ba11  1  0.25446965  0.24655395  0.51143477  1
  Ba2+  Ba12  1  0.24105329  0.49640841  0.01037512  1
  Ba2+  Ba13  1  0.24934132  0.51066753  0.51952091  1
  Ba2+  Ba14  1  0.24475276  0.75467036  0.01175100  1
  Ba2+  Ba15  1  0.24325012  0.74752960  0.51869361  1
  Ba2+  Ba16  1  0.49787186  -0.00157112  -0.00032825  1
  Ba2+  Ba17  1  0.50431319  0.00149738  0.51313023  1
  Ba2+  Ba18  1  0.50042648  0.24815141  0.01816727  1
  Ba2+  Ba19  1  0.50141323  0.24266254  0.51658051  1
  Ba2+  Ba20  1  0.50660917  0.49802528  0.01595949  1
  Ba2+  Ba21  1  0.50086779  0.50982623  0.51922454  1
  Ba2+  Ba22  1  0.50425820  0.75500496  0.00211497  1
  Ba2+  Ba23  1  0.50443840  0.74562998  0.51467756  1
  Ba2+  Ba24  1  0.75054999  0.00043562  0.01877166  1
  Ba2+  Ba25  1  0.74896581  -0.00859588  0.50643845  1
  Ba2+  Ba26  1  0.74672440  0.24466468  0.02366429  1
  Ba2+  Ba27  1  0.75123477  0.25290378  0.51075986  1
  Ba2+  Ba28  1  0.74836046  0.50886727  0.01086452  1
  Ba2+  Ba29  1  0.75617060  0.50415506  0.50615732  1
  Ba2+  Ba30  1  0.75100695  0.74682514  0.00675761  1
  Ba2+  Ba31  1  0.75322857  0.75135211  0.49969133  1
  Y3+  Y32  1  0.00026359  -0.00412093  0.26138965  1
  Y3+  Y33  1  -0.00061370  -0.00347124  0.75090368  1
  Y3+  Y34  1  -0.00006048  0.25154440  0.25824522  1
  Y3+  Y35  1  -0.00090565  0.25309880  0.75588611  1
  Y3+  Y36  1  -0.00072974  0.50144686  0.25361602  1
  Y3+  Y37  1  -0.00006227  0.50157996  0.76172627  1
  Y3+  Y38  1  -0.00092585  0.75081534  0.25669842  1
  Y3+  Y39  1  0.00038943  0.74864590  0.75863376  1
  Y3+  Y40  1  0.24888203  -0.00399638  0.25712029  1
  Y3+  Y41  1  0.25179217  -0.00125618  0.75687659  1
  Y3+  Y42  1  0.24928428  0.25219464  0.25553549  1
  Y3+  Y43  1  0.25004292  0.24911128  0.75795308  1
  Y3+  Y44  1  0.24820729  0.49975743  0.25152891  1
  Y3+  Y45  1  0.24665163  0.50207404  0.76220428  1
  Y3+  Y46  1  0.24789460  0.75173771  0.25390778  1
  Y3+  Y47  1  0.24786306  0.75018929  0.76050309  1
  Y3+  Y48  1  0.49974619  -0.00250924  0.25658591  1
  Y3+  Y49  1  0.49865049  -0.00038526  0.75839817  1
  Y3+  Y50  1  0.50071324  0.25164743  0.25664493  1
  Y3+  Y51  1  0.49915059  0.24655970  0.75575746  1
  Y3+  Y52  1  0.50134054  0.50013240  0.25276926  1
  Y3+  Y53  1  0.50142177  0.50375987  0.76010056  1
  Y3+  Y54  1  0.50033468  0.75058851  0.25344978  1
  Y3+  Y55  1  0.50103517  0.75031049  0.76275307  1
  Y3+  Y56  1  0.75160889  -0.00284964  0.25974225  1
  Y3+  Y57  1  0.74977865  -0.00188654  0.75530556  1
  Y3+  Y58  1  0.75061356  0.25093335  0.25962341  1
  Y3+  Y59  1  0.75159609  0.25046336  0.75296193  1
  Y3+  Y60  1  0.75163987  0.50179950  0.25478621  1
  Y3+  Y61  1  0.75182707  0.50278216  0.76061877  1
  Y3+  Y62  1  0.75294590  0.74980754  0.25453403  1
  Y3+  Y63  1  0.75047813  0.74877127  0.76195520  1
  Fe3+  Fe64  1  0.37510285  0.12437252  0.37780383  1
  Fe3+  Fe65  1  0.12568428  0.37696155  0.37983813  1
  Fe3+  Fe66  1  0.37587794  0.37401555  0.87701312  1
  Fe3+  Fe67  1  0.62449260  0.37669541  0.37941494  1
  Fe3+  Fe68  1  0.87583272  0.87676947  0.87859034  1
  Fe3+  Fe69  1  0.37539881  0.37719964  0.38040550  1
  Fe3+  Fe70  1  0.87535478  0.12453171  0.37903893  1
  Fe3+  Fe71  1  0.12507247  0.62527777  0.37447222  1
  Fe3+  Fe72  1  0.37567003  0.87260783  0.38058357  1
  Fe3+  Fe73  1  0.37431536  0.62494838  0.88041281  1
  Fe3+  Fe74  1  0.12535270  0.12492884  0.37977985  1
  Fe3+  Fe75  1  0.12292324  0.87666903  0.87639686  1
  Fe3+  Fe76  1  0.62502332  0.62548552  0.37442410  1
  Fe3+  Fe77  1  0.62466505  0.12420033  0.37696975  1
  Fe3+  Fe78  1  0.62658964  0.12534216  0.87441476  1
  Fe3+  Fe79  1  0.37443943  0.62514909  0.37466845  1
  Fe3+  Fe80  1  0.87464918  0.37365682  0.88107361  1
  Fe3+  Fe81  1  0.12332726  0.12378581  0.87370269  1
  Fe3+  Fe82  1  0.87595062  0.12442357  0.87534713  1
  Fe3+  Fe83  1  0.62582702  0.37308723  0.87571288  1
  Fe3+  Fe84  1  0.37477425  0.62556883  0.13301480  1
  Fe3+  Fe85  1  0.87480539  0.12387673  0.63213978  1
  Fe3+  Fe86  1  0.62571397  0.37691830  0.63435289  1
  Fe3+  Fe87  1  0.62590981  0.87290039  0.63980517  1
  Fe3+  Fe88  1  0.62510742  0.87536030  0.13846327  1
  Fe3+  Fe89  1  0.37480276  0.12391433  0.13900221  1
  Fe3+  Fe90  1  0.12411250  0.12476660  0.63242803  1
  Fe3+  Fe91  1  0.12424166  0.37671105  0.63416983  1
  Fe3+  Fe92  1  0.37530402  0.87320749  0.63664802  1
  Fe3+  Fe93  1  0.87473882  0.62630163  0.64105958  1
  Fe3+  Fe94  1  0.87515467  0.37517386  0.13539234  1
  Fe3+  Fe95  1  0.37499688  0.37647393  0.63513352  1
  Cu2+  Cu96  1  0.62374839  0.87371847  0.36321458  1
  Cu2+  Cu97  1  0.12655124  0.87305118  0.37225895  1
  Cu2+  Cu98  1  0.37378719  0.87527081  0.87373048  1
  Cu2+  Cu99  1  0.87542201  0.62516785  0.35897682  1
  Cu2+  Cu100  1  0.12458197  0.62619531  0.87362250  1
  Cu2+  Cu101  1  0.37437150  0.12533075  0.86296454  1
  Cu2+  Cu102  1  0.62638066  0.87656963  0.86426770  1
  Cu2+  Cu103  1  0.87468482  0.37637109  0.37249682  1
  Cu2+  Cu104  1  0.62499149  0.62492311  0.87472656  1
  Cu2+  Cu105  1  0.87556308  0.62559158  0.87425986  1
  Cu2+  Cu106  1  0.12424019  0.37327876  0.87206681  1
  Cu2+  Cu107  1  0.87489684  0.87362137  0.37210736  1
  Cu2+  Cu108  1  0.12361849  0.62475167  0.65469793  1
  Cu2+  Cu109  1  0.87545073  0.12507829  0.15727709  1
  Cu2+  Cu110  1  0.12544110  0.12445796  0.15783423  1
  Cu2+  Cu111  1  0.37531479  0.87508964  0.14057431  1
  Cu2+  Cu112  1  0.12478424  0.62546714  0.14156037  1
  Cu2+  Cu113  1  0.12392344  0.37474772  0.14299901  1
  Cu2+  Cu114  1  0.62464149  0.12372568  0.15628610  1
  Cu2+  Cu115  1  0.12465699  0.87368036  0.64157445  1
  Cu2+  Cu116  1  0.37514728  0.37496679  0.14797377  1
  Cu2+  Cu117  1  0.37465719  0.62570901  0.65669256  1
  Cu2+  Cu118  1  0.62643802  0.37465152  0.15228728  1
  Cu2+  Cu119  1  0.87401442  0.87270538  0.64242741  1
  Cu2+  Cu120  1  0.62520392  0.62649894  0.14198669  1
  Cu2+  Cu121  1  0.87499201  0.87521360  0.15004248  1
  Cu2+  Cu122  1  0.62627923  0.62560770  0.65509507  1
  Cu2+  Cu123  1  0.62591827  0.12420064  0.64877384  1
  Cu2+  Cu124  1  0.87500884  0.37744969  0.64186456  1
  Cu2+  Cu125  1  0.12418386  0.87520586  0.15162852  1
  Cu2+  Cu126  1  0.87540488  0.62552934  0.14215150  1
  Cu2+  Cu127  1  0.37421451  0.12403573  0.64901669  1
  O2-  O128  1  0.12332396  0.12400830  -0.00611832  1
  O2-  O129  1  0.12560892  0.12563439  0.50566117  1
  O2-  O130  1  0.12440993  0.37161917  0.00612777  1
  O2-  O131  1  0.12581846  0.37837925  0.50653455  1
  O2-  O132  1  0.12598217  0.62592213  0.00742857  1
  O2-  O133  1  0.12545664  0.62415322  0.49506054  1
  O2-  O134  1  0.12232579  0.87982691  -0.00326178  1
  O2-  O135  1  0.12732939  0.87275401  0.50642208  1
  O2-  O136  1  0.37461353  0.12483627  0.01828645  1
  O2-  O137  1  0.37612770  0.12500574  0.49799436  1
  O2-  O138  1  0.37639305  0.37186642  -0.00278695  1
  O2-  O139  1  0.37521736  0.37811988  0.50625387  1
  O2-  O140  1  0.37495507  0.62426415  0.00636080  1
  O2-  O141  1  0.37504017  0.62513656  0.49469140  1
  O2-  O142  1  0.37460719  0.87694895  0.00696670  1
  O2-  O143  1  0.37642941  0.87161752  0.50815617  1
  O2-  O144  1  0.62661942  0.12638989  -0.00543119  1
  O2-  O145  1  0.62430929  0.12513329  0.49714863  1
  O2-  O146  1  0.62511633  0.37007547  -0.00440677  1
  O2-  O147  1  0.62401295  0.37797196  0.50571151  1
  O2-  O148  1  0.62384141  0.62526380  0.00735509  1
  O2-  O149  1  0.62449979  0.62412798  0.49490316  1
  O2-  O150  1  0.62572531  0.87862586  0.01792477  1
  O2-  O151  1  0.62384405  0.87175410  0.51902239  1
  O2-  O152  1  0.87616518  0.12498618  -0.00499570  1
  O2-  O153  1  0.87425539  0.12481590  0.50514930  1
  O2-  O154  1  0.87429796  0.37162975  0.00722412  1
  O2-  O155  1  0.87418589  0.37693211  0.50663730  1
  O2-  O156  1  0.87499875  0.62485054  0.00865817  1
  O2-  O157  1  0.87422985  0.62667365  0.51983554  1
  O2-  O158  1  0.87702519  0.88032420  -0.00113111  1
  O2-  O159  1  0.87334287  0.87290207  0.50640868  1
  O2-  O160  1  0.12489162  -0.00020412  0.16886886  1
  O2-  O161  1  0.12453146  0.00279142  0.65827824  1
  O2-  O162  1  0.12481658  0.24887395  0.16917611  1
  O2-  O163  1  0.12514417  0.25086732  0.65741522  1
  O2-  O164  1  0.12478618  0.49953291  0.16411450  1
  O2-  O165  1  0.12588585  0.49837553  0.66619702  1
  O2-  O166  1  0.12508759  0.75194119  0.16304069  1
  O2-  O167  1  0.12551604  0.74821779  0.66735193  1
  O2-  O168  1  0.37409204  0.00143516  0.17067040  1
  O2-  O169  1  0.37545018  -0.00254700  0.66158332  1
  O2-  O170  1  0.37537144  0.24948850  0.16898809  1
  O2-  O171  1  0.37495833  0.25244150  0.65996046  1
  O2-  O172  1  0.37542954  0.50079974  0.16157906  1
  O2-  O173  1  0.37484957  0.49909028  0.66521872  1
  O2-  O174  1  0.37471309  0.74760560  0.16288685  1
  O2-  O175  1  0.37501583  0.75050889  0.66628532  1
  O2-  O176  1  0.62585128  -0.00043067  0.16996071  1
  O2-  O177  1  0.62427901  -0.00115012  0.66408574  1
  O2-  O178  1  0.62494337  0.24876246  0.16734984  1
  O2-  O179  1  0.62460572  0.25178733  0.65740715  1
  O2-  O180  1  0.62531228  0.49906318  0.16309028  1
  O2-  O181  1  0.62409021  0.49952919  0.66407125  1
  O2-  O182  1  0.62497807  0.75222232  0.16631533  1
  O2-  O183  1  0.62381313  0.74960640  0.67061301  1
  O2-  O184  1  0.87529422  0.00091583  0.16873370  1
  O2-  O185  1  0.87494617  0.00188734  0.65898072  1
  O2-  O186  1  0.87490235  0.25089654  0.16636390  1
  O2-  O187  1  0.87516648  0.24780676  0.66031555  1
  O2-  O188  1  0.87459519  0.49702761  0.16270607  1
  O2-  O189  1  0.87498439  0.50250116  0.67093803  1
  O2-  O190  1  0.87548531  0.75158605  0.16388983  1
  O2-  O191  1  0.87490391  0.74804508  0.67133393  1
  O2-  O192  1  0.00102025  0.12555453  0.16908043  1
  O2-  O193  1  -0.00012094  0.12620066  0.65738152  1
  O2-  O194  1  -0.00319092  0.37338552  0.16646240  1
  O2-  O195  1  0.00298814  0.37539838  0.66312613  1
  O2-  O196  1  0.00026129  0.62503783  0.16557335  1
  O2-  O197  1  -0.00014589  0.62410416  0.66725418  1
  O2-  O198  1  -0.00047220  0.87633305  0.16676542  1
  O2-  O199  1  -0.00041080  0.87414325  0.66051723  1
  O2-  O200  1  0.25022898  0.12574855  0.16823784  1
  O2-  O201  1  0.24752288  0.12573766  0.66163418  1
  O2-  O202  1  0.25035344  0.37425008  0.16672170  1
  O2-  O203  1  0.24977475  0.37503237  0.65896956  1
  O2-  O204  1  0.25253614  0.62433471  0.16212807  1
  O2-  O205  1  0.24888372  0.62435197  0.66483478  1
  O2-  O206  1  0.24827806  0.87558298  0.16482647  1
  O2-  O207  1  0.25269763  0.87441303  0.66278098  1
  O2-  O208  1  0.49947818  0.12538739  0.16667643  1
  O2-  O209  1  0.49995645  0.12513533  0.66314844  1
  O2-  O210  1  0.50172270  0.37451375  0.16541644  1
  O2-  O211  1  0.49985935  0.37571539  0.65807298  1
  O2-  O212  1  0.49732042  0.62420014  0.16277420  1
  O2-  O213  1  0.50066076  0.62470459  0.66502949  1
  O2-  O214  1  0.50158768  0.87552452  0.16785074  1
  O2-  O215  1  0.49884909  0.87394257  0.66670741  1
  O2-  O216  1  0.74974915  0.12541285  0.16617312  1
  O2-  O217  1  0.75195670  0.12548105  0.66015141  1
  O2-  O218  1  0.75178371  0.37326004  0.16566349  1
  O2-  O219  1  0.74705640  0.37553360  0.66267255  1
  O2-  O220  1  0.75007681  0.62509081  0.16525125  1
  O2-  O221  1  0.75013736  0.62463290  0.66927730  1
  O2-  O222  1  0.75023238  0.87619026  0.16680234  1
  O2-  O223  1  0.74862513  0.87431900  0.66751782  1
  O2-  O224  1  0.12593160  0.00249237  0.35313253  1
  O2-  O225  1  0.12453628  0.00043955  0.83847285  1
  O2-  O226  1  0.12600058  0.25085811  0.35357943  1
  O2-  O227  1  0.12454606  0.24719143  0.84029739  1
  O2-  O228  1  0.12545582  0.49911180  0.34577732  1
  O2-  O229  1  0.12486986  0.49977901  0.85089301  1
  O2-  O230  1  0.12580071  0.74755307  0.34491691  1
  O2-  O231  1  0.12478946  0.75265317  0.84978209  1
  O2-  O232  1  0.37526826  -0.00136298  0.35266776  1
  O2-  O233  1  0.37472878  0.00154553  0.84640722  1
  O2-  O234  1  0.37494542  0.25232883  0.35211550  1
  O2-  O235  1  0.37489920  0.25005511  0.84332049  1
  O2-  O236  1  0.37514816  0.49860193  0.34497469  1
  O2-  O237  1  0.37536424  0.50063319  0.84896265  1
  O2-  O238  1  0.37534365  0.74998560  0.34572389  1
  O2-  O239  1  0.37500591  0.74756218  0.85120596  1
  O2-  O240  1  0.62380331  -0.00046278  0.35180666  1
  O2-  O241  1  0.62517132  0.00148308  0.84558584  1
  O2-  O242  1  0.62444429  0.25145579  0.35087644  1
  O2-  O243  1  0.62545699  0.24945099  0.83833274  1
  O2-  O244  1  0.62457699  0.49945390  0.34593188  1
  O2-  O245  1  0.62506743  0.49684956  0.84715863  1
  O2-  O246  1  0.62447908  0.74917104  0.34748802  1
  O2-  O247  1  0.62476376  0.75239071  0.85340801  1
  O2-  O248  1  0.87569613  0.00264187  0.35221459  1
  O2-  O249  1  0.87500858  0.00045696  0.84003277  1
  O2-  O250  1  0.87487568  0.24701226  0.35050696  1
  O2-  O251  1  0.87487318  0.25043059  0.84318915  1
  O2-  O252  1  0.87494934  0.50150546  0.34638071  1
  O2-  O253  1  0.87446598  0.49702523  0.85401579  1
  O2-  O254  1  0.87479168  0.74829268  0.34741890  1
  O2-  O255  1  0.87497157  0.75259265  0.85242217  1
  O2-  O256  1  0.00088819  0.12627594  0.35354650  1
  O2-  O257  1  -0.00113710  0.12536258  0.83795327  1
  O2-  O258  1  0.00363435  0.37479780  0.35108554  1
  O2-  O259  1  -0.00395042  0.37375402  0.84748190  1
  O2-  O260  1  -0.00005179  0.62375854  0.34845469  1
  O2-  O261  1  -0.00023817  0.62465764  0.84977318  1
  O2-  O262  1  0.00073366  0.87427365  0.35091304  1
  O2-  O263  1  -0.00050322  0.87625610  0.84124675  1
  O2-  O264  1  0.24969396  0.12629130  0.35043885  1
  O2-  O265  1  0.24911238  0.12500145  0.84532154  1
  O2-  O266  1  0.25045420  0.37528352  0.35134810  1
  O2-  O267  1  0.25246287  0.37422579  0.84337316  1
  O2-  O268  1  0.25031896  0.62376564  0.34276241  1
  O2-  O269  1  0.25227620  0.62468022  0.84929946  1
  O2-  O270  1  0.25397870  0.87450947  0.34881266  1
  O2-  O271  1  0.24703390  0.87614484  0.84581284  1
  O2-  O272  1  0.49943063  0.12575517  0.34653845  1
  O2-  O273  1  0.50059316  0.12514948  0.84726661  1
  O2-  O274  1  0.49975006  0.37561137  0.35020645  1
  O2-  O275  1  0.50029404  0.37407551  0.84106722  1
  O2-  O276  1  0.49966592  0.62431999  0.34346865  1
  O2-  O277  1  0.49736007  0.62476435  0.84981465  1
  O2-  O278  1  0.49773593  0.87397702  0.34987376  1
  O2-  O279  1  0.50181241  0.87624843  0.85025417  1
  O2-  O280  1  0.75035081  0.12496031  0.34976012  1
  O2-  O281  1  0.75123803  0.12566366  0.84116417  1
  O2-  O282  1  0.74640565  0.37517225  0.35032815  1
  O2-  O283  1  0.75155008  0.37347645  0.84537455  1
  O2-  O284  1  0.75028112  0.62438397  0.34818310  1
  O2-  O285  1  0.75035141  0.62474505  0.85171892  1
  O2-  O286  1  0.74809266  0.87495145  0.35034392  1
  O2-  O287  1  0.75102123  0.87653390  0.84884176  1
