# generated using pymatgen
data_BaYFeCuO5
_symmetry_space_group_name_H-M   'P 1'
_cell_length_a   15.66936872
_cell_length_b   15.66821542
_cell_length_c   15.48076359
_cell_angle_alpha   90.00555600
_cell_angle_beta   90.00027455
_cell_angle_gamma   89.99802149
_symmetry_Int_Tables_number   1
_chemical_formula_structural   BaYFeCuO5
_chemical_formula_sum   'Ba32 Y32 Fe32 Cu32 O160'
_cell_volume   3800.69841955
_cell_formula_units_Z   32
loop_
 _symmetry_equiv_pos_site_id
 _symmetry_equiv_pos_as_xyz
  1  'x, y, z'
loop_
 _atom_type_symbol
 _atom_type_oxidation_number
  Ba2+  2.0
  Y3+  3.0
  Fe3+  3.0
  Cu2+  2.0
  O2-  -2.0
loop_
 _atom_site_type_symbol
 _atom_site_label
 _atom_site_symmetry_multiplicity
 _atom_site_fract_x
 _atom_site_fract_y
 _atom_site_fract_z
 _atom_site_occupancy
  Ba2+  Ba0  1  0.00370863  0.00067714  0.01751299  1
  Ba2+  Ba1  1  0.00121784  -0.01181589  0.50707157  1
  Ba2+  Ba2  1  0.00096685  0.24691116  0.02322484  1
  Ba2+  Ba3  1  0.00371776  0.26001666  0.50186939  1
  Ba2+  Ba4  1  0.00467425  0.49549251  0.02376915  1
  Ba2+  Ba5  1  0.01121322  0.49884007  0.50270523  1
  Ba2+  Ba6  1  0.00647981  0.75680728  0.01656689  1
  Ba2+  Ba7  1  0.00908843  0.75394581  0.50715751  1
  Ba2+  Ba8  1  0.24015981  -0.00383726  0.00969571  1
  Ba2+  Ba9  1  0.25400122  -0.00947654  0.51166052  1
  Ba2+  Ba10  1  0.24176066  0.25072773  0.00574872  1
  Ba2+  Ba11  1  0.25252729  0.25636124  0.51802417  1
  Ba2+  Ba12  1  0.24798373  0.50151094  0.01760992  1
  Ba2+  Ba13  1  0.24837208  0.50429785  0.51171200  1
  Ba2+  Ba14  1  0.24700100  0.75181147  0.02262213  1
  Ba2+  Ba15  1  0.24999741  0.74897641  0.50679558  1
  Ba2+  Ba16  1  0.50367636  -0.00337217  0.00967698  1
  Ba2+  Ba17  1  0.49245692  0.00118056  0.51813879  1
  Ba2+  Ba18  1  0.50439799  0.25219827  0.01141169  1
  Ba2+  Ba19  1  0.49432259  0.24602002  0.52285291  1
  Ba2+  Ba20  1  0.49495038  0.49667949  0.00987177  1
  Ba2+  Ba21  1  0.49090864  0.50623147  0.50665779  1
  Ba2+  Ba22  1  0.49376403  0.75321447  0.01253744  1
  Ba2+  Ba23  1  0.48948597  0.74719302  0.50278685  1
  Ba2+  Ba24  1  0.75365602  0.00316172  0.02015959  1
  Ba2+  Ba25  1  0.75173422  -0.00265405  0.51128370  1
  Ba2+  Ba26  1  0.75227738  0.24785089  0.02724647  1
  Ba2+  Ba27  1  0.74884411  0.24931883  0.50614755  1
  Ba2+  Ba28  1  0.75134779  0.48992349  0.01829869  1
  Ba2+  Ba29  1  0.74942875  0.50055024  0.49652180  1
  Ba2+  Ba30  1  0.75125681  0.75955112  0.00556614  1
  Ba2+  Ba31  1  0.75280142  0.75295315  0.50247377  1
  Y3+  Y32  1  0.00187822  -0.00257468  0.25796829  1
  Y3+  Y33  1  0.00311922  -0.00255658  0.75673105  1
  Y3+  Y34  1  0.00213857  0.25091958  0.25898404  1
  Y3+  Y35  1  0.00346666  0.24947928  0.75500426  1
  Y3+  Y36  1  0.00386852  0.49862212  0.26189715  1
  Y3+  Y37  1  0.00334005  0.50097167  0.75249867  1
  Y3+  Y38  1  0.00389365  0.75267694  0.26111628  1
  Y3+  Y39  1  0.00305467  0.75218300  0.75363274  1
  Y3+  Y40  1  0.24850060  -0.00376198  0.25647877  1
  Y3+  Y41  1  0.24748484  -0.00199038  0.75765158  1
  Y3+  Y42  1  0.24684305  0.24957190  0.25601139  1
  Y3+  Y43  1  0.24942773  0.25132583  0.75810180  1
  Y3+  Y44  1  0.24847695  0.50329992  0.26083710  1
  Y3+  Y45  1  0.25010172  0.50049328  0.75293315  1
  Y3+  Y46  1  0.24981290  0.75066791  0.26172278  1
  Y3+  Y47  1  0.24811204  0.75072012  0.75279331  1
  Y3+  Y48  1  0.49764679  -0.00208153  0.25681927  1
  Y3+  Y49  1  0.49852017  -0.00036242  0.75638973  1
  Y3+  Y50  1  0.50077116  0.24955627  0.25412879  1
  Y3+  Y51  1  0.49688073  0.24969985  0.75831529  1
  Y3+  Y52  1  0.49825823  0.50295121  0.25742545  1
  Y3+  Y53  1  0.49609661  0.50011925  0.75687473  1
  Y3+  Y54  1  0.49522545  0.74882720  0.25974492  1
  Y3+  Y55  1  0.49752463  0.75080864  0.75635316  1
  Y3+  Y56  1  0.75230258  -0.00047509  0.25997935  1
  Y3+  Y57  1  0.75027224  -0.00121474  0.75427845  1
  Y3+  Y58  1  0.75101182  0.25060801  0.25874945  1
  Y3+  Y59  1  0.74968558  0.24847563  0.75276022  1
  Y3+  Y60  1  0.74999863  0.49899430  0.25840236  1
  Y3+  Y61  1  0.75040444  0.50111237  0.75781420  1
  Y3+  Y62  1  0.75085307  0.75074733  0.25996622  1
  Y3+  Y63  1  0.75122413  0.75193445  0.75653317  1
  Fe3+  Fe64  1  0.62284516  0.12448802  0.37775422  1
  Fe3+  Fe65  1  0.62686136  0.12451092  0.87521637  1
  Fe3+  Fe66  1  0.37335145  0.87447766  0.87715754  1
  Fe3+  Fe67  1  0.87675473  0.62523754  0.37836414  1
  Fe3+  Fe68  1  0.87671938  0.62432520  0.88154978  1
  Fe3+  Fe69  1  0.87609671  0.37375679  0.87590820  1
  Fe3+  Fe70  1  0.12399981  0.37624844  0.87533539  1
  Fe3+  Fe71  1  0.12452706  0.62556016  0.87714844  1
  Fe3+  Fe72  1  0.87616149  0.12574705  0.87455242  1
  Fe3+  Fe73  1  0.37465903  0.37392118  0.37577217  1
  Fe3+  Fe74  1  0.37371136  0.12484760  0.87938993  1
  Fe3+  Fe75  1  0.87632131  0.12504292  0.37916845  1
  Fe3+  Fe76  1  0.62313665  0.87507207  0.38015676  1
  Fe3+  Fe77  1  0.87616378  0.87645234  0.87586571  1
  Fe3+  Fe78  1  0.62527061  0.62549758  0.88162455  1
  Fe3+  Fe79  1  0.37270329  0.62504305  0.87783124  1
  Fe3+  Fe80  1  0.37420605  0.12528547  0.37527634  1
  Fe3+  Fe81  1  0.62211959  0.37470975  0.37875257  1
  Fe3+  Fe82  1  0.12681370  0.12424316  0.38037741  1
  Fe3+  Fe83  1  0.62609852  0.37417019  0.87546626  1
  Fe3+  Fe84  1  0.87658854  0.12471800  0.63213575  1
  Fe3+  Fe85  1  0.37399667  0.12389336  0.13295237  1
  Fe3+  Fe86  1  0.37374462  0.37467035  0.13687920  1
  Fe3+  Fe87  1  0.87583862  0.62599919  0.13642919  1
  Fe3+  Fe88  1  0.62506764  0.87448580  0.14023822  1
  Fe3+  Fe89  1  0.12565346  0.12463091  0.63346896  1
  Fe3+  Fe90  1  0.62415411  0.37613255  0.63371979  1
  Fe3+  Fe91  1  0.62509964  0.62539172  0.13561893  1
  Fe3+  Fe92  1  0.62477071  0.62514567  0.63658612  1
  Fe3+  Fe93  1  0.87568948  0.62546447  0.63366714  1
  Fe3+  Fe94  1  0.87505880  0.37631161  0.63373022  1
  Fe3+  Fe95  1  0.62388414  0.87404362  0.63528740  1
  Cu2+  Cu96  1  0.12352033  0.12484358  0.87185852  1
  Cu2+  Cu97  1  0.87543632  0.87505418  0.37337763  1
  Cu2+  Cu98  1  0.37505775  0.87608617  0.37163929  1
  Cu2+  Cu99  1  0.62502863  0.87539117  0.86222887  1
  Cu2+  Cu100  1  0.12651905  0.87594234  0.37184014  1
  Cu2+  Cu101  1  0.87502543  0.37500901  0.36551371  1
  Cu2+  Cu102  1  0.12597811  0.62585873  0.37232637  1
  Cu2+  Cu103  1  0.12796915  0.37426581  0.37177145  1
  Cu2+  Cu104  1  0.62454391  0.62541156  0.36529616  1
  Cu2+  Cu105  1  0.37402474  0.37551852  0.86609922  1
  Cu2+  Cu106  1  0.12474574  0.87385248  0.87075483  1
  Cu2+  Cu107  1  0.37377452  0.62469071  0.37070663  1
  Cu2+  Cu108  1  0.37483622  0.87398938  0.64301056  1
  Cu2+  Cu109  1  0.37477613  0.87491052  0.15037324  1
  Cu2+  Cu110  1  0.37308655  0.12449166  0.65517385  1
  Cu2+  Cu111  1  0.12590874  0.87514775  0.64253205  1
  Cu2+  Cu112  1  0.62459368  0.12406189  0.15370479  1
  Cu2+  Cu113  1  0.37516252  0.37564966  0.65180747  1
  Cu2+  Cu114  1  0.87611520  0.37557447  0.15794650  1
  Cu2+  Cu115  1  0.87600372  0.12446999  0.15864078  1
  Cu2+  Cu116  1  0.12516663  0.62554878  0.64065326  1
  Cu2+  Cu117  1  0.12564965  0.12424085  0.14374105  1
  Cu2+  Cu118  1  0.12449781  0.62552247  0.15435139  1
  Cu2+  Cu119  1  0.87503388  0.87436279  0.15474482  1
  Cu2+  Cu120  1  0.12598341  0.37528760  0.15554769  1
  Cu2+  Cu121  1  0.62472803  0.12476427  0.64722194  1
  Cu2+  Cu122  1  0.87537389  0.87404546  0.64048219  1
  Cu2+  Cu123  1  0.37420649  0.62511324  0.15024687  1
  Cu2+  Cu124  1  0.37476992  0.62588613  0.64306954  1
  Cu2+  Cu125  1  0.12544417  0.37513530  0.64108446  1
  Cu2+  Cu126  1  0.62405783  0.37550177  0.15448514  1
  Cu2+  Cu127  1  0.12512285  0.87472149  0.14655046  1
  O2-  O128  1  0.12310079  0.12597870  0.00753607  1
  O2-  O129  1  0.12728352  0.12498791  0.50664401  1
  O2-  O130  1  0.12234762  0.37576837  -0.00420284  1
  O2-  O131  1  0.12762099  0.37413927  0.50646137  1
  O2-  O132  1  0.12316594  0.62406332  -0.00256972  1
  O2-  O133  1  0.12513178  0.62548671  0.50634144  1
  O2-  O134  1  0.12396253  0.87427070  0.00794745  1
  O2-  O135  1  0.12701718  0.87594275  0.50704142  1
  O2-  O136  1  0.37482661  0.12460564  0.00590466  1
  O2-  O137  1  0.37543091  0.12655579  0.49529234  1
  O2-  O138  1  0.37476184  0.37511175  0.01612368  1
  O2-  O139  1  0.37726963  0.37294928  0.49627347  1
  O2-  O140  1  0.37373191  0.62461428  -0.00170369  1
  O2-  O141  1  0.37433431  0.62450431  0.50738204  1
  O2-  O142  1  0.37482979  0.87495280  -0.00231339  1
  O2-  O143  1  0.37701284  0.87526058  0.50711960  1
  O2-  O144  1  0.62892809  0.12553342  -0.00482596  1
  O2-  O145  1  0.62123148  0.12585198  0.49729255  1
  O2-  O146  1  0.62827306  0.37259440  -0.00426113  1
  O2-  O147  1  0.62242633  0.37587301  0.50619381  1
  O2-  O148  1  0.62649917  0.62477805  0.00835233  1
  O2-  O149  1  0.62541397  0.62415078  0.51677051  1
  O2-  O150  1  0.62676052  0.87555759  0.01943974  1
  O2-  O151  1  0.62287074  0.87417332  0.50744142  1
  O2-  O152  1  0.87454488  0.12640850  -0.00517192  1
  O2-  O153  1  0.87558344  0.12536971  0.50542609  1
  O2-  O154  1  0.87509050  0.37240661  -0.00426372  1
  O2-  O155  1  0.87266075  0.37703909  0.51374964  1
  O2-  O156  1  0.87558849  0.62420934  0.00750264  1
  O2-  O157  1  0.87482161  0.62440777  0.50684455  1
  O2-  O158  1  0.87466143  0.87761499  -0.00355107  1
  O2-  O159  1  0.87313057  0.87434704  0.50665894  1
  O2-  O160  1  0.12469555  -0.00105483  0.16668808  1
  O2-  O161  1  0.12491028  0.00290482  0.66432787  1
  O2-  O162  1  0.12451717  0.25107292  0.16640900  1
  O2-  O163  1  0.12577158  0.24740065  0.66244467  1
  O2-  O164  1  0.12474725  0.50033854  0.16606730  1
  O2-  O165  1  0.12477866  0.49986523  0.66261790  1
  O2-  O166  1  0.12432867  0.74937635  0.16700755  1
  O2-  O167  1  0.12461196  0.75041454  0.66411102  1
  O2-  O168  1  0.37615349  0.00116284  0.16225721  1
  O2-  O169  1  0.37555690  0.00070788  0.66515281  1
  O2-  O170  1  0.37604255  0.24846967  0.16219583  1
  O2-  O171  1  0.37523849  0.24998406  0.66555084  1
  O2-  O172  1  0.37527285  0.49970474  0.16549718  1
  O2-  O173  1  0.37618551  0.49927069  0.66437603  1
  O2-  O174  1  0.37549555  0.74952220  0.16512253  1
  O2-  O175  1  0.37601408  0.75009694  0.66643775  1
  O2-  O176  1  0.62546410  -0.00089470  0.16811899  1
  O2-  O177  1  0.62447320  -0.00138118  0.66031866  1
  O2-  O178  1  0.62540844  0.24945261  0.16494208  1
  O2-  O179  1  0.62539824  0.25188898  0.65902001  1
  O2-  O180  1  0.62557723  0.50236324  0.16412202  1
  O2-  O181  1  0.62537069  0.49893453  0.66716994  1
  O2-  O182  1  0.62605922  0.74816971  0.16698071  1
  O2-  O183  1  0.62575785  0.75059325  0.66815376  1
  O2-  O184  1  0.87423453  -0.00053185  0.16650137  1
  O2-  O185  1  0.87507770  0.00296584  0.66017609  1
  O2-  O186  1  0.87511932  0.25041695  0.16733803  1
  O2-  O187  1  0.87374708  0.24933873  0.65912084  1
  O2-  O188  1  0.87401762  0.50183306  0.16398272  1
  O2-  O189  1  0.87356630  0.50127713  0.66657226  1
  O2-  O190  1  0.87351738  0.74800637  0.16406207  1
  O2-  O191  1  0.87350712  0.74688642  0.66610842  1
  O2-  O192  1  -0.00054825  0.12478021  0.16998460  1
  O2-  O193  1  0.00048418  0.12603050  0.65931184  1
  O2-  O194  1  0.00139063  0.37551041  0.16722984  1
  O2-  O195  1  -0.00249283  0.37498274  0.66226614  1
  O2-  O196  1  -0.00182579  0.62474608  0.16548255  1
  O2-  O197  1  -0.00279231  0.62477447  0.66258244  1
  O2-  O198  1  -0.00163200  0.87461239  0.16743328  1
  O2-  O199  1  0.00039224  0.87471923  0.66276799  1
  O2-  O200  1  0.25306877  0.12480680  0.16311099  1
  O2-  O201  1  0.24834280  0.12535956  0.66517689  1
  O2-  O202  1  0.25037787  0.37452873  0.16431569  1
  O2-  O203  1  0.25168037  0.37466912  0.66479069  1
  O2-  O204  1  0.24902470  0.62510671  0.16457403  1
  O2-  O205  1  0.24990160  0.62488456  0.66366657  1
  O2-  O206  1  0.25148543  0.87461855  0.16562119  1
  O2-  O207  1  0.25004882  0.87570422  0.66504080  1
  O2-  O208  1  0.49822947  0.12490479  0.15923969  1
  O2-  O209  1  0.49872142  0.12551159  0.66673603  1
  O2-  O210  1  0.49900206  0.37515773  0.16401706  1
  O2-  O211  1  0.50183675  0.37466966  0.66498073  1
  O2-  O212  1  0.50194437  0.62533842  0.16224715  1
  O2-  O213  1  0.50230548  0.62483572  0.66944306  1
  O2-  O214  1  0.50049540  0.87404075  0.16604653  1
  O2-  O215  1  0.50270456  0.87490732  0.66588062  1
  O2-  O216  1  0.75051514  0.12489954  0.16844579  1
  O2-  O217  1  0.75206139  0.12513724  0.65837667  1
  O2-  O218  1  0.74942671  0.37540383  0.16760012  1
  O2-  O219  1  0.74874026  0.37551876  0.66146679  1
  O2-  O220  1  0.74996015  0.62417075  0.16491552  1
  O2-  O221  1  0.75056622  0.62467465  0.66720067  1
  O2-  O222  1  0.74955489  0.87471421  0.17020968  1
  O2-  O223  1  0.74695012  0.87471966  0.66204254  1
  O2-  O224  1  0.12498352  0.00305731  0.34948664  1
  O2-  O225  1  0.12471362  -0.00090148  0.84801319  1
  O2-  O226  1  0.12551694  0.24649711  0.34973126  1
  O2-  O227  1  0.12456321  0.25253557  0.84462010  1
  O2-  O228  1  0.12565359  0.49985444  0.35008615  1
  O2-  O229  1  0.12410766  0.50074259  0.84300578  1
  O2-  O230  1  0.12520579  0.75105369  0.35026858  1
  O2-  O231  1  0.12364955  0.74790251  0.84557790  1
  O2-  O232  1  0.37560596  0.00236905  0.34500053  1
  O2-  O233  1  0.37528179  0.00077208  0.84831095  1
  O2-  O234  1  0.37587179  0.24929559  0.34165744  1
  O2-  O235  1  0.37544084  0.24861227  0.85036961  1
  O2-  O236  1  0.37625168  0.49827841  0.34779225  1
  O2-  O237  1  0.37560449  0.50123069  0.84718038  1
  O2-  O238  1  0.37538925  0.75008636  0.34998866  1
  O2-  O239  1  0.37610092  0.74945698  0.84646039  1
  O2-  O240  1  0.62508065  -0.00072843  0.35018119  1
  O2-  O241  1  0.62513095  0.00093443  0.84358792  1
  O2-  O242  1  0.62477835  0.25076647  0.34868523  1
  O2-  O243  1  0.62493301  0.24965519  0.84084400  1
  O2-  O244  1  0.62483902  0.49819357  0.34950425  1
  O2-  O245  1  0.62622900  0.50138483  0.84952088  1
  O2-  O246  1  0.62554160  0.75169242  0.35097335  1
  O2-  O247  1  0.62624643  0.74804017  0.85224526  1
  O2-  O248  1  0.87484318  0.00356101  0.35043497  1
  O2-  O249  1  0.87446813  0.00031496  0.84185204  1
  O2-  O250  1  0.87438665  0.24814993  0.35165621  1
  O2-  O251  1  0.87493795  0.25039327  0.83893213  1
  O2-  O252  1  0.87400854  0.50152102  0.34902218  1
  O2-  O253  1  0.87340715  0.50100720  0.84855213  1
  O2-  O254  1  0.87397428  0.74718445  0.34871354  1
  O2-  O255  1  0.87333623  0.74848443  0.85039429  1
  O2-  O256  1  0.00069311  0.12595308  0.35463806  1
  O2-  O257  1  -0.00193516  0.12515384  0.84093178  1
  O2-  O258  1  0.00018445  0.37472778  0.35204700  1
  O2-  O259  1  -0.00069565  0.37604893  0.84111850  1
  O2-  O260  1  -0.00174451  0.62458277  0.35037093  1
  O2-  O261  1  -0.00203278  0.62469137  0.84541844  1
  O2-  O262  1  0.00058240  0.87523873  0.35097042  1
  O2-  O263  1  -0.00179964  0.87427551  0.84459359  1
  O2-  O264  1  0.24926035  0.12487711  0.34554967  1
  O2-  O265  1  0.25229484  0.12564037  0.85049185  1
  O2-  O266  1  0.25271773  0.37383235  0.34496346  1
  O2-  O267  1  0.24877675  0.37519478  0.84808182  1
  O2-  O268  1  0.25005659  0.62522981  0.34858366  1
  O2-  O269  1  0.24933145  0.62462398  0.84513869  1
  O2-  O270  1  0.25061285  0.87632329  0.34900474  1
  O2-  O271  1  0.25120247  0.87493692  0.84652057  1
  O2-  O272  1  0.50030317  0.12496135  0.34105877  1
  O2-  O273  1  0.49911114  0.12501393  0.85061439  1
  O2-  O274  1  0.50077664  0.37488536  0.34498155  1
  O2-  O275  1  0.50117506  0.37543095  0.84874391  1
  O2-  O276  1  0.50061588  0.62500738  0.34721462  1
  O2-  O277  1  0.50127172  0.62448922  0.85191241  1
  O2-  O278  1  0.50244146  0.87497130  0.34832075  1
  O2-  O279  1  0.49921848  0.87516548  0.84878921  1
  O2-  O280  1  0.75010102  0.12572374  0.35240253  1
  O2-  O281  1  0.75057545  0.12502176  0.83947964  1
  O2-  O282  1  0.74698022  0.37522686  0.35252498  1
  O2-  O283  1  0.75054401  0.37517842  0.84082578  1
  O2-  O284  1  0.75155038  0.62431044  0.35058739  1
  O2-  O285  1  0.75050193  0.62499172  0.85114837  1
  O2-  O286  1  0.74679939  0.87482976  0.35297643  1
  O2-  O287  1  0.75101311  0.87469084  0.84487745  1
