# generated using pymatgen
data_BaYFeCuO5
_symmetry_space_group_name_H-M   'P 1'
_cell_length_a   15.67944163
_cell_length_b   15.67119994
_cell_length_c   15.50431287
_cell_angle_alpha   89.99454926
_cell_angle_beta   90.00717499
_cell_angle_gamma   90.00061954
_symmetry_Int_Tables_number   1
_chemical_formula_structural   BaYFeCuO5
_chemical_formula_sum   'Ba32 Y32 Fe32 Cu32 O160'
_cell_volume   3809.65249521
_cell_formula_units_Z   32
loop_
 _symmetry_equiv_pos_site_id
 _symmetry_equiv_pos_as_xyz
  1  'x, y, z'
loop_
 _atom_type_symbol
 _atom_type_oxidation_number
  Ba2+  2.0
  Y3+  3.0
  Fe3+  3.0
  Cu2+  2.0
  O2-  -2.0
loop_
 _atom_site_type_symbol
 _atom_site_label
 _atom_site_symmetry_multiplicity
 _atom_site_fract_x
 _atom_site_fract_y
 _atom_site_fract_z
 _atom_site_occupancy
  Ba2+  Ba0  1  -0.00170070  0.00122320  0.02076010  1
  Ba2+  Ba1  1  -0.00025421  0.00974631  0.51604932  1
  Ba2+  Ba2  1  -0.00184263  0.24826009  0.02129689  1
  Ba2+  Ba3  1  0.00166369  0.25335452  0.51161869  1
  Ba2+  Ba4  1  0.00073905  0.50170345  0.01270590  1
  Ba2+  Ba5  1  -0.00541684  0.49444275  0.50172706  1
  Ba2+  Ba6  1  0.00169731  0.74837261  0.01303482  1
  Ba2+  Ba7  1  -0.00772777  0.74366911  0.50734245  1
  Ba2+  Ba8  1  0.25042522  0.00100567  0.02043376  1
  Ba2+  Ba9  1  0.25597536  0.00479532  0.51019429  1
  Ba2+  Ba10  1  0.24653411  0.24264055  0.01703213  1
  Ba2+  Ba11  1  0.24314124  0.24868104  0.50806261  1
  Ba2+  Ba12  1  0.23763548  0.50252969  0.01238170  1
  Ba2+  Ba13  1  0.24706520  0.49593862  0.50273285  1
  Ba2+  Ba14  1  0.24230129  0.75370565  0.01748291  1
  Ba2+  Ba15  1  0.26065771  0.75049007  0.50677629  1
  Ba2+  Ba16  1  0.49866530  0.00116920  0.01887534  1
  Ba2+  Ba17  1  0.50136332  -0.00137589  0.51902503  1
  Ba2+  Ba18  1  0.50231835  0.24252750  0.01580387  1
  Ba2+  Ba19  1  0.50441856  0.24597017  0.50006582  1
  Ba2+  Ba20  1  0.50910701  0.50026005  0.00763402  1
  Ba2+  Ba21  1  0.50679225  0.50586156  0.49639872  1
  Ba2+  Ba22  1  0.50422017  0.75631860  0.01306493  1
  Ba2+  Ba23  1  0.50507706  0.74907475  0.51351303  1
  Ba2+  Ba24  1  0.75277700  0.00107655  0.01864828  1
  Ba2+  Ba25  1  0.74398801  0.00462057  0.52188390  1
  Ba2+  Ba26  1  0.75336764  0.24809429  0.01995948  1
  Ba2+  Ba27  1  0.74984396  0.25181392  0.50605646  1
  Ba2+  Ba28  1  0.75335280  0.49975364  0.00671565  1
  Ba2+  Ba29  1  0.74926520  0.50286753  0.49755818  1
  Ba2+  Ba30  1  0.75244471  0.75049242  0.00555080  1
  Ba2+  Ba31  1  0.74463710  0.74142503  0.51206641  1
  Y3+  Y32  1  -0.00105266  0.00074157  0.25483172  1
  Y3+  Y33  1  -0.00171713  0.00367496  0.75527491  1
  Y3+  Y34  1  -0.00070573  0.25241121  0.25787383  1
  Y3+  Y35  1  -0.00007294  0.24894238  0.75455836  1
  Y3+  Y36  1  -0.00021395  0.49788478  0.25978943  1
  Y3+  Y37  1  0.00017779  0.50119521  0.75630946  1
  Y3+  Y38  1  -0.00046831  0.74902868  0.25837038  1
  Y3+  Y39  1  -0.00143149  0.74584242  0.75633429  1
  Y3+  Y40  1  0.25157900  0.00104871  0.25490504  1
  Y3+  Y41  1  0.25162405  0.00151781  0.75649418  1
  Y3+  Y42  1  0.24944670  0.24927220  0.25781210  1
  Y3+  Y43  1  0.24874737  0.24945605  0.75690241  1
  Y3+  Y44  1  0.24730360  0.49971364  0.25858517  1
  Y3+  Y45  1  0.24712661  0.49976075  0.75847202  1
  Y3+  Y46  1  0.24957764  0.75009697  0.25636137  1
  Y3+  Y47  1  0.24965579  0.74919283  0.75790177  1
  Y3+  Y48  1  0.49912904  0.00074288  0.25282862  1
  Y3+  Y49  1  0.49949528  0.00016750  0.75835516  1
  Y3+  Y50  1  0.50091645  0.24890332  0.25425387  1
  Y3+  Y51  1  0.49894076  0.24830170  0.76053963  1
  Y3+  Y52  1  0.50213009  0.50024594  0.25884273  1
  Y3+  Y53  1  0.50168055  0.50152931  0.75986259  1
  Y3+  Y54  1  0.50068588  0.74997615  0.25845961  1
  Y3+  Y55  1  0.50241636  0.74990067  0.75663818  1
  Y3+  Y56  1  0.75029795  -0.00000268  0.25212006  1
  Y3+  Y57  1  0.75052633  0.00225769  0.75731915  1
  Y3+  Y58  1  0.75034238  0.25207792  0.25502852  1
  Y3+  Y59  1  0.75183584  0.24768908  0.75781569  1
  Y3+  Y60  1  0.75046187  0.49856044  0.26075448  1
  Y3+  Y61  1  0.75053286  0.50352560  0.75722518  1
  Y3+  Y62  1  0.75049081  0.74920506  0.26028287  1
  Y3+  Y63  1  0.74938362  0.74611770  0.75489567  1
  Fe3+  Fe64  1  0.37421684  0.87541893  0.87729709  1
  Fe3+  Fe65  1  0.12365212  0.37391225  0.87688172  1
  Fe3+  Fe66  1  0.37443840  0.62557869  0.88236726  1
  Fe3+  Fe67  1  0.62503700  0.12340441  0.37321824  1
  Fe3+  Fe68  1  0.12367288  0.87573826  0.87393633  1
  Fe3+  Fe69  1  0.12503082  0.12448232  0.37485038  1
  Fe3+  Fe70  1  0.12413287  0.12420189  0.87582856  1
  Fe3+  Fe71  1  0.37413113  0.37439833  0.88271433  1
  Fe3+  Fe72  1  0.87388304  0.12500632  0.37616245  1
  Fe3+  Fe73  1  0.62623744  0.87532834  0.87560320  1
  Fe3+  Fe74  1  0.62548087  0.87641802  0.37595965  1
  Fe3+  Fe75  1  0.12477230  0.87603839  0.37978881  1
  Fe3+  Fe76  1  0.12515994  0.62547772  0.37964459  1
  Fe3+  Fe77  1  0.87377289  0.87667616  0.38037835  1
  Fe3+  Fe78  1  0.37548283  0.37410884  0.37882642  1
  Fe3+  Fe79  1  0.87598985  0.37423410  0.87780734  1
  Fe3+  Fe80  1  0.62639151  0.37414510  0.87918688  1
  Fe3+  Fe81  1  0.62598036  0.12430353  0.87795490  1
  Fe3+  Fe82  1  0.37649695  0.87614195  0.37534241  1
  Fe3+  Fe83  1  0.87602821  0.87529123  0.87456591  1
  Fe3+  Fe84  1  0.37592855  0.37565728  0.63484359  1
  Fe3+  Fe85  1  0.87506565  0.62465392  0.14075962  1
  Fe3+  Fe86  1  0.62414802  0.37518670  0.63784407  1
  Fe3+  Fe87  1  0.37466326  0.37596531  0.13566918  1
  Fe3+  Fe88  1  0.12516757  0.62446453  0.63379395  1
  Fe3+  Fe89  1  0.87389848  0.37562904  0.63770342  1
  Fe3+  Fe90  1  0.37574449  0.62351867  0.63847325  1
  Fe3+  Fe91  1  0.87404776  0.87492006  0.63352167  1
  Fe3+  Fe92  1  0.12545426  0.87486980  0.63183101  1
  Fe3+  Fe93  1  0.37588408  0.12661502  0.63775493  1
  Fe3+  Fe94  1  0.62642985  0.62530992  0.13915778  1
  Fe3+  Fe95  1  0.37470289  0.62492870  0.13575979  1
  Cu2+  Cu96  1  0.62522723  0.62643945  0.37070426  1
  Cu2+  Cu97  1  0.62517183  0.62566981  0.86615099  1
  Cu2+  Cu98  1  0.37428529  0.12438892  0.87484032  1
  Cu2+  Cu99  1  0.87433028  0.37367683  0.36390065  1
  Cu2+  Cu100  1  0.12487578  0.37380602  0.37267880  1
  Cu2+  Cu101  1  0.87575526  0.12510034  0.87299606  1
  Cu2+  Cu102  1  0.37574597  0.12471120  0.36178420  1
  Cu2+  Cu103  1  0.87554662  0.62478158  0.86313890  1
  Cu2+  Cu104  1  0.62474944  0.37388743  0.36183934  1
  Cu2+  Cu105  1  0.37496546  0.62529404  0.36264600  1
  Cu2+  Cu106  1  0.87482425  0.62506061  0.37340826  1
  Cu2+  Cu107  1  0.12454788  0.62564049  0.87247903  1
  Cu2+  Cu108  1  0.62577571  0.12497186  0.14986309  1
  Cu2+  Cu109  1  0.37466766  0.12549916  0.14218535  1
  Cu2+  Cu110  1  0.37518704  0.87436442  0.65120891  1
  Cu2+  Cu111  1  0.62589364  0.87397440  0.15060871  1
  Cu2+  Cu112  1  0.87513588  0.87326939  0.15321731  1
  Cu2+  Cu113  1  0.62428525  0.62281345  0.64467283  1
  Cu2+  Cu114  1  0.62507092  0.37614713  0.14915903  1
  Cu2+  Cu115  1  0.12382952  0.62497920  0.14572223  1
  Cu2+  Cu116  1  0.87529419  0.12558374  0.14247018  1
  Cu2+  Cu117  1  0.62379287  0.12672038  0.65369729  1
  Cu2+  Cu118  1  0.62543700  0.87496320  0.65155469  1
  Cu2+  Cu119  1  0.12538745  0.37581222  0.64051000  1
  Cu2+  Cu120  1  0.12503270  0.37488265  0.15312918  1
  Cu2+  Cu121  1  0.12440695  0.12521142  0.15408396  1
  Cu2+  Cu122  1  0.12598244  0.12485899  0.65000820  1
  Cu2+  Cu123  1  0.12411421  0.87521778  0.15547409  1
  Cu2+  Cu124  1  0.87455190  0.62315704  0.64081697  1
  Cu2+  Cu125  1  0.87515071  0.37643099  0.15247252  1
  Cu2+  Cu126  1  0.37488049  0.87388251  0.15028716  1
  Cu2+  Cu127  1  0.87424346  0.12634838  0.64789101  1
  O2-  O128  1  0.12382265  0.12312863  -0.00406870  1
  O2-  O129  1  0.12570682  0.12397078  0.49537036  1
  O2-  O130  1  0.12381344  0.37355687  -0.00297413  1
  O2-  O131  1  0.12585205  0.37484406  0.50645033  1
  O2-  O132  1  0.12397814  0.62632359  0.00812347  1
  O2-  O133  1  0.12678023  0.62534630  0.50724868  1
  O2-  O134  1  0.12286024  0.87624111  -0.00648023  1
  O2-  O135  1  0.12655945  0.87543564  0.50506596  1
  O2-  O136  1  0.37387185  0.12440989  0.00760081  1
  O2-  O137  1  0.37729688  0.12711419  0.51750537  1
  O2-  O138  1  0.37337321  0.37523029  0.00854165  1
  O2-  O139  1  0.37699717  0.37471408  0.50825125  1
  O2-  O140  1  0.37381485  0.62572506  0.00908122  1
  O2-  O141  1  0.37650049  0.62356275  0.51839960  1
  O2-  O142  1  0.37290942  0.87486432  -0.00285679  1
  O2-  O143  1  0.37723688  0.87596929  0.49556690  1
  O2-  O144  1  0.62647380  0.12363005  -0.00175176  1
  O2-  O145  1  0.62399857  0.12343114  0.49350673  1
  O2-  O146  1  0.62629831  0.37368980  -0.00071075  1
  O2-  O147  1  0.62318911  0.37522962  0.51780094  1
  O2-  O148  1  0.62703742  0.62605581  0.01878927  1
  O2-  O149  1  0.62341144  0.62466215  0.50776209  1
  O2-  O150  1  0.62690495  0.87546045  -0.00441677  1
  O2-  O151  1  0.62441675  0.87745907  0.49585689  1
  O2-  O152  1  0.87611772  0.12462886  0.00711450  1
  O2-  O153  1  0.87279997  0.12490035  0.49626380  1
  O2-  O154  1  0.87687404  0.37442197  -0.00198711  1
  O2-  O155  1  0.87233163  0.37457291  0.51699166  1
  O2-  O156  1  0.87551202  0.62564693  0.02028026  1
  O2-  O157  1  0.87421951  0.62394411  0.50747275  1
  O2-  O158  1  0.87763490  0.87449907  -0.00556538  1
  O2-  O159  1  0.87231829  0.87721054  0.50594257  1
  O2-  O160  1  0.12443229  -0.00023637  0.16390905  1
  O2-  O161  1  0.12526818  -0.00173342  0.65876804  1
  O2-  O162  1  0.12590688  0.25021339  0.16416542  1
  O2-  O163  1  0.12653104  0.24848071  0.66339820  1
  O2-  O164  1  0.12525451  0.49871636  0.16888632  1
  O2-  O165  1  0.12644489  0.50339709  0.66603224  1
  O2-  O166  1  0.12486961  0.75142797  0.16897216  1
  O2-  O167  1  0.12520642  0.74988114  0.66066542  1
  O2-  O168  1  0.37464584  -0.00181874  0.16283689  1
  O2-  O169  1  0.37548345  -0.00001072  0.66267305  1
  O2-  O170  1  0.37453871  0.25347872  0.16461771  1
  O2-  O171  1  0.37499087  0.25176248  0.66751367  1
  O2-  O172  1  0.37478311  0.50053991  0.16521341  1
  O2-  O173  1  0.37437523  0.49888306  0.67133081  1
  O2-  O174  1  0.37430224  0.74817314  0.16350972  1
  O2-  O175  1  0.37473883  0.74929775  0.66583170  1
  O2-  O176  1  0.62546923  -0.00100125  0.16037943  1
  O2-  O177  1  0.62419764  0.00118268  0.66177221  1
  O2-  O178  1  0.62471040  0.25050302  0.16358579  1
  O2-  O179  1  0.62297948  0.25095256  0.66676097  1
  O2-  O180  1  0.62397078  0.50159233  0.16819946  1
  O2-  O181  1  0.62370567  0.49736608  0.67218316  1
  O2-  O182  1  0.62504744  0.74897108  0.16770574  1
  O2-  O183  1  0.62473179  0.75032982  0.66401607  1
  O2-  O184  1  0.87570183  -0.00234011  0.16329636  1
  O2-  O185  1  0.87496667  -0.00032552  0.66036592  1
  O2-  O186  1  0.87511478  0.25253191  0.16470625  1
  O2-  O187  1  0.87474060  0.25026539  0.66506815  1
  O2-  O188  1  0.87553010  0.50045176  0.16864667  1
  O2-  O189  1  0.87501654  0.49785523  0.67024663  1
  O2-  O190  1  0.87539161  0.74912866  0.16970599  1
  O2-  O191  1  0.87497515  0.75269567  0.66196275  1
  O2-  O192  1  0.00096402  0.12517933  0.16685987  1
  O2-  O193  1  0.00085756  0.12525883  0.65940381  1
  O2-  O194  1  0.00075361  0.37539262  0.16623924  1
  O2-  O195  1  -0.00120110  0.37477718  0.66218797  1
  O2-  O196  1  -0.00166309  0.62520117  0.17091953  1
  O2-  O197  1  0.00290295  0.62519238  0.66114295  1
  O2-  O198  1  -0.00009190  0.87414058  0.16915841  1
  O2-  O199  1  0.00005903  0.87525359  0.65465475  1
  O2-  O200  1  0.24838662  0.12505959  0.16605517  1
  O2-  O201  1  0.25149131  0.12485291  0.66418056  1
  O2-  O202  1  0.25149354  0.37622943  0.16565378  1
  O2-  O203  1  0.25330380  0.37557967  0.66281306  1
  O2-  O204  1  0.25234227  0.62476209  0.16552838  1
  O2-  O205  1  0.24919918  0.62541786  0.66562848  1
  O2-  O206  1  0.24916412  0.87447168  0.16579775  1
  O2-  O207  1  0.24796263  0.87419091  0.66042189  1
  O2-  O208  1  0.50165716  0.12555493  0.16273914  1
  O2-  O209  1  0.49885430  0.12538704  0.66875809  1
  O2-  O210  1  0.49780955  0.37603521  0.16321470  1
  O2-  O211  1  0.49782990  0.37538819  0.66986864  1
  O2-  O212  1  0.49877109  0.62515866  0.16337521  1
  O2-  O213  1  0.49801695  0.62442150  0.67121314  1
  O2-  O214  1  0.50031846  0.87402634  0.16127060  1
  O2-  O215  1  0.50086062  0.87427112  0.66533901  1
  O2-  O216  1  0.74926954  0.12509333  0.16397865  1
  O2-  O217  1  0.74833610  0.12574738  0.66354282  1
  O2-  O218  1  0.75001560  0.37601662  0.16523762  1
  O2-  O219  1  0.74931598  0.37391465  0.66822906  1
  O2-  O220  1  0.75042187  0.62482039  0.17003081  1
  O2-  O221  1  0.74950209  0.62422520  0.66550285  1
  O2-  O222  1  0.75063785  0.87424988  0.16430582  1
  O2-  O223  1  0.75136426  0.87589224  0.66166675  1
  O2-  O224  1  0.12535509  -0.00127327  0.34659221  1
  O2-  O225  1  0.12472205  -0.00041938  0.83978412  1
  O2-  O226  1  0.12570806  0.24763811  0.34657854  1
  O2-  O227  1  0.12522967  0.25019745  0.84450240  1
  O2-  O228  1  0.12601392  0.50247144  0.35261070  1
  O2-  O229  1  0.12559510  0.49796614  0.84862350  1
  O2-  O230  1  0.12507127  0.75105247  0.35264101  1
  O2-  O231  1  0.12470834  0.75179917  0.84323928  1
  O2-  O232  1  0.37466798  -0.00060723  0.34513068  1
  O2-  O233  1  0.37466535  -0.00243607  0.84426516  1
  O2-  O234  1  0.37580545  0.25107328  0.34981087  1
  O2-  O235  1  0.37487424  0.25375337  0.85018952  1
  O2-  O236  1  0.37495328  0.49869542  0.35107101  1
  O2-  O237  1  0.37493708  0.49945620  0.85496431  1
  O2-  O238  1  0.37432818  0.75104876  0.34691729  1
  O2-  O239  1  0.37453181  0.74921392  0.84841754  1
  O2-  O240  1  0.62486426  -0.00018183  0.34093158  1
  O2-  O241  1  0.62540712  -0.00053614  0.84346911  1
  O2-  O242  1  0.62399640  0.24882659  0.34689590  1
  O2-  O243  1  0.62471392  0.25016954  0.84658537  1
  O2-  O244  1  0.62424642  0.49863281  0.35097781  1
  O2-  O245  1  0.62441507  0.50008158  0.85320888  1
  O2-  O246  1  0.62481667  0.75277918  0.34820535  1
  O2-  O247  1  0.62529165  0.75019474  0.84723946  1
  O2-  O248  1  0.87519102  -0.00082113  0.34540154  1
  O2-  O249  1  0.87529781  -0.00164218  0.84298823  1
  O2-  O250  1  0.87439461  0.24908953  0.34731736  1
  O2-  O251  1  0.87526765  0.25184446  0.84596442  1
  O2-  O252  1  0.87474087  0.49785652  0.35150531  1
  O2-  O253  1  0.87540431  0.50006286  0.85151606  1
  O2-  O254  1  0.87588007  0.75411123  0.35221876  1
  O2-  O255  1  0.87549767  0.74948762  0.84547269  1
  O2-  O256  1  -0.00069898  0.12430113  0.34780248  1
  O2-  O257  1  0.00197118  0.12478526  0.84219629  1
  O2-  O258  1  -0.00117737  0.37460449  0.35049395  1
  O2-  O259  1  0.00013919  0.37548598  0.84254538  1
  O2-  O260  1  0.00299173  0.62545356  0.35331459  1
  O2-  O261  1  -0.00105018  0.62499101  0.84468646  1
  O2-  O262  1  0.00029080  0.87576547  0.35403103  1
  O2-  O263  1  -0.00013308  0.87458289  0.83699895  1
  O2-  O264  1  0.25045588  0.12456029  0.34865819  1
  O2-  O265  1  0.24766004  0.12504027  0.84500424  1
  O2-  O266  1  0.25328122  0.37503572  0.35026126  1
  O2-  O267  1  0.25050351  0.37541509  0.84646840  1
  O2-  O268  1  0.24814396  0.62572353  0.35016819  1
  O2-  O269  1  0.25348457  0.62456751  0.84811649  1
  O2-  O270  1  0.24882360  0.87460109  0.34966286  1
  O2-  O271  1  0.24953339  0.87447967  0.84238902  1
  O2-  O272  1  0.50027215  0.12523577  0.34475533  1
  O2-  O273  1  0.50203736  0.12497671  0.84943607  1
  O2-  O274  1  0.49817223  0.37504596  0.34854455  1
  O2-  O275  1  0.49935258  0.37585342  0.85193687  1
  O2-  O276  1  0.49887486  0.62495790  0.34611564  1
  O2-  O277  1  0.49744090  0.62469113  0.85411728  1
  O2-  O278  1  0.50023089  0.87533790  0.34327414  1
  O2-  O279  1  0.50018016  0.87403438  0.84746171  1
  O2-  O280  1  0.74994944  0.12485508  0.34427245  1
  O2-  O281  1  0.74848002  0.12467928  0.84621340  1
  O2-  O282  1  0.74918078  0.37420985  0.35001746  1
  O2-  O283  1  0.75023296  0.37592947  0.84765721  1
  O2-  O284  1  0.75019446  0.62542426  0.35030228  1
  O2-  O285  1  0.75042572  0.62544140  0.84985587  1
  O2-  O286  1  0.75108007  0.87586620  0.34701198  1
  O2-  O287  1  0.75060111  0.87377328  0.84349775  1
