# generated using pymatgen
data_BaYFeCuO5
_symmetry_space_group_name_H-M   'P 1'
_cell_length_a   15.65418181
_cell_length_b   15.65120979
_cell_length_c   15.43605059
_cell_angle_alpha   90.00205500
_cell_angle_beta   89.99562443
_cell_angle_gamma   90.00229074
_symmetry_Int_Tables_number   1
_chemical_formula_structural   BaYFeCuO5
_chemical_formula_sum   'Ba32 Y32 Fe32 Cu32 O160'
_cell_volume   3781.93863426
_cell_formula_units_Z   32
loop_
 _symmetry_equiv_pos_site_id
 _symmetry_equiv_pos_as_xyz
  1  'x, y, z'
loop_
 _atom_type_symbol
 _atom_type_oxidation_number
  Ba2+  2.0
  Y3+  3.0
  Fe3+  3.0
  Cu2+  2.0
  O2-  -2.0
loop_
 _atom_site_type_symbol
 _atom_site_label
 _atom_site_symmetry_multiplicity
 _atom_site_fract_x
 _atom_site_fract_y
 _atom_site_fract_z
 _atom_site_occupancy
  Ba2+  Ba0  1  -0.00079523  0.00020183  0.00599717  1
  Ba2+  Ba1  1  -0.00336935  -0.01155330  0.51164572  1
  Ba2+  Ba2  1  0.01153856  0.24787002  0.01227222  1
  Ba2+  Ba3  1  -0.00624067  0.25403432  0.50189978  1
  Ba2+  Ba4  1  -0.00244787  0.50204865  0.01157814  1
  Ba2+  Ba5  1  -0.01100444  0.50258851  0.50697250  1
  Ba2+  Ba6  1  -0.01195148  0.75034879  0.00659278  1
  Ba2+  Ba7  1  -0.00805802  0.75497217  0.51717901  1
  Ba2+  Ba8  1  0.24906312  0.01242023  0.01087481  1
  Ba2+  Ba9  1  0.25720704  -0.00721887  0.51493271  1
  Ba2+  Ba10  1  0.25310422  0.25045971  0.01832795  1
  Ba2+  Ba11  1  0.25590986  0.24442291  0.51117511  1
  Ba2+  Ba12  1  0.25695676  0.49172394  0.01674186  1
  Ba2+  Ba13  1  0.25597223  0.50637270  0.51101413  1
  Ba2+  Ba14  1  0.25472150  0.74527184  0.01103766  1
  Ba2+  Ba15  1  0.25751225  0.75649802  0.51550985  1
  Ba2+  Ba16  1  0.50574535  0.00378844  0.01696226  1
  Ba2+  Ba17  1  0.50119626  -0.00104241  0.51615516  1
  Ba2+  Ba18  1  0.49813998  0.25343166  0.01721875  1
  Ba2+  Ba19  1  0.50918623  0.24556274  0.51113866  1
  Ba2+  Ba20  1  0.49670759  0.49066019  0.01067690  1
  Ba2+  Ba21  1  0.50974036  0.50472927  0.51130475  1
  Ba2+  Ba22  1  0.50424518  0.75251247  0.01046134  1
  Ba2+  Ba23  1  0.50178270  0.75025274  0.51686210  1
  Ba2+  Ba24  1  0.74570117  -0.00782567  0.01082931  1
  Ba2+  Ba25  1  0.74446495  -0.00528193  0.51164565  1
  Ba2+  Ba26  1  0.73812099  0.25170797  0.01206206  1
  Ba2+  Ba27  1  0.74117913  0.25408805  0.50204172  1
  Ba2+  Ba28  1  0.74900707  0.50072520  0.00684757  1
  Ba2+  Ba29  1  0.74337307  0.50164036  0.50615887  1
  Ba2+  Ba30  1  0.75439795  0.75568283  0.00696760  1
  Ba2+  Ba31  1  0.74826235  0.74929011  0.51871155  1
  Y3+  Y32  1  -0.00228606  -0.00167182  0.25556928  1
  Y3+  Y33  1  -0.00085224  -0.00223015  0.75908677  1
  Y3+  Y34  1  0.00023277  0.24955749  0.25685667  1
  Y3+  Y35  1  0.00038089  0.24809317  0.75882169  1
  Y3+  Y36  1  -0.00221945  0.50046094  0.25594866  1
  Y3+  Y37  1  -0.00294536  0.50215732  0.75939663  1
  Y3+  Y38  1  -0.00502643  0.75133136  0.25419320  1
  Y3+  Y39  1  -0.00477538  0.75181427  0.75937854  1
  Y3+  Y40  1  0.25083577  0.00092861  0.25684817  1
  Y3+  Y41  1  0.25089208  0.00024183  0.75574754  1
  Y3+  Y42  1  0.25091457  0.24919594  0.25533836  1
  Y3+  Y43  1  0.25195007  0.24849832  0.75866848  1
  Y3+  Y44  1  0.25219011  0.49937860  0.25557446  1
  Y3+  Y45  1  0.25290550  0.49984585  0.75714565  1
  Y3+  Y46  1  0.25251456  0.75055242  0.25706948  1
  Y3+  Y47  1  0.25174139  0.75171597  0.75500857  1
  Y3+  Y48  1  0.50249236  0.00041290  0.25824536  1
  Y3+  Y49  1  0.50184166  -0.00028516  0.75456942  1
  Y3+  Y50  1  0.50323488  0.25026138  0.25760789  1
  Y3+  Y51  1  0.50233532  0.25145169  0.75626799  1
  Y3+  Y52  1  0.50239437  0.49877535  0.25692384  1
  Y3+  Y53  1  0.50302430  0.49846467  0.75725162  1
  Y3+  Y54  1  0.50133255  0.75028106  0.25698228  1
  Y3+  Y55  1  0.50246292  0.75056545  0.75601184  1
  Y3+  Y56  1  0.74853348  -0.00229036  0.25684367  1
  Y3+  Y57  1  0.74890113  -0.00330178  0.75834846  1
  Y3+  Y58  1  0.74553938  0.25106483  0.26006826  1
  Y3+  Y59  1  0.74556699  0.25055606  0.75636128  1
  Y3+  Y60  1  0.74714689  0.49969405  0.25804693  1
  Y3+  Y61  1  0.74752008  0.50171364  0.75815923  1
  Y3+  Y62  1  0.75029539  0.75121744  0.25436938  1
  Y3+  Y63  1  0.75075971  0.75091397  0.76076382  1
  Fe3+  Fe64  1  0.37588993  0.87629352  0.87944070  1
  Fe3+  Fe65  1  0.12566503  0.62480932  0.87877729  1
  Fe3+  Fe66  1  0.12644999  0.37503196  0.87584449  1
  Fe3+  Fe67  1  0.87450641  0.37354794  0.88079095  1
  Fe3+  Fe68  1  0.87342376  0.12374159  0.37969990  1
  Fe3+  Fe69  1  0.12457688  0.12342359  0.37996636  1
  Fe3+  Fe70  1  0.37633115  0.37488477  0.37970640  1
  Fe3+  Fe71  1  0.62468822  0.62512683  0.87969958  1
  Fe3+  Fe72  1  0.37663290  0.62606813  0.37598564  1
  Fe3+  Fe73  1  0.12564810  0.37621294  0.38001074  1
  Fe3+  Fe74  1  0.62429232  0.12476154  0.87644387  1
  Fe3+  Fe75  1  0.87396475  0.12573525  0.88063591  1
  Fe3+  Fe76  1  0.87295442  0.62649270  0.37574486  1
  Fe3+  Fe77  1  0.12440962  0.62674156  0.37876622  1
  Fe3+  Fe78  1  0.37583782  0.62414633  0.87674715  1
  Fe3+  Fe79  1  0.12636004  0.87493561  0.87933120  1
  Fe3+  Fe80  1  0.37643746  0.12588206  0.87578496  1
  Fe3+  Fe81  1  0.12476838  0.87354447  0.37584959  1
  Fe3+  Fe82  1  0.62473039  0.87344375  0.37616773  1
  Fe3+  Fe83  1  0.37627382  0.12385442  0.37690691  1
  Fe3+  Fe84  1  0.87425897  0.37402116  0.13602917  1
  Fe3+  Fe85  1  0.12409913  0.62609704  0.63451377  1
  Fe3+  Fe86  1  0.12439142  0.37564834  0.63342430  1
  Fe3+  Fe87  1  0.37648028  0.37491875  0.63426428  1
  Fe3+  Fe88  1  0.12494989  0.87512319  0.13322331  1
  Fe3+  Fe89  1  0.12388464  0.12413752  0.63386501  1
  Fe3+  Fe90  1  0.87360175  0.37515915  0.63889550  1
  Fe3+  Fe91  1  0.37525192  0.87606433  0.13434797  1
  Fe3+  Fe92  1  0.87354941  0.12480710  0.63522849  1
  Fe3+  Fe93  1  0.12493255  0.62513179  0.13444040  1
  Fe3+  Fe94  1  0.87347093  0.12537546  0.13565133  1
  Fe3+  Fe95  1  0.62491736  0.62486043  0.13505634  1
  Cu2+  Cu96  1  0.62431045  0.37475228  0.87320692  1
  Cu2+  Cu97  1  0.37600133  0.87513319  0.37024808  1
  Cu2+  Cu98  1  0.87389199  0.87455409  0.37153653  1
  Cu2+  Cu99  1  0.37548199  0.37420508  0.86973297  1
  Cu2+  Cu100  1  0.87454239  0.87655428  0.87262386  1
  Cu2+  Cu101  1  0.62505579  0.62661547  0.36964716  1
  Cu2+  Cu102  1  0.12588780  0.12515002  0.87135671  1
  Cu2+  Cu103  1  0.87439427  0.37532123  0.36217808  1
  Cu2+  Cu104  1  0.87440547  0.62430297  0.87389972  1
  Cu2+  Cu105  1  0.62506332  0.12340146  0.37242662  1
  Cu2+  Cu106  1  0.62379836  0.37607932  0.37181389  1
  Cu2+  Cu107  1  0.62380212  0.87543211  0.87269189  1
  Cu2+  Cu108  1  0.37583594  0.62458777  0.65162852  1
  Cu2+  Cu109  1  0.62524173  0.37565719  0.14280502  1
  Cu2+  Cu110  1  0.87346489  0.87543829  0.64430087  1
  Cu2+  Cu111  1  0.87450313  0.87600041  0.14134551  1
  Cu2+  Cu112  1  0.62588102  0.12497692  0.15194117  1
  Cu2+  Cu113  1  0.37590702  0.37418780  0.14720881  1
  Cu2+  Cu114  1  0.37624703  0.12466024  0.15273482  1
  Cu2+  Cu115  1  0.62585636  0.37558796  0.64369469  1
  Cu2+  Cu116  1  0.87375128  0.62429126  0.14101065  1
  Cu2+  Cu117  1  0.62481093  0.87455121  0.14187402  1
  Cu2+  Cu118  1  0.87428841  0.62479221  0.65369426  1
  Cu2+  Cu119  1  0.12461659  0.37538147  0.15335105  1
  Cu2+  Cu120  1  0.37616566  0.62496719  0.14880419  1
  Cu2+  Cu121  1  0.12415309  0.12440413  0.14339124  1
  Cu2+  Cu122  1  0.37576865  0.12553530  0.64949072  1
  Cu2+  Cu123  1  0.12450945  0.87465082  0.65267232  1
  Cu2+  Cu124  1  0.37682386  0.87512588  0.64389776  1
  Cu2+  Cu125  1  0.62648069  0.12474822  0.64141245  1
  Cu2+  Cu126  1  0.62556648  0.87448076  0.65277449  1
  Cu2+  Cu127  1  0.62593324  0.62516644  0.64417098  1
  O2-  O128  1  0.12558582  0.12608246  0.00740400  1
  O2-  O129  1  0.12372101  0.12295696  0.50652204  1
  O2-  O130  1  0.12729088  0.37472889  -0.00339867  1
  O2-  O131  1  0.12395801  0.37681615  0.50665952  1
  O2-  O132  1  0.12615416  0.62318804  0.00591105  1
  O2-  O133  1  0.12408108  0.62718784  0.50551696  1
  O2-  O134  1  0.12676606  0.87547282  0.00618916  1
  O2-  O135  1  0.12504536  0.87230738  0.49675457  1
  O2-  O136  1  0.37615567  0.12672719  -0.00356298  1
  O2-  O137  1  0.37435161  0.12289248  0.49758986  1
  O2-  O138  1  0.37382701  0.37294501  0.00670912  1
  O2-  O139  1  0.37570169  0.37543400  0.50608910  1
  O2-  O140  1  0.37331454  0.62291750  -0.00271412  1
  O2-  O141  1  0.37508995  0.62680047  0.49682771  1
  O2-  O142  1  0.37401294  0.87651988  0.00598620  1
  O2-  O143  1  0.37638033  0.87467752  0.50730483  1
  O2-  O144  1  0.62362946  0.12563430  -0.00253958  1
  O2-  O145  1  0.62681601  0.12343146  0.50727779  1
  O2-  O146  1  0.62426835  0.37534256  0.00797614  1
  O2-  O147  1  0.62456095  0.37623930  0.50768881  1
  O2-  O148  1  0.62398554  0.62411292  0.00697687  1
  O2-  O149  1  0.62592807  0.62686011  0.50819650  1
  O2-  O150  1  0.62318606  0.87482117  0.00676268  1
  O2-  O151  1  0.62418861  0.87307426  0.49756784  1
  O2-  O152  1  0.87454275  0.12682237  0.00787266  1
  O2-  O153  1  0.87511332  0.12448924  0.50782862  1
  O2-  O154  1  0.87625816  0.37238483  0.00824656  1
  O2-  O155  1  0.87474797  0.37561826  0.51798091  1
  O2-  O156  1  0.87623777  0.62274916  0.00715916  1
  O2-  O157  1  0.87420535  0.62650871  0.49667623  1
  O2-  O158  1  0.87582023  0.87757023  0.00693857  1
  O2-  O159  1  0.87386240  0.87440662  0.50796307  1
  O2-  O160  1  0.12520077  -0.00365738  0.16397833  1
  O2-  O161  1  0.12424519  0.00161195  0.66330742  1
  O2-  O162  1  0.12437816  0.25131183  0.17001131  1
  O2-  O163  1  0.12395721  0.25027507  0.65772802  1
  O2-  O164  1  0.12521826  0.50169096  0.16516538  1
  O2-  O165  1  0.12508916  0.50021043  0.66036848  1
  O2-  O166  1  0.12614951  0.75020710  0.15778613  1
  O2-  O167  1  0.12464495  0.74817788  0.66613893  1
  O2-  O168  1  0.37349706  -0.00106091  0.16129140  1
  O2-  O169  1  0.37483533  0.00173410  0.66582777  1
  O2-  O170  1  0.37482226  0.24819492  0.16822182  1
  O2-  O171  1  0.37352665  0.25192493  0.66043702  1
  O2-  O172  1  0.37418532  0.50091488  0.16690351  1
  O2-  O173  1  0.37327206  0.49815315  0.66177618  1
  O2-  O174  1  0.37395432  0.75185757  0.15952113  1
  O2-  O175  1  0.37512421  0.74849349  0.66767315  1
  O2-  O176  1  0.62573903  0.00100075  0.16426972  1
  O2-  O177  1  0.62575736  -0.00233983  0.66414534  1
  O2-  O178  1  0.62523756  0.24912547  0.16686202  1
  O2-  O179  1  0.62574347  0.25080965  0.66423997  1
  O2-  O180  1  0.62472976  0.50246265  0.16506497  1
  O2-  O181  1  0.62592071  0.49984220  0.66708795  1
  O2-  O182  1  0.62413792  0.74745632  0.16137907  1
  O2-  O183  1  0.62535279  0.75164155  0.66766608  1
  O2-  O184  1  0.87499576  0.00301608  0.16407231  1
  O2-  O185  1  0.87599717  0.00289373  0.66519517  1
  O2-  O186  1  0.87582825  0.24999757  0.16578636  1
  O2-  O187  1  0.87698377  0.24903337  0.66579230  1
  O2-  O188  1  0.87616353  0.49666649  0.16339095  1
  O2-  O189  1  0.87607828  0.49962632  0.66827326  1
  O2-  O190  1  0.87526928  0.75005175  0.16131169  1
  O2-  O191  1  0.87525690  0.74873668  0.66694579  1
  O2-  O192  1  -0.00357445  0.12559871  0.16681760  1
  O2-  O193  1  0.00024945  0.12518477  0.66489439  1
  O2-  O194  1  -0.00171451  0.37443076  0.16452617  1
  O2-  O195  1  0.00141522  0.37550292  0.66658077  1
  O2-  O196  1  0.00293452  0.62473104  0.16414427  1
  O2-  O197  1  0.00143097  0.62466085  0.66455385  1
  O2-  O198  1  0.00282769  0.87473130  0.16302413  1
  O2-  O199  1  0.00040910  0.87499398  0.66779530  1
  O2-  O200  1  0.25121445  0.12540258  0.16619589  1
  O2-  O201  1  0.24744240  0.12522361  0.66099782  1
  O2-  O202  1  0.24935145  0.37469784  0.16794488  1
  O2-  O203  1  0.24905291  0.37527100  0.65840370  1
  O2-  O204  1  0.24863742  0.62491368  0.16390099  1
  O2-  O205  1  0.24814419  0.62524193  0.66156538  1
  O2-  O206  1  0.24997547  0.87455914  0.16176739  1
  O2-  O207  1  0.24920518  0.87484775  0.66587639  1
  O2-  O208  1  0.50107848  0.12476084  0.16398576  1
  O2-  O209  1  0.49974611  0.12528009  0.66226906  1
  O2-  O210  1  0.50018576  0.37480573  0.16576035  1
  O2-  O211  1  0.49764726  0.37562072  0.66335330  1
  O2-  O212  1  0.50129751  0.62479661  0.16182725  1
  O2-  O213  1  0.49915042  0.62449874  0.66608939  1
  O2-  O214  1  0.49685081  0.87569918  0.16186127  1
  O2-  O215  1  0.50257015  0.87459933  0.66592757  1
  O2-  O216  1  0.75142803  0.12636178  0.16449584  1
  O2-  O217  1  0.75323332  0.12547333  0.66702308  1
  O2-  O218  1  0.75262087  0.37417020  0.16384089  1
  O2-  O219  1  0.75222767  0.37504094  0.67108629  1
  O2-  O220  1  0.74710465  0.62432661  0.16268886  1
  O2-  O221  1  0.75144723  0.62519413  0.66924078  1
  O2-  O222  1  0.74961858  0.87529052  0.16403813  1
  O2-  O223  1  0.74823873  0.87470348  0.66734714  1
  O2-  O224  1  0.12389499  0.00117423  0.34736920  1
  O2-  O225  1  0.12543500  -0.00324021  0.84878974  1
  O2-  O226  1  0.12471200  0.24984753  0.35553799  1
  O2-  O227  1  0.12490830  0.25192304  0.84201414  1
  O2-  O228  1  0.12499162  0.50085797  0.35156759  1
  O2-  O229  1  0.12486520  0.50133921  0.84477757  1
  O2-  O230  1  0.12485381  0.74809176  0.34173724  1
  O2-  O231  1  0.12667398  0.74994604  0.85230793  1
  O2-  O232  1  0.37402699  0.00168289  0.34410503  1
  O2-  O233  1  0.37420619  -0.00074693  0.84852014  1
  O2-  O234  1  0.37305422  0.25089524  0.35142875  1
  O2-  O235  1  0.37501947  0.24827005  0.84314537  1
  O2-  O236  1  0.37337218  0.49894533  0.34990893  1
  O2-  O237  1  0.37473324  0.50160018  0.84479949  1
  O2-  O238  1  0.37413430  0.74845739  0.34287175  1
  O2-  O239  1  0.37347427  0.75091081  0.85132324  1
  O2-  O240  1  0.62532139  -0.00234465  0.34684223  1
  O2-  O241  1  0.62515800  0.00182849  0.84674754  1
  O2-  O242  1  0.62508423  0.25022246  0.35119719  1
  O2-  O243  1  0.62512880  0.24822114  0.84633348  1
  O2-  O244  1  0.62470231  0.50066249  0.34888622  1
  O2-  O245  1  0.62471830  0.50244271  0.85072909  1
  O2-  O246  1  0.62499891  0.75117680  0.34314656  1
  O2-  O247  1  0.62438625  0.74766806  0.85195537  1
  O2-  O248  1  0.87644366  0.00249012  0.34856678  1
  O2-  O249  1  0.87584186  0.00358041  0.84963661  1
  O2-  O250  1  0.87610368  0.24879547  0.35188714  1
  O2-  O251  1  0.87612352  0.24982304  0.84925742  1
  O2-  O252  1  0.87621685  0.50056711  0.34708128  1
  O2-  O253  1  0.87631688  0.49634049  0.85203556  1
  O2-  O254  1  0.87543011  0.74858601  0.34336424  1
  O2-  O255  1  0.87526869  0.75048029  0.85120121  1
  O2-  O256  1  0.00036687  0.12602084  0.35143089  1
  O2-  O257  1  -0.00256916  0.12561145  0.85019572  1
  O2-  O258  1  0.00282837  0.37521903  0.34991409  1
  O2-  O259  1  -0.00071890  0.37454967  0.84903932  1
  O2-  O260  1  0.00094198  0.62435706  0.34773076  1
  O2-  O261  1  0.00323941  0.62519152  0.84982969  1
  O2-  O262  1  0.00135594  0.87479470  0.34573963  1
  O2-  O263  1  0.00323780  0.87469109  0.85167380  1
  O2-  O264  1  0.24792375  0.12496109  0.34956501  1
  O2-  O265  1  0.25222167  0.12448884  0.84442716  1
  O2-  O266  1  0.24961767  0.37565197  0.35238799  1
  O2-  O267  1  0.24856118  0.37557650  0.84133620  1
  O2-  O268  1  0.24848239  0.62482275  0.34823848  1
  O2-  O269  1  0.24915527  0.62489475  0.84566963  1
  O2-  O270  1  0.24790854  0.87481633  0.34454384  1
  O2-  O271  1  0.25077757  0.87482417  0.84960765  1
  O2-  O272  1  0.49884836  0.12525678  0.34738285  1
  O2-  O273  1  0.50015891  0.12468215  0.84377457  1
  O2-  O274  1  0.49662503  0.37519386  0.34861647  1
  O2-  O275  1  0.50053753  0.37522046  0.84699415  1
  O2-  O276  1  0.49879489  0.62484851  0.34510121  1
  O2-  O277  1  0.50070723  0.62531459  0.84898757  1
  O2-  O278  1  0.50162385  0.87455412  0.34442413  1
  O2-  O279  1  0.49640138  0.87482113  0.84924626  1
  O2-  O280  1  0.75237240  0.12526520  0.34937801  1
  O2-  O281  1  0.75090034  0.12598272  0.85016317  1
  O2-  O282  1  0.75030523  0.37531740  0.34797892  1
  O2-  O283  1  0.75257861  0.37401390  0.85419113  1
  O2-  O284  1  0.75098423  0.62427652  0.34511771  1
  O2-  O285  1  0.74732491  0.62439741  0.85283411  1
  O2-  O286  1  0.74851742  0.87520909  0.34639015  1
  O2-  O287  1  0.74959064  0.87582011  0.85113801  1
