# generated using pymatgen
data_BaYFeCuO5
_symmetry_space_group_name_H-M   'P 1'
_cell_length_a   15.68174620
_cell_length_b   15.68149482
_cell_length_c   15.52509676
_cell_angle_alpha   89.98869007
_cell_angle_beta   90.00452512
_cell_angle_gamma   89.99508870
_symmetry_Int_Tables_number   1
_chemical_formula_structural   BaYFeCuO5
_chemical_formula_sum   'Ba32 Y32 Fe32 Cu32 O160'
_cell_volume   3817.82646371
_cell_formula_units_Z   32
loop_
 _symmetry_equiv_pos_site_id
 _symmetry_equiv_pos_as_xyz
  1  'x, y, z'
loop_
 _atom_type_symbol
 _atom_type_oxidation_number
  Ba2+  2.0
  Y3+  3.0
  Fe3+  3.0
  Cu2+  2.0
  O2-  -2.0
loop_
 _atom_site_type_symbol
 _atom_site_label
 _atom_site_symmetry_multiplicity
 _atom_site_fract_x
 _atom_site_fract_y
 _atom_site_fract_z
 _atom_site_occupancy
  Ba2+  Ba0  1  0.00724947  -0.00056116  -0.00266919  1
  Ba2+  Ba1  1  0.00136921  0.00045268  0.52778829  1
  Ba2+  Ba2  1  0.00353454  0.25690911  0.01019693  1
  Ba2+  Ba3  1  0.00169776  0.24947571  0.52549350  1
  Ba2+  Ba4  1  -0.00052682  0.49976007  0.02745763  1
  Ba2+  Ba5  1  -0.00153607  0.50144083  0.51023626  1
  Ba2+  Ba6  1  0.00329675  0.74305147  0.01311933  1
  Ba2+  Ba7  1  -0.00187479  0.74844471  0.51235659  1
  Ba2+  Ba8  1  0.24334096  0.00015548  -0.00296273  1
  Ba2+  Ba9  1  0.25018371  0.00268163  0.52393094  1
  Ba2+  Ba10  1  0.24933960  0.25946004  0.00670227  1
  Ba2+  Ba11  1  0.25288639  0.24966311  0.51752750  1
  Ba2+  Ba12  1  0.25310248  0.49761971  0.01370372  1
  Ba2+  Ba13  1  0.25136123  0.49702222  0.50205983  1
  Ba2+  Ba14  1  0.24705066  0.74274921  0.00149661  1
  Ba2+  Ba15  1  0.24885959  0.75111103  0.50779582  1
  Ba2+  Ba16  1  0.50750880  0.00015760  0.01762224  1
  Ba2+  Ba17  1  0.49307134  0.00679902  0.51639730  1
  Ba2+  Ba18  1  0.50339353  0.26121621  0.01215026  1
  Ba2+  Ba19  1  0.48995091  0.24669556  0.51084311  1
  Ba2+  Ba20  1  0.50244583  0.49816000  0.00049481  1
  Ba2+  Ba21  1  0.49274303  0.50092506  0.49716659  1
  Ba2+  Ba22  1  0.50580488  0.74020121  0.00764344  1
  Ba2+  Ba23  1  0.49510985  0.74657757  0.50121058  1
  Ba2+  Ba24  1  0.74272992  0.00002923  0.01620055  1
  Ba2+  Ba25  1  0.75491333  0.00433844  0.52225438  1
  Ba2+  Ba26  1  0.74411964  0.25894792  0.01468033  1
  Ba2+  Ba27  1  0.75425183  0.24536422  0.52203755  1
  Ba2+  Ba28  1  0.74521689  0.49965109  0.01882679  1
  Ba2+  Ba29  1  0.75693959  0.50473160  0.50714377  1
  Ba2+  Ba30  1  0.74452523  0.74077412  0.01724994  1
  Ba2+  Ba31  1  0.75693529  0.74477955  0.50644800  1
  Y3+  Y32  1  0.00044065  0.00023246  0.25319032  1
  Y3+  Y33  1  0.00251114  -0.00084193  0.75958558  1
  Y3+  Y34  1  0.00052320  0.25213832  0.25349820  1
  Y3+  Y35  1  0.00166037  0.25075362  0.75722074  1
  Y3+  Y36  1  -0.00006208  0.50210124  0.26067331  1
  Y3+  Y37  1  -0.00216600  0.49931750  0.75066641  1
  Y3+  Y38  1  -0.00034984  0.74573398  0.26005892  1
  Y3+  Y39  1  -0.00076127  0.75017492  0.75548795  1
  Y3+  Y40  1  0.25132451  0.00183131  0.25686959  1
  Y3+  Y41  1  0.24951519  0.00020873  0.75839051  1
  Y3+  Y42  1  0.25360426  0.25243438  0.25836626  1
  Y3+  Y43  1  0.25180084  0.25213208  0.75689134  1
  Y3+  Y44  1  0.25077296  0.49893353  0.25950660  1
  Y3+  Y45  1  0.25366315  0.49709272  0.75731518  1
  Y3+  Y46  1  0.24898780  0.74706917  0.25948951  1
  Y3+  Y47  1  0.25007670  0.75063365  0.75852062  1
  Y3+  Y48  1  0.50066551  0.00189484  0.25763567  1
  Y3+  Y49  1  0.49853320  0.00149131  0.75537358  1
  Y3+  Y50  1  0.49787897  0.25234952  0.25833213  1
  Y3+  Y51  1  0.49797078  0.25298290  0.75723018  1
  Y3+  Y52  1  0.49981220  0.49866249  0.25725997  1
  Y3+  Y53  1  0.49971829  0.49798651  0.76103601  1
  Y3+  Y54  1  0.50225577  0.74766836  0.25802791  1
  Y3+  Y55  1  0.50019511  0.74730842  0.76019026  1
  Y3+  Y56  1  0.74746652  0.00018415  0.25432972  1
  Y3+  Y57  1  0.75020408  0.00061717  0.75651288  1
  Y3+  Y58  1  0.74721344  0.25207953  0.25353772  1
  Y3+  Y59  1  0.74882768  0.25130893  0.75729717  1
  Y3+  Y60  1  0.74936921  0.50205534  0.25847379  1
  Y3+  Y61  1  0.74851831  0.50009287  0.75679904  1
  Y3+  Y62  1  0.74886477  0.74583311  0.25859018  1
  Y3+  Y63  1  0.75070203  0.74744887  0.75590702  1
  Fe3+  Fe64  1  0.12424892  0.37314155  0.37697603  1
  Fe3+  Fe65  1  0.62571793  0.87592384  0.37987076  1
  Fe3+  Fe66  1  0.87415370  0.87342113  0.87997906  1
  Fe3+  Fe67  1  0.87473929  0.12613453  0.87908743  1
  Fe3+  Fe68  1  0.37571144  0.12630164  0.88036908  1
  Fe3+  Fe69  1  0.87593796  0.12514242  0.37316211  1
  Fe3+  Fe70  1  0.37641431  0.87430763  0.88078071  1
  Fe3+  Fe71  1  0.87505393  0.62324952  0.87690075  1
  Fe3+  Fe72  1  0.12445629  0.12497781  0.37658132  1
  Fe3+  Fe73  1  0.87502794  0.37275122  0.37612224  1
  Fe3+  Fe74  1  0.87551334  0.87722980  0.37531495  1
  Fe3+  Fe75  1  0.62463982  0.12611416  0.87596724  1
  Fe3+  Fe76  1  0.12396357  0.87690568  0.37712542  1
  Fe3+  Fe77  1  0.12374187  0.62203492  0.87518467  1
  Fe3+  Fe78  1  0.37408319  0.87668864  0.37647773  1
  Fe3+  Fe79  1  0.62539440  0.37431947  0.38092926  1
  Fe3+  Fe80  1  0.62572466  0.87439781  0.87589486  1
  Fe3+  Fe81  1  0.87463394  0.37677315  0.87619349  1
  Fe3+  Fe82  1  0.62558404  0.12556568  0.37701541  1
  Fe3+  Fe83  1  0.12405613  0.37766952  0.87436044  1
  Fe3+  Fe84  1  0.87493131  0.87381282  0.13276200  1
  Fe3+  Fe85  1  0.37522055  0.62466607  0.63995463  1
  Fe3+  Fe86  1  0.37511377  0.12592379  0.13316738  1
  Fe3+  Fe87  1  0.12639841  0.62422923  0.63673719  1
  Fe3+  Fe88  1  0.87474423  0.12595431  0.13080312  1
  Fe3+  Fe89  1  0.37515503  0.62446287  0.13960566  1
  Fe3+  Fe90  1  0.12607997  0.87406042  0.13605063  1
  Fe3+  Fe91  1  0.37514280  0.87390586  0.13386213  1
  Fe3+  Fe92  1  0.62412607  0.87416981  0.63342091  1
  Fe3+  Fe93  1  0.62386476  0.37538747  0.63368766  1
  Fe3+  Fe94  1  0.62409996  0.62436344  0.63598659  1
  Fe3+  Fe95  1  0.12616525  0.12600980  0.13434143  1
  Cu2+  Cu96  1  0.62605917  0.37511753  0.86957303  1
  Cu2+  Cu97  1  0.37534535  0.37507571  0.87339275  1
  Cu2+  Cu98  1  0.37454620  0.37394148  0.37297090  1
  Cu2+  Cu99  1  0.12556151  0.12689362  0.86328265  1
  Cu2+  Cu100  1  0.12506341  0.62493252  0.36847291  1
  Cu2+  Cu101  1  0.37480360  0.62423159  0.86512775  1
  Cu2+  Cu102  1  0.62658895  0.62381332  0.87181324  1
  Cu2+  Cu103  1  0.37381476  0.12443384  0.37113166  1
  Cu2+  Cu104  1  0.87542860  0.62489340  0.37172395  1
  Cu2+  Cu105  1  0.62497273  0.62451328  0.36884479  1
  Cu2+  Cu106  1  0.12485241  0.87296843  0.86348029  1
  Cu2+  Cu107  1  0.37456547  0.62569431  0.36231524  1
  Cu2+  Cu108  1  0.37564585  0.87369291  0.65394753  1
  Cu2+  Cu109  1  0.62453562  0.87354481  0.15205600  1
  Cu2+  Cu110  1  0.12602601  0.37583787  0.64887884  1
  Cu2+  Cu111  1  0.12581015  0.62456019  0.15549952  1
  Cu2+  Cu112  1  0.87464555  0.37557065  0.15135291  1
  Cu2+  Cu113  1  0.12559573  0.87391587  0.65471601  1
  Cu2+  Cu114  1  0.87473008  0.62510343  0.64161147  1
  Cu2+  Cu115  1  0.12567532  0.37541862  0.15390152  1
  Cu2+  Cu116  1  0.87509183  0.62489621  0.15358180  1
  Cu2+  Cu117  1  0.62361714  0.62342751  0.14656313  1
  Cu2+  Cu118  1  0.62372711  0.37679758  0.14631606  1
  Cu2+  Cu119  1  0.62406733  0.12664834  0.14958985  1
  Cu2+  Cu120  1  0.37535592  0.37589182  0.14307551  1
  Cu2+  Cu121  1  0.87590314  0.12500650  0.65881763  1
  Cu2+  Cu122  1  0.87409470  0.37487499  0.64944671  1
  Cu2+  Cu123  1  0.87454274  0.87480140  0.65360264  1
  Cu2+  Cu124  1  0.37422619  0.12557883  0.64794265  1
  Cu2+  Cu125  1  0.62384037  0.12563126  0.65081430  1
  Cu2+  Cu126  1  0.12580344  0.12548094  0.65705486  1
  Cu2+  Cu127  1  0.37584240  0.37644525  0.64215777  1
  O2-  O128  1  0.12511632  0.12517292  0.01468947  1
  O2-  O129  1  0.12308272  0.12380080  0.49598551  1
  O2-  O130  1  0.12308966  0.37928003  -0.00556886  1
  O2-  O131  1  0.12368021  0.37115920  0.49673145  1
  O2-  O132  1  0.12263423  0.62146177  -0.00464101  1
  O2-  O133  1  0.12668424  0.62685016  0.51634382  1
  O2-  O134  1  0.12623086  0.87248942  0.01596780  1
  O2-  O135  1  0.12369560  0.87863647  0.49650137  1
  O2-  O136  1  0.37588307  0.12589915  0.00670928  1
  O2-  O137  1  0.37274329  0.12324763  0.50670761  1
  O2-  O138  1  0.37492644  0.37542296  0.00819771  1
  O2-  O139  1  0.37453496  0.37463088  0.50787952  1
  O2-  O140  1  0.37485414  0.62528725  0.01953874  1
  O2-  O141  1  0.37377859  0.62702833  0.51996394  1
  O2-  O142  1  0.37615672  0.87355384  0.00741530  1
  O2-  O143  1  0.37356359  0.87792478  0.49657996  1
  O2-  O144  1  0.62557866  0.12522289  -0.00388496  1
  O2-  O145  1  0.62782273  0.12360728  0.49647341  1
  O2-  O146  1  0.62562411  0.37678733  0.00726304  1
  O2-  O147  1  0.62552593  0.37350581  0.50703116  1
  O2-  O148  1  0.62559907  0.62340078  0.00755264  1
  O2-  O149  1  0.62372428  0.62620150  0.51607905  1
  O2-  O150  1  0.62603777  0.87449798  -0.00391456  1
  O2-  O151  1  0.62538263  0.87642502  0.50595547  1
  O2-  O152  1  0.87462194  0.12608905  0.00467848  1
  O2-  O153  1  0.87656696  0.12368705  0.49276894  1
  O2-  O154  1  0.87547014  0.37732671  -0.00416385  1
  O2-  O155  1  0.87572086  0.36968298  0.49576857  1
  O2-  O156  1  0.87591565  0.62351444  -0.00339854  1
  O2-  O157  1  0.87631077  0.62610453  0.50658915  1
  O2-  O158  1  0.87381243  0.87255337  0.00581068  1
  O2-  O159  1  0.87664135  0.87994603  0.49482898  1
  O2-  O160  1  0.12526542  0.00019192  0.16257648  1
  O2-  O161  1  0.12549503  -0.00083570  0.66834429  1
  O2-  O162  1  0.12466860  0.24966235  0.16145161  1
  O2-  O163  1  0.12546165  0.25081625  0.66510908  1
  O2-  O164  1  0.12543857  0.49983962  0.16838440  1
  O2-  O165  1  0.12510936  0.50012350  0.66057127  1
  O2-  O166  1  0.12429876  0.75098653  0.16765163  1
  O2-  O167  1  0.12574234  0.74937301  0.66658096  1
  O2-  O168  1  0.37568203  -0.00015179  0.15781060  1
  O2-  O169  1  0.37474501  -0.00150141  0.66910178  1
  O2-  O170  1  0.37550639  0.24748945  0.16325958  1
  O2-  O171  1  0.37467613  0.25055408  0.66630888  1
  O2-  O172  1  0.37400289  0.50153848  0.17007771  1
  O2-  O173  1  0.37616949  0.50199632  0.66795343  1
  O2-  O174  1  0.37528291  0.75145711  0.16721908  1
  O2-  O175  1  0.37555121  0.74905355  0.67061772  1
  O2-  O176  1  0.62509107  0.00009431  0.16081246  1
  O2-  O177  1  0.62451280  -0.00119406  0.66280325  1
  O2-  O178  1  0.62423576  0.25006802  0.16473587  1
  O2-  O179  1  0.62549185  0.25091522  0.66237748  1
  O2-  O180  1  0.62518754  0.50017471  0.17124721  1
  O2-  O181  1  0.62503823  0.49909249  0.66381165  1
  O2-  O182  1  0.62466407  0.74999085  0.16812571  1
  O2-  O183  1  0.62523596  0.75097443  0.66434356  1
  O2-  O184  1  0.87345529  0.00009834  0.15541946  1
  O2-  O185  1  0.87552288  0.00008389  0.66990387  1
  O2-  O186  1  0.87490020  0.24867013  0.15749075  1
  O2-  O187  1  0.87469305  0.24952728  0.66605769  1
  O2-  O188  1  0.87481830  0.50034695  0.16799763  1
  O2-  O189  1  0.87432601  0.49857687  0.66039669  1
  O2-  O190  1  0.87551146  0.75147686  0.16374894  1
  O2-  O191  1  0.87436259  0.75144468  0.66646254  1
  O2-  O192  1  -0.00126050  0.12448938  0.15993237  1
  O2-  O193  1  0.00082823  0.12445905  0.66765472  1
  O2-  O194  1  0.00002746  0.37514734  0.16237883  1
  O2-  O195  1  -0.00026100  0.37421421  0.66180140  1
  O2-  O196  1  0.00059704  0.62486329  0.16495993  1
  O2-  O197  1  0.00165400  0.62583918  0.66316122  1
  O2-  O198  1  -0.00120658  0.87617896  0.16035860  1
  O2-  O199  1  -0.00034459  0.87516246  0.66668724  1
  O2-  O200  1  0.25138741  0.12454978  0.16315145  1
  O2-  O201  1  0.24924551  0.12434348  0.66969088  1
  O2-  O202  1  0.24894099  0.37491892  0.16505785  1
  O2-  O203  1  0.24963426  0.37520848  0.66655040  1
  O2-  O204  1  0.25026817  0.62590079  0.16709641  1
  O2-  O205  1  0.25034503  0.62559399  0.67074035  1
  O2-  O206  1  0.25150568  0.87548233  0.16423288  1
  O2-  O207  1  0.25080354  0.87493152  0.66831703  1
  O2-  O208  1  0.49814195  0.12401332  0.16380521  1
  O2-  O209  1  0.49961136  0.12459944  0.66622066  1
  O2-  O210  1  0.49968624  0.37533778  0.16974746  1
  O2-  O211  1  0.50309303  0.37443903  0.66599214  1
  O2-  O212  1  0.49810145  0.62557796  0.16965353  1
  O2-  O213  1  0.50075760  0.62592752  0.67090463  1
  O2-  O214  1  0.49816095  0.87552734  0.16505375  1
  O2-  O215  1  0.50224224  0.87524477  0.66418839  1
  O2-  O216  1  0.75135883  0.12525131  0.15997885  1
  O2-  O217  1  0.75058834  0.12388371  0.66400332  1
  O2-  O218  1  0.75076532  0.37523148  0.16532730  1
  O2-  O219  1  0.74779423  0.37404250  0.66189861  1
  O2-  O220  1  0.75071574  0.62538577  0.16574149  1
  O2-  O221  1  0.74784607  0.62539518  0.66422177  1
  O2-  O222  1  0.75161128  0.87454657  0.16264886  1
  O2-  O223  1  0.74775528  0.87640052  0.66188945  1
  O2-  O224  1  0.12409242  0.00036975  0.33960651  1
  O2-  O225  1  0.12517131  -0.00050314  0.85353492  1
  O2-  O226  1  0.12458578  0.24931533  0.34145009  1
  O2-  O227  1  0.12446680  0.25226371  0.84828278  1
  O2-  O228  1  0.12457957  0.49920400  0.35215083  1
  O2-  O229  1  0.12463073  0.50016294  0.83879805  1
  O2-  O230  1  0.12476514  0.75113102  0.34988520  1
  O2-  O231  1  0.12476622  0.74782205  0.84839534  1
  O2-  O232  1  0.37574816  -0.00240789  0.33962074  1
  O2-  O233  1  0.37485160  -0.00021654  0.85385335  1
  O2-  O234  1  0.37499245  0.24985440  0.34678047  1
  O2-  O235  1  0.37531604  0.24750900  0.84987459  1
  O2-  O236  1  0.37505178  0.50165376  0.35306996  1
  O2-  O237  1  0.37554749  0.50079027  0.84949557  1
  O2-  O238  1  0.37492943  0.75158537  0.34893488  1
  O2-  O239  1  0.37591643  0.75138571  0.85340626  1
  O2-  O240  1  0.62521542  -0.00096477  0.34407439  1
  O2-  O241  1  0.62543954  0.00008009  0.84490109  1
  O2-  O242  1  0.62556336  0.25094156  0.34683971  1
  O2-  O243  1  0.62506189  0.24817671  0.84513479  1
  O2-  O244  1  0.62485397  0.49797387  0.35457913  1
  O2-  O245  1  0.62548428  0.49962761  0.84616584  1
  O2-  O246  1  0.62567400  0.75208856  0.35240749  1
  O2-  O247  1  0.62522162  0.75184511  0.84593832  1
  O2-  O248  1  0.87446481  0.00062555  0.33590937  1
  O2-  O249  1  0.87508709  -0.00022043  0.85481653  1
  O2-  O250  1  0.87427654  0.24906207  0.33827800  1
  O2-  O251  1  0.87540110  0.24918410  0.84918885  1
  O2-  O252  1  0.87491309  0.49753488  0.35118755  1
  O2-  O253  1  0.87471778  0.49995017  0.84098982  1
  O2-  O254  1  0.87427727  0.75269902  0.34762293  1
  O2-  O255  1  0.87484831  0.75081615  0.84864896  1
  O2-  O256  1  -0.00025117  0.12474349  0.33870743  1
  O2-  O257  1  -0.00164737  0.12447552  0.85151314  1
  O2-  O258  1  -0.00034597  0.37386576  0.34317540  1
  O2-  O259  1  -0.00086292  0.37518802  0.84263703  1
  O2-  O260  1  0.00089818  0.62548583  0.34862025  1
  O2-  O261  1  -0.00099555  0.62525995  0.84245220  1
  O2-  O262  1  -0.00017289  0.87581357  0.34062059  1
  O2-  O263  1  -0.00245118  0.87497491  0.85160699  1
  O2-  O264  1  0.24745801  0.12422697  0.34373136  1
  O2-  O265  1  0.25201718  0.12469295  0.85320029  1
  O2-  O266  1  0.24833353  0.37487527  0.34745829  1
  O2-  O267  1  0.24864649  0.37526867  0.84903428  1
  O2-  O268  1  0.25032082  0.62580858  0.34980660  1
  O2-  O269  1  0.24963142  0.62518968  0.85116268  1
  O2-  O270  1  0.24884133  0.87550111  0.34427032  1
  O2-  O271  1  0.25248030  0.87440090  0.85335475  1
  O2-  O272  1  0.50226337  0.12446620  0.34726898  1
  O2-  O273  1  0.49878533  0.12395504  0.84808441  1
  O2-  O274  1  0.50249206  0.37436818  0.35280542  1
  O2-  O275  1  0.50035863  0.37471250  0.84938683  1
  O2-  O276  1  0.49962013  0.62662332  0.35202812  1
  O2-  O277  1  0.49890021  0.62504241  0.85217189  1
  O2-  O278  1  0.50197133  0.87492050  0.34953175  1
  O2-  O279  1  0.49916691  0.87559955  0.84783383  1
  O2-  O280  1  0.74991992  0.12432293  0.34125065  1
  O2-  O281  1  0.75151098  0.12464163  0.84643493  1
  O2-  O282  1  0.74872908  0.37438856  0.34775431  1
  O2-  O283  1  0.75208515  0.37408685  0.84382921  1
  O2-  O284  1  0.74895037  0.62508272  0.34938069  1
  O2-  O285  1  0.75258032  0.62536931  0.84442877  1
  O2-  O286  1  0.74871092  0.87612661  0.34674281  1
  O2-  O287  1  0.75164648  0.87543851  0.84505877  1
