# generated using pymatgen
data_BaYFeCuO5
_symmetry_space_group_name_H-M   'P 1'
_cell_length_a   15.67488703
_cell_length_b   15.67015545
_cell_length_c   15.49218391
_cell_angle_alpha   89.99802260
_cell_angle_beta   90.00465990
_cell_angle_gamma   89.99958595
_symmetry_Int_Tables_number   1
_chemical_formula_structural   BaYFeCuO5
_chemical_formula_sum   'Ba32 Y32 Fe32 Cu32 O160'
_cell_volume   3805.31284202
_cell_formula_units_Z   32
loop_
 _symmetry_equiv_pos_site_id
 _symmetry_equiv_pos_as_xyz
  1  'x, y, z'
loop_
 _atom_type_symbol
 _atom_type_oxidation_number
  Ba2+  2.0
  Y3+  3.0
  Fe3+  3.0
  Cu2+  2.0
  O2-  -2.0
loop_
 _atom_site_type_symbol
 _atom_site_label
 _atom_site_symmetry_multiplicity
 _atom_site_fract_x
 _atom_site_fract_y
 _atom_site_fract_z
 _atom_site_occupancy
  Ba2+  Ba0  1  -0.00301952  0.00393965  -0.00074222  1
  Ba2+  Ba1  1  -0.00180385  -0.00856503  0.51227974  1
  Ba2+  Ba2  1  -0.00593642  0.24962390  0.00632036  1
  Ba2+  Ba3  1  0.00763397  0.25429702  0.50777595  1
  Ba2+  Ba4  1  -0.00644533  0.49386273  0.01680173  1
  Ba2+  Ba5  1  0.00715714  0.49424056  0.50688707  1
  Ba2+  Ba6  1  -0.00430942  0.75449697  0.01127080  1
  Ba2+  Ba7  1  -0.00215522  0.75992474  0.51125939  1
  Ba2+  Ba8  1  0.24480279  -0.00486131  0.01287709  1
  Ba2+  Ba9  1  0.25982293  -0.00300406  0.51098725  1
  Ba2+  Ba10  1  0.24445809  0.25421337  0.01278763  1
  Ba2+  Ba11  1  0.25578304  0.25249551  0.50171041  1
  Ba2+  Ba12  1  0.25499887  0.49688979  0.02346201  1
  Ba2+  Ba13  1  0.25585765  0.49611386  0.50182473  1
  Ba2+  Ba14  1  0.25494309  0.75340392  0.02283611  1
  Ba2+  Ba15  1  0.25969875  0.75398119  0.50960177  1
  Ba2+  Ba16  1  0.50493129  -0.00577235  0.01228684  1
  Ba2+  Ba17  1  0.49688044  0.00020976  0.51775764  1
  Ba2+  Ba18  1  0.50517827  0.25530775  0.01242826  1
  Ba2+  Ba19  1  0.49662571  0.24728896  0.50109805  1
  Ba2+  Ba20  1  0.50138208  0.50168018  0.02601557  1
  Ba2+  Ba21  1  0.49648899  0.50208969  0.50144371  1
  Ba2+  Ba22  1  0.50108044  0.74857943  0.02580324  1
  Ba2+  Ba23  1  0.49675536  0.75062025  0.51480614  1
  Ba2+  Ba24  1  0.75349810  0.00296348  -0.00066639  1
  Ba2+  Ba25  1  0.74587737  -0.00552954  0.51755940  1
  Ba2+  Ba26  1  0.75593536  0.25030929  0.00648564  1
  Ba2+  Ba27  1  0.73950690  0.24856920  0.50782709  1
  Ba2+  Ba28  1  0.75062664  0.49856894  0.02230759  1
  Ba2+  Ba29  1  0.73985769  0.50040022  0.50688717  1
  Ba2+  Ba30  1  0.74800379  0.74894556  0.01842431  1
  Ba2+  Ba31  1  0.74557995  0.75629261  0.51589534  1
  Y3+  Y32  1  -0.00166970  -0.00067445  0.25810884  1
  Y3+  Y33  1  -0.00145602  -0.00043365  0.75764601  1
  Y3+  Y34  1  -0.00055004  0.25123060  0.25659886  1
  Y3+  Y35  1  0.00004215  0.25009803  0.76002710  1
  Y3+  Y36  1  -0.00004024  0.49762203  0.25793856  1
  Y3+  Y37  1  0.00097197  0.49838601  0.75604927  1
  Y3+  Y38  1  -0.00142531  0.75145157  0.25857627  1
  Y3+  Y39  1  -0.00061393  0.75212585  0.75470943  1
  Y3+  Y40  1  0.25229863  -0.00092701  0.25971462  1
  Y3+  Y41  1  0.25149813  -0.00008227  0.75469917  1
  Y3+  Y42  1  0.25057449  0.25142358  0.26044683  1
  Y3+  Y43  1  0.24913590  0.24892367  0.75559477  1
  Y3+  Y44  1  0.25149405  0.49828114  0.26085405  1
  Y3+  Y45  1  0.25012185  0.50059765  0.75258013  1
  Y3+  Y46  1  0.25343233  0.75089521  0.25980647  1
  Y3+  Y47  1  0.25208641  0.75064986  0.75168636  1
  Y3+  Y48  1  0.49787066  -0.00107430  0.25857047  1
  Y3+  Y49  1  0.50032809  0.00109004  0.75556679  1
  Y3+  Y50  1  0.49896520  0.25137304  0.25867255  1
  Y3+  Y51  1  0.50034276  0.24667756  0.75787035  1
  Y3+  Y52  1  0.49844205  0.49919595  0.25937820  1
  Y3+  Y53  1  0.49932082  0.50325703  0.75316166  1
  Y3+  Y54  1  0.49766396  0.75013699  0.25905987  1
  Y3+  Y55  1  0.49928828  0.74978881  0.75093914  1
  Y3+  Y56  1  0.75150615  -0.00053799  0.25689235  1
  Y3+  Y57  1  0.74990957  0.00052535  0.75818819  1
  Y3+  Y58  1  0.75092181  0.25055892  0.25482837  1
  Y3+  Y59  1  0.75030540  0.24800767  0.76191881  1
  Y3+  Y60  1  0.74949403  0.49891398  0.25652406  1
  Y3+  Y61  1  0.74962710  0.49997813  0.75684004  1
  Y3+  Y62  1  0.75017787  0.75095243  0.25821356  1
  Y3+  Y63  1  0.74935703  0.75162117  0.75420198  1
  Fe3+  Fe64  1  0.12542294  0.62579525  0.37897534  1
  Fe3+  Fe65  1  0.12594536  0.87359047  0.87499913  1
  Fe3+  Fe66  1  0.37579245  0.87350491  0.87623457  1
  Fe3+  Fe67  1  0.62442452  0.87300541  0.87529790  1
  Fe3+  Fe68  1  0.87464961  0.62497395  0.87602935  1
  Fe3+  Fe69  1  0.12568140  0.87524348  0.37710512  1
  Fe3+  Fe70  1  0.87478791  0.62550306  0.38019195  1
  Fe3+  Fe71  1  0.37501131  0.62535106  0.87724459  1
  Fe3+  Fe72  1  0.37554953  0.37654332  0.87772541  1
  Fe3+  Fe73  1  0.62466693  0.12379913  0.37634417  1
  Fe3+  Fe74  1  0.12613398  0.62524633  0.88003971  1
  Fe3+  Fe75  1  0.87457191  0.12434463  0.38206470  1
  Fe3+  Fe76  1  0.62411285  0.87561253  0.37618683  1
  Fe3+  Fe77  1  0.62437540  0.37687381  0.87723210  1
  Fe3+  Fe78  1  0.87383071  0.37432348  0.38046156  1
  Fe3+  Fe79  1  0.62407671  0.62535785  0.87595958  1
  Fe3+  Fe80  1  0.37442459  0.12466924  0.88141819  1
  Fe3+  Fe81  1  0.12587666  0.37643882  0.87663057  1
  Fe3+  Fe82  1  0.62463368  0.62583620  0.37597297  1
  Fe3+  Fe83  1  0.12541560  0.12401382  0.38080289  1
  Fe3+  Fe84  1  0.37551316  0.37392155  0.63780289  1
  Fe3+  Fe85  1  0.87484930  0.62444371  0.63244690  1
  Fe3+  Fe86  1  0.12574064  0.12451500  0.63508641  1
  Fe3+  Fe87  1  0.12392568  0.12452882  0.13946111  1
  Fe3+  Fe88  1  0.12428514  0.62526521  0.13592313  1
  Fe3+  Fe89  1  0.87425708  0.37432278  0.63415409  1
  Fe3+  Fe90  1  0.87494247  0.87663654  0.13828614  1
  Fe3+  Fe91  1  0.62350379  0.37430801  0.63752640  1
  Fe3+  Fe92  1  0.37470994  0.12514574  0.13534113  1
  Fe3+  Fe93  1  0.62594539  0.12433784  0.13705218  1
  Fe3+  Fe94  1  0.87460511  0.12589047  0.63516791  1
  Fe3+  Fe95  1  0.12561455  0.62567698  0.63244609  1
  Cu2+  Cu96  1  0.37637004  0.87537112  0.37079967  1
  Cu2+  Cu97  1  0.87357987  0.87531324  0.37414211  1
  Cu2+  Cu98  1  0.87443980  0.87366285  0.86073038  1
  Cu2+  Cu99  1  0.87455157  0.37686929  0.87096109  1
  Cu2+  Cu100  1  0.62378878  0.12458372  0.86701752  1
  Cu2+  Cu101  1  0.37579058  0.37460706  0.36254819  1
  Cu2+  Cu102  1  0.12498654  0.37457377  0.37261214  1
  Cu2+  Cu103  1  0.37515068  0.62557377  0.37242423  1
  Cu2+  Cu104  1  0.62512537  0.37459399  0.36253865  1
  Cu2+  Cu105  1  0.87540701  0.12530673  0.87037630  1
  Cu2+  Cu106  1  0.12629597  0.12471469  0.86231423  1
  Cu2+  Cu107  1  0.37541423  0.12412098  0.37266460  1
  Cu2+  Cu108  1  0.12430399  0.87515666  0.15319888  1
  Cu2+  Cu109  1  0.87441037  0.87570052  0.64317727  1
  Cu2+  Cu110  1  0.87492674  0.37411473  0.14508638  1
  Cu2+  Cu111  1  0.62532564  0.12579559  0.65212453  1
  Cu2+  Cu112  1  0.37518674  0.87622147  0.15225874  1
  Cu2+  Cu113  1  0.12594361  0.37424524  0.64032715  1
  Cu2+  Cu114  1  0.62541031  0.62456177  0.64649596  1
  Cu2+  Cu115  1  0.87539546  0.12466569  0.14387232  1
  Cu2+  Cu116  1  0.62440298  0.87581541  0.65099992  1
  Cu2+  Cu117  1  0.12494396  0.37468151  0.15392605  1
  Cu2+  Cu118  1  0.87555509  0.62529037  0.15414606  1
  Cu2+  Cu119  1  0.62492278  0.37415205  0.15388026  1
  Cu2+  Cu120  1  0.37515405  0.12639959  0.64272281  1
  Cu2+  Cu121  1  0.37486534  0.62385907  0.63857688  1
  Cu2+  Cu122  1  0.62511672  0.62504630  0.15555473  1
  Cu2+  Cu123  1  0.12557406  0.87557243  0.64864241  1
  Cu2+  Cu124  1  0.37428632  0.62476218  0.15526275  1
  Cu2+  Cu125  1  0.37500081  0.37367539  0.15364770  1
  Cu2+  Cu126  1  0.62567848  0.87562506  0.15227827  1
  Cu2+  Cu127  1  0.37568309  0.87586378  0.64289654  1
  O2-  O128  1  0.12441417  0.12510438  0.01910563  1
  O2-  O129  1  0.12627995  0.12383034  0.50777104  1
  O2-  O130  1  0.12578479  0.37834010  -0.00315059  1
  O2-  O131  1  0.12577866  0.37468009  0.50653794  1
  O2-  O132  1  0.12536491  0.62496819  0.00616133  1
  O2-  O133  1  0.12514706  0.62606710  0.50547577  1
  O2-  O134  1  0.12600116  0.87175268  -0.00488779  1
  O2-  O135  1  0.12581981  0.87518662  0.49744589  1
  O2-  O136  1  0.37389054  0.12470035  0.00825522  1
  O2-  O137  1  0.37521076  0.12592598  0.50726792  1
  O2-  O138  1  0.37533671  0.37724621  -0.00220931  1
  O2-  O139  1  0.37719382  0.37333665  0.51676852  1
  O2-  O140  1  0.37498631  0.62519824  -0.00299068  1
  O2-  O141  1  0.37459370  0.62399484  0.50555018  1
  O2-  O142  1  0.37540312  0.87311314  -0.00369553  1
  O2-  O143  1  0.37726188  0.87581143  0.50690130  1
  O2-  O144  1  0.62534359  0.12488698  0.01673726  1
  O2-  O145  1  0.62439800  0.12329038  0.49669321  1
  O2-  O146  1  0.62509518  0.37874595  -0.00242698  1
  O2-  O147  1  0.62281841  0.37355615  0.51723545  1
  O2-  O148  1  0.62469733  0.62518354  -0.00423027  1
  O2-  O149  1  0.62515198  0.62617329  0.49623208  1
  O2-  O150  1  0.62466091  0.87117059  -0.00443613  1
  O2-  O151  1  0.62329567  0.87601131  0.49664963  1
  O2-  O152  1  0.87618530  0.12476562  0.00764294  1
  O2-  O153  1  0.87366917  0.12566376  0.50835007  1
  O2-  O154  1  0.87440894  0.37639343  0.00674113  1
  O2-  O155  1  0.87361509  0.37338649  0.50723611  1
  O2-  O156  1  0.87461173  0.62496472  -0.00387290  1
  O2-  O157  1  0.87486913  0.62497171  0.50596767  1
  O2-  O158  1  0.87512153  0.87565839  0.01774015  1
  O2-  O159  1  0.87365435  0.87569754  0.50794791  1
  O2-  O160  1  0.12551958  -0.00013133  0.16760408  1
  O2-  O161  1  0.12420426  0.00154431  0.66372459  1
  O2-  O162  1  0.12516639  0.24985921  0.16854271  1
  O2-  O163  1  0.12409886  0.24674168  0.66533554  1
  O2-  O164  1  0.12473483  0.50115107  0.16488904  1
  O2-  O165  1  0.12384394  0.50312204  0.66143130  1
  O2-  O166  1  0.12427352  0.74881719  0.16283890  1
  O2-  O167  1  0.12426620  0.74883309  0.66040348  1
  O2-  O168  1  0.37420482  0.00178819  0.16341913  1
  O2-  O169  1  0.37542190  0.00080558  0.66658131  1
  O2-  O170  1  0.37464391  0.24776482  0.16449926  1
  O2-  O171  1  0.37494117  0.25152144  0.67031541  1
  O2-  O172  1  0.37394760  0.49915742  0.16638464  1
  O2-  O173  1  0.37495580  0.49794176  0.66352512  1
  O2-  O174  1  0.37430672  0.75082790  0.16501178  1
  O2-  O175  1  0.37488271  0.74997100  0.66051396  1
  O2-  O176  1  0.62493484  0.00041062  0.16523153  1
  O2-  O177  1  0.62524345  0.00100012  0.66556457  1
  O2-  O178  1  0.62448811  0.24893785  0.16683713  1
  O2-  O179  1  0.62621694  0.25111209  0.66893242  1
  O2-  O180  1  0.62546545  0.49971754  0.16631066  1
  O2-  O181  1  0.62569428  0.49895673  0.66307849  1
  O2-  O182  1  0.62561544  0.75025618  0.16398901  1
  O2-  O183  1  0.62581436  0.74993269  0.65940718  1
  O2-  O184  1  0.87538885  -0.00145366  0.16958677  1
  O2-  O185  1  0.87505909  0.00370660  0.66449945  1
  O2-  O186  1  0.87566181  0.24986785  0.16844722  1
  O2-  O187  1  0.87485299  0.25001974  0.66433967  1
  O2-  O188  1  0.87559404  0.50110365  0.16864917  1
  O2-  O189  1  0.87574590  0.49973511  0.65831724  1
  O2-  O190  1  0.87551146  0.75081154  0.16637809  1
  O2-  O191  1  0.87512642  0.74692478  0.66029862  1
  O2-  O192  1  0.00184278  0.12497555  0.17284153  1
  O2-  O193  1  -0.00042115  0.12540469  0.66037521  1
  O2-  O194  1  0.00108443  0.37536554  0.16910570  1
  O2-  O195  1  -0.00336201  0.37489597  0.66158538  1
  O2-  O196  1  0.00200377  0.62471263  0.16662872  1
  O2-  O197  1  -0.00028420  0.62510314  0.66182640  1
  O2-  O198  1  -0.00067750  0.87451186  0.16896671  1
  O2-  O199  1  0.00087187  0.87502431  0.66431471  1
  O2-  O200  1  0.25109839  0.12513334  0.16651319  1
  O2-  O201  1  0.24736659  0.12465944  0.66489562  1
  O2-  O202  1  0.24998892  0.37448369  0.16591967  1
  O2-  O203  1  0.25162630  0.37469367  0.66580824  1
  O2-  O204  1  0.24797152  0.62506344  0.16459222  1
  O2-  O205  1  0.24703751  0.62518934  0.66357358  1
  O2-  O206  1  0.24960086  0.87498249  0.16407714  1
  O2-  O207  1  0.24923269  0.87561101  0.66358993  1
  O2-  O208  1  0.49848503  0.12470961  0.16292036  1
  O2-  O209  1  0.50174828  0.12566152  0.66659744  1
  O2-  O210  1  0.49984706  0.37464480  0.16439870  1
  O2-  O211  1  0.50010406  0.37436577  0.66897957  1
  O2-  O212  1  0.49935309  0.62461199  0.16408327  1
  O2-  O213  1  0.50158956  0.62482699  0.66182770  1
  O2-  O214  1  0.50051160  0.87549962  0.16221006  1
  O2-  O215  1  0.50156049  0.87585627  0.66425939  1
  O2-  O216  1  0.74861457  0.12529930  0.16837336  1
  O2-  O217  1  0.75159554  0.12578959  0.66292552  1
  O2-  O218  1  0.74892173  0.37504172  0.16806959  1
  O2-  O219  1  0.75140035  0.37541043  0.66240160  1
  O2-  O220  1  0.75037782  0.62462841  0.16596941  1
  O2-  O221  1  0.75204954  0.62392103  0.66009168  1
  O2-  O222  1  0.75064127  0.87440465  0.16716624  1
  O2-  O223  1  0.74830375  0.87577928  0.66405845  1
  O2-  O224  1  0.12429963  0.00103187  0.34909306  1
  O2-  O225  1  0.12498089  -0.00097968  0.84781250  1
  O2-  O226  1  0.12445423  0.24689377  0.35215027  1
  O2-  O227  1  0.12565203  0.25060599  0.84875495  1
  O2-  O228  1  0.12400429  0.50258514  0.35036529  1
  O2-  O229  1  0.12540926  0.50222710  0.84357468  1
  O2-  O230  1  0.12437891  0.74903305  0.34684409  1
  O2-  O231  1  0.12470495  0.74822124  0.84349192  1
  O2-  O232  1  0.37497703  -0.00042730  0.34685292  1
  O2-  O233  1  0.37436669  0.00034373  0.84978416  1
  O2-  O234  1  0.37484208  0.25098717  0.34871054  1
  O2-  O235  1  0.37460905  0.24921626  0.85207714  1
  O2-  O236  1  0.37468546  0.49840805  0.35066344  1
  O2-  O237  1  0.37422428  0.50091327  0.84265737  1
  O2-  O238  1  0.37481609  0.75065037  0.34865918  1
  O2-  O239  1  0.37447332  0.74955513  0.84131204  1
  O2-  O240  1  0.62524565  0.00016443  0.34440919  1
  O2-  O241  1  0.62520138  -0.00098687  0.84960218  1
  O2-  O242  1  0.62584121  0.24961332  0.34952018  1
  O2-  O243  1  0.62443577  0.25023287  0.85136703  1
  O2-  O244  1  0.62573551  0.49989416  0.35012072  1
  O2-  O245  1  0.62454999  0.50126459  0.84196447  1
  O2-  O246  1  0.62559803  0.75006138  0.34538763  1
  O2-  O247  1  0.62507306  0.74940628  0.84063050  1
  O2-  O248  1  0.87540752  0.00342795  0.35077129  1
  O2-  O249  1  0.87545126  -0.00148349  0.84874591  1
  O2-  O250  1  0.87489136  0.24940579  0.35265974  1
  O2-  O251  1  0.87561933  0.25046158  0.84858457  1
  O2-  O252  1  0.87536179  0.49991897  0.35352138  1
  O2-  O253  1  0.87593825  0.50302774  0.84009329  1
  O2-  O254  1  0.87532914  0.74693614  0.34938833  1
  O2-  O255  1  0.87586277  0.74838278  0.84264111  1
  O2-  O256  1  -0.00030072  0.12530552  0.35623854  1
  O2-  O257  1  0.00204224  0.12483674  0.84530534  1
  O2-  O258  1  -0.00411951  0.37497766  0.35235316  1
  O2-  O259  1  0.00279633  0.37594381  0.84451870  1
  O2-  O260  1  -0.00027316  0.62474828  0.35159797  1
  O2-  O261  1  0.00223991  0.62520382  0.84680712  1
  O2-  O262  1  0.00144677  0.87458173  0.35028504  1
  O2-  O263  1  0.00020147  0.87430702  0.84730475  1
  O2-  O264  1  0.24717034  0.12469553  0.35025634  1
  O2-  O265  1  0.25239828  0.12476687  0.84870215  1
  O2-  O266  1  0.25131876  0.37484719  0.35012189  1
  O2-  O267  1  0.25036796  0.37544251  0.84511049  1
  O2-  O268  1  0.24726813  0.62500525  0.34940320  1
  O2-  O269  1  0.24888586  0.62547549  0.84648865  1
  O2-  O270  1  0.24869869  0.87505476  0.34731237  1
  O2-  O271  1  0.25071833  0.87459365  0.84400129  1
  O2-  O272  1  0.50192458  0.12566514  0.34494921  1
  O2-  O273  1  0.49685929  0.12445577  0.85064283  1
  O2-  O274  1  0.50017415  0.37445614  0.34899737  1
  O2-  O275  1  0.49956837  0.37493169  0.84659003  1
  O2-  O276  1  0.50175533  0.62432835  0.34692629  1
  O2-  O277  1  0.49940941  0.62548417  0.84294109  1
  O2-  O278  1  0.50190087  0.87501209  0.34456251  1
  O2-  O279  1  0.49950118  0.87519653  0.84431261  1
  O2-  O280  1  0.75125613  0.12549864  0.34990118  1
  O2-  O281  1  0.74889358  0.12473162  0.84780705  1
  O2-  O282  1  0.75247680  0.37499293  0.35173768  1
  O2-  O283  1  0.74725526  0.37556136  0.84396719  1
  O2-  O284  1  0.75132428  0.62409701  0.34918559  1
  O2-  O285  1  0.74934031  0.62524971  0.84252769  1
  O2-  O286  1  0.74794220  0.87516613  0.34795017  1
  O2-  O287  1  0.74978491  0.87447775  0.84665724  1
