# generated using pymatgen
data_BaYFeCuO5
_symmetry_space_group_name_H-M   'P 1'
_cell_length_a   15.66537934
_cell_length_b   15.66532231
_cell_length_c   15.46889444
_cell_angle_alpha   90.00316544
_cell_angle_beta   89.99073465
_cell_angle_gamma   90.00286187
_symmetry_Int_Tables_number   1
_chemical_formula_structural   BaYFeCuO5
_chemical_formula_sum   'Ba32 Y32 Fe32 Cu32 O160'
_cell_volume   3796.11639304
_cell_formula_units_Z   32
loop_
 _symmetry_equiv_pos_site_id
 _symmetry_equiv_pos_as_xyz
  1  'x, y, z'
loop_
 _atom_type_symbol
 _atom_type_oxidation_number
  Ba2+  2.0
  Y3+  3.0
  Fe3+  3.0
  Cu2+  2.0
  O2-  -2.0
loop_
 _atom_site_type_symbol
 _atom_site_label
 _atom_site_symmetry_multiplicity
 _atom_site_fract_x
 _atom_site_fract_y
 _atom_site_fract_z
 _atom_site_occupancy
  Ba2+  Ba0  1  -0.00485680  0.00392280  0.01214345  1
  Ba2+  Ba1  1  0.00115904  0.00233770  0.50185776  1
  Ba2+  Ba2  1  -0.01032050  0.25357449  0.00143998  1
  Ba2+  Ba3  1  -0.00676546  0.24298721  0.50762819  1
  Ba2+  Ba4  1  -0.00914916  0.49342610  0.00640199  1
  Ba2+  Ba5  1  -0.00792979  0.50057251  0.50608813  1
  Ba2+  Ba6  1  -0.00269584  0.74907236  0.01631209  1
  Ba2+  Ba7  1  0.00153021  0.75424423  0.50157529  1
  Ba2+  Ba8  1  0.25061294  0.00129966  0.01662148  1
  Ba2+  Ba9  1  0.24393005  -0.00143310  0.50613318  1
  Ba2+  Ba10  1  0.24956629  0.24933141  0.00648921  1
  Ba2+  Ba11  1  0.24724051  0.23779934  0.51221769  1
  Ba2+  Ba12  1  0.24441893  0.49527929  0.00158466  1
  Ba2+  Ba13  1  0.24929466  0.50972494  0.51830744  1
  Ba2+  Ba14  1  0.24596532  0.75412004  0.01165016  1
  Ba2+  Ba15  1  0.24690166  0.75497002  0.51219779  1
  Ba2+  Ba16  1  0.50737679  0.00653667  0.01583023  1
  Ba2+  Ba17  1  0.50289931  -0.00271127  0.51122224  1
  Ba2+  Ba18  1  0.50844871  0.24414665  0.01450100  1
  Ba2+  Ba19  1  0.50538762  0.24460467  0.52088103  1
  Ba2+  Ba20  1  0.51132181  0.49896074  0.01595209  1
  Ba2+  Ba21  1  0.50525767  0.50493994  0.52051145  1
  Ba2+  Ba22  1  0.50977352  0.75051062  0.01702867  1
  Ba2+  Ba23  1  0.50312877  0.75354012  0.51148228  1
  Ba2+  Ba24  1  0.74711761  0.00949484  0.01086983  1
  Ba2+  Ba25  1  0.75129434  0.00041677  0.50689972  1
  Ba2+  Ba26  1  0.75236414  0.24826477  0.01231529  1
  Ba2+  Ba27  1  0.75454889  0.24893292  0.51681349  1
  Ba2+  Ba28  1  0.75234730  0.49630270  0.02237256  1
  Ba2+  Ba29  1  0.75219570  0.49699018  0.51080811  1
  Ba2+  Ba30  1  0.74667164  0.74572927  0.02319156  1
  Ba2+  Ba31  1  0.74877142  0.75297664  0.50130990  1
  Y3+  Y32  1  -0.00048938  0.00134763  0.26083762  1
  Y3+  Y33  1  -0.00105816  0.00314688  0.75516018  1
  Y3+  Y34  1  -0.00449704  0.24841731  0.26061997  1
  Y3+  Y35  1  -0.00452817  0.24941307  0.75673226  1
  Y3+  Y36  1  -0.00518110  0.49821756  0.25919307  1
  Y3+  Y37  1  -0.00226507  0.49671344  0.75723156  1
  Y3+  Y38  1  -0.00123872  0.75209137  0.25907032  1
  Y3+  Y39  1  0.00109211  0.75119485  0.75620554  1
  Y3+  Y40  1  0.24796806  -0.00058665  0.25993409  1
  Y3+  Y41  1  0.24781696  0.00118707  0.75393091  1
  Y3+  Y42  1  0.24937712  0.24723151  0.25864697  1
  Y3+  Y43  1  0.24811554  0.24828386  0.75612081  1
  Y3+  Y44  1  0.24998493  0.49879078  0.25724019  1
  Y3+  Y45  1  0.24869659  0.50065462  0.75719914  1
  Y3+  Y46  1  0.24843483  0.75407100  0.25823354  1
  Y3+  Y47  1  0.24842897  0.75042436  0.75533412  1
  Y3+  Y48  1  0.50253602  -0.00057555  0.25720161  1
  Y3+  Y49  1  0.50356988  0.00159073  0.75569801  1
  Y3+  Y50  1  0.50193954  0.24791646  0.25386908  1
  Y3+  Y51  1  0.50348704  0.24737527  0.75666964  1
  Y3+  Y52  1  0.50230080  0.49915034  0.25593979  1
  Y3+  Y53  1  0.50223095  0.50071141  0.75445761  1
  Y3+  Y54  1  0.50306421  0.75318933  0.25904565  1
  Y3+  Y55  1  0.50198888  0.75043767  0.75341504  1
  Y3+  Y56  1  0.75044619  0.00150924  0.25800497  1
  Y3+  Y57  1  0.74955754  0.00384319  0.75692769  1
  Y3+  Y58  1  0.75360729  0.24956595  0.25673973  1
  Y3+  Y59  1  0.75262391  0.24798144  0.75793057  1
  Y3+  Y60  1  0.75339182  0.49803802  0.25864482  1
  Y3+  Y61  1  0.75119110  0.49671879  0.75354734  1
  Y3+  Y62  1  0.75010794  0.75098488  0.26016142  1
  Y3+  Y63  1  0.74800424  0.75153171  0.75341660  1
  Fe3+  Fe64  1  0.87282189  0.62547565  0.87779004  1
  Fe3+  Fe65  1  0.12509289  0.37427377  0.38148037  1
  Fe3+  Fe66  1  0.37635964  0.62551394  0.87985279  1
  Fe3+  Fe67  1  0.62580595  0.12566892  0.37642342  1
  Fe3+  Fe68  1  0.12325767  0.62475124  0.87946211  1
  Fe3+  Fe69  1  0.62679240  0.62465487  0.87447755  1
  Fe3+  Fe70  1  0.87371537  0.87479554  0.88110990  1
  Fe3+  Fe71  1  0.62649560  0.37440939  0.87531319  1
  Fe3+  Fe72  1  0.62581559  0.87528772  0.87765616  1
  Fe3+  Fe73  1  0.12484333  0.62453230  0.37519257  1
  Fe3+  Fe74  1  0.37673757  0.37461132  0.87812316  1
  Fe3+  Fe75  1  0.37644741  0.12409848  0.37631298  1
  Fe3+  Fe76  1  0.62542249  0.62413512  0.37550201  1
  Fe3+  Fe77  1  0.62473589  0.37375540  0.37729207  1
  Fe3+  Fe78  1  0.37581895  0.37457969  0.38089255  1
  Fe3+  Fe79  1  0.37602354  0.87532128  0.88042330  1
  Fe3+  Fe80  1  0.37566008  0.12412073  0.87695904  1
  Fe3+  Fe81  1  0.12405153  0.12541411  0.87953089  1
  Fe3+  Fe82  1  0.37552719  0.62585206  0.37534306  1
  Fe3+  Fe83  1  0.12424638  0.87596441  0.87919716  1
  Fe3+  Fe84  1  0.12361101  0.12579511  0.13639956  1
  Fe3+  Fe85  1  0.87430038  0.87616161  0.13709727  1
  Fe3+  Fe86  1  0.12377671  0.62384400  0.13526756  1
  Fe3+  Fe87  1  0.87527137  0.62634764  0.63656780  1
  Fe3+  Fe88  1  0.37514262  0.37401822  0.13348856  1
  Fe3+  Fe89  1  0.12340059  0.37405278  0.13847267  1
  Fe3+  Fe90  1  0.12362715  0.37433572  0.63524646  1
  Fe3+  Fe91  1  0.37472248  0.37420570  0.63484736  1
  Fe3+  Fe92  1  0.37486747  0.87631730  0.63847463  1
  Fe3+  Fe93  1  0.37499137  0.62464064  0.13276433  1
  Fe3+  Fe94  1  0.37597951  0.87581123  0.13553863  1
  Fe3+  Fe95  1  0.87524018  0.87599868  0.63786084  1
  Cu2+  Cu96  1  0.87470879  0.62551531  0.36499782  1
  Cu2+  Cu97  1  0.12480086  0.87534553  0.37185726  1
  Cu2+  Cu98  1  0.12445410  0.37433703  0.86293067  1
  Cu2+  Cu99  1  0.87476934  0.87572728  0.36283826  1
  Cu2+  Cu100  1  0.37534458  0.87525005  0.36287623  1
  Cu2+  Cu101  1  0.62545210  0.12527701  0.87065502  1
  Cu2+  Cu102  1  0.87281528  0.37545097  0.87043359  1
  Cu2+  Cu103  1  0.87398655  0.37387826  0.37448984  1
  Cu2+  Cu104  1  0.12463284  0.12552642  0.37162625  1
  Cu2+  Cu105  1  0.62519474  0.87626947  0.37325162  1
  Cu2+  Cu106  1  0.87373932  0.12469869  0.37238093  1
  Cu2+  Cu107  1  0.87450040  0.12434360  0.87308436  1
  Cu2+  Cu108  1  0.37510124  0.12429363  0.65027801  1
  Cu2+  Cu109  1  0.87539630  0.62503820  0.15306428  1
  Cu2+  Cu110  1  0.87571987  0.37388126  0.14474337  1
  Cu2+  Cu111  1  0.37446453  0.12485182  0.14954525  1
  Cu2+  Cu112  1  0.12344890  0.12496251  0.64348055  1
  Cu2+  Cu113  1  0.87577181  0.12527024  0.14329832  1
  Cu2+  Cu114  1  0.62650569  0.87591767  0.64131233  1
  Cu2+  Cu115  1  0.62605790  0.37416677  0.15202070  1
  Cu2+  Cu116  1  0.62625047  0.12466987  0.64959391  1
  Cu2+  Cu117  1  0.62684432  0.62554004  0.64825676  1
  Cu2+  Cu118  1  0.12337684  0.87593191  0.64301156  1
  Cu2+  Cu119  1  0.62551461  0.37424406  0.64825951  1
  Cu2+  Cu120  1  0.37492446  0.62596464  0.65261509  1
  Cu2+  Cu121  1  0.62670437  0.12542891  0.14560171  1
  Cu2+  Cu122  1  0.87496617  0.12410727  0.64344872  1
  Cu2+  Cu123  1  0.12303975  0.62490421  0.65245777  1
  Cu2+  Cu124  1  0.62630143  0.87597418  0.15124725  1
  Cu2+  Cu125  1  0.87534744  0.37437701  0.64159960  1
  Cu2+  Cu126  1  0.62522143  0.62429037  0.15483973  1
  Cu2+  Cu127  1  0.12415156  0.87559538  0.14962597  1
  O2-  O128  1  0.12483522  0.12612527  0.00766970  1
  O2-  O129  1  0.12501265  0.12486759  0.50738413  1
  O2-  O130  1  0.12473081  0.37473104  0.01798728  1
  O2-  O131  1  0.12662995  0.37551483  0.50821537  1
  O2-  O132  1  0.12380871  0.62389505  0.00685458  1
  O2-  O133  1  0.12690020  0.62548777  0.49550914  1
  O2-  O134  1  0.12554109  0.87450714  -0.00086646  1
  O2-  O135  1  0.12502452  0.87484086  0.50728672  1
  O2-  O136  1  0.37471915  0.12573308  -0.00280022  1
  O2-  O137  1  0.37697913  0.12468485  0.49664630  1
  O2-  O138  1  0.37574500  0.37542907  0.00567060  1
  O2-  O139  1  0.37486858  0.37525076  0.50612922  1
  O2-  O140  1  0.37623913  0.62366399  0.00567246  1
  O2-  O141  1  0.37467940  0.62518009  0.49531259  1
  O2-  O142  1  0.37616989  0.87497879  0.00664035  1
  O2-  O143  1  0.37435805  0.87486800  0.51774291  1
  O2-  O144  1  0.62536798  0.12589723  0.00634311  1
  O2-  O145  1  0.62443701  0.12538048  0.49696472  1
  O2-  O146  1  0.62567320  0.37559545  -0.00421929  1
  O2-  O147  1  0.62182048  0.37535683  0.49747653  1
  O2-  O148  1  0.62623204  0.62471536  -0.00526111  1
  O2-  O149  1  0.62351027  0.62469065  0.49582353  1
  O2-  O150  1  0.62551297  0.87370121  -0.00202288  1
  O2-  O151  1  0.62479371  0.87493340  0.50641179  1
  O2-  O152  1  0.87599452  0.12485591  0.00788088  1
  O2-  O153  1  0.87360871  0.12336974  0.50782507  1
  O2-  O154  1  0.87316885  0.37578797  0.00746180  1
  O2-  O155  1  0.87536245  0.37544734  0.50775294  1
  O2-  O156  1  0.87255084  0.62495316  -0.00185551  1
  O2-  O157  1  0.87638395  0.62750401  0.51608330  1
  O2-  O158  1  0.87335906  0.87397275  0.00848350  1
  O2-  O159  1  0.87593110  0.87438216  0.51737510  1
  O2-  O160  1  0.12545126  0.00186529  0.16246333  1
  O2-  O161  1  0.12455116  0.00076159  0.66807845  1
  O2-  O162  1  0.12654544  0.24922528  0.16724393  1
  O2-  O163  1  0.12640682  0.25288490  0.66522587  1
  O2-  O164  1  0.12648884  0.50068535  0.16598413  1
  O2-  O165  1  0.12613515  0.49809419  0.66441671  1
  O2-  O166  1  0.12575719  0.74784525  0.16108333  1
  O2-  O167  1  0.12517564  0.74872247  0.66707236  1
  O2-  O168  1  0.37455432  -0.00199582  0.16083981  1
  O2-  O169  1  0.37513248  0.00012510  0.66876078  1
  O2-  O170  1  0.37405574  0.25202275  0.16249598  1
  O2-  O171  1  0.37388524  0.25135416  0.66271558  1
  O2-  O172  1  0.37437817  0.49977302  0.16174873  1
  O2-  O173  1  0.37416799  0.49882076  0.66391207  1
  O2-  O174  1  0.37469778  0.74958867  0.15862404  1
  O2-  O175  1  0.37429041  0.75055423  0.66902999  1
  O2-  O176  1  0.62518013  -0.00014329  0.16500775  1
  O2-  O177  1  0.62506652  0.00167990  0.66626695  1
  O2-  O178  1  0.62431565  0.25087414  0.16429464  1
  O2-  O179  1  0.62408919  0.24938262  0.66344048  1
  O2-  O180  1  0.62384675  0.49933699  0.16297608  1
  O2-  O181  1  0.62421856  0.50011303  0.66209130  1
  O2-  O182  1  0.62449779  0.74961552  0.16351058  1
  O2-  O183  1  0.62488753  0.74913205  0.66380297  1
  O2-  O184  1  0.87574720  -0.00230826  0.16380295  1
  O2-  O185  1  0.87502573  -0.00101210  0.66994995  1
  O2-  O186  1  0.87619755  0.24980411  0.16647397  1
  O2-  O187  1  0.87510617  0.24965142  0.66506757  1
  O2-  O188  1  0.87581680  0.50078637  0.16604650  1
  O2-  O189  1  0.87559934  0.50161827  0.66433054  1
  O2-  O190  1  0.87535896  0.75135909  0.16364396  1
  O2-  O191  1  0.87545103  0.75021988  0.67045176  1
  O2-  O192  1  0.00295091  0.12507445  0.16649266  1
  O2-  O193  1  -0.00065829  0.12587651  0.66842914  1
  O2-  O194  1  0.00193094  0.37528193  0.17032404  1
  O2-  O195  1  0.00256797  0.37518146  0.66565346  1
  O2-  O196  1  0.00217985  0.62477877  0.16341231  1
  O2-  O197  1  -0.00116902  0.62484791  0.66990172  1
  O2-  O198  1  -0.00154521  0.87418216  0.16354255  1
  O2-  O199  1  -0.00192670  0.87492891  0.67056154  1
  O2-  O200  1  0.24811976  0.12531615  0.16283474  1
  O2-  O201  1  0.25074936  0.12529030  0.66678281  1
  O2-  O202  1  0.25106300  0.37525740  0.16553910  1
  O2-  O203  1  0.25009538  0.37595185  0.66481740  1
  O2-  O204  1  0.25042186  0.62429109  0.15764809  1
  O2-  O205  1  0.24873718  0.62451152  0.66842280  1
  O2-  O206  1  0.25158523  0.87458173  0.16201623  1
  O2-  O207  1  0.25104702  0.87490282  0.66890387  1
  O2-  O208  1  0.49892209  0.12524650  0.16233150  1
  O2-  O209  1  0.50056617  0.12531807  0.66295626  1
  O2-  O210  1  0.49825984  0.37533858  0.16117415  1
  O2-  O211  1  0.49789113  0.37522908  0.66260763  1
  O2-  O212  1  0.49780621  0.62417522  0.15975050  1
  O2-  O213  1  0.50111229  0.62499723  0.66389713  1
  O2-  O214  1  0.49922804  0.87463498  0.16222057  1
  O2-  O215  1  0.49906675  0.87490856  0.66587880  1
  O2-  O216  1  0.75079879  0.12526299  0.16515063  1
  O2-  O217  1  0.74921214  0.12509078  0.66526113  1
  O2-  O218  1  0.74960702  0.37531689  0.16573029  1
  O2-  O219  1  0.74895344  0.37491426  0.66170560  1
  O2-  O220  1  0.74981562  0.62468336  0.16536799  1
  O2-  O221  1  0.75103692  0.62525342  0.66267167  1
  O2-  O222  1  0.75137695  0.87434337  0.16474807  1
  O2-  O223  1  0.75171983  0.87521609  0.66652091  1
  O2-  O224  1  0.12512303  0.00043998  0.34756629  1
  O2-  O225  1  0.12583527  0.00086614  0.85061637  1
  O2-  O226  1  0.12679874  0.25332211  0.35005543  1
  O2-  O227  1  0.12644178  0.24850244  0.85032468  1
  O2-  O228  1  0.12642224  0.49825956  0.34785757  1
  O2-  O229  1  0.12598760  0.50169961  0.84972859  1
  O2-  O230  1  0.12525833  0.74813522  0.34480471  1
  O2-  O231  1  0.12577856  0.74886605  0.85029711  1
  O2-  O232  1  0.37517666  0.00035282  0.34530681  1
  O2-  O233  1  0.37368829  -0.00173994  0.85055129  1
  O2-  O234  1  0.37459619  0.25159006  0.34682012  1
  O2-  O235  1  0.37418535  0.25114140  0.84746824  1
  O2-  O236  1  0.37467188  0.49849769  0.34546983  1
  O2-  O237  1  0.37444318  0.50061467  0.84982900  1
  O2-  O238  1  0.37465782  0.74944199  0.34327766  1
  O2-  O239  1  0.37443498  0.74954609  0.85305968  1
  O2-  O240  1  0.62457366  0.00214652  0.34743668  1
  O2-  O241  1  0.62455825  -0.00191492  0.84873941  1
  O2-  O242  1  0.62349484  0.25011067  0.34485071  1
  O2-  O243  1  0.62379879  0.25133384  0.84625543  1
  O2-  O244  1  0.62404150  0.49930871  0.34463712  1
  O2-  O245  1  0.62382358  0.50033133  0.84338116  1
  O2-  O246  1  0.62493662  0.74835765  0.34727614  1
  O2-  O247  1  0.62369738  0.75006876  0.84462073  1
  O2-  O248  1  0.87516369  -0.00152788  0.34777861  1
  O2-  O249  1  0.87551606  -0.00359180  0.85265354  1
  O2-  O250  1  0.87493055  0.24947973  0.34917768  1
  O2-  O251  1  0.87513360  0.24988331  0.84899101  1
  O2-  O252  1  0.87512643  0.50051903  0.35012140  1
  O2-  O253  1  0.87517308  0.50237019  0.84582777  1
  O2-  O254  1  0.87540924  0.75148323  0.34871709  1
  O2-  O255  1  0.87561523  0.75101917  0.85005719  1
  O2-  O256  1  -0.00073455  0.12505336  0.34990137  1
  O2-  O257  1  0.00270504  0.12526110  0.85177182  1
  O2-  O258  1  0.00246786  0.37549194  0.35348818  1
  O2-  O259  1  0.00035617  0.37546704  0.85006408  1
  O2-  O260  1  0.00030573  0.62470689  0.34722012  1
  O2-  O261  1  0.00065237  0.62509983  0.85225214  1
  O2-  O262  1  -0.00194763  0.87474666  0.34823083  1
  O2-  O263  1  -0.00032193  0.87398171  0.85245153  1
  O2-  O264  1  0.25236514  0.12518017  0.34620169  1
  O2-  O265  1  0.24892815  0.12562500  0.84949736  1
  O2-  O266  1  0.25135119  0.37566039  0.34936231  1
  O2-  O267  1  0.25236220  0.37583990  0.85078721  1
  O2-  O268  1  0.25063169  0.62439467  0.34006382  1
  O2-  O269  1  0.25027883  0.62425490  0.85421529  1
  O2-  O270  1  0.25121683  0.87489265  0.34660323  1
  O2-  O271  1  0.25083902  0.87368035  0.85146511  1
  O2-  O272  1  0.50020813  0.12541524  0.34332435  1
  O2-  O273  1  0.49795725  0.12485178  0.84566031  1
  O2-  O274  1  0.49807897  0.37525109  0.34447368  1
  O2-  O275  1  0.49885452  0.37579139  0.84587710  1
  O2-  O276  1  0.49978094  0.62456029  0.34166804  1
  O2-  O277  1  0.49895750  0.62473011  0.84726800  1
  O2-  O278  1  0.49890750  0.87485318  0.34632734  1
  O2-  O279  1  0.49874474  0.87430834  0.84812475  1
  O2-  O280  1  0.74830903  0.12490418  0.34690602  1
  O2-  O281  1  0.75027480  0.12453881  0.84885959  1
  O2-  O282  1  0.74790988  0.37513737  0.34866425  1
  O2-  O283  1  0.74812260  0.37541057  0.84359399  1
  O2-  O284  1  0.74986047  0.62508684  0.34917865  1
  O2-  O285  1  0.74941494  0.62581353  0.84206001  1
  O2-  O286  1  0.75194930  0.87493329  0.34904172  1
  O2-  O287  1  0.75054908  0.87403391  0.84807461  1
