# generated using pymatgen
data_BaYFeCuO5
_symmetry_space_group_name_H-M   'P 1'
_cell_length_a   15.65952334
_cell_length_b   15.66033432
_cell_length_c   15.45955161
_cell_angle_alpha   89.99725116
_cell_angle_beta   89.99899060
_cell_angle_gamma   90.00317124
_symmetry_Int_Tables_number   1
_chemical_formula_structural   BaYFeCuO5
_chemical_formula_sum   'Ba32 Y32 Fe32 Cu32 O160'
_cell_volume   3791.19794095
_cell_formula_units_Z   32
loop_
 _symmetry_equiv_pos_site_id
 _symmetry_equiv_pos_as_xyz
  1  'x, y, z'
loop_
 _atom_type_symbol
 _atom_type_oxidation_number
  Ba2+  2.0
  Y3+  3.0
  Fe3+  3.0
  Cu2+  2.0
  O2-  -2.0
loop_
 _atom_site_type_symbol
 _atom_site_label
 _atom_site_symmetry_multiplicity
 _atom_site_fract_x
 _atom_site_fract_y
 _atom_site_fract_z
 _atom_site_occupancy
  Ba2+  Ba0  1  0.00270236  -0.00345188  0.01321531  1
  Ba2+  Ba1  1  0.00254411  0.00342303  0.51062983  1
  Ba2+  Ba2  1  0.00751810  0.25386432  0.01165278  1
  Ba2+  Ba3  1  -0.00666249  0.24730270  0.51259486  1
  Ba2+  Ba4  1  -0.00350270  0.49619760  0.01274818  1
  Ba2+  Ba5  1  -0.00239654  0.50548811  0.51643899  1
  Ba2+  Ba6  1  -0.00671678  0.75336818  0.01193456  1
  Ba2+  Ba7  1  0.00579317  0.74408229  0.51556646  1
  Ba2+  Ba8  1  0.23857706  0.00330774  0.01198978  1
  Ba2+  Ba9  1  0.24690776  -0.00601780  0.51293208  1
  Ba2+  Ba10  1  0.24431759  0.25650415  0.00725366  1
  Ba2+  Ba11  1  0.25043804  0.25073743  0.50564862  1
  Ba2+  Ba12  1  0.25282180  0.49131785  0.00224192  1
  Ba2+  Ba13  1  0.25237083  0.50690182  0.51692633  1
  Ba2+  Ba14  1  0.24767226  0.74939510  0.00703983  1
  Ba2+  Ba15  1  0.24946248  0.74787860  0.52152714  1
  Ba2+  Ba16  1  0.50644357  0.00778414  0.00661325  1
  Ba2+  Ba17  1  0.50657859  -0.00631636  0.51680064  1
  Ba2+  Ba18  1  0.50449847  0.25690635  0.00638369  1
  Ba2+  Ba19  1  0.50586828  0.25471135  0.52400458  1
  Ba2+  Ba20  1  0.49650094  0.49097455  0.00292224  1
  Ba2+  Ba21  1  0.50020697  0.50020561  0.51835538  1
  Ba2+  Ba22  1  0.49581664  0.74425716  0.00266510  1
  Ba2+  Ba23  1  0.50155099  0.75172252  0.51307803  1
  Ba2+  Ba24  1  0.75255012  0.00031526  0.00693287  1
  Ba2+  Ba25  1  0.74395686  0.00283518  0.51832786  1
  Ba2+  Ba26  1  0.74316395  0.25396402  0.00933244  1
  Ba2+  Ba27  1  0.74952325  0.25056416  0.52681089  1
  Ba2+  Ba28  1  0.75451023  0.49592552  0.01161345  1
  Ba2+  Ba29  1  0.74988545  0.49864411  0.51887688  1
  Ba2+  Ba30  1  0.76257544  0.74904258  0.00645863  1
  Ba2+  Ba31  1  0.74259949  0.74822884  0.50393409  1
  Y3+  Y32  1  0.00104360  0.00056317  0.25499084  1
  Y3+  Y33  1  -0.00059321  -0.00024321  0.75883520  1
  Y3+  Y34  1  0.00263676  0.25052537  0.25547146  1
  Y3+  Y35  1  0.00073320  0.24969468  0.75932353  1
  Y3+  Y36  1  -0.00000102  0.50053614  0.25642844  1
  Y3+  Y37  1  -0.00044762  0.50157992  0.75779402  1
  Y3+  Y38  1  -0.00153169  0.74935224  0.25547145  1
  Y3+  Y39  1  -0.00116238  0.74797295  0.75793551  1
  Y3+  Y40  1  0.24667549  0.00235784  0.25688470  1
  Y3+  Y41  1  0.24875685  -0.00026996  0.75815129  1
  Y3+  Y42  1  0.24804798  0.25108770  0.25429186  1
  Y3+  Y43  1  0.24936508  0.25189329  0.76147418  1
  Y3+  Y44  1  0.24846480  0.49863013  0.25687719  1
  Y3+  Y45  1  0.25141553  0.49933853  0.75908944  1
  Y3+  Y46  1  0.24754025  0.74868799  0.25786524  1
  Y3+  Y47  1  0.24986841  0.74788444  0.75623050  1
  Y3+  Y48  1  0.50230954  0.00110171  0.25630248  1
  Y3+  Y49  1  0.50286489  0.00020343  0.75744686  1
  Y3+  Y50  1  0.50112414  0.25164102  0.25063866  1
  Y3+  Y51  1  0.50183944  0.25186733  0.76250033  1
  Y3+  Y52  1  0.50081715  0.49797498  0.25407034  1
  Y3+  Y53  1  0.49768476  0.49725330  0.76107375  1
  Y3+  Y54  1  0.50278393  0.75012671  0.25933427  1
  Y3+  Y55  1  0.49877903  0.74983277  0.75717870  1
  Y3+  Y56  1  0.74884317  -0.00074655  0.25483373  1
  Y3+  Y57  1  0.74979266  0.00002173  0.75930750  1
  Y3+  Y58  1  0.74809570  0.25133719  0.25055492  1
  Y3+  Y59  1  0.74857131  0.24963651  0.76054284  1
  Y3+  Y60  1  0.75043975  0.49987499  0.25352349  1
  Y3+  Y61  1  0.75191117  0.49930916  0.76052434  1
  Y3+  Y62  1  0.75092234  0.75061094  0.25549091  1
  Y3+  Y63  1  0.75359499  0.74988915  0.75902989  1
  Fe3+  Fe64  1  0.87339924  0.37430185  0.37603323  1
  Fe3+  Fe65  1  0.37638542  0.37476542  0.37738850  1
  Fe3+  Fe66  1  0.62512243  0.12704975  0.37534000  1
  Fe3+  Fe67  1  0.87409713  0.62440314  0.37648988  1
  Fe3+  Fe68  1  0.87604835  0.37434935  0.87600356  1
  Fe3+  Fe69  1  0.87339782  0.12590098  0.37524649  1
  Fe3+  Fe70  1  0.37605455  0.12547569  0.37981615  1
  Fe3+  Fe71  1  0.37511005  0.87543428  0.37592594  1
  Fe3+  Fe72  1  0.12439040  0.62380562  0.87936162  1
  Fe3+  Fe73  1  0.62563003  0.37505545  0.37568351  1
  Fe3+  Fe74  1  0.37437903  0.87587421  0.87963942  1
  Fe3+  Fe75  1  0.37417764  0.12519990  0.87963014  1
  Fe3+  Fe76  1  0.87424370  0.87593685  0.37971959  1
  Fe3+  Fe77  1  0.37576852  0.62490188  0.37689907  1
  Fe3+  Fe78  1  0.62583491  0.87382471  0.87989245  1
  Fe3+  Fe79  1  0.87616424  0.12504908  0.87930108  1
  Fe3+  Fe80  1  0.62570833  0.62407217  0.88034001  1
  Fe3+  Fe81  1  0.12413137  0.37593413  0.38039277  1
  Fe3+  Fe82  1  0.12407798  0.87429008  0.87552944  1
  Fe3+  Fe83  1  0.12436640  0.87408517  0.37583823  1
  Fe3+  Fe84  1  0.62513877  0.62497851  0.13377833  1
  Fe3+  Fe85  1  0.12465635  0.62454568  0.13432075  1
  Fe3+  Fe86  1  0.12488498  0.37504641  0.63598677  1
  Fe3+  Fe87  1  0.37545546  0.12501868  0.63613334  1
  Fe3+  Fe88  1  0.87533329  0.12617432  0.13381985  1
  Fe3+  Fe89  1  0.87497584  0.87452158  0.63500836  1
  Fe3+  Fe90  1  0.12524836  0.12523356  0.63841753  1
  Fe3+  Fe91  1  0.37443959  0.12601884  0.13391898  1
  Fe3+  Fe92  1  0.37454339  0.62445352  0.13579943  1
  Fe3+  Fe93  1  0.62484573  0.87420711  0.13349839  1
  Fe3+  Fe94  1  0.62538184  0.62481823  0.64206702  1
  Fe3+  Fe95  1  0.37444566  0.87558124  0.13342179  1
  Cu2+  Cu96  1  0.87612031  0.87523282  0.87122707  1
  Cu2+  Cu97  1  0.62570863  0.12493152  0.87302548  1
  Cu2+  Cu98  1  0.87611374  0.62427543  0.87343995  1
  Cu2+  Cu99  1  0.37447475  0.37371834  0.87095470  1
  Cu2+  Cu100  1  0.62634927  0.37591597  0.87161567  1
  Cu2+  Cu101  1  0.62537895  0.87597969  0.37166275  1
  Cu2+  Cu102  1  0.12371890  0.37565704  0.87001813  1
  Cu2+  Cu103  1  0.62502466  0.62360285  0.36061171  1
  Cu2+  Cu104  1  0.12441804  0.12496391  0.87349234  1
  Cu2+  Cu105  1  0.12480969  0.12570001  0.36560942  1
  Cu2+  Cu106  1  0.37441798  0.62492509  0.86652886  1
  Cu2+  Cu107  1  0.12488975  0.62467978  0.37274257  1
  Cu2+  Cu108  1  0.62628248  0.87330787  0.64616912  1
  Cu2+  Cu109  1  0.37514716  0.87554125  0.65361890  1
  Cu2+  Cu110  1  0.12521860  0.37673464  0.14331864  1
  Cu2+  Cu111  1  0.12533415  0.87398815  0.15088611  1
  Cu2+  Cu112  1  0.12405589  0.87490829  0.65284837  1
  Cu2+  Cu113  1  0.87483861  0.87601503  0.14250740  1
  Cu2+  Cu114  1  0.87512206  0.62479392  0.14115439  1
  Cu2+  Cu115  1  0.37432596  0.37381978  0.65236401  1
  Cu2+  Cu116  1  0.87507301  0.12429446  0.65437334  1
  Cu2+  Cu117  1  0.87424637  0.62522455  0.65150224  1
  Cu2+  Cu118  1  0.62550909  0.37593459  0.65762656  1
  Cu2+  Cu119  1  0.87586050  0.37475852  0.65279304  1
  Cu2+  Cu120  1  0.37610344  0.62448219  0.65502354  1
  Cu2+  Cu121  1  0.37403042  0.37534538  0.14215678  1
  Cu2+  Cu122  1  0.62461648  0.37672391  0.13953058  1
  Cu2+  Cu123  1  0.62485283  0.12525586  0.65638873  1
  Cu2+  Cu124  1  0.62502340  0.12513235  0.13876004  1
  Cu2+  Cu125  1  0.12464983  0.12599458  0.14209473  1
  Cu2+  Cu126  1  0.12521941  0.62418101  0.64503536  1
  Cu2+  Cu127  1  0.87572891  0.37426661  0.14904479  1
  O2-  O128  1  0.12417756  0.12493358  0.00747004  1
  O2-  O129  1  0.12594976  0.12563925  0.51769257  1
  O2-  O130  1  0.12419481  0.37728738  0.00717698  1
  O2-  O131  1  0.12481545  0.37511531  0.50763264  1
  O2-  O132  1  0.12469444  0.62423648  0.00671749  1
  O2-  O133  1  0.12586552  0.62458372  0.50777223  1
  O2-  O134  1  0.12441519  0.87397917  -0.00376427  1
  O2-  O135  1  0.12553721  0.87388599  0.49658244  1
  O2-  O136  1  0.37352421  0.12477086  0.00671004  1
  O2-  O137  1  0.37659639  0.12463410  0.50681411  1
  O2-  O138  1  0.37397900  0.37291417  0.00665759  1
  O2-  O139  1  0.37757858  0.37420107  0.49748357  1
  O2-  O140  1  0.37335730  0.62527596  0.01548492  1
  O2-  O141  1  0.37689330  0.62619746  0.49750142  1
  O2-  O142  1  0.37420616  0.87638204  0.00624078  1
  O2-  O143  1  0.37532519  0.87504039  0.49628926  1
  O2-  O144  1  0.62579191  0.12405954  0.00569455  1
  O2-  O145  1  0.62482958  0.12708892  0.49587524  1
  O2-  O146  1  0.62555583  0.37738405  0.00585815  1
  O2-  O147  1  0.62573461  0.37465911  0.49618307  1
  O2-  O148  1  0.62507644  0.62505849  0.00743788  1
  O2-  O149  1  0.62437093  0.62467566  0.52098622  1
  O2-  O150  1  0.62491088  0.87365076  0.00679290  1
  O2-  O151  1  0.62517421  0.87484899  0.50738645  1
  O2-  O152  1  0.87684677  0.12566839  0.00615699  1
  O2-  O153  1  0.87211893  0.12536184  0.49560995  1
  O2-  O154  1  0.87672862  0.37311060  -0.00316348  1
  O2-  O155  1  0.87223979  0.37379089  0.49624381  1
  O2-  O156  1  0.87654341  0.62429243  0.00717156  1
  O2-  O157  1  0.87294432  0.62448594  0.49712876  1
  O2-  O158  1  0.87586926  0.87656912  0.00694505  1
  O2-  O159  1  0.87387340  0.87573657  0.50611217  1
  O2-  O160  1  0.12510885  -0.00158076  0.16421655  1
  O2-  O161  1  0.12490765  0.00046876  0.66544961  1
  O2-  O162  1  0.12539575  0.25121337  0.16612099  1
  O2-  O163  1  0.12549563  0.25073614  0.66604163  1
  O2-  O164  1  0.12483787  0.50341846  0.16558066  1
  O2-  O165  1  0.12510172  0.49697599  0.66507885  1
  O2-  O166  1  0.12551086  0.74826114  0.16072131  1
  O2-  O167  1  0.12555978  0.75086661  0.66661563  1
  O2-  O168  1  0.37502892  -0.00028485  0.16201722  1
  O2-  O169  1  0.37565261  0.00183496  0.66455333  1
  O2-  O170  1  0.37412576  0.24752173  0.16441064  1
  O2-  O171  1  0.37470616  0.24738792  0.66411289  1
  O2-  O172  1  0.37458842  0.50259669  0.16633897  1
  O2-  O173  1  0.37516240  0.49870074  0.66502916  1
  O2-  O174  1  0.37455415  0.75154018  0.16174419  1
  O2-  O175  1  0.37520382  0.75080754  0.66706245  1
  O2-  O176  1  0.62393242  -0.00317617  0.16178222  1
  O2-  O177  1  0.62505111  0.00051893  0.66678230  1
  O2-  O178  1  0.62434930  0.25076655  0.16049350  1
  O2-  O179  1  0.62525438  0.25082088  0.66600239  1
  O2-  O180  1  0.62467289  0.50340351  0.16301349  1
  O2-  O181  1  0.62483321  0.50026188  0.66865014  1
  O2-  O182  1  0.62441205  0.75018669  0.16319514  1
  O2-  O183  1  0.62523987  0.74781797  0.67189720  1
  O2-  O184  1  0.87519711  0.00312226  0.16308771  1
  O2-  O185  1  0.87515432  -0.00172377  0.66448709  1
  O2-  O186  1  0.87561106  0.24949094  0.16065578  1
  O2-  O187  1  0.87503911  0.24914848  0.66499264  1
  O2-  O188  1  0.87548871  0.49774987  0.16304567  1
  O2-  O189  1  0.87563954  0.49990952  0.66460770  1
  O2-  O190  1  0.87475958  0.75096147  0.16578641  1
  O2-  O191  1  0.87518866  0.75149730  0.66470314  1
  O2-  O192  1  -0.00238605  0.12551443  0.16471380  1
  O2-  O193  1  0.00084396  0.12491710  0.66489084  1
  O2-  O194  1  -0.00119063  0.37525899  0.16653089  1
  O2-  O195  1  0.00160021  0.37403326  0.66078486  1
  O2-  O196  1  0.00234380  0.62551414  0.16356722  1
  O2-  O197  1  -0.00171365  0.62508611  0.66422719  1
  O2-  O198  1  0.00153641  0.87514546  0.16606417  1
  O2-  O199  1  -0.00191688  0.87483925  0.66039426  1
  O2-  O200  1  0.25232363  0.12425347  0.16574957  1
  O2-  O201  1  0.25106840  0.12392615  0.66576496  1
  O2-  O202  1  0.24987259  0.37569211  0.16780165  1
  O2-  O203  1  0.24828452  0.37424577  0.66358002  1
  O2-  O204  1  0.24885197  0.62602810  0.16462374  1
  O2-  O205  1  0.25217379  0.62487288  0.66670588  1
  O2-  O206  1  0.25178188  0.87551021  0.16118040  1
  O2-  O207  1  0.24966399  0.87558176  0.66525655  1
  O2-  O208  1  0.49713556  0.12424299  0.16182137  1
  O2-  O209  1  0.49893583  0.12483525  0.66573066  1
  O2-  O210  1  0.49921850  0.37561936  0.16218456  1
  O2-  O211  1  0.49963072  0.37428560  0.66683496  1
  O2-  O212  1  0.50065938  0.62681339  0.16291195  1
  O2-  O213  1  0.50024515  0.62480278  0.67013047  1
  O2-  O214  1  0.49952379  0.87469715  0.16018018  1
  O2-  O215  1  0.49955391  0.87486427  0.66934503  1
  O2-  O216  1  0.75245160  0.12499075  0.15964096  1
  O2-  O217  1  0.74974351  0.12400669  0.66668484  1
  O2-  O218  1  0.75185728  0.37544036  0.16042069  1
  O2-  O219  1  0.75107973  0.37552963  0.66568288  1
  O2-  O220  1  0.74754267  0.62586996  0.16162140  1
  O2-  O221  1  0.75011691  0.62433002  0.66915021  1
  O2-  O222  1  0.74647391  0.87501061  0.16319792  1
  O2-  O223  1  0.75342760  0.87520759  0.66669769  1
  O2-  O224  1  0.12483611  -0.00059384  0.34763568  1
  O2-  O225  1  0.12559896  -0.00223865  0.84726105  1
  O2-  O226  1  0.12557330  0.25257326  0.35061414  1
  O2-  O227  1  0.12495713  0.25046795  0.84885762  1
  O2-  O228  1  0.12481978  0.49655866  0.34850151  1
  O2-  O229  1  0.12562699  0.50244533  0.84899964  1
  O2-  O230  1  0.12428018  0.75192607  0.34327644  1
  O2-  O231  1  0.12583500  0.74830492  0.84961275  1
  O2-  O232  1  0.37486485  0.00198701  0.34619676  1
  O2-  O233  1  0.37498614  -0.00084913  0.84965613  1
  O2-  O234  1  0.37408551  0.24899102  0.34793631  1
  O2-  O235  1  0.37479750  0.24690953  0.84855460  1
  O2-  O236  1  0.37559065  0.49926168  0.34642419  1
  O2-  O237  1  0.37435620  0.50031216  0.84972239  1
  O2-  O238  1  0.37565170  0.75035559  0.34298768  1
  O2-  O239  1  0.37508085  0.75277202  0.85262650  1
  O2-  O240  1  0.62479557  0.00332204  0.34394682  1
  O2-  O241  1  0.62492576  -0.00381965  0.85074977  1
  O2-  O242  1  0.62455410  0.25048317  0.34076362  1
  O2-  O243  1  0.62508912  0.25021976  0.85007671  1
  O2-  O244  1  0.62495544  0.49870208  0.34510311  1
  O2-  O245  1  0.62521402  0.50298734  0.85086900  1
  O2-  O246  1  0.62496073  0.74844119  0.34799119  1
  O2-  O247  1  0.62351256  0.74981670  0.85398361  1
  O2-  O248  1  0.87466305  -0.00050743  0.34630490  1
  O2-  O249  1  0.87499311  0.00212427  0.84955836  1
  O2-  O250  1  0.87526543  0.25024392  0.34201597  1
  O2-  O251  1  0.87575828  0.24853816  0.84834998  1
  O2-  O252  1  0.87429501  0.49927311  0.34464180  1
  O2-  O253  1  0.87546295  0.49842908  0.84810059  1
  O2-  O254  1  0.87425476  0.75156449  0.34875749  1
  O2-  O255  1  0.87591316  0.75001122  0.84902278  1
  O2-  O256  1  -0.00086738  0.12512252  0.34844866  1
  O2-  O257  1  -0.00233537  0.12439452  0.84763039  1
  O2-  O258  1  0.00027794  0.37471859  0.34982908  1
  O2-  O259  1  -0.00159417  0.37485268  0.84368758  1
  O2-  O260  1  -0.00279049  0.62499069  0.34630824  1
  O2-  O261  1  0.00298026  0.62484938  0.84800919  1
  O2-  O262  1  -0.00195082  0.87591785  0.34891712  1
  O2-  O263  1  0.00193368  0.87454737  0.84361882  1
  O2-  O264  1  0.25166022  0.12531243  0.35112033  1
  O2-  O265  1  0.25259264  0.12407449  0.84910668  1
  O2-  O266  1  0.24952113  0.37458671  0.35063677  1
  O2-  O267  1  0.24949508  0.37462177  0.84792592  1
  O2-  O268  1  0.25244252  0.62508480  0.34590601  1
  O2-  O269  1  0.24855013  0.62541958  0.85126892  1
  O2-  O270  1  0.25020745  0.87587064  0.34344447  1
  O2-  O271  1  0.25117735  0.87480442  0.84918233  1
  O2-  O272  1  0.49878769  0.12548744  0.34444349  1
  O2-  O273  1  0.49709097  0.12341766  0.85110204  1
  O2-  O274  1  0.50022338  0.37433268  0.34286498  1
  O2-  O275  1  0.50007946  0.37475621  0.85112969  1
  O2-  O276  1  0.49986888  0.62520459  0.34500363  1
  O2-  O277  1  0.50095540  0.62550428  0.85398552  1
  O2-  O278  1  0.49802767  0.87611826  0.34299958  1
  O2-  O279  1  0.49972709  0.87513575  0.85399389  1
  O2-  O280  1  0.74956887  0.12530330  0.34046093  1
  O2-  O281  1  0.75319413  0.12436732  0.85105898  1
  O2-  O282  1  0.74956542  0.37480802  0.34134600  1
  O2-  O283  1  0.75248092  0.37442939  0.84821899  1
  O2-  O284  1  0.75022900  0.62570489  0.34482381  1
  O2-  O285  1  0.74786653  0.62633026  0.85198373  1
  O2-  O286  1  0.75296070  0.87529433  0.34677025  1
  O2-  O287  1  0.74754082  0.87373679  0.85076032  1
