# generated using pymatgen
data_BaYFeCuO5
_symmetry_space_group_name_H-M   'P 1'
_cell_length_a   15.67155759
_cell_length_b   15.67588919
_cell_length_c   15.50617881
_cell_angle_alpha   90.01019801
_cell_angle_beta   90.00521557
_cell_angle_gamma   89.99818570
_symmetry_Int_Tables_number   1
_chemical_formula_structural   BaYFeCuO5
_chemical_formula_sum   'Ba32 Y32 Fe32 Cu32 O160'
_cell_volume   3809.33464458
_cell_formula_units_Z   32
loop_
 _symmetry_equiv_pos_site_id
 _symmetry_equiv_pos_as_xyz
  1  'x, y, z'
loop_
 _atom_type_symbol
 _atom_type_oxidation_number
  Ba2+  2.0
  Y3+  3.0
  Fe3+  3.0
  Cu2+  2.0
  O2-  -2.0
loop_
 _atom_site_type_symbol
 _atom_site_label
 _atom_site_symmetry_multiplicity
 _atom_site_fract_x
 _atom_site_fract_y
 _atom_site_fract_z
 _atom_site_occupancy
  Ba2+  Ba0  1  -0.00068134  0.00011797  0.00652653  1
  Ba2+  Ba1  1  -0.00478256  -0.00337545  0.52157845  1
  Ba2+  Ba2  1  -0.00701066  0.24788631  0.00681735  1
  Ba2+  Ba3  1  -0.00253227  0.25692192  0.51746714  1
  Ba2+  Ba4  1  -0.00020051  0.49948299  0.00761863  1
  Ba2+  Ba5  1  -0.00265649  0.49419351  0.51861590  1
  Ba2+  Ba6  1  0.00648453  0.75238983  0.00508741  1
  Ba2+  Ba7  1  -0.00471183  0.75219819  0.52288892  1
  Ba2+  Ba8  1  0.24681829  0.00354119  0.00081775  1
  Ba2+  Ba9  1  0.25526787  -0.00098119  0.51688729  1
  Ba2+  Ba10  1  0.25586875  0.24691552  0.00017788  1
  Ba2+  Ba11  1  0.25340641  0.25437775  0.50194239  1
  Ba2+  Ba12  1  0.25367910  0.50577489  0.00879490  1
  Ba2+  Ba13  1  0.25391890  0.49578854  0.50041221  1
  Ba2+  Ba14  1  0.24482062  0.74430522  0.00679084  1
  Ba2+  Ba15  1  0.25549523  0.75051520  0.51760536  1
  Ba2+  Ba16  1  0.50423351  0.00426742  0.01469313  1
  Ba2+  Ba17  1  0.49485296  0.00688279  0.50716717  1
  Ba2+  Ba18  1  0.50245708  0.25285748  0.00113701  1
  Ba2+  Ba19  1  0.49798012  0.24988025  0.50068933  1
  Ba2+  Ba20  1  0.50260788  0.49708050  0.01239517  1
  Ba2+  Ba21  1  0.49935109  0.50109532  0.51220176  1
  Ba2+  Ba22  1  0.50308841  0.74549756  0.02261998  1
  Ba2+  Ba23  1  0.49553905  0.74225180  0.51427654  1
  Ba2+  Ba24  1  0.74937560  0.00063931  0.01798330  1
  Ba2+  Ba25  1  0.75395741  0.00472349  0.51130552  1
  Ba2+  Ba26  1  0.74832980  0.25378191  0.00731390  1
  Ba2+  Ba27  1  0.75072010  0.25283932  0.51887257  1
  Ba2+  Ba28  1  0.74565992  0.49159380  0.00980376  1
  Ba2+  Ba29  1  0.75033061  0.49945229  0.52747585  1
  Ba2+  Ba30  1  0.74588774  0.75458363  0.02036462  1
  Ba2+  Ba31  1  0.75428539  0.74410535  0.52041496  1
  Y3+  Y32  1  0.00010499  0.00051371  0.25548082  1
  Y3+  Y33  1  -0.00017247  -0.00076429  0.75710714  1
  Y3+  Y34  1  0.00113443  0.25207121  0.25647130  1
  Y3+  Y35  1  -0.00211712  0.25206536  0.75863276  1
  Y3+  Y36  1  0.00204556  0.49851398  0.25405610  1
  Y3+  Y37  1  0.00050661  0.49855441  0.76060652  1
  Y3+  Y38  1  0.00077824  0.74876033  0.25267544  1
  Y3+  Y39  1  0.00237724  0.75026443  0.75944006  1
  Y3+  Y40  1  0.25041492  0.00220174  0.26014917  1
  Y3+  Y41  1  0.25135140  -0.00052038  0.75519128  1
  Y3+  Y42  1  0.24999628  0.25082598  0.26269357  1
  Y3+  Y43  1  0.25179439  0.25027795  0.75555197  1
  Y3+  Y44  1  0.24966177  0.50101246  0.25918038  1
  Y3+  Y45  1  0.24977327  0.50031869  0.75737117  1
  Y3+  Y46  1  0.25007179  0.74587404  0.25733489  1
  Y3+  Y47  1  0.24919903  0.74998072  0.75737717  1
  Y3+  Y48  1  0.50117140  0.00280537  0.26077775  1
  Y3+  Y49  1  0.49674581  0.00153083  0.75523736  1
  Y3+  Y50  1  0.50118848  0.24929614  0.25910684  1
  Y3+  Y51  1  0.49941799  0.25125785  0.75843276  1
  Y3+  Y52  1  0.49898366  0.50065063  0.25752529  1
  Y3+  Y53  1  0.50100296  0.49832075  0.75765764  1
  Y3+  Y54  1  0.49963091  0.74738023  0.25865891  1
  Y3+  Y55  1  0.49774648  0.74816871  0.75249075  1
  Y3+  Y56  1  0.74792837  0.00097688  0.25682378  1
  Y3+  Y57  1  0.75184734  0.00160578  0.75556698  1
  Y3+  Y58  1  0.74773413  0.25085408  0.25346780  1
  Y3+  Y59  1  0.75092689  0.25276010  0.76172428  1
  Y3+  Y60  1  0.74884740  0.49750574  0.24934301  1
  Y3+  Y61  1  0.74952197  0.49706403  0.76136390  1
  Y3+  Y62  1  0.74929804  0.75064773  0.25443289  1
  Y3+  Y63  1  0.75064181  0.74861123  0.75530125  1
  Fe3+  Fe64  1  0.87381220  0.37638010  0.37372544  1
  Fe3+  Fe65  1  0.37464203  0.87412277  0.37685308  1
  Fe3+  Fe66  1  0.87509903  0.12649413  0.37703995  1
  Fe3+  Fe67  1  0.62391034  0.87475360  0.87445116  1
  Fe3+  Fe68  1  0.87369406  0.87520566  0.87638416  1
  Fe3+  Fe69  1  0.12317189  0.12475925  0.38156245  1
  Fe3+  Fe70  1  0.62538076  0.12380156  0.87598994  1
  Fe3+  Fe71  1  0.12641701  0.37493335  0.87991584  1
  Fe3+  Fe72  1  0.62736067  0.62376648  0.37599242  1
  Fe3+  Fe73  1  0.37626445  0.62518569  0.87627175  1
  Fe3+  Fe74  1  0.37604872  0.87457258  0.88002155  1
  Fe3+  Fe75  1  0.12447336  0.12536954  0.87499363  1
  Fe3+  Fe76  1  0.62553617  0.87443407  0.38009372  1
  Fe3+  Fe77  1  0.87437922  0.62573873  0.87905947  1
  Fe3+  Fe78  1  0.62475457  0.62618207  0.87585163  1
  Fe3+  Fe79  1  0.87471618  0.62362808  0.37401124  1
  Fe3+  Fe80  1  0.12319052  0.62517744  0.38079832  1
  Fe3+  Fe81  1  0.62671070  0.37608607  0.37688231  1
  Fe3+  Fe82  1  0.87540129  0.87396647  0.37498387  1
  Fe3+  Fe83  1  0.12387585  0.87408686  0.37965088  1
  Fe3+  Fe84  1  0.12655210  0.87631724  0.13745753  1
  Fe3+  Fe85  1  0.37445478  0.12557597  0.13934629  1
  Fe3+  Fe86  1  0.12488304  0.12633970  0.63565674  1
  Fe3+  Fe87  1  0.87500823  0.62505101  0.13213086  1
  Fe3+  Fe88  1  0.37533126  0.37506674  0.63989555  1
  Fe3+  Fe89  1  0.87508510  0.12526163  0.13778214  1
  Fe3+  Fe90  1  0.62481454  0.12663374  0.63743176  1
  Fe3+  Fe91  1  0.62449552  0.87525614  0.63272009  1
  Fe3+  Fe92  1  0.12532034  0.62350464  0.63620527  1
  Fe3+  Fe93  1  0.37433001  0.87501484  0.13516252  1
  Fe3+  Fe94  1  0.12665467  0.37332908  0.13476677  1
  Fe3+  Fe95  1  0.37480672  0.37433895  0.13971499  1
  Cu2+  Cu96  1  0.62676680  0.12577639  0.36682488  1
  Cu2+  Cu97  1  0.37470467  0.37577118  0.86419134  1
  Cu2+  Cu98  1  0.37609383  0.37569542  0.36277999  1
  Cu2+  Cu99  1  0.62402721  0.37522504  0.87225655  1
  Cu2+  Cu100  1  0.37507868  0.62506758  0.37371603  1
  Cu2+  Cu101  1  0.12595585  0.87572327  0.86188413  1
  Cu2+  Cu102  1  0.12321256  0.37573366  0.37468599  1
  Cu2+  Cu103  1  0.87457839  0.12430983  0.86263817  1
  Cu2+  Cu104  1  0.12541039  0.62463833  0.87201570  1
  Cu2+  Cu105  1  0.37551459  0.12462201  0.86294937  1
  Cu2+  Cu106  1  0.87539308  0.37523692  0.87439151  1
  Cu2+  Cu107  1  0.37427270  0.12473595  0.37456476  1
  Cu2+  Cu108  1  0.12612041  0.37510385  0.64318385  1
  Cu2+  Cu109  1  0.37484378  0.62457382  0.15189448  1
  Cu2+  Cu110  1  0.12506133  0.62407653  0.14038226  1
  Cu2+  Cu111  1  0.62512297  0.62419914  0.65155874  1
  Cu2+  Cu112  1  0.87551416  0.37397345  0.13920111  1
  Cu2+  Cu113  1  0.62509963  0.62426226  0.15014683  1
  Cu2+  Cu114  1  0.87383753  0.87480537  0.65406886  1
  Cu2+  Cu115  1  0.87499779  0.12618143  0.65270416  1
  Cu2+  Cu116  1  0.62312672  0.87555871  0.15429439  1
  Cu2+  Cu117  1  0.62282422  0.37369665  0.14152722  1
  Cu2+  Cu118  1  0.87467685  0.37536409  0.65838616  1
  Cu2+  Cu119  1  0.62461870  0.37453574  0.65262531  1
  Cu2+  Cu120  1  0.87534014  0.87562146  0.14857364  1
  Cu2+  Cu121  1  0.87608305  0.62398636  0.65715191  1
  Cu2+  Cu122  1  0.12626462  0.12577403  0.15196891  1
  Cu2+  Cu123  1  0.62384536  0.12564050  0.15177331  1
  Cu2+  Cu124  1  0.37407311  0.62269518  0.64241335  1
  Cu2+  Cu125  1  0.37589172  0.87482555  0.65137181  1
  Cu2+  Cu126  1  0.37531460  0.12692353  0.64235817  1
  Cu2+  Cu127  1  0.12529854  0.87499529  0.64952036  1
  O2-  O128  1  0.12524033  0.12443760  -0.00468336  1
  O2-  O129  1  0.12237748  0.12487077  0.50786568  1
  O2-  O130  1  0.12779725  0.37335000  0.00740616  1
  O2-  O131  1  0.12355970  0.37593556  0.50778596  1
  O2-  O132  1  0.12512329  0.62502854  0.00676170  1
  O2-  O133  1  0.12239804  0.62501708  0.50748886  1
  O2-  O134  1  0.12743960  0.87712379  0.01701618  1
  O2-  O135  1  0.12216109  0.87362898  0.49918899  1
  O2-  O136  1  0.37471343  0.12427973  0.01912864  1
  O2-  O137  1  0.37401123  0.12533045  0.50810387  1
  O2-  O138  1  0.37453789  0.37355878  0.01977014  1
  O2-  O139  1  0.37589646  0.37555949  0.51905905  1
  O2-  O140  1  0.37701309  0.62719356  -0.00369111  1
  O2-  O141  1  0.37416718  0.62426389  0.50687736  1
  O2-  O142  1  0.37591736  0.87502864  0.00705952  1
  O2-  O143  1  0.37570328  0.87393662  0.49716092  1
  O2-  O144  1  0.62523385  0.12230384  -0.00366044  1
  O2-  O145  1  0.62624144  0.12701919  0.51688783  1
  O2-  O146  1  0.62254815  0.37398723  0.00656874  1
  O2-  O147  1  0.62866743  0.37711779  0.49683555  1
  O2-  O148  1  0.62430129  0.62830342  -0.00447173  1
  O2-  O149  1  0.62925485  0.62340536  0.49599820  1
  O2-  O150  1  0.62354052  0.87505101  -0.00599026  1
  O2-  O151  1  0.62592592  0.87431769  0.50555297  1
  O2-  O152  1  0.87474599  0.12288866  0.01707664  1
  O2-  O153  1  0.87577103  0.12635923  0.49724833  1
  O2-  O154  1  0.87579861  0.37397328  0.00629258  1
  O2-  O155  1  0.87316717  0.37729759  0.49398607  1
  O2-  O156  1  0.87412611  0.62746186  0.00494828  1
  O2-  O157  1  0.87512872  0.62354744  0.49366631  1
  O2-  O158  1  0.87266512  0.87566251  -0.00372888  1
  O2-  O159  1  0.87474230  0.87311480  0.49488673  1
  O2-  O160  1  0.12642452  -0.00007831  0.16869986  1
  O2-  O161  1  0.12488457  0.00153735  0.66162074  1
  O2-  O162  1  0.12605513  0.25126040  0.16694205  1
  O2-  O163  1  0.12397902  0.24774530  0.66524627  1
  O2-  O164  1  0.12587560  0.49624445  0.16357675  1
  O2-  O165  1  0.12407855  0.50217112  0.66688893  1
  O2-  O166  1  0.12533998  0.75218095  0.16580876  1
  O2-  O167  1  0.12453185  0.74838701  0.66334631  1
  O2-  O168  1  0.37492961  -0.00089204  0.16583800  1
  O2-  O169  1  0.37478582  -0.00085882  0.66495866  1
  O2-  O170  1  0.37457386  0.24947604  0.17179144  1
  O2-  O171  1  0.37540170  0.25217404  0.66978096  1
  O2-  O172  1  0.37390830  0.50014095  0.16518493  1
  O2-  O173  1  0.37504729  0.49802867  0.66927649  1
  O2-  O174  1  0.37498719  0.75066479  0.16139360  1
  O2-  O175  1  0.37490685  0.75027682  0.66328139  1
  O2-  O176  1  0.62376713  -0.00021671  0.16711705  1
  O2-  O177  1  0.62589897  -0.00092120  0.66129491  1
  O2-  O178  1  0.62314379  0.24881871  0.16642830  1
  O2-  O179  1  0.62597897  0.24993941  0.66845532  1
  O2-  O180  1  0.62471868  0.50078748  0.16081732  1
  O2-  O181  1  0.62587031  0.49979155  0.66633721  1
  O2-  O182  1  0.62421432  0.75020945  0.16424579  1
  O2-  O183  1  0.62481527  0.75107711  0.65866943  1
  O2-  O184  1  0.87440752  0.00072562  0.16722748  1
  O2-  O185  1  0.87445779  -0.00028613  0.66232640  1
  O2-  O186  1  0.87580651  0.24792899  0.16643929  1
  O2-  O187  1  0.87528708  0.25143005  0.66630233  1
  O2-  O188  1  0.87482677  0.50221447  0.15780820  1
  O2-  O189  1  0.87561939  0.49950054  0.66837678  1
  O2-  O190  1  0.87486495  0.74933254  0.16062005  1
  O2-  O191  1  0.87550513  0.74949306  0.66374331  1
  O2-  O192  1  0.00070064  0.12445970  0.16400092  1
  O2-  O193  1  0.00059376  0.12469475  0.66366875  1
  O2-  O194  1  0.00344066  0.37419589  0.16083858  1
  O2-  O195  1  -0.00132354  0.37559924  0.66772225  1
  O2-  O196  1  -0.00306440  0.62502020  0.16162218  1
  O2-  O197  1  0.00159426  0.62492452  0.66604057  1
  O2-  O198  1  0.00129096  0.87614418  0.16287497  1
  O2-  O199  1  -0.00144714  0.87490560  0.66611057  1
  O2-  O200  1  0.25096551  0.12493993  0.17052474  1
  O2-  O201  1  0.24735620  0.12493312  0.66403766  1
  O2-  O202  1  0.24944365  0.37447382  0.16947409  1
  O2-  O203  1  0.25162844  0.37500339  0.66959535  1
  O2-  O204  1  0.25089255  0.62482438  0.16774158  1
  O2-  O205  1  0.24697370  0.62523206  0.66501870  1
  O2-  O206  1  0.25205249  0.87488052  0.16723786  1
  O2-  O207  1  0.25115955  0.87481562  0.66626154  1
  O2-  O208  1  0.49908135  0.12382548  0.16829519  1
  O2-  O209  1  0.50198051  0.12463922  0.66683231  1
  O2-  O210  1  0.49745600  0.37544149  0.16943751  1
  O2-  O211  1  0.50023944  0.37534596  0.66676953  1
  O2-  O212  1  0.50033268  0.62524030  0.16553677  1
  O2-  O213  1  0.50099674  0.62455256  0.66187858  1
  O2-  O214  1  0.49719198  0.87495765  0.16480940  1
  O2-  O215  1  0.50221711  0.87525253  0.66264127  1
  O2-  O216  1  0.74913426  0.12421806  0.16348443  1
  O2-  O217  1  0.75001162  0.12539698  0.66503449  1
  O2-  O218  1  0.74931451  0.37363168  0.15921691  1
  O2-  O219  1  0.75004680  0.37541962  0.66658629  1
  O2-  O220  1  0.75131125  0.62633607  0.15863431  1
  O2-  O221  1  0.75094580  0.62520172  0.66471620  1
  O2-  O222  1  0.74869272  0.87541135  0.16253660  1
  O2-  O223  1  0.74797362  0.87401206  0.66089246  1
  O2-  O224  1  0.12384184  0.00043630  0.35026515  1
  O2-  O225  1  0.12552669  0.00105738  0.84503082  1
  O2-  O226  1  0.12449852  0.24737183  0.35143640  1
  O2-  O227  1  0.12596035  0.25116883  0.84801829  1
  O2-  O228  1  0.12420846  0.50330829  0.34810537  1
  O2-  O229  1  0.12562351  0.49703873  0.85057693  1
  O2-  O230  1  0.12399372  0.74855410  0.34726516  1
  O2-  O231  1  0.12569440  0.75145592  0.84809162  1
  O2-  O232  1  0.37536145  -0.00250877  0.34679542  1
  O2-  O233  1  0.37454314  -0.00232547  0.84954768  1
  O2-  O234  1  0.37443514  0.25192277  0.35306485  1
  O2-  O235  1  0.37462138  0.25028311  0.85248780  1
  O2-  O236  1  0.37491524  0.49852064  0.34821990  1
  O2-  O237  1  0.37472949  0.50080390  0.85027215  1
  O2-  O238  1  0.37487712  0.75218622  0.34365032  1
  O2-  O239  1  0.37487936  0.75147330  0.84620793  1
  O2-  O240  1  0.62556194  -0.00148889  0.35229745  1
  O2-  O241  1  0.62421271  -0.00069788  0.84145433  1
  O2-  O242  1  0.62558188  0.25112478  0.34880315  1
  O2-  O243  1  0.62454718  0.24802665  0.85006264  1
  O2-  O244  1  0.62539834  0.49979979  0.34174376  1
  O2-  O245  1  0.62481520  0.50224865  0.84923583  1
  O2-  O246  1  0.62609285  0.75089471  0.34739670  1
  O2-  O247  1  0.62464598  0.75051264  0.83985657  1
  O2-  O248  1  0.87518096  -0.00038598  0.34755390  1
  O2-  O249  1  0.87551413  -0.00113413  0.84528247  1
  O2-  O250  1  0.87505912  0.25053621  0.34575918  1
  O2-  O251  1  0.87545172  0.24846126  0.85060773  1
  O2-  O252  1  0.87526265  0.50048195  0.33826756  1
  O2-  O253  1  0.87550556  0.50323480  0.85198776  1
  O2-  O254  1  0.87489947  0.74964370  0.34156289  1
  O2-  O255  1  0.87489184  0.74954078  0.84658160  1
  O2-  O256  1  0.00039171  0.12498930  0.34562177  1
  O2-  O257  1  0.00032292  0.12502404  0.84706698  1
  O2-  O258  1  -0.00279838  0.37567334  0.34253796  1
  O2-  O259  1  0.00354686  0.37468715  0.85170057  1
  O2-  O260  1  0.00057776  0.62512188  0.34355205  1
  O2-  O261  1  -0.00229766  0.62614769  0.85072599  1
  O2-  O262  1  0.00020423  0.87429674  0.34275019  1
  O2-  O263  1  -0.00026537  0.87483666  0.84985170  1
  O2-  O264  1  0.24633801  0.12425324  0.35303726  1
  O2-  O265  1  0.25016917  0.12474486  0.84755762  1
  O2-  O266  1  0.25214980  0.37569443  0.35238456  1
  O2-  O267  1  0.24909620  0.37460176  0.85183163  1
  O2-  O268  1  0.24657974  0.62511132  0.35185653  1
  O2-  O269  1  0.25227929  0.62571901  0.84724462  1
  O2-  O270  1  0.24823358  0.87475971  0.34769195  1
  O2-  O271  1  0.25226588  0.87540333  0.85150233  1
  O2-  O272  1  0.50145799  0.12491201  0.35165000  1
  O2-  O273  1  0.49988811  0.12400927  0.84824572  1
  O2-  O274  1  0.50064930  0.37496741  0.35093163  1
  O2-  O275  1  0.49791509  0.37489282  0.84910294  1
  O2-  O276  1  0.50284701  0.62571103  0.34888774  1
  O2-  O277  1  0.49992425  0.62595081  0.84288537  1
  O2-  O278  1  0.50219465  0.87467278  0.34883547  1
  O2-  O279  1  0.49847482  0.87497781  0.84522263  1
  O2-  O280  1  0.75166516  0.12432499  0.34556443  1
  O2-  O281  1  0.74957404  0.12373974  0.84648630  1
  O2-  O282  1  0.75013480  0.37534508  0.33924973  1
  O2-  O283  1  0.74992750  0.37521260  0.85069940  1
  O2-  O284  1  0.75042783  0.62530679  0.33899118  1
  O2-  O285  1  0.75068819  0.62614101  0.84733318  1
  O2-  O286  1  0.74894512  0.87499749  0.34596561  1
  O2-  O287  1  0.74923587  0.87502635  0.84245193  1
