# generated using pymatgen
data_BaYFeCuO5
_symmetry_space_group_name_H-M   'P 1'
_cell_length_a   15.67191586
_cell_length_b   15.67366986
_cell_length_c   15.49028861
_cell_angle_alpha   90.00321091
_cell_angle_beta   90.00146733
_cell_angle_gamma   89.99853867
_symmetry_Int_Tables_number   1
_chemical_formula_structural   BaYFeCuO5
_chemical_formula_sum   'Ba32 Y32 Fe32 Cu32 O160'
_cell_volume   3804.97926912
_cell_formula_units_Z   32
loop_
 _symmetry_equiv_pos_site_id
 _symmetry_equiv_pos_as_xyz
  1  'x, y, z'
loop_
 _atom_type_symbol
 _atom_type_oxidation_number
  Ba2+  2.0
  Y3+  3.0
  Fe3+  3.0
  Cu2+  2.0
  O2-  -2.0
loop_
 _atom_site_type_symbol
 _atom_site_label
 _atom_site_symmetry_multiplicity
 _atom_site_fract_x
 _atom_site_fract_y
 _atom_site_fract_z
 _atom_site_occupancy
  Ba2+  Ba0  1  -0.00203374  0.00066595  0.01685865  1
  Ba2+  Ba1  1  0.00196732  -0.00047253  0.50763778  1
  Ba2+  Ba2  1  0.00307812  0.24939365  0.01659995  1
  Ba2+  Ba3  1  0.00760706  0.24858863  0.50741761  1
  Ba2+  Ba4  1  0.00167954  0.49760601  0.02262028  1
  Ba2+  Ba5  1  0.00890590  0.50337527  0.51043985  1
  Ba2+  Ba6  1  -0.00326175  0.75204890  0.02187111  1
  Ba2+  Ba7  1  0.00431267  0.74711693  0.51175414  1
  Ba2+  Ba8  1  0.23729695  0.00315846  0.01111025  1
  Ba2+  Ba9  1  0.25296181  0.00234184  0.50088823  1
  Ba2+  Ba10  1  0.23933332  0.25307050  0.01036793  1
  Ba2+  Ba11  1  0.25151614  0.25028074  0.49600848  1
  Ba2+  Ba12  1  0.24150555  0.49286487  0.01526483  1
  Ba2+  Ba13  1  0.24551171  0.49914047  0.50722920  1
  Ba2+  Ba14  1  0.23846229  0.74944097  0.01676978  1
  Ba2+  Ba15  1  0.24678110  0.74698839  0.51303194  1
  Ba2+  Ba16  1  0.51033840  0.00125728  0.01916803  1
  Ba2+  Ba17  1  0.49540381  0.00897180  0.50314052  1
  Ba2+  Ba18  1  0.49993161  0.24944405  0.01603074  1
  Ba2+  Ba19  1  0.49803238  0.24537205  0.50741946  1
  Ba2+  Ba20  1  0.49573762  0.49557853  0.01056200  1
  Ba2+  Ba21  1  0.49724780  0.49803810  0.50761049  1
  Ba2+  Ba22  1  0.50516480  0.75475833  0.01113245  1
  Ba2+  Ba23  1  0.49449206  0.74694544  0.50042178  1
  Ba2+  Ba24  1  0.75550535  -0.00113908  0.02273086  1
  Ba2+  Ba25  1  0.75110825  0.00671132  0.50752669  1
  Ba2+  Ba26  1  0.75710653  0.24437610  0.02239922  1
  Ba2+  Ba27  1  0.74365351  0.24485992  0.51478457  1
  Ba2+  Ba28  1  0.76149828  0.49984933  0.01720660  1
  Ba2+  Ba29  1  0.74641343  0.50346885  0.51231149  1
  Ba2+  Ba30  1  0.75923296  0.75753701  0.01511552  1
  Ba2+  Ba31  1  0.75446135  0.74704768  0.50191381  1
  Y3+  Y32  1  0.00021792  -0.00036909  0.25667246  1
  Y3+  Y33  1  0.00007060  0.00041305  0.75789205  1
  Y3+  Y34  1  0.00345717  0.25026807  0.25724517  1
  Y3+  Y35  1  0.00301461  0.24994173  0.75720192  1
  Y3+  Y36  1  0.00358591  0.49928338  0.25971179  1
  Y3+  Y37  1  0.00279046  0.49955582  0.75249526  1
  Y3+  Y38  1  -0.00012517  0.75044078  0.25871375  1
  Y3+  Y39  1  0.00012439  0.74995635  0.75416076  1
  Y3+  Y40  1  0.24882225  0.00267909  0.25804651  1
  Y3+  Y41  1  0.24835386  0.00163842  0.75799360  1
  Y3+  Y42  1  0.24806759  0.25130012  0.25727075  1
  Y3+  Y43  1  0.24684767  0.25029013  0.75864936  1
  Y3+  Y44  1  0.24624347  0.49640081  0.25898709  1
  Y3+  Y45  1  0.24651543  0.49921803  0.75525850  1
  Y3+  Y46  1  0.24690062  0.74959278  0.25885525  1
  Y3+  Y47  1  0.24760935  0.74874472  0.75538417  1
  Y3+  Y48  1  0.50029840  0.00214200  0.26123312  1
  Y3+  Y49  1  0.49956470  0.00291655  0.75442627  1
  Y3+  Y50  1  0.49796379  0.24849521  0.26016003  1
  Y3+  Y51  1  0.50019452  0.24783429  0.75378477  1
  Y3+  Y52  1  0.49830554  0.49839376  0.25623845  1
  Y3+  Y53  1  0.49959182  0.49889366  0.75774445  1
  Y3+  Y54  1  0.50061680  0.75117454  0.25707243  1
  Y3+  Y55  1  0.49905865  0.75046000  0.75852361  1
  Y3+  Y56  1  0.75080626  -0.00037694  0.25934973  1
  Y3+  Y57  1  0.75198762  0.00092814  0.75476178  1
  Y3+  Y58  1  0.75037191  0.24727985  0.25928299  1
  Y3+  Y59  1  0.74979116  0.24813477  0.75196656  1
  Y3+  Y60  1  0.75234042  0.50081945  0.25790382  1
  Y3+  Y61  1  0.75114259  0.49966665  0.75469090  1
  Y3+  Y62  1  0.75247877  0.75240146  0.25736650  1
  Y3+  Y63  1  0.75303427  0.75105781  0.75692559  1
  Fe3+  Fe64  1  0.62507719  0.37523423  0.37577427  1
  Fe3+  Fe65  1  0.87542869  0.37464633  0.37948333  1
  Fe3+  Fe66  1  0.62675139  0.62482402  0.88143695  1
  Fe3+  Fe67  1  0.87607227  0.62456593  0.37659508  1
  Fe3+  Fe68  1  0.12269713  0.87451762  0.87647130  1
  Fe3+  Fe69  1  0.62489147  0.87516378  0.37944515  1
  Fe3+  Fe70  1  0.62672268  0.87655335  0.87695531  1
  Fe3+  Fe71  1  0.87542659  0.12490253  0.87513508  1
  Fe3+  Fe72  1  0.87665994  0.62488946  0.87579182  1
  Fe3+  Fe73  1  0.37429580  0.87603405  0.88208401  1
  Fe3+  Fe74  1  0.87614898  0.37434852  0.87468347  1
  Fe3+  Fe75  1  0.37408071  0.37415624  0.87883922  1
  Fe3+  Fe76  1  0.12298738  0.62418188  0.87696406  1
  Fe3+  Fe77  1  0.12499478  0.87493910  0.37663934  1
  Fe3+  Fe78  1  0.37368632  0.62413619  0.37374415  1
  Fe3+  Fe79  1  0.37458188  0.12484681  0.88198301  1
  Fe3+  Fe80  1  0.37346266  0.62516446  0.88155161  1
  Fe3+  Fe81  1  0.62657249  0.12518036  0.87705290  1
  Fe3+  Fe82  1  0.62706624  0.37392570  0.88008185  1
  Fe3+  Fe83  1  0.87635788  0.12519392  0.37724743  1
  Fe3+  Fe84  1  0.62601340  0.37448652  0.13523688  1
  Fe3+  Fe85  1  0.37387593  0.87582670  0.13528961  1
  Fe3+  Fe86  1  0.37394516  0.12554089  0.13591550  1
  Fe3+  Fe87  1  0.37398451  0.37416483  0.63812723  1
  Fe3+  Fe88  1  0.87563163  0.37456552  0.63228843  1
  Fe3+  Fe89  1  0.87570220  0.87525791  0.63476663  1
  Fe3+  Fe90  1  0.37438760  0.87547618  0.63776237  1
  Fe3+  Fe91  1  0.37352665  0.62447349  0.13440285  1
  Fe3+  Fe92  1  0.62420200  0.87514421  0.63339549  1
  Fe3+  Fe93  1  0.62617546  0.62540947  0.13469235  1
  Fe3+  Fe94  1  0.12646220  0.12451127  0.63758957  1
  Fe3+  Fe95  1  0.62378008  0.62654067  0.63835692  1
  Cu2+  Cu96  1  0.87570456  0.87529439  0.36799096  1
  Cu2+  Cu97  1  0.12530787  0.62522800  0.37047734  1
  Cu2+  Cu98  1  0.37477816  0.37517727  0.36202124  1
  Cu2+  Cu99  1  0.87556449  0.87553247  0.87114880  1
  Cu2+  Cu100  1  0.12464378  0.37461264  0.37398661  1
  Cu2+  Cu101  1  0.12316729  0.37569736  0.87091929  1
  Cu2+  Cu102  1  0.37434108  0.87472687  0.36137532  1
  Cu2+  Cu103  1  0.12477387  0.12458177  0.36245219  1
  Cu2+  Cu104  1  0.62481508  0.62472487  0.35980968  1
  Cu2+  Cu105  1  0.12358402  0.12530389  0.87312406  1
  Cu2+  Cu106  1  0.62541996  0.12557936  0.37170226  1
  Cu2+  Cu107  1  0.37411461  0.12574137  0.37051419  1
  Cu2+  Cu108  1  0.62414832  0.12382236  0.64076647  1
  Cu2+  Cu109  1  0.62413904  0.37529557  0.65040757  1
  Cu2+  Cu110  1  0.87481204  0.62491525  0.64782154  1
  Cu2+  Cu111  1  0.87564275  0.62509810  0.15441824  1
  Cu2+  Cu112  1  0.12574293  0.62507782  0.64136001  1
  Cu2+  Cu113  1  0.12427640  0.37451383  0.14617908  1
  Cu2+  Cu114  1  0.37300376  0.12547534  0.64431709  1
  Cu2+  Cu115  1  0.37477517  0.37462721  0.14902414  1
  Cu2+  Cu116  1  0.12566344  0.87595227  0.64943237  1
  Cu2+  Cu117  1  0.12463985  0.12516315  0.14372000  1
  Cu2+  Cu118  1  0.87604670  0.87583043  0.14631737  1
  Cu2+  Cu119  1  0.62500901  0.12531636  0.15428862  1
  Cu2+  Cu120  1  0.87576831  0.12509337  0.15636079  1
  Cu2+  Cu121  1  0.37532392  0.62470578  0.65424332  1
  Cu2+  Cu122  1  0.62492155  0.87515481  0.15489882  1
  Cu2+  Cu123  1  0.12523233  0.87528691  0.15347849  1
  Cu2+  Cu124  1  0.87663254  0.12521246  0.64705577  1
  Cu2+  Cu125  1  0.87503430  0.37442349  0.15541318  1
  Cu2+  Cu126  1  0.12602079  0.37377686  0.64100714  1
  Cu2+  Cu127  1  0.12476043  0.62484298  0.15319536  1
  O2-  O128  1  0.12298388  0.12525307  0.00855996  1
  O2-  O129  1  0.12787191  0.12402337  0.51701674  1
  O2-  O130  1  0.12182601  0.37573659  0.00762297  1
  O2-  O131  1  0.12621272  0.37403063  0.50681602  1
  O2-  O132  1  0.12212695  0.62440955  -0.00286763  1
  O2-  O133  1  0.12688189  0.62581038  0.50669239  1
  O2-  O134  1  0.12193293  0.87354150  -0.00285922  1
  O2-  O135  1  0.12694159  0.87489363  0.49715204  1
  O2-  O136  1  0.37590984  0.12437828  0.00804615  1
  O2-  O137  1  0.37366753  0.12592847  0.50665391  1
  O2-  O138  1  0.37576227  0.37451481  -0.00093465  1
  O2-  O139  1  0.37588418  0.37508977  0.51770657  1
  O2-  O140  1  0.37341049  0.62517354  0.00710391  1
  O2-  O141  1  0.37569566  0.62452486  0.49441767  1
  O2-  O142  1  0.37514179  0.87610502  0.00786119  1
  O2-  O143  1  0.37575481  0.87423551  0.51776732  1
  O2-  O144  1  0.62724588  0.12504440  -0.00312846  1
  O2-  O145  1  0.62393954  0.12484293  0.50612963  1
  O2-  O146  1  0.62804204  0.37379345  0.00604221  1
  O2-  O147  1  0.62429199  0.37716721  0.49584558  1
  O2-  O148  1  0.62801657  0.62587272  0.00715318  1
  O2-  O149  1  0.62169915  0.62575111  0.51818991  1
  O2-  O150  1  0.62738437  0.87645060  -0.00248104  1
  O2-  O151  1  0.62310872  0.87370810  0.50737152  1
  O2-  O152  1  0.87432741  0.12510893  -0.00444134  1
  O2-  O153  1  0.87557601  0.12589633  0.49763626  1
  O2-  O154  1  0.87473085  0.37397718  -0.00499417  1
  O2-  O155  1  0.87365875  0.37552252  0.50511309  1
  O2-  O156  1  0.87613214  0.62449176  -0.00389696  1
  O2-  O157  1  0.87376962  0.62407958  0.49699672  1
  O2-  O158  1  0.87576212  0.87623216  0.00739580  1
  O2-  O159  1  0.87442148  0.87445303  0.51436537  1
  O2-  O160  1  0.12556785  -0.00105333  0.16546485  1
  O2-  O161  1  0.12550196  0.00040684  0.66734779  1
  O2-  O162  1  0.12484555  0.25043367  0.16612282  1
  O2-  O163  1  0.12506909  0.24815115  0.66753761  1
  O2-  O164  1  0.12469588  0.50051894  0.16637919  1
  O2-  O165  1  0.12591862  0.49970158  0.66275488  1
  O2-  O166  1  0.12549595  0.74992856  0.16397667  1
  O2-  O167  1  0.12581189  0.75152290  0.66353783  1
  O2-  O168  1  0.37543693  -0.00009078  0.16254229  1
  O2-  O169  1  0.37474669  -0.00151914  0.66931942  1
  O2-  O170  1  0.37633152  0.24865598  0.16281053  1
  O2-  O171  1  0.37549783  0.25136898  0.66929714  1
  O2-  O172  1  0.37595866  0.50167895  0.16041633  1
  O2-  O173  1  0.37643307  0.49969628  0.66785668  1
  O2-  O174  1  0.37594638  0.74994574  0.15924463  1
  O2-  O175  1  0.37554746  0.75043761  0.66959187  1
  O2-  O176  1  0.62428964  0.00023309  0.16640255  1
  O2-  O177  1  0.62453221  -0.00364768  0.66236582  1
  O2-  O178  1  0.62521640  0.25149919  0.16185231  1
  O2-  O179  1  0.62443550  0.25048282  0.66443096  1
  O2-  O180  1  0.62533143  0.50062737  0.15800754  1
  O2-  O181  1  0.62450911  0.50154810  0.66908810  1
  O2-  O182  1  0.62449779  0.74797145  0.16386478  1
  O2-  O183  1  0.62406383  0.75192461  0.66807950  1
  O2-  O184  1  0.87468603  0.00138510  0.16697078  1
  O2-  O185  1  0.87509350  -0.00076751  0.66424544  1
  O2-  O186  1  0.87398339  0.24963755  0.16567202  1
  O2-  O187  1  0.87411738  0.25167855  0.66017653  1
  O2-  O188  1  0.87426154  0.49991168  0.16404668  1
  O2-  O189  1  0.87320749  0.49830392  0.66095062  1
  O2-  O190  1  0.87460019  0.74933108  0.16576998  1
  O2-  O191  1  0.87455167  0.75088966  0.66517981  1
  O2-  O192  1  -0.00103225  0.12512005  0.16665521  1
  O2-  O193  1  0.00115561  0.12475044  0.66365565  1
  O2-  O194  1  -0.00170104  0.37501189  0.16834038  1
  O2-  O195  1  -0.00215393  0.37515635  0.65933024  1
  O2-  O196  1  0.00005795  0.62498966  0.16590612  1
  O2-  O197  1  -0.00140445  0.62484264  0.66036641  1
  O2-  O198  1  0.00174621  0.87497571  0.16660047  1
  O2-  O199  1  0.00020719  0.87497964  0.66121347  1
  O2-  O200  1  0.25271517  0.12501005  0.16372135  1
  O2-  O201  1  0.24812351  0.12469560  0.67276524  1
  O2-  O202  1  0.25069836  0.37514375  0.16538302  1
  O2-  O203  1  0.25127358  0.37519451  0.66937658  1
  O2-  O204  1  0.25153092  0.62532777  0.16173195  1
  O2-  O205  1  0.25178959  0.62539863  0.66765858  1
  O2-  O206  1  0.25172347  0.87439950  0.16172273  1
  O2-  O207  1  0.25033291  0.87452289  0.66956465  1
  O2-  O208  1  0.49817916  0.12453707  0.16381889  1
  O2-  O209  1  0.49924234  0.12443328  0.66662757  1
  O2-  O210  1  0.50286397  0.37577889  0.16093879  1
  O2-  O211  1  0.49944809  0.37563918  0.66991014  1
  O2-  O212  1  0.50013945  0.62519116  0.15838901  1
  O2-  O213  1  0.50086091  0.62562143  0.67346923  1
  O2-  O214  1  0.49779890  0.87483830  0.16396025  1
  O2-  O215  1  0.50080281  0.87447592  0.66922097  1
  O2-  O216  1  0.75014575  0.12481973  0.16569907  1
  O2-  O217  1  0.75180395  0.12462565  0.66057030  1
  O2-  O218  1  0.74831582  0.37567437  0.16416502  1
  O2-  O219  1  0.75073881  0.37559045  0.66063050  1
  O2-  O220  1  0.74866102  0.62500629  0.16375527  1
  O2-  O221  1  0.74877792  0.62547764  0.66522387  1
  O2-  O222  1  0.74904479  0.87509572  0.16818709  1
  O2-  O223  1  0.74884583  0.87426804  0.66193940  1
  O2-  O224  1  0.12576185  -0.00022371  0.34836934  1
  O2-  O225  1  0.12564186  -0.00182076  0.84850712  1
  O2-  O226  1  0.12532537  0.24813952  0.34937515  1
  O2-  O227  1  0.12484500  0.25044519  0.84961753  1
  O2-  O228  1  0.12529342  0.50005918  0.34980840  1
  O2-  O229  1  0.12493906  0.50207732  0.84449206  1
  O2-  O230  1  0.12546673  0.75142431  0.34685541  1
  O2-  O231  1  0.12553008  0.74907269  0.84454969  1
  O2-  O232  1  0.37510900  -0.00109769  0.34723027  1
  O2-  O233  1  0.37570792  -0.00023583  0.85206204  1
  O2-  O234  1  0.37486474  0.25169559  0.34711696  1
  O2-  O235  1  0.37624059  0.24867853  0.85083351  1
  O2-  O236  1  0.37582811  0.50020790  0.34400561  1
  O2-  O237  1  0.37652810  0.50153555  0.85081149  1
  O2-  O238  1  0.37599821  0.74899618  0.34316326  1
  O2-  O239  1  0.37648900  0.75013871  0.85333182  1
  O2-  O240  1  0.62424137  -0.00288590  0.35115438  1
  O2-  O241  1  0.62403687  0.00067495  0.84323020  1
  O2-  O242  1  0.62502430  0.25219760  0.34512631  1
  O2-  O243  1  0.62481992  0.25103302  0.84743376  1
  O2-  O244  1  0.62477861  0.49908577  0.34160914  1
  O2-  O245  1  0.62476758  0.49999867  0.85333012  1
  O2-  O246  1  0.62419068  0.75168204  0.34959790  1
  O2-  O247  1  0.62414029  0.74860197  0.85019475  1
  O2-  O248  1  0.87497032  0.00029389  0.34957145  1
  O2-  O249  1  0.87435690  0.00177096  0.84520202  1
  O2-  O250  1  0.87470414  0.25113848  0.34866370  1
  O2-  O251  1  0.87381422  0.25002663  0.84154956  1
  O2-  O252  1  0.87431334  0.49871291  0.34740563  1
  O2-  O253  1  0.87371259  0.50009304  0.84266980  1
  O2-  O254  1  0.87417847  0.74967772  0.34851812  1
  O2-  O255  1  0.87394077  0.74798736  0.84646006  1
  O2-  O256  1  0.00000011  0.12493853  0.34939613  1
  O2-  O257  1  -0.00149302  0.12546969  0.84499878  1
  O2-  O258  1  -0.00283658  0.37486629  0.35166157  1
  O2-  O259  1  -0.00200075  0.37545495  0.84153688  1
  O2-  O260  1  -0.00116581  0.62493756  0.34873657  1
  O2-  O261  1  -0.00008920  0.62477915  0.84117120  1
  O2-  O262  1  0.00076219  0.87516157  0.34904254  1
  O2-  O263  1  0.00138358  0.87440625  0.84263392  1
  O2-  O264  1  0.24840111  0.12494587  0.34708903  1
  O2-  O265  1  0.25272409  0.12459419  0.85460313  1
  O2-  O266  1  0.25093114  0.37469304  0.34942970  1
  O2-  O267  1  0.25147507  0.37564926  0.85037909  1
  O2-  O268  1  0.25102329  0.62497875  0.34453849  1
  O2-  O269  1  0.25103519  0.62552032  0.85050575  1
  O2-  O270  1  0.24964042  0.87527594  0.34498107  1
  O2-  O271  1  0.25140860  0.87424217  0.85187263  1
  O2-  O272  1  0.49968644  0.12542414  0.34785787  1
  O2-  O273  1  0.49937464  0.12493248  0.84943388  1
  O2-  O274  1  0.50015489  0.37575647  0.34474492  1
  O2-  O275  1  0.50183071  0.37571579  0.85237936  1
  O2-  O276  1  0.49940322  0.62510543  0.34247158  1
  O2-  O277  1  0.50035739  0.62522130  0.85698608  1
  O2-  O278  1  0.50115930  0.87395706  0.34938208  1
  O2-  O279  1  0.49889923  0.87447728  0.85150499  1
  O2-  O280  1  0.75215964  0.12485534  0.34826869  1
  O2-  O281  1  0.74930206  0.12543833  0.84141436  1
  O2-  O282  1  0.75159157  0.37562250  0.34707133  1
  O2-  O283  1  0.74861574  0.37560484  0.84382551  1
  O2-  O284  1  0.75040428  0.62504820  0.34755846  1
  O2-  O285  1  0.74863157  0.62452688  0.84689525  1
  O2-  O286  1  0.74828086  0.87427102  0.35244842  1
  O2-  O287  1  0.74791027  0.87467366  0.84315600  1
