# generated using pymatgen
data_BaYFeCuO5
_symmetry_space_group_name_H-M   'P 1'
_cell_length_a   15.67657544
_cell_length_b   15.67862197
_cell_length_c   15.49831764
_cell_angle_alpha   89.99808336
_cell_angle_beta   90.00553468
_cell_angle_gamma   89.98933288
_symmetry_Int_Tables_number   1
_chemical_formula_structural   BaYFeCuO5
_chemical_formula_sum   'Ba32 Y32 Fe32 Cu32 O160'
_cell_volume   3809.28646342
_cell_formula_units_Z   32
loop_
 _symmetry_equiv_pos_site_id
 _symmetry_equiv_pos_as_xyz
  1  'x, y, z'
loop_
 _atom_type_symbol
 _atom_type_oxidation_number
  Ba2+  2.0
  Y3+  3.0
  Fe3+  3.0
  Cu2+  2.0
  O2-  -2.0
loop_
 _atom_site_type_symbol
 _atom_site_label
 _atom_site_symmetry_multiplicity
 _atom_site_fract_x
 _atom_site_fract_y
 _atom_site_fract_z
 _atom_site_occupancy
  Ba2+  Ba0  1  0.00495898  -0.00411575  0.02198813  1
  Ba2+  Ba1  1  0.00602244  0.00654975  0.51006254  1
  Ba2+  Ba2  1  0.00410134  0.25823820  0.01107150  1
  Ba2+  Ba3  1  -0.00336102  0.24910023  0.51660126  1
  Ba2+  Ba4  1  -0.00511659  0.49337062  0.01171999  1
  Ba2+  Ba5  1  0.00126934  0.49107577  0.51668301  1
  Ba2+  Ba6  1  -0.00509510  0.75306252  0.02408872  1
  Ba2+  Ba7  1  0.01075966  0.75250670  0.50991174  1
  Ba2+  Ba8  1  0.25222318  -0.00245756  0.01135581  1
  Ba2+  Ba9  1  0.24756403  0.00066020  0.52195528  1
  Ba2+  Ba10  1  0.24940596  0.25520657  0.00759798  1
  Ba2+  Ba11  1  0.24490312  0.24421756  0.52487035  1
  Ba2+  Ba12  1  0.25331265  0.49322675  0.00309846  1
  Ba2+  Ba13  1  0.24107682  0.49853003  0.51940597  1
  Ba2+  Ba14  1  0.25651435  0.75475321  0.00684675  1
  Ba2+  Ba15  1  0.24543814  0.75812017  0.51533378  1
  Ba2+  Ba16  1  0.49396945  -0.00781517  0.00724677  1
  Ba2+  Ba17  1  0.49351688  0.00589179  0.52320403  1
  Ba2+  Ba18  1  0.49419744  0.25639780  -0.00081558  1
  Ba2+  Ba19  1  0.50415195  0.24521565  0.52407538  1
  Ba2+  Ba20  1  0.49964159  0.50061141  -0.00932342  1
  Ba2+  Ba21  1  0.50915812  0.49998886  0.51176252  1
  Ba2+  Ba22  1  0.49938231  0.75010510  -0.00051382  1
  Ba2+  Ba23  1  0.50002987  0.74832875  0.51025428  1
  Ba2+  Ba24  1  0.75013371  -0.00999890  0.01823796  1
  Ba2+  Ba25  1  0.75279188  0.01272456  0.51101301  1
  Ba2+  Ba26  1  0.75152259  0.26116819  0.00256916  1
  Ba2+  Ba27  1  0.75558623  0.25107123  0.51696887  1
  Ba2+  Ba28  1  0.75157420  0.50070099  -0.00021837  1
  Ba2+  Ba29  1  0.74774864  0.49277403  0.51159911  1
  Ba2+  Ba30  1  0.74995968  0.74829369  0.02250053  1
  Ba2+  Ba31  1  0.74462913  0.74328417  0.50654112  1
  Y3+  Y32  1  0.00216231  0.00073072  0.25910598  1
  Y3+  Y33  1  0.00081268  0.00163655  0.75320697  1
  Y3+  Y34  1  -0.00109167  0.25141004  0.25542066  1
  Y3+  Y35  1  -0.00128409  0.25248322  0.75894327  1
  Y3+  Y36  1  -0.00220826  0.49596881  0.25546934  1
  Y3+  Y37  1  0.00014250  0.49618751  0.75914083  1
  Y3+  Y38  1  0.00107901  0.75159580  0.25999571  1
  Y3+  Y39  1  0.00314000  0.75001521  0.75225085  1
  Y3+  Y40  1  0.24822271  -0.00167614  0.25352390  1
  Y3+  Y41  1  0.25158419  -0.00067853  0.75947375  1
  Y3+  Y42  1  0.24868189  0.25163906  0.24961083  1
  Y3+  Y43  1  0.24970210  0.25023890  0.76404141  1
  Y3+  Y44  1  0.24960703  0.49717639  0.25358671  1
  Y3+  Y45  1  0.24865920  0.49896293  0.76176536  1
  Y3+  Y46  1  0.24948245  0.75253321  0.25673908  1
  Y3+  Y47  1  0.25058800  0.75197961  0.75692457  1
  Y3+  Y48  1  0.49816577  -0.00178685  0.25380403  1
  Y3+  Y49  1  0.49625099  0.00038376  0.76047168  1
  Y3+  Y50  1  0.49768355  0.25103391  0.25447237  1
  Y3+  Y51  1  0.49968393  0.25021060  0.76147598  1
  Y3+  Y52  1  0.50013603  0.49975097  0.26083082  1
  Y3+  Y53  1  0.50205039  0.50051185  0.75693209  1
  Y3+  Y54  1  0.49999879  0.75022087  0.25902658  1
  Y3+  Y55  1  0.49845360  0.74920530  0.75593962  1
  Y3+  Y56  1  0.75147491  0.00085697  0.25846554  1
  Y3+  Y57  1  0.75104962  0.00339211  0.75492112  1
  Y3+  Y58  1  0.75409977  0.25128784  0.25892389  1
  Y3+  Y59  1  0.75187935  0.25254728  0.75682602  1
  Y3+  Y60  1  0.75190377  0.49857112  0.26023344  1
  Y3+  Y61  1  0.74949407  0.49789024  0.75547430  1
  Y3+  Y62  1  0.74935570  0.74865309  0.26158914  1
  Y3+  Y63  1  0.74807662  0.74714124  0.75280625  1
  Fe3+  Fe64  1  0.12562289  0.37320496  0.37557129  1
  Fe3+  Fe65  1  0.37316135  0.62384168  0.38251195  1
  Fe3+  Fe66  1  0.62705655  0.87395887  0.87335579  1
  Fe3+  Fe67  1  0.62576029  0.12416402  0.88011411  1
  Fe3+  Fe68  1  0.12605529  0.62357149  0.37624091  1
  Fe3+  Fe69  1  0.87660088  0.62311945  0.38031865  1
  Fe3+  Fe70  1  0.62467278  0.37228143  0.37836386  1
  Fe3+  Fe71  1  0.62349296  0.12596182  0.37481410  1
  Fe3+  Fe72  1  0.87555282  0.62721892  0.87425324  1
  Fe3+  Fe73  1  0.12676802  0.12644412  0.37339829  1
  Fe3+  Fe74  1  0.62378717  0.87740351  0.38030456  1
  Fe3+  Fe75  1  0.37367179  0.37304540  0.38269286  1
  Fe3+  Fe76  1  0.87563239  0.12400246  0.88067874  1
  Fe3+  Fe77  1  0.12329693  0.87455304  0.87595432  1
  Fe3+  Fe78  1  0.12382216  0.62596779  0.87994683  1
  Fe3+  Fe79  1  0.87565900  0.87610637  0.38026371  1
  Fe3+  Fe80  1  0.37393724  0.87712835  0.37861559  1
  Fe3+  Fe81  1  0.12412309  0.12411640  0.87838502  1
  Fe3+  Fe82  1  0.87520716  0.87396339  0.87320597  1
  Fe3+  Fe83  1  0.37375281  0.12591148  0.37587061  1
  Fe3+  Fe84  1  0.87511719  0.12554780  0.13391624  1
  Fe3+  Fe85  1  0.62440130  0.62361484  0.14019930  1
  Fe3+  Fe86  1  0.87510698  0.87550565  0.63144031  1
  Fe3+  Fe87  1  0.37477449  0.37452483  0.63688695  1
  Fe3+  Fe88  1  0.12467652  0.62421950  0.13380748  1
  Fe3+  Fe89  1  0.37365603  0.62462473  0.63621806  1
  Fe3+  Fe90  1  0.62455293  0.37644265  0.13711740  1
  Fe3+  Fe91  1  0.37485897  0.12517360  0.13392255  1
  Fe3+  Fe92  1  0.37620355  0.62437793  0.13809922  1
  Fe3+  Fe93  1  0.62472153  0.87665629  0.63387394  1
  Fe3+  Fe94  1  0.62477480  0.12526680  0.13209295  1
  Fe3+  Fe95  1  0.87648555  0.62413001  0.63331301  1
  Cu2+  Cu96  1  0.12640892  0.87636846  0.37192545  1
  Cu2+  Cu97  1  0.87502549  0.37562998  0.87113779  1
  Cu2+  Cu98  1  0.12410340  0.37541873  0.87306463  1
  Cu2+  Cu99  1  0.62448060  0.62376196  0.37546257  1
  Cu2+  Cu100  1  0.37446176  0.62546550  0.86148557  1
  Cu2+  Cu101  1  0.62558367  0.37533431  0.86222985  1
  Cu2+  Cu102  1  0.37507484  0.37567701  0.86909555  1
  Cu2+  Cu103  1  0.37470641  0.87444303  0.87041210  1
  Cu2+  Cu104  1  0.87622759  0.37391328  0.37347956  1
  Cu2+  Cu105  1  0.62601189  0.62578144  0.85958823  1
  Cu2+  Cu106  1  0.37452574  0.12465785  0.86865600  1
  Cu2+  Cu107  1  0.87631717  0.12601938  0.37141326  1
  Cu2+  Cu108  1  0.87457269  0.62443630  0.15556625  1
  Cu2+  Cu109  1  0.62439358  0.37403555  0.65393337  1
  Cu2+  Cu110  1  0.12476025  0.12537937  0.14447493  1
  Cu2+  Cu111  1  0.37718037  0.37724007  0.14118667  1
  Cu2+  Cu112  1  0.87547681  0.37503973  0.64382826  1
  Cu2+  Cu113  1  0.37568068  0.87280085  0.14250006  1
  Cu2+  Cu114  1  0.62463154  0.87420091  0.15469272  1
  Cu2+  Cu115  1  0.12501302  0.12606175  0.65733688  1
  Cu2+  Cu116  1  0.12487939  0.37625047  0.14053316  1
  Cu2+  Cu117  1  0.87270262  0.37511896  0.14273198  1
  Cu2+  Cu118  1  0.62476157  0.62462854  0.64107624  1
  Cu2+  Cu119  1  0.62512666  0.12516342  0.65708028  1
  Cu2+  Cu120  1  0.37402314  0.12607860  0.65813158  1
  Cu2+  Cu121  1  0.12580155  0.37394685  0.65649367  1
  Cu2+  Cu122  1  0.12506763  0.87654478  0.64225913  1
  Cu2+  Cu123  1  0.87482713  0.87527738  0.15837671  1
  Cu2+  Cu124  1  0.37523444  0.87540612  0.65099371  1
  Cu2+  Cu125  1  0.87593316  0.12590680  0.64323619  1
  Cu2+  Cu126  1  0.12524290  0.87359867  0.15160925  1
  Cu2+  Cu127  1  0.12539630  0.62435785  0.65261405  1
  O2-  O128  1  0.12315003  0.12192707  -0.00163567  1
  O2-  O129  1  0.12705363  0.12682612  0.49375894  1
  O2-  O130  1  0.12471650  0.37774471  0.00619452  1
  O2-  O131  1  0.12701916  0.37202041  0.49586454  1
  O2-  O132  1  0.12289154  0.62693967  0.00643103  1
  O2-  O133  1  0.12698385  0.62358060  0.49633291  1
  O2-  O134  1  0.12181331  0.87264795  -0.00403632  1
  O2-  O135  1  0.12600845  0.87738620  0.50708022  1
  O2-  O136  1  0.37685959  0.12445720  0.01366736  1
  O2-  O137  1  0.37354622  0.12628216  0.49554848  1
  O2-  O138  1  0.37693733  0.37732945  0.00708377  1
  O2-  O139  1  0.37318485  0.37158799  0.50847916  1
  O2-  O140  1  0.37822508  0.62512413  0.01788765  1
  O2-  O141  1  0.37169634  0.62407659  0.50844833  1
  O2-  O142  1  0.37610383  0.87248367  0.00685539  1
  O2-  O143  1  0.37411807  0.87913222  0.49856491  1
  O2-  O144  1  0.62592408  0.12299492  0.00621444  1
  O2-  O145  1  0.62277120  0.12560372  0.49470677  1
  O2-  O146  1  0.62462490  0.37944507  0.01666257  1
  O2-  O147  1  0.62382156  0.36945188  0.49865299  1
  O2-  O148  1  0.62472605  0.62533412  0.02011725  1
  O2-  O149  1  0.62378579  0.62476697  0.50799245  1
  O2-  O150  1  0.62879264  0.87191962  -0.00643309  1
  O2-  O151  1  0.62286069  0.87924329  0.50629023  1
  O2-  O152  1  0.87490667  0.12314195  0.00658810  1
  O2-  O153  1  0.87609800  0.12562534  0.50734135  1
  O2-  O154  1  0.87295338  0.37611612  0.00712213  1
  O2-  O155  1  0.87607356  0.37447777  0.50887190  1
  O2-  O156  1  0.87422348  0.62990790  -0.00578212  1
  O2-  O157  1  0.87734782  0.62248264  0.50641922  1
  O2-  O158  1  0.87366517  0.87204751  -0.00703703  1
  O2-  O159  1  0.87550485  0.87735441  0.50566465  1
  O2-  O160  1  0.12388812  -0.00140807  0.16226667  1
  O2-  O161  1  0.12493216  0.00288842  0.66462492  1
  O2-  O162  1  0.12534460  0.25015880  0.15992949  1
  O2-  O163  1  0.12522495  0.24926382  0.66765921  1
  O2-  O164  1  0.12378571  0.50325026  0.16459915  1
  O2-  O165  1  0.12550729  0.49935723  0.66584177  1
  O2-  O166  1  0.12415396  0.74761871  0.16609974  1
  O2-  O167  1  0.12604262  0.74922296  0.66295286  1
  O2-  O168  1  0.37567322  0.00092747  0.16238369  1
  O2-  O169  1  0.37490716  0.00134743  0.66572511  1
  O2-  O170  1  0.37564631  0.24812240  0.16390719  1
  O2-  O171  1  0.37536398  0.25166310  0.66633384  1
  O2-  O172  1  0.37603793  0.50303632  0.17442323  1
  O2-  O173  1  0.37405269  0.49920967  0.66039795  1
  O2-  O174  1  0.37482086  0.74706521  0.17210247  1
  O2-  O175  1  0.37431862  0.74857670  0.66040829  1
  O2-  O176  1  0.62475278  0.00067691  0.16033492  1
  O2-  O177  1  0.62610382  -0.00100307  0.66359800  1
  O2-  O178  1  0.62533466  0.24825603  0.15969912  1
  O2-  O179  1  0.62406261  0.24926684  0.66920930  1
  O2-  O180  1  0.62551687  0.50054948  0.17347197  1
  O2-  O181  1  0.62495181  0.49859919  0.66445991  1
  O2-  O182  1  0.62627692  0.74929194  0.17165696  1
  O2-  O183  1  0.62444079  0.75376175  0.65885047  1
  O2-  O184  1  0.87508183  0.00133328  0.16301338  1
  O2-  O185  1  0.87408192  -0.00247741  0.66341424  1
  O2-  O186  1  0.87343045  0.24682582  0.16271681  1
  O2-  O187  1  0.87542492  0.25056496  0.66847547  1
  O2-  O188  1  0.87405592  0.50062248  0.16784508  1
  O2-  O189  1  0.87620617  0.50251794  0.66390773  1
  O2-  O190  1  0.87395745  0.75075858  0.17052882  1
  O2-  O191  1  0.87546217  0.75016469  0.65495670  1
  O2-  O192  1  -0.00178018  0.12464463  0.16168981  1
  O2-  O193  1  0.00212749  0.12532154  0.66532900  1
  O2-  O194  1  -0.00137428  0.37509256  0.16322130  1
  O2-  O195  1  0.00238857  0.37474682  0.66609837  1
  O2-  O196  1  0.00009454  0.62592569  0.16232497  1
  O2-  O197  1  -0.00040755  0.62577468  0.66122713  1
  O2-  O198  1  -0.00004254  0.87373024  0.16571482  1
  O2-  O199  1  -0.00292633  0.87511595  0.66039102  1
  O2-  O200  1  0.25007092  0.12437713  0.16037371  1
  O2-  O201  1  0.24882020  0.12571071  0.66670681  1
  O2-  O202  1  0.25070933  0.37684399  0.16197515  1
  O2-  O203  1  0.25147670  0.37469196  0.66569423  1
  O2-  O204  1  0.24864394  0.62456089  0.16192463  1
  O2-  O205  1  0.25141020  0.62422872  0.66687588  1
  O2-  O206  1  0.24874411  0.87357441  0.16201601  1
  O2-  O207  1  0.25139946  0.87573651  0.66650632  1
  O2-  O208  1  0.50143499  0.12431943  0.16346014  1
  O2-  O209  1  0.49997873  0.12454688  0.66724932  1
  O2-  O210  1  0.50296336  0.37533307  0.17151485  1
  O2-  O211  1  0.49801066  0.37496440  0.66352826  1
  O2-  O212  1  0.50091179  0.62573799  0.17386829  1
  O2-  O213  1  0.49620750  0.62471761  0.66372674  1
  O2-  O214  1  0.50126028  0.87343815  0.16788709  1
  O2-  O215  1  0.50135664  0.87650365  0.66323875  1
  O2-  O216  1  0.74984136  0.12252241  0.16225599  1
  O2-  O217  1  0.74919547  0.12608043  0.66701517  1
  O2-  O218  1  0.74729537  0.37472580  0.16936070  1
  O2-  O219  1  0.74843818  0.37439265  0.66496850  1
  O2-  O220  1  0.74998610  0.62601425  0.16978309  1
  O2-  O221  1  0.75334951  0.62558549  0.66071468  1
  O2-  O222  1  0.74982799  0.87534638  0.16860566  1
  O2-  O223  1  0.75011951  0.87490436  0.65708786  1
  O2-  O224  1  0.12591379  0.00213963  0.34480066  1
  O2-  O225  1  0.12380558  -0.00066281  0.84538123  1
  O2-  O226  1  0.12582514  0.25053209  0.34001639  1
  O2-  O227  1  0.12442621  0.24800894  0.85069671  1
  O2-  O228  1  0.12583255  0.49901575  0.34535158  1
  O2-  O229  1  0.12460549  0.50357828  0.85047257  1
  O2-  O230  1  0.12546336  0.74802566  0.34911750  1
  O2-  O231  1  0.12463367  0.74917248  0.84489845  1
  O2-  O232  1  0.37502143  0.00069084  0.34277004  1
  O2-  O233  1  0.37540561  0.00021263  0.84956981  1
  O2-  O234  1  0.37520750  0.25165742  0.34502699  1
  O2-  O235  1  0.37554706  0.24942498  0.85010098  1
  O2-  O236  1  0.37418871  0.49829384  0.35682393  1
  O2-  O237  1  0.37559965  0.50177028  0.84490023  1
  O2-  O238  1  0.37506493  0.74940565  0.35418837  1
  O2-  O239  1  0.37538645  0.74879041  0.84465354  1
  O2-  O240  1  0.62511955  -0.00076151  0.34357091  1
  O2-  O241  1  0.62579280  0.00093335  0.84678162  1
  O2-  O242  1  0.62381022  0.24996595  0.33986395  1
  O2-  O243  1  0.62569088  0.24801549  0.85411264  1
  O2-  O244  1  0.62447808  0.49667927  0.35263907  1
  O2-  O245  1  0.62508677  0.50091755  0.84868889  1
  O2-  O246  1  0.62428447  0.75359529  0.35525518  1
  O2-  O247  1  0.62531679  0.75055789  0.84086580  1
  O2-  O248  1  0.87432012  -0.00238120  0.34769910  1
  O2-  O249  1  0.87453121  0.00067350  0.84593224  1
  O2-  O250  1  0.87586461  0.24993112  0.34567935  1
  O2-  O251  1  0.87397120  0.24668870  0.85223782  1
  O2-  O252  1  0.87577241  0.50180179  0.35094787  1
  O2-  O253  1  0.87499970  0.50272644  0.84686480  1
  O2-  O254  1  0.87524918  0.75003632  0.35533894  1
  O2-  O255  1  0.87488808  0.75051129  0.83554396  1
  O2-  O256  1  0.00275567  0.12484056  0.34458207  1
  O2-  O257  1  -0.00183629  0.12406352  0.84762498  1
  O2-  O258  1  0.00220762  0.37488491  0.34593209  1
  O2-  O259  1  -0.00091054  0.37530149  0.84888910  1
  O2-  O260  1  -0.00022916  0.62508323  0.34644946  1
  O2-  O261  1  0.00126730  0.62643565  0.84427998  1
  O2-  O262  1  -0.00223256  0.87503130  0.35009988  1
  O2-  O263  1  -0.00053733  0.87471526  0.84027774  1
  O2-  O264  1  0.25087427  0.12606584  0.33986008  1
  O2-  O265  1  0.24905972  0.12433116  0.85023109  1
  O2-  O266  1  0.25146056  0.37475379  0.34432578  1
  O2-  O267  1  0.25008693  0.37590844  0.84946162  1
  O2-  O268  1  0.25173882  0.62412460  0.34406820  1
  O2-  O269  1  0.24771765  0.62572002  0.85211601  1
  O2-  O270  1  0.25241143  0.87480134  0.34395587  1
  O2-  O271  1  0.24752377  0.87428732  0.84899062  1
  O2-  O272  1  0.49891116  0.12486966  0.34263675  1
  O2-  O273  1  0.50209354  0.12473480  0.85219897  1
  O2-  O274  1  0.49760485  0.37452736  0.35167804  1
  O2-  O275  1  0.50136272  0.37552728  0.84745164  1
  O2-  O276  1  0.49555837  0.62427055  0.35438228  1
  O2-  O277  1  0.50070119  0.62587631  0.84824920  1
  O2-  O278  1  0.50018034  0.87603238  0.34945391  1
  O2-  O279  1  0.50227873  0.87441556  0.84700451  1
  O2-  O280  1  0.74762417  0.12486173  0.34567656  1
  O2-  O281  1  0.75041553  0.12390887  0.85113558  1
  O2-  O282  1  0.74890138  0.37354298  0.35042832  1
  O2-  O283  1  0.74934809  0.37593463  0.84857617  1
  O2-  O284  1  0.75298895  0.62559551  0.35272080  1
  O2-  O285  1  0.75066207  0.62561585  0.84347760  1
  O2-  O286  1  0.74963651  0.87514935  0.35357727  1
  O2-  O287  1  0.75090649  0.87530868  0.83793247  1
