# generated using pymatgen
data_BaYFeCuO5
_symmetry_space_group_name_H-M   'P 1'
_cell_length_a   15.68198896
_cell_length_b   15.68409149
_cell_length_c   15.52332977
_cell_angle_alpha   90.01659505
_cell_angle_beta   89.99369072
_cell_angle_gamma   90.01190475
_symmetry_Int_Tables_number   1
_chemical_formula_structural   BaYFeCuO5
_chemical_formula_sum   'Ba32 Y32 Fe32 Cu32 O160'
_cell_volume   3818.08299068
_cell_formula_units_Z   32
loop_
 _symmetry_equiv_pos_site_id
 _symmetry_equiv_pos_as_xyz
  1  'x, y, z'
loop_
 _atom_type_symbol
 _atom_type_oxidation_number
  Ba2+  2.0
  Y3+  3.0
  Fe3+  3.0
  Cu2+  2.0
  O2-  -2.0
loop_
 _atom_site_type_symbol
 _atom_site_label
 _atom_site_symmetry_multiplicity
 _atom_site_fract_x
 _atom_site_fract_y
 _atom_site_fract_z
 _atom_site_occupancy
  Ba2+  Ba0  1  -0.00295269  0.00304214  0.01622345  1
  Ba2+  Ba1  1  0.00008258  -0.00054973  0.50647891  1
  Ba2+  Ba2  1  0.00584662  0.24676373  -0.00063707  1
  Ba2+  Ba3  1  -0.00450603  0.25625229  0.50068388  1
  Ba2+  Ba4  1  0.00295930  0.50544383  0.00783590  1
  Ba2+  Ba5  1  -0.00031045  0.50074953  0.51835879  1
  Ba2+  Ba6  1  -0.00313636  0.74417414  0.01629732  1
  Ba2+  Ba7  1  0.00476389  0.74393017  0.52143305  1
  Ba2+  Ba8  1  0.25710040  0.00377330  0.00274000  1
  Ba2+  Ba9  1  0.25629694  -0.00560364  0.52285518  1
  Ba2+  Ba10  1  0.25234152  0.24794163  0.00116019  1
  Ba2+  Ba11  1  0.25612485  0.25611993  0.51140175  1
  Ba2+  Ba12  1  0.25204667  0.50189482  0.01258786  1
  Ba2+  Ba13  1  0.25422459  0.50388045  0.51047003  1
  Ba2+  Ba14  1  0.25605943  0.74661618  0.01160158  1
  Ba2+  Ba15  1  0.25327610  0.74664491  0.52218353  1
  Ba2+  Ba16  1  0.49162710  0.00455676  0.00338366  1
  Ba2+  Ba17  1  0.50009227  0.00022410  0.51919238  1
  Ba2+  Ba18  1  0.49774522  0.24986426  0.00673364  1
  Ba2+  Ba19  1  0.50100742  0.25188183  0.52788003  1
  Ba2+  Ba20  1  0.49548170  0.49512077  0.01126657  1
  Ba2+  Ba21  1  0.49890851  0.50143957  0.52370771  1
  Ba2+  Ba22  1  0.48841135  0.75073774  0.00689909  1
  Ba2+  Ba23  1  0.49639031  0.74579442  0.51121224  1
  Ba2+  Ba24  1  0.75421774  0.00378624  0.01442989  1
  Ba2+  Ba25  1  0.74353108  0.00444441  0.50054371  1
  Ba2+  Ba26  1  0.74266709  0.24934831  0.00645164  1
  Ba2+  Ba27  1  0.74675271  0.25302988  0.51886789  1
  Ba2+  Ba28  1  0.74946935  0.49871783  0.00624821  1
  Ba2+  Ba29  1  0.74817475  0.49924553  0.52926143  1
  Ba2+  Ba30  1  0.75986604  0.74798765  0.01178325  1
  Ba2+  Ba31  1  0.74410777  0.74356866  0.51256064  1
  Y3+  Y32  1  -0.00213720  0.00059004  0.25968030  1
  Y3+  Y33  1  0.00277310  -0.00059946  0.75592883  1
  Y3+  Y34  1  -0.00063718  0.25001142  0.25969318  1
  Y3+  Y35  1  0.00159837  0.25130557  0.75695240  1
  Y3+  Y36  1  0.00137539  0.50089935  0.25499955  1
  Y3+  Y37  1  -0.00051386  0.50141709  0.75963588  1
  Y3+  Y38  1  -0.00094400  0.74795933  0.25425160  1
  Y3+  Y39  1  0.00103668  0.74816189  0.75779381  1
  Y3+  Y40  1  0.25274559  -0.00081587  0.25399729  1
  Y3+  Y41  1  0.25273257  -0.00034095  0.76031391  1
  Y3+  Y42  1  0.25198186  0.25123496  0.25695116  1
  Y3+  Y43  1  0.25137183  0.24884489  0.75866860  1
  Y3+  Y44  1  0.25202748  0.50188697  0.25652485  1
  Y3+  Y45  1  0.25182198  0.50212963  0.75730549  1
  Y3+  Y46  1  0.25339644  0.74740729  0.25482561  1
  Y3+  Y47  1  0.25288221  0.74998061  0.75902544  1
  Y3+  Y48  1  0.49799156  -0.00113997  0.25364736  1
  Y3+  Y49  1  0.49764519  0.00203982  0.76156187  1
  Y3+  Y50  1  0.49874734  0.25156401  0.25073603  1
  Y3+  Y51  1  0.50073901  0.24920855  0.76224386  1
  Y3+  Y52  1  0.49735738  0.50033478  0.25284199  1
  Y3+  Y53  1  0.49925441  0.50054806  0.76065265  1
  Y3+  Y54  1  0.49699755  0.74943605  0.25545200  1
  Y3+  Y55  1  0.49600893  0.74887721  0.75978483  1
  Y3+  Y56  1  0.75082169  0.00047039  0.25810070  1
  Y3+  Y57  1  0.74725547  0.00149095  0.75783655  1
  Y3+  Y58  1  0.74969201  0.24968502  0.25507542  1
  Y3+  Y59  1  0.74655186  0.25142027  0.76017089  1
  Y3+  Y60  1  0.74889041  0.49910663  0.24985555  1
  Y3+  Y61  1  0.74979460  0.50004093  0.76249922  1
  Y3+  Y62  1  0.74995460  0.74992957  0.25525619  1
  Y3+  Y63  1  0.75050942  0.74740511  0.75973438  1
  Fe3+  Fe64  1  0.87433971  0.87296624  0.37977812  1
  Fe3+  Fe65  1  0.87268433  0.37741911  0.37502512  1
  Fe3+  Fe66  1  0.37711380  0.37593437  0.37552660  1
  Fe3+  Fe67  1  0.12650359  0.87354138  0.37705950  1
  Fe3+  Fe68  1  0.12563305  0.62515465  0.37535342  1
  Fe3+  Fe69  1  0.12613722  0.62553471  0.87673751  1
  Fe3+  Fe70  1  0.62424788  0.62297044  0.37390532  1
  Fe3+  Fe71  1  0.37381272  0.37567892  0.87578344  1
  Fe3+  Fe72  1  0.37652616  0.12517450  0.37729078  1
  Fe3+  Fe73  1  0.87625283  0.37467879  0.87931521  1
  Fe3+  Fe74  1  0.12711330  0.12496401  0.38146190  1
  Fe3+  Fe75  1  0.62243526  0.12690588  0.37529974  1
  Fe3+  Fe76  1  0.62414233  0.37610350  0.37434686  1
  Fe3+  Fe77  1  0.87531105  0.12452732  0.87525739  1
  Fe3+  Fe78  1  0.87598397  0.87551055  0.87631179  1
  Fe3+  Fe79  1  0.62408929  0.62588567  0.88039650  1
  Fe3+  Fe80  1  0.62506830  0.87541890  0.88146833  1
  Fe3+  Fe81  1  0.12496823  0.87522265  0.87999776  1
  Fe3+  Fe82  1  0.37547075  0.87447385  0.37598532  1
  Fe3+  Fe83  1  0.87376994  0.62332465  0.37547007  1
  Fe3+  Fe84  1  0.12561883  0.12526481  0.13976715  1
  Fe3+  Fe85  1  0.87449028  0.12547529  0.63621186  1
  Fe3+  Fe86  1  0.12578045  0.37563382  0.63877492  1
  Fe3+  Fe87  1  0.12547342  0.87473402  0.13404423  1
  Fe3+  Fe88  1  0.12582359  0.12546418  0.63508490  1
  Fe3+  Fe89  1  0.62422471  0.62531233  0.13237588  1
  Fe3+  Fe90  1  0.62427156  0.12439839  0.13586597  1
  Fe3+  Fe91  1  0.62464619  0.87510944  0.13373015  1
  Fe3+  Fe92  1  0.12561097  0.37445971  0.13758145  1
  Fe3+  Fe93  1  0.87629019  0.37327480  0.13276603  1
  Fe3+  Fe94  1  0.87389796  0.87485628  0.63431183  1
  Fe3+  Fe95  1  0.62466149  0.87431271  0.64009266  1
  Cu2+  Cu96  1  0.37579570  0.62463183  0.37081970  1
  Cu2+  Cu97  1  0.87394105  0.12588905  0.36702002  1
  Cu2+  Cu98  1  0.37440816  0.87499900  0.87283097  1
  Cu2+  Cu99  1  0.37475668  0.12614040  0.87068962  1
  Cu2+  Cu100  1  0.12558510  0.37605365  0.36421771  1
  Cu2+  Cu101  1  0.62540256  0.12421298  0.86783931  1
  Cu2+  Cu102  1  0.12567607  0.37564260  0.86414690  1
  Cu2+  Cu103  1  0.62417858  0.37536961  0.87420224  1
  Cu2+  Cu104  1  0.37439347  0.62434467  0.87241564  1
  Cu2+  Cu105  1  0.87580775  0.62547590  0.87289308  1
  Cu2+  Cu106  1  0.12445635  0.12426596  0.86131784  1
  Cu2+  Cu107  1  0.62408981  0.87436191  0.36110991  1
  Cu2+  Cu108  1  0.37548641  0.62451130  0.14043784  1
  Cu2+  Cu109  1  0.62439680  0.37565846  0.65918132  1
  Cu2+  Cu110  1  0.62440242  0.37426488  0.13698454  1
  Cu2+  Cu111  1  0.37354790  0.37436136  0.14818357  1
  Cu2+  Cu112  1  0.62466821  0.12483731  0.65613104  1
  Cu2+  Cu113  1  0.37500774  0.37519607  0.65601622  1
  Cu2+  Cu114  1  0.12532664  0.87487660  0.65177851  1
  Cu2+  Cu115  1  0.62450568  0.62541896  0.65854063  1
  Cu2+  Cu116  1  0.87513311  0.37476143  0.65758467  1
  Cu2+  Cu117  1  0.87519221  0.87527831  0.15233357  1
  Cu2+  Cu118  1  0.12563903  0.62452162  0.65515449  1
  Cu2+  Cu119  1  0.37551168  0.62472825  0.64429825  1
  Cu2+  Cu120  1  0.12564568  0.62493627  0.14903971  1
  Cu2+  Cu121  1  0.87469163  0.62324952  0.14021285  1
  Cu2+  Cu122  1  0.87469882  0.62500065  0.65495838  1
  Cu2+  Cu123  1  0.37460737  0.87555858  0.14046080  1
  Cu2+  Cu124  1  0.37499787  0.12543471  0.65357298  1
  Cu2+  Cu125  1  0.37618022  0.87492696  0.65682227  1
  Cu2+  Cu126  1  0.37383582  0.12541995  0.14097318  1
  Cu2+  Cu127  1  0.87569436  0.12643572  0.15324584  1
  O2-  O128  1  0.12380152  0.12457226  0.01979811  1
  O2-  O129  1  0.12658729  0.12492974  0.50834838  1
  O2-  O130  1  0.12459867  0.37240207  0.01789222  1
  O2-  O131  1  0.12396879  0.37497363  0.51893493  1
  O2-  O132  1  0.12530302  0.62618405  -0.00303624  1
  O2-  O133  1  0.12476417  0.62542998  0.49543126  1
  O2-  O134  1  0.12324980  0.87640242  0.00654112  1
  O2-  O135  1  0.12616771  0.87295854  0.49671715  1
  O2-  O136  1  0.37340065  0.12669161  0.00613131  1
  O2-  O137  1  0.37751787  0.12494004  0.49698839  1
  O2-  O138  1  0.37227532  0.37442353  -0.00346923  1
  O2-  O139  1  0.37887245  0.37545381  0.49560404  1
  O2-  O140  1  0.37435380  0.62379839  0.00702448  1
  O2-  O141  1  0.37607843  0.62462598  0.50811544  1
  O2-  O142  1  0.37310958  0.87611309  0.00627043  1
  O2-  O143  1  0.37634360  0.87489048  0.49618289  1
  O2-  O144  1  0.62619480  0.12242650  0.01534322  1
  O2-  O145  1  0.62255084  0.12758403  0.49552068  1
  O2-  O146  1  0.62514870  0.37392119  0.00549220  1
  O2-  O147  1  0.62494864  0.37692635  0.49390783  1
  O2-  O148  1  0.62475657  0.62704939  0.00622219  1
  O2-  O149  1  0.62549066  0.62192418  0.49407825  1
  O2-  O150  1  0.62667406  0.87627397  0.00758746  1
  O2-  O151  1  0.62562734  0.87445439  0.52009750  1
  O2-  O152  1  0.87722911  0.12359382  -0.00481550  1
  O2-  O153  1  0.87328537  0.12639622  0.51631219  1
  O2-  O154  1  0.87796466  0.37225904  0.00595394  1
  O2-  O155  1  0.87133558  0.37836027  0.49489697  1
  O2-  O156  1  0.87598917  0.62495775  0.00590809  1
  O2-  O157  1  0.87291499  0.62231586  0.49500036  1
  O2-  O158  1  0.87727374  0.87662594  -0.00384802  1
  O2-  O159  1  0.87328961  0.87336573  0.50711496  1
  O2-  O160  1  0.12354895  -0.00129314  0.16737594  1
  O2-  O161  1  0.12512954  0.00178706  0.66361023  1
  O2-  O162  1  0.12453912  0.24985418  0.17227940  1
  O2-  O163  1  0.12526805  0.24861162  0.66665201  1
  O2-  O164  1  0.12496763  0.49988090  0.16247503  1
  O2-  O165  1  0.12447223  0.49992701  0.66723853  1
  O2-  O166  1  0.12375548  0.75086377  0.15886229  1
  O2-  O167  1  0.12445773  0.74953438  0.66526083  1
  O2-  O168  1  0.37429700  -0.00017776  0.16430061  1
  O2-  O169  1  0.37505629  0.00015771  0.66628313  1
  O2-  O170  1  0.37346988  0.25154066  0.16420284  1
  O2-  O171  1  0.37487168  0.25023949  0.66537911  1
  O2-  O172  1  0.37447161  0.49801070  0.16205698  1
  O2-  O173  1  0.37538031  0.49886117  0.66675414  1
  O2-  O174  1  0.37499916  0.75039145  0.16337106  1
  O2-  O175  1  0.37550297  0.75110334  0.66726704  1
  O2-  O176  1  0.62647607  -0.00119308  0.16616223  1
  O2-  O177  1  0.62492872  -0.00072308  0.66786150  1
  O2-  O178  1  0.62517541  0.24788934  0.16333599  1
  O2-  O179  1  0.62515653  0.25020185  0.66635534  1
  O2-  O180  1  0.62492132  0.50195351  0.15668428  1
  O2-  O181  1  0.62550478  0.50075989  0.66878675  1
  O2-  O182  1  0.62633103  0.75073242  0.16094946  1
  O2-  O183  1  0.62581194  0.75015154  0.66930685  1
  O2-  O184  1  0.87565964  0.00054889  0.16751157  1
  O2-  O185  1  0.87520127  -0.00097301  0.66200665  1
  O2-  O186  1  0.87665310  0.25176298  0.16479757  1
  O2-  O187  1  0.87504460  0.24912233  0.66736527  1
  O2-  O188  1  0.87561281  0.49592198  0.15795411  1
  O2-  O189  1  0.87480526  0.50006450  0.66826823  1
  O2-  O190  1  0.87480632  0.75045733  0.16414032  1
  O2-  O191  1  0.87464427  0.75142693  0.66195296  1
  O2-  O192  1  0.00076194  0.12419536  0.17090812  1
  O2-  O193  1  0.00137096  0.12439477  0.66285521  1
  O2-  O194  1  -0.00018012  0.37443299  0.16682655  1
  O2-  O195  1  0.00072255  0.37513503  0.66801775  1
  O2-  O196  1  0.00089679  0.62484843  0.16395549  1
  O2-  O197  1  -0.00015049  0.62514404  0.66389033  1
  O2-  O198  1  0.00149915  0.87550272  0.16472878  1
  O2-  O199  1  -0.00235026  0.87526870  0.66190441  1
  O2-  O200  1  0.24812596  0.12463428  0.16871535  1
  O2-  O201  1  0.24873053  0.12474730  0.66286475  1
  O2-  O202  1  0.24955552  0.37490517  0.16710641  1
  O2-  O203  1  0.25009295  0.37473351  0.66509881  1
  O2-  O204  1  0.24951536  0.62498808  0.16427204  1
  O2-  O205  1  0.24937445  0.62561791  0.66519654  1
  O2-  O206  1  0.24658189  0.87499420  0.16242594  1
  O2-  O207  1  0.25109551  0.87523955  0.66552238  1
  O2-  O208  1  0.50089115  0.12421297  0.16094552  1
  O2-  O209  1  0.49987699  0.12467920  0.66697275  1
  O2-  O210  1  0.49709823  0.37444983  0.15866899  1
  O2-  O211  1  0.49982129  0.37552460  0.66667703  1
  O2-  O212  1  0.50292241  0.62562104  0.16160166  1
  O2-  O213  1  0.50100237  0.62530658  0.66894057  1
  O2-  O214  1  0.50287204  0.87505064  0.16086285  1
  O2-  O215  1  0.50064811  0.87521391  0.67029755  1
  O2-  O216  1  0.75022355  0.12436377  0.16353637  1
  O2-  O217  1  0.75038319  0.12517222  0.66701320  1
  O2-  O218  1  0.75312096  0.37363893  0.15837357  1
  O2-  O219  1  0.74979622  0.37517552  0.66875984  1
  O2-  O220  1  0.74689081  0.62534459  0.16038571  1
  O2-  O221  1  0.74981811  0.62514618  0.66840831  1
  O2-  O222  1  0.74896328  0.87562816  0.16318736  1
  O2-  O223  1  0.75136646  0.87471189  0.66833914  1
  O2-  O224  1  0.12410099  0.00056020  0.34959785  1
  O2-  O225  1  0.12390523  -0.00166802  0.84873448  1
  O2-  O226  1  0.12469487  0.24832419  0.35446417  1
  O2-  O227  1  0.12406338  0.24941004  0.85032632  1
  O2-  O228  1  0.12474064  0.50109738  0.34423801  1
  O2-  O229  1  0.12455952  0.50076084  0.84932016  1
  O2-  O230  1  0.12434714  0.75019681  0.34055174  1
  O2-  O231  1  0.12478982  0.75194668  0.84875729  1
  O2-  O232  1  0.37509017  0.00017024  0.34427362  1
  O2-  O233  1  0.37456843  0.00100542  0.85019190  1
  O2-  O234  1  0.37498171  0.24989459  0.34467127  1
  O2-  O235  1  0.37395829  0.25134958  0.84808667  1
  O2-  O236  1  0.37521765  0.49869258  0.34421071  1
  O2-  O237  1  0.37437338  0.49886539  0.84811092  1
  O2-  O238  1  0.37547820  0.75118828  0.34531528  1
  O2-  O239  1  0.37441664  0.74970744  0.85036659  1
  O2-  O240  1  0.62525587  0.00035366  0.34870020  1
  O2-  O241  1  0.62578483  -0.00189075  0.85042956  1
  O2-  O242  1  0.62512562  0.25088376  0.34236906  1
  O2-  O243  1  0.62552239  0.24865976  0.85078521  1
  O2-  O244  1  0.62517467  0.49948334  0.33680896  1
  O2-  O245  1  0.62546752  0.50317168  0.85239728  1
  O2-  O246  1  0.62572547  0.74919670  0.34474302  1
  O2-  O247  1  0.62592757  0.75075239  0.85211255  1
  O2-  O248  1  0.87477047  -0.00209325  0.35321878  1
  O2-  O249  1  0.87568936  -0.00036156  0.84208495  1
  O2-  O250  1  0.87494964  0.25173257  0.34723759  1
  O2-  O251  1  0.87626440  0.25062121  0.84917906  1
  O2-  O252  1  0.87458807  0.50050017  0.33794972  1
  O2-  O253  1  0.87591366  0.49708980  0.85235417  1
  O2-  O254  1  0.87425667  0.75003427  0.34677128  1
  O2-  O255  1  0.87521089  0.75284258  0.84501925  1
  O2-  O256  1  0.00188506  0.12469033  0.35460701  1
  O2-  O257  1  -0.00080095  0.12490631  0.84421026  1
  O2-  O258  1  -0.00052571  0.37502966  0.34882405  1
  O2-  O259  1  -0.00045456  0.37411979  0.85073669  1
  O2-  O260  1  -0.00084642  0.62524496  0.34464280  1
  O2-  O261  1  0.00237382  0.62592729  0.84643576  1
  O2-  O262  1  -0.00127687  0.87508868  0.34911685  1
  O2-  O263  1  0.00165617  0.87556255  0.84529945  1
  O2-  O264  1  0.24995435  0.12485917  0.34909298  1
  O2-  O265  1  0.24765736  0.12473688  0.84726275  1
  O2-  O266  1  0.25075934  0.37478315  0.34948139  1
  O2-  O267  1  0.24959856  0.37436739  0.84636992  1
  O2-  O268  1  0.24919255  0.62520078  0.34652376  1
  O2-  O269  1  0.24858318  0.62549590  0.84673417  1
  O2-  O270  1  0.25018225  0.87533560  0.34298980  1
  O2-  O271  1  0.24684033  0.87615465  0.85030957  1
  O2-  O272  1  0.49932651  0.12474896  0.33987710  1
  O2-  O273  1  0.50141424  0.12495269  0.85096358  1
  O2-  O274  1  0.50052633  0.37521960  0.33899535  1
  O2-  O275  1  0.49794692  0.37494419  0.84922519  1
  O2-  O276  1  0.50138575  0.62528128  0.34322228  1
  O2-  O277  1  0.50190399  0.62607746  0.85189093  1
  O2-  O278  1  0.49921794  0.87481478  0.34296149  1
  O2-  O279  1  0.50271954  0.87501590  0.85370962  1
  O2-  O280  1  0.74821495  0.12460358  0.34594858  1
  O2-  O281  1  0.75140400  0.12451317  0.84839877  1
  O2-  O282  1  0.74902055  0.37523397  0.33860331  1
  O2-  O283  1  0.75304589  0.37457695  0.85295871  1
  O2-  O284  1  0.74997434  0.62514965  0.34016734  1
  O2-  O285  1  0.74760217  0.62583131  0.85203012  1
  O2-  O286  1  0.75149879  0.87504620  0.34885013  1
  O2-  O287  1  0.74933682  0.87560359  0.84998288  1
