# generated using pymatgen
data_BaYFeCuO5
_symmetry_space_group_name_H-M   'P 1'
_cell_length_a   15.66645783
_cell_length_b   15.66912011
_cell_length_c   15.48232458
_cell_angle_alpha   89.99816329
_cell_angle_beta   90.00685729
_cell_angle_gamma   89.99511827
_symmetry_Int_Tables_number   1
_chemical_formula_structural   BaYFeCuO5
_chemical_formula_sum   'Ba32 Y32 Fe32 Cu32 O160'
_cell_volume   3800.59494776
_cell_formula_units_Z   32
loop_
 _symmetry_equiv_pos_site_id
 _symmetry_equiv_pos_as_xyz
  1  'x, y, z'
loop_
 _atom_type_symbol
 _atom_type_oxidation_number
  Ba2+  2.0
  Y3+  3.0
  Fe3+  3.0
  Cu2+  2.0
  O2-  -2.0
loop_
 _atom_site_type_symbol
 _atom_site_label
 _atom_site_symmetry_multiplicity
 _atom_site_fract_x
 _atom_site_fract_y
 _atom_site_fract_z
 _atom_site_occupancy
  Ba2+  Ba0  1  0.00411635  -0.00576077  0.01055732  1
  Ba2+  Ba1  1  0.00195702  0.00227226  0.51989085  1
  Ba2+  Ba2  1  0.00380334  0.24458398  0.01212442  1
  Ba2+  Ba3  1  0.00969031  0.24730225  0.51015514  1
  Ba2+  Ba4  1  -0.00154789  0.51028614  0.01857579  1
  Ba2+  Ba5  1  0.00425902  0.50366245  0.51139756  1
  Ba2+  Ba6  1  -0.00181188  0.75090163  0.01875450  1
  Ba2+  Ba7  1  -0.00293630  0.74803719  0.51887407  1
  Ba2+  Ba8  1  0.25354831  0.00157802  0.01382869  1
  Ba2+  Ba9  1  0.24678207  0.00954833  0.51037458  1
  Ba2+  Ba10  1  0.25372601  0.23919724  0.01167173  1
  Ba2+  Ba11  1  0.24875719  0.24823216  0.51100545  1
  Ba2+  Ba12  1  0.24641196  0.50506589  0.01093799  1
  Ba2+  Ba13  1  0.24920159  0.49658202  0.52252955  1
  Ba2+  Ba14  1  0.24617558  0.75594720  0.01022592  1
  Ba2+  Ba15  1  0.24589154  0.74568398  0.52135654  1
  Ba2+  Ba16  1  0.49697026  0.00270007  0.01366535  1
  Ba2+  Ba17  1  0.50068437  0.00794827  0.50718713  1
  Ba2+  Ba18  1  0.50301671  0.24429190  0.01236947  1
  Ba2+  Ba19  1  0.49806281  0.25099160  0.51756195  1
  Ba2+  Ba20  1  0.50997098  0.49736763  0.00231557  1
  Ba2+  Ba21  1  0.50156768  0.49574903  0.51346131  1
  Ba2+  Ba22  1  0.50533845  0.75522288  -0.00071019  1
  Ba2+  Ba23  1  0.50478562  0.74589584  0.50123499  1
  Ba2+  Ba24  1  0.74567132  -0.00523252  0.01153880  1
  Ba2+  Ba25  1  0.75102800  0.00049428  0.51708789  1
  Ba2+  Ba26  1  0.73940953  0.25136054  0.01176825  1
  Ba2+  Ba27  1  0.74328681  0.24872846  0.51737788  1
  Ba2+  Ba28  1  0.74403309  0.50254020  0.00559053  1
  Ba2+  Ba29  1  0.74555580  0.50342630  0.50073376  1
  Ba2+  Ba30  1  0.75056455  0.75008720  0.00683333  1
  Ba2+  Ba31  1  0.75273475  0.74743824  0.50206582  1
  Y3+  Y32  1  0.00135849  0.00099645  0.25756005  1
  Y3+  Y33  1  0.00129028  -0.00107117  0.75359368  1
  Y3+  Y34  1  0.00338930  0.25010475  0.25984238  1
  Y3+  Y35  1  0.00132955  0.24936229  0.75357611  1
  Y3+  Y36  1  -0.00089934  0.50116291  0.26056755  1
  Y3+  Y37  1  -0.00019028  0.50035579  0.75286431  1
  Y3+  Y38  1  -0.00285514  0.74795431  0.25818118  1
  Y3+  Y39  1  -0.00056674  0.75103142  0.75283693  1
  Y3+  Y40  1  0.25194364  0.00410876  0.25916710  1
  Y3+  Y41  1  0.24947812  0.00173127  0.75494702  1
  Y3+  Y42  1  0.25013142  0.24594905  0.26028050  1
  Y3+  Y43  1  0.25154702  0.24811833  0.75418766  1
  Y3+  Y44  1  0.24856004  0.49888041  0.25643106  1
  Y3+  Y45  1  0.25027858  0.49903011  0.75630717  1
  Y3+  Y46  1  0.25059086  0.75103974  0.25594810  1
  Y3+  Y47  1  0.24857776  0.75068743  0.75629172  1
  Y3+  Y48  1  0.49804856  0.00234130  0.25842351  1
  Y3+  Y49  1  0.49836947  0.00315443  0.75653949  1
  Y3+  Y50  1  0.49991453  0.24899956  0.25730082  1
  Y3+  Y51  1  0.49949819  0.24979652  0.75765150  1
  Y3+  Y52  1  0.50355692  0.49767625  0.25865687  1
  Y3+  Y53  1  0.50188842  0.49685020  0.75794425  1
  Y3+  Y54  1  0.50106409  0.75158747  0.25974946  1
  Y3+  Y55  1  0.50077144  0.74982709  0.75697811  1
  Y3+  Y56  1  0.74870753  -0.00120911  0.25789034  1
  Y3+  Y57  1  0.75089408  0.00051102  0.75550666  1
  Y3+  Y58  1  0.74636391  0.25228789  0.25631563  1
  Y3+  Y59  1  0.74729859  0.25087002  0.75697901  1
  Y3+  Y60  1  0.74869317  0.50020475  0.25964249  1
  Y3+  Y61  1  0.74797311  0.49852657  0.75664217  1
  Y3+  Y62  1  0.75131906  0.74881679  0.26071209  1
  Y3+  Y63  1  0.75108581  0.74982570  0.75550080  1
  Fe3+  Fe64  1  0.12362330  0.62650842  0.87548761  1
  Fe3+  Fe65  1  0.62528330  0.12549857  0.37608301  1
  Fe3+  Fe66  1  0.87575777  0.37479007  0.88013592  1
  Fe3+  Fe67  1  0.12504643  0.87479819  0.37895996  1
  Fe3+  Fe68  1  0.37412915  0.62359667  0.37727715  1
  Fe3+  Fe69  1  0.87571603  0.87508552  0.87560962  1
  Fe3+  Fe70  1  0.12630458  0.62535965  0.37590772  1
  Fe3+  Fe71  1  0.62467248  0.12351719  0.87558649  1
  Fe3+  Fe72  1  0.87585566  0.87628999  0.37771564  1
  Fe3+  Fe73  1  0.87530751  0.12490219  0.87913852  1
  Fe3+  Fe74  1  0.12439617  0.37504638  0.87988354  1
  Fe3+  Fe75  1  0.12532969  0.12359132  0.87600398  1
  Fe3+  Fe76  1  0.87497215  0.37405147  0.37948391  1
  Fe3+  Fe77  1  0.37561859  0.62517697  0.87927329  1
  Fe3+  Fe78  1  0.87471110  0.12582102  0.37670847  1
  Fe3+  Fe79  1  0.37453843  0.37373476  0.88027386  1
  Fe3+  Fe80  1  0.37457922  0.37478154  0.37622642  1
  Fe3+  Fe81  1  0.37426775  0.87535674  0.38088882  1
  Fe3+  Fe82  1  0.87514982  0.62498378  0.87522310  1
  Fe3+  Fe83  1  0.37448973  0.87648704  0.87577362  1
  Fe3+  Fe84  1  0.87424178  0.12439128  0.13370364  1
  Fe3+  Fe85  1  0.62487260  0.62573696  0.13998962  1
  Fe3+  Fe86  1  0.62509398  0.62462833  0.64008712  1
  Fe3+  Fe87  1  0.12522943  0.37475667  0.13446116  1
  Fe3+  Fe88  1  0.62460180  0.87471788  0.14095677  1
  Fe3+  Fe89  1  0.62464059  0.87513968  0.63675467  1
  Fe3+  Fe90  1  0.87430971  0.37540989  0.13440593  1
  Fe3+  Fe91  1  0.37549373  0.87502328  0.63417707  1
  Fe3+  Fe92  1  0.37669514  0.62604456  0.13325386  1
  Fe3+  Fe93  1  0.37566865  0.37535262  0.13346490  1
  Fe3+  Fe94  1  0.12531477  0.87546945  0.14004864  1
  Fe3+  Fe95  1  0.87449112  0.37494812  0.63425102  1
  Cu2+  Cu96  1  0.37554881  0.12592990  0.37322018  1
  Cu2+  Cu97  1  0.62504435  0.87620077  0.36893926  1
  Cu2+  Cu98  1  0.62391948  0.62492493  0.36377657  1
  Cu2+  Cu99  1  0.62421451  0.37370095  0.37419424  1
  Cu2+  Cu100  1  0.62534998  0.87594524  0.86031656  1
  Cu2+  Cu101  1  0.12443638  0.12436113  0.37112992  1
  Cu2+  Cu102  1  0.87558804  0.62438684  0.37455569  1
  Cu2+  Cu103  1  0.62547708  0.62555935  0.86242615  1
  Cu2+  Cu104  1  0.12621806  0.37553003  0.37228674  1
  Cu2+  Cu105  1  0.62539245  0.37346180  0.87256755  1
  Cu2+  Cu106  1  0.37445386  0.12469283  0.87112617  1
  Cu2+  Cu107  1  0.12465370  0.87481792  0.86112017  1
  Cu2+  Cu108  1  0.12527197  0.62555508  0.15139158  1
  Cu2+  Cu109  1  0.12535785  0.12546820  0.64493051  1
  Cu2+  Cu110  1  0.12557175  0.87513215  0.64674661  1
  Cu2+  Cu111  1  0.87437697  0.87498822  0.15180505  1
  Cu2+  Cu112  1  0.62551483  0.12445238  0.15194972  1
  Cu2+  Cu113  1  0.87480522  0.12632687  0.64970789  1
  Cu2+  Cu114  1  0.37510207  0.12513104  0.64126802  1
  Cu2+  Cu115  1  0.37569283  0.87480037  0.15276427  1
  Cu2+  Cu116  1  0.87342436  0.62465103  0.15314916  1
  Cu2+  Cu117  1  0.12511338  0.37438747  0.64241522  1
  Cu2+  Cu118  1  0.12511766  0.62455639  0.65331929  1
  Cu2+  Cu119  1  0.87309696  0.62354897  0.64056420  1
  Cu2+  Cu120  1  0.62463991  0.12484269  0.65231137  1
  Cu2+  Cu121  1  0.37637755  0.62477513  0.65179689  1
  Cu2+  Cu122  1  0.37519009  0.37475628  0.65335142  1
  Cu2+  Cu123  1  0.62492244  0.37488379  0.64267748  1
  Cu2+  Cu124  1  0.62462792  0.37559758  0.14235546  1
  Cu2+  Cu125  1  0.12456044  0.12482355  0.15133026  1
  Cu2+  Cu126  1  0.87431027  0.87511743  0.64777699  1
  Cu2+  Cu127  1  0.37534344  0.12523287  0.14295721  1
  O2-  O128  1  0.12437958  0.12315969  -0.00316474  1
  O2-  O129  1  0.12422574  0.12513756  0.50665028  1
  O2-  O130  1  0.12359379  0.37490183  0.00593283  1
  O2-  O131  1  0.12598131  0.37589307  0.50636836  1
  O2-  O132  1  0.12306241  0.62740868  -0.00404466  1
  O2-  O133  1  0.12764399  0.62438342  0.49617405  1
  O2-  O134  1  0.12499858  0.87477572  0.01885082  1
  O2-  O135  1  0.12443340  0.87348371  0.49873312  1
  O2-  O136  1  0.37533047  0.12357854  0.00782246  1
  O2-  O137  1  0.37577365  0.12590324  0.50795527  1
  O2-  O138  1  0.37517286  0.37482936  0.00659677  1
  O2-  O139  1  0.37390888  0.37645364  0.49677689  1
  O2-  O140  1  0.37645966  0.62709374  0.00610842  1
  O2-  O141  1  0.37279190  0.62303554  0.49695721  1
  O2-  O142  1  0.37501293  0.87513387  -0.00371056  1
  O2-  O143  1  0.37455091  0.87381421  0.50723331  1
  O2-  O144  1  0.62574964  0.12199228  -0.00361341  1
  O2-  O145  1  0.62630757  0.12570093  0.49677079  1
  O2-  O146  1  0.62577806  0.37540826  0.00704192  1
  O2-  O147  1  0.62443062  0.37467096  0.50748258  1
  O2-  O148  1  0.62509060  0.62759597  0.01938075  1
  O2-  O149  1  0.62411300  0.62490230  0.51915561  1
  O2-  O150  1  0.62509972  0.87360669  0.02045420  1
  O2-  O151  1  0.62512710  0.87405537  0.51648485  1
  O2-  O152  1  0.87489210  0.12381963  0.00503422  1
  O2-  O153  1  0.87417159  0.12577896  0.49642237  1
  O2-  O154  1  0.87598197  0.37629692  0.00692965  1
  O2-  O155  1  0.87487809  0.37378161  0.50665109  1
  O2-  O156  1  0.87592840  0.62638331  -0.00442484  1
  O2-  O157  1  0.87466484  0.62378837  0.50698301  1
  O2-  O158  1  0.87562385  0.87435366  -0.00398233  1
  O2-  O159  1  0.87609382  0.87704571  0.49796508  1
  O2-  O160  1  0.12432998  -0.00023651  0.16618269  1
  O2-  O161  1  0.12473520  -0.00048235  0.66382786  1
  O2-  O162  1  0.12524880  0.25187108  0.16240584  1
  O2-  O163  1  0.12510206  0.24979389  0.66770874  1
  O2-  O164  1  0.12428000  0.49887200  0.16068542  1
  O2-  O165  1  0.12540177  0.50087641  0.66759907  1
  O2-  O166  1  0.12540477  0.75027487  0.16590122  1
  O2-  O167  1  0.12544955  0.74918021  0.66289122  1
  O2-  O168  1  0.37535054  -0.00091883  0.16716520  1
  O2-  O169  1  0.37518097  -0.00298769  0.66198827  1
  O2-  O170  1  0.37360386  0.25338645  0.16254476  1
  O2-  O171  1  0.37516850  0.25106773  0.66694606  1
  O2-  O172  1  0.37469345  0.50063889  0.15835169  1
  O2-  O173  1  0.37539978  0.49967726  0.66898606  1
  O2-  O174  1  0.37514532  0.74816690  0.16533762  1
  O2-  O175  1  0.37517808  0.75167241  0.66403161  1
  O2-  O176  1  0.62510330  -0.00045845  0.16617332  1
  O2-  O177  1  0.62505137  -0.00010981  0.66361791  1
  O2-  O178  1  0.62565963  0.24878673  0.16121202  1
  O2-  O179  1  0.62492174  0.24853828  0.66520843  1
  O2-  O180  1  0.62494052  0.50190947  0.16720036  1
  O2-  O181  1  0.62419328  0.50062212  0.66853341  1
  O2-  O182  1  0.62520925  0.74995591  0.17221891  1
  O2-  O183  1  0.62462900  0.75050085  0.66870909  1
  O2-  O184  1  0.87510085  0.00196051  0.16079005  1
  O2-  O185  1  0.87508790  0.00094537  0.66367426  1
  O2-  O186  1  0.87513677  0.25053893  0.15813532  1
  O2-  O187  1  0.87461954  0.25197108  0.66667603  1
  O2-  O188  1  0.87577181  0.49789924  0.16399997  1
  O2-  O189  1  0.87501948  0.49648042  0.66540852  1
  O2-  O190  1  0.87422822  0.74940856  0.16548115  1
  O2-  O191  1  0.87444267  0.75057330  0.66283324  1
  O2-  O192  1  -0.00204377  0.12624217  0.16141245  1
  O2-  O193  1  -0.00094526  0.12577380  0.66578264  1
  O2-  O194  1  0.00022976  0.37472839  0.16175563  1
  O2-  O195  1  -0.00257529  0.37441723  0.66396261  1
  O2-  O196  1  -0.00115957  0.62500009  0.16295797  1
  O2-  O197  1  0.00076067  0.62399807  0.66163276  1
  O2-  O198  1  -0.00042581  0.87461652  0.16442879  1
  O2-  O199  1  -0.00026128  0.87499485  0.66233879  1
  O2-  O200  1  0.24843665  0.12438383  0.16550955  1
  O2-  O201  1  0.24994146  0.12513684  0.66519821  1
  O2-  O202  1  0.24953348  0.37718322  0.15722008  1
  O2-  O203  1  0.25131094  0.37554623  0.66837827  1
  O2-  O204  1  0.25251244  0.62513740  0.15803789  1
  O2-  O205  1  0.25062944  0.62433065  0.66658531  1
  O2-  O206  1  0.25029404  0.87509986  0.16564428  1
  O2-  O207  1  0.25186739  0.87398608  0.66323489  1
  O2-  O208  1  0.50161151  0.12515230  0.16535195  1
  O2-  O209  1  0.50112384  0.12540115  0.66586986  1
  O2-  O210  1  0.49719476  0.37539291  0.16343534  1
  O2-  O211  1  0.49887670  0.37468983  0.66680668  1
  O2-  O212  1  0.49897159  0.62537450  0.16697845  1
  O2-  O213  1  0.50112391  0.62471888  0.67032067  1
  O2-  O214  1  0.50035435  0.87495710  0.17011285  1
  O2-  O215  1  0.49910124  0.87464153  0.66563550  1
  O2-  O216  1  0.75186368  0.12534595  0.16146641  1
  O2-  O217  1  0.74969520  0.12559783  0.66567344  1
  O2-  O218  1  0.75280028  0.37530787  0.16483286  1
  O2-  O219  1  0.75220041  0.37395502  0.66601661  1
  O2-  O220  1  0.74924508  0.62461316  0.16835629  1
  O2-  O221  1  0.74777796  0.62420176  0.66906995  1
  O2-  O222  1  0.74988308  0.87519669  0.16722960  1
  O2-  O223  1  0.74916669  0.87593754  0.66641817  1
  O2-  O224  1  0.12515080  -0.00229691  0.34733194  1
  O2-  O225  1  0.12452352  -0.00012643  0.84649060  1
  O2-  O226  1  0.12451550  0.24976761  0.34726534  1
  O2-  O227  1  0.12400011  0.25146361  0.85038677  1
  O2-  O228  1  0.12562291  0.50210252  0.34335393  1
  O2-  O229  1  0.12495686  0.49914787  0.85034978  1
  O2-  O230  1  0.12577484  0.75044125  0.34532871  1
  O2-  O231  1  0.12505474  0.74949669  0.84561197  1
  O2-  O232  1  0.37483048  -0.00220337  0.35178556  1
  O2-  O233  1  0.37415469  -0.00113188  0.84422952  1
  O2-  O234  1  0.37527963  0.25105769  0.34543176  1
  O2-  O235  1  0.37362870  0.25238331  0.85110321  1
  O2-  O236  1  0.37478517  0.50036180  0.34076621  1
  O2-  O237  1  0.37459679  0.50011838  0.85431447  1
  O2-  O238  1  0.37554814  0.75063253  0.34898883  1
  O2-  O239  1  0.37548596  0.74864305  0.84772575  1
  O2-  O240  1  0.62535005  0.00128539  0.34745504  1
  O2-  O241  1  0.62575653  0.00053672  0.84475463  1
  O2-  O242  1  0.62511520  0.24793635  0.34350580  1
  O2-  O243  1  0.62573732  0.24735466  0.84757173  1
  O2-  O244  1  0.62505082  0.50147538  0.34979525  1
  O2-  O245  1  0.62578510  0.50059874  0.85128185  1
  O2-  O246  1  0.62397499  0.74962328  0.35365059  1
  O2-  O247  1  0.62473182  0.75085885  0.85046526  1
  O2-  O248  1  0.87479210  0.00059871  0.34320185  1
  O2-  O249  1  0.87559386  0.00133519  0.84766062  1
  O2-  O250  1  0.87530391  0.25101225  0.34302265  1
  O2-  O251  1  0.87662167  0.24971686  0.85243325  1
  O2-  O252  1  0.87459421  0.49705785  0.34921589  1
  O2-  O253  1  0.87505768  0.49882809  0.84844196  1
  O2-  O254  1  0.87484474  0.75199947  0.34897657  1
  O2-  O255  1  0.87474829  0.74985159  0.84428887  1
  O2-  O256  1  -0.00219807  0.12553943  0.34415180  1
  O2-  O257  1  -0.00089450  0.12537178  0.84846355  1
  O2-  O258  1  -0.00275778  0.37493298  0.34716362  1
  O2-  O259  1  0.00035892  0.37520473  0.84862290  1
  O2-  O260  1  0.00239912  0.62453392  0.34626621  1
  O2-  O261  1  -0.00038336  0.62426589  0.84267720  1
  O2-  O262  1  0.00023285  0.87530047  0.34467556  1
  O2-  O263  1  -0.00059477  0.87493064  0.84556508  1
  O2-  O264  1  0.25033941  0.12512904  0.34972688  1
  O2-  O265  1  0.24790495  0.12517153  0.84696320  1
  O2-  O266  1  0.25229770  0.37496053  0.34028047  1
  O2-  O267  1  0.24900635  0.37608907  0.85278621  1
  O2-  O268  1  0.25065252  0.62541163  0.33974856  1
  O2-  O269  1  0.25097617  0.62476572  0.85059684  1
  O2-  O270  1  0.25114919  0.87432615  0.34810268  1
  O2-  O271  1  0.25005453  0.87379800  0.84657242  1
  O2-  O272  1  0.50144700  0.12464478  0.34792351  1
  O2-  O273  1  0.50070171  0.12460191  0.84854953  1
  O2-  O274  1  0.49817572  0.37558429  0.34605412  1
  O2-  O275  1  0.49711793  0.37516775  0.85117043  1
  O2-  O276  1  0.49937016  0.62505493  0.34878111  1
  O2-  O277  1  0.49902165  0.62500289  0.85350761  1
  O2-  O278  1  0.49820914  0.87465554  0.35351869  1
  O2-  O279  1  0.49980858  0.87477364  0.84774958  1
  O2-  O280  1  0.75054548  0.12561279  0.34289625  1
  O2-  O281  1  0.75224629  0.12509985  0.84883310  1
  O2-  O282  1  0.75227297  0.37451673  0.34948432  1
  O2-  O283  1  0.75375170  0.37413668  0.85033505  1
  O2-  O284  1  0.74738034  0.62493987  0.35184764  1
  O2-  O285  1  0.75054377  0.62484887  0.84971311  1
  O2-  O286  1  0.75068281  0.87541204  0.34937730  1
  O2-  O287  1  0.75084789  0.87551409  0.84887303  1
