# generated using pymatgen
data_BaYFeCuO5
_symmetry_space_group_name_H-M   'P 1'
_cell_length_a   15.66417527
_cell_length_b   15.66871148
_cell_length_c   15.46752340
_cell_angle_alpha   89.99375775
_cell_angle_beta   89.99863233
_cell_angle_gamma   89.99940574
_symmetry_Int_Tables_number   1
_chemical_formula_structural   BaYFeCuO5
_chemical_formula_sum   'Ba32 Y32 Fe32 Cu32 O160'
_cell_volume   3796.30936734
_cell_formula_units_Z   32
loop_
 _symmetry_equiv_pos_site_id
 _symmetry_equiv_pos_as_xyz
  1  'x, y, z'
loop_
 _atom_type_symbol
 _atom_type_oxidation_number
  Ba2+  2.0
  Y3+  3.0
  Fe3+  3.0
  Cu2+  2.0
  O2-  -2.0
loop_
 _atom_site_type_symbol
 _atom_site_label
 _atom_site_symmetry_multiplicity
 _atom_site_fract_x
 _atom_site_fract_y
 _atom_site_fract_z
 _atom_site_occupancy
  Ba2+  Ba0  1  -0.00570299  -0.00547883  0.01355826  1
  Ba2+  Ba1  1  0.01204433  0.00145483  0.50779994  1
  Ba2+  Ba2  1  -0.00599161  0.25391217  0.02163371  1
  Ba2+  Ba3  1  0.01083426  0.24701333  0.50165670  1
  Ba2+  Ba4  1  0.00066069  0.50292799  0.02135646  1
  Ba2+  Ba5  1  0.00449258  0.49465640  0.50244945  1
  Ba2+  Ba6  1  0.00192332  0.74685389  0.01105968  1
  Ba2+  Ba7  1  0.00560205  0.75699212  0.50763922  1
  Ba2+  Ba8  1  0.25567220  -0.00564841  0.01259404  1
  Ba2+  Ba9  1  0.24705904  0.00816256  0.50720355  1
  Ba2+  Ba10  1  0.25573482  0.25431757  0.02098114  1
  Ba2+  Ba11  1  0.25277120  0.24393284  0.50685081  1
  Ba2+  Ba12  1  0.24934481  0.50288886  0.02017961  1
  Ba2+  Ba13  1  0.25154763  0.48945814  0.50639403  1
  Ba2+  Ba14  1  0.24805300  0.74683642  0.01094552  1
  Ba2+  Ba15  1  0.24531433  0.75776722  0.50745991  1
  Ba2+  Ba16  1  0.50230873  0.00145296  0.02159887  1
  Ba2+  Ba17  1  0.50331654  0.00804219  0.50693753  1
  Ba2+  Ba18  1  0.50495481  0.25002873  0.01501831  1
  Ba2+  Ba19  1  0.49748549  0.24424009  0.50788892  1
  Ba2+  Ba20  1  0.50431887  0.49964810  0.01477101  1
  Ba2+  Ba21  1  0.49850040  0.48939312  0.50712466  1
  Ba2+  Ba22  1  0.50137728  0.74897701  0.02192193  1
  Ba2+  Ba23  1  0.50471826  0.75718275  0.50699733  1
  Ba2+  Ba24  1  0.74761770  0.00153806  0.02184009  1
  Ba2+  Ba25  1  0.73820811  0.00143505  0.50733924  1
  Ba2+  Ba26  1  0.74447636  0.24959165  0.01503881  1
  Ba2+  Ba27  1  0.73901731  0.24741216  0.50187843  1
  Ba2+  Ba28  1  0.74553925  0.49972682  0.01522667  1
  Ba2+  Ba29  1  0.74549896  0.49476248  0.50234714  1
  Ba2+  Ba30  1  0.74881403  0.74897828  0.02225089  1
  Ba2+  Ba31  1  0.74432600  0.75643211  0.50701783  1
  Y3+  Y32  1  0.00061374  0.00031142  0.26028376  1
  Y3+  Y33  1  0.00312858  -0.00055944  0.75528284  1
  Y3+  Y34  1  0.00109982  0.25037343  0.25775358  1
  Y3+  Y35  1  0.00078269  0.24795275  0.75629818  1
  Y3+  Y36  1  0.00119684  0.49951354  0.25556790  1
  Y3+  Y37  1  0.00127565  0.50111259  0.75842881  1
  Y3+  Y38  1  0.00057283  0.74993455  0.25734842  1
  Y3+  Y39  1  0.00334074  0.75143372  0.75812482  1
  Y3+  Y40  1  0.25134285  0.00192442  0.26104629  1
  Y3+  Y41  1  0.24889462  0.00095180  0.75386737  1
  Y3+  Y42  1  0.25100537  0.24893729  0.25871600  1
  Y3+  Y43  1  0.25227209  0.24766946  0.75450914  1
  Y3+  Y44  1  0.24982914  0.49921410  0.25430995  1
  Y3+  Y45  1  0.25018025  0.50024741  0.75865192  1
  Y3+  Y46  1  0.25013058  0.75020853  0.25690137  1
  Y3+  Y47  1  0.24686267  0.75147995  0.75852538  1
  Y3+  Y48  1  0.50112648  0.00266235  0.25979060  1
  Y3+  Y49  1  0.50192414  0.00312011  0.75413501  1
  Y3+  Y50  1  0.50135508  0.24768241  0.25621104  1
  Y3+  Y51  1  0.50097856  0.24775767  0.75859231  1
  Y3+  Y52  1  0.50089248  0.49865668  0.25313700  1
  Y3+  Y53  1  0.50166374  0.49856073  0.76087570  1
  Y3+  Y54  1  0.50114941  0.75152955  0.25716577  1
  Y3+  Y55  1  0.50225972  0.75039192  0.75621851  1
  Y3+  Y56  1  0.74673350  0.00088761  0.25856866  1
  Y3+  Y57  1  0.74593384  0.00164993  0.75523667  1
  Y3+  Y58  1  0.74686009  0.24899075  0.25493488  1
  Y3+  Y59  1  0.74595141  0.24826375  0.76075009  1
  Y3+  Y60  1  0.74816752  0.49920556  0.25400811  1
  Y3+  Y61  1  0.74699090  0.49938342  0.76092325  1
  Y3+  Y62  1  0.74825191  0.75138110  0.25755684  1
  Y3+  Y63  1  0.74748419  0.75040513  0.75602645  1
  Fe3+  Fe64  1  0.37611861  0.87514056  0.87559404  1
  Fe3+  Fe65  1  0.87481102  0.62493206  0.38003036  1
  Fe3+  Fe66  1  0.87466103  0.12507969  0.37952840  1
  Fe3+  Fe67  1  0.37535572  0.12406746  0.87820014  1
  Fe3+  Fe68  1  0.87438025  0.37409624  0.37839149  1
  Fe3+  Fe69  1  0.87384296  0.87524931  0.87500273  1
  Fe3+  Fe70  1  0.87440487  0.62569863  0.87552195  1
  Fe3+  Fe71  1  0.12505333  0.37425499  0.87904087  1
  Fe3+  Fe72  1  0.37567119  0.37381435  0.37369007  1
  Fe3+  Fe73  1  0.37559777  0.62583397  0.87610343  1
  Fe3+  Fe74  1  0.87517793  0.37474260  0.87688228  1
  Fe3+  Fe75  1  0.87458899  0.12404098  0.87698603  1
  Fe3+  Fe76  1  0.62396744  0.62401084  0.37899106  1
  Fe3+  Fe77  1  0.12530113  0.12488953  0.88186913  1
  Fe3+  Fe78  1  0.37520528  0.87634034  0.37892228  1
  Fe3+  Fe79  1  0.87490687  0.87601135  0.37966151  1
  Fe3+  Fe80  1  0.37488448  0.37460185  0.87750141  1
  Fe3+  Fe81  1  0.37519860  0.62465936  0.37963589  1
  Fe3+  Fe82  1  0.62467201  0.87554465  0.87739335  1
  Fe3+  Fe83  1  0.12595633  0.62452366  0.37928479  1
  Fe3+  Fe84  1  0.62429510  0.37409287  0.63899170  1
  Fe3+  Fe85  1  0.12506937  0.12435145  0.13589404  1
  Fe3+  Fe86  1  0.12587940  0.37410006  0.63760985  1
  Fe3+  Fe87  1  0.87469977  0.87624861  0.63323435  1
  Fe3+  Fe88  1  0.37532277  0.87629599  0.63387909  1
  Fe3+  Fe89  1  0.62450074  0.62370542  0.63368395  1
  Fe3+  Fe90  1  0.37501583  0.62451749  0.63211971  1
  Fe3+  Fe91  1  0.87489159  0.62435758  0.63153565  1
  Fe3+  Fe92  1  0.87456510  0.37416448  0.63285523  1
  Fe3+  Fe93  1  0.87458752  0.12586174  0.63241022  1
  Fe3+  Fe94  1  0.12534163  0.87511666  0.14005002  1
  Fe3+  Fe95  1  0.12550641  0.62430616  0.63383614  1
  Cu2+  Cu96  1  0.12566912  0.87537107  0.37184540  1
  Cu2+  Cu97  1  0.12506239  0.62424059  0.87317697  1
  Cu2+  Cu98  1  0.12526366  0.87624272  0.86473641  1
  Cu2+  Cu99  1  0.62446469  0.37509286  0.36104799  1
  Cu2+  Cu100  1  0.62489255  0.62630790  0.87389642  1
  Cu2+  Cu101  1  0.62462011  0.37437469  0.87376901  1
  Cu2+  Cu102  1  0.62476434  0.12586666  0.37040443  1
  Cu2+  Cu103  1  0.62449068  0.12375279  0.87417208  1
  Cu2+  Cu104  1  0.12533861  0.12541819  0.36877256  1
  Cu2+  Cu105  1  0.12579398  0.37509619  0.36126334  1
  Cu2+  Cu106  1  0.62437780  0.87548798  0.37163410  1
  Cu2+  Cu107  1  0.37564369  0.12542707  0.37125176  1
  Cu2+  Cu108  1  0.37458020  0.12473131  0.15055144  1
  Cu2+  Cu109  1  0.12493125  0.12598798  0.64372455  1
  Cu2+  Cu110  1  0.62463686  0.87556305  0.15383888  1
  Cu2+  Cu111  1  0.62494724  0.62543587  0.14442296  1
  Cu2+  Cu112  1  0.87522655  0.87510288  0.15611723  1
  Cu2+  Cu113  1  0.37546986  0.37487271  0.65137349  1
  Cu2+  Cu114  1  0.12518271  0.37436052  0.15124297  1
  Cu2+  Cu115  1  0.62433003  0.87561214  0.64047390  1
  Cu2+  Cu116  1  0.87542758  0.12466299  0.15398925  1
  Cu2+  Cu117  1  0.37536306  0.62559914  0.15291963  1
  Cu2+  Cu118  1  0.37480014  0.87532579  0.15497805  1
  Cu2+  Cu119  1  0.62471586  0.12475275  0.14410332  1
  Cu2+  Cu120  1  0.37561294  0.37494957  0.15100699  1
  Cu2+  Cu121  1  0.87473080  0.62552609  0.15515169  1
  Cu2+  Cu122  1  0.37555737  0.12519649  0.64129878  1
  Cu2+  Cu123  1  0.62516987  0.12655414  0.64338350  1
  Cu2+  Cu124  1  0.12506125  0.62597180  0.14426273  1
  Cu2+  Cu125  1  0.87439221  0.37505347  0.15399894  1
  Cu2+  Cu126  1  0.12563535  0.87549861  0.64249126  1
  Cu2+  Cu127  1  0.62480822  0.37453933  0.14350661  1
  O2-  O128  1  0.12430556  0.12397638  0.00786199  1
  O2-  O129  1  0.12533682  0.12675667  0.50715801  1
  O2-  O130  1  0.12363174  0.37548575  -0.00082337  1
  O2-  O131  1  0.12560560  0.37445847  0.51667506  1
  O2-  O132  1  0.12435968  0.62525805  0.00719349  1
  O2-  O133  1  0.12580076  0.62348890  0.50673644  1
  O2-  O134  1  0.12441398  0.87457127  0.01930773  1
  O2-  O135  1  0.12534842  0.87486379  0.50739166  1
  O2-  O136  1  0.37394676  0.12321957  -0.00150913  1
  O2-  O137  1  0.37485256  0.12517430  0.50660668  1
  O2-  O138  1  0.37393299  0.37684153  -0.00221160  1
  O2-  O139  1  0.37482600  0.37327928  0.49483467  1
  O2-  O140  1  0.37538320  0.62659592  -0.00346226  1
  O2-  O141  1  0.37456062  0.62333251  0.50546994  1
  O2-  O142  1  0.37653888  0.87316845  -0.00437735  1
  O2-  O143  1  0.37484388  0.87655470  0.50620693  1
  O2-  O144  1  0.62535596  0.12326574  0.00863773  1
  O2-  O145  1  0.62484679  0.12713869  0.50650600  1
  O2-  O146  1  0.62572465  0.37523542  0.00850864  1
  O2-  O147  1  0.62472497  0.37516040  0.51802475  1
  O2-  O148  1  0.62559769  0.62687763  0.00740449  1
  O2-  O149  1  0.62406440  0.62247233  0.50648962  1
  O2-  O150  1  0.62550682  0.87443304  -0.00218969  1
  O2-  O151  1  0.62461803  0.87456033  0.50603824  1
  O2-  O152  1  0.87596527  0.12362171  -0.00300398  1
  O2-  O153  1  0.87522031  0.12628664  0.50590061  1
  O2-  O154  1  0.87611740  0.37635664  -0.00299069  1
  O2-  O155  1  0.87482161  0.37398980  0.50642128  1
  O2-  O156  1  0.87469449  0.62606610  -0.00427639  1
  O2-  O157  1  0.87547655  0.62379545  0.50566675  1
  O2-  O158  1  0.87334187  0.87405814  -0.00500009  1
  O2-  O159  1  0.87512511  0.87620505  0.50614382  1
  O2-  O160  1  0.12446329  0.00114703  0.16626875  1
  O2-  O161  1  0.12463772  0.00038622  0.66569772  1
  O2-  O162  1  0.12419337  0.24813609  0.16213520  1
  O2-  O163  1  0.12439158  0.25234063  0.66874551  1
  O2-  O164  1  0.12466202  0.49874676  0.16684654  1
  O2-  O165  1  0.12485744  0.50102162  0.66344892  1
  O2-  O166  1  0.12492832  0.75214429  0.17075394  1
  O2-  O167  1  0.12480108  0.74633330  0.66250400  1
  O2-  O168  1  0.37449741  -0.00014161  0.16650031  1
  O2-  O169  1  0.37503028  -0.00224174  0.66232539  1
  O2-  O170  1  0.37413647  0.24991149  0.16266235  1
  O2-  O171  1  0.37507931  0.25132824  0.66535394  1
  O2-  O172  1  0.37492778  0.50033876  0.16567327  1
  O2-  O173  1  0.37491096  0.50219817  0.66090372  1
  O2-  O174  1  0.37493056  0.75044180  0.16947593  1
  O2-  O175  1  0.37480108  0.74886624  0.65655905  1
  O2-  O176  1  0.62516604  -0.00097078  0.16708812  1
  O2-  O177  1  0.62523569  0.00088375  0.66272608  1
  O2-  O178  1  0.62537411  0.24936081  0.16456579  1
  O2-  O179  1  0.62564257  0.25232125  0.66939359  1
  O2-  O180  1  0.62536087  0.50009461  0.16623699  1
  O2-  O181  1  0.62493150  0.50101357  0.66650136  1
  O2-  O182  1  0.62521172  0.75171033  0.16888466  1
  O2-  O183  1  0.62533890  0.74595960  0.66042262  1
  O2-  O184  1  0.87565452  -0.00030437  0.16758615  1
  O2-  O185  1  0.87517155  0.00049658  0.65846682  1
  O2-  O186  1  0.87590634  0.24986247  0.16632278  1
  O2-  O187  1  0.87554569  0.25095469  0.66186902  1
  O2-  O188  1  0.87513792  0.50034871  0.16817275  1
  O2-  O189  1  0.87542131  0.49990279  0.65899875  1
  O2-  O190  1  0.87502667  0.75037246  0.16971486  1
  O2-  O191  1  0.87482793  0.74894730  0.65623289  1
  O2-  O192  1  0.00166674  0.12477777  0.16568946  1
  O2-  O193  1  -0.00342713  0.12547952  0.66403926  1
  O2-  O194  1  -0.00059700  0.37549640  0.16767497  1
  O2-  O195  1  -0.00131851  0.37597665  0.66219368  1
  O2-  O196  1  -0.00127751  0.62518040  0.16901042  1
  O2-  O197  1  -0.00003044  0.62421390  0.65967476  1
  O2-  O198  1  0.00054172  0.87520622  0.16900996  1
  O2-  O199  1  -0.00321316  0.87446368  0.66323908  1
  O2-  O200  1  0.24809172  0.12462886  0.16388621  1
  O2-  O201  1  0.24984305  0.12533885  0.66573492  1
  O2-  O202  1  0.25063139  0.37554251  0.16378946  1
  O2-  O203  1  0.25017458  0.37594712  0.66423529  1
  O2-  O204  1  0.25139934  0.62544332  0.16738953  1
  O2-  O205  1  0.24987857  0.62446803  0.66070588  1
  O2-  O206  1  0.24960415  0.87535401  0.16787347  1
  O2-  O207  1  0.25306224  0.87400320  0.66432810  1
  O2-  O208  1  0.49824304  0.12444515  0.16572973  1
  O2-  O209  1  0.50090735  0.12595419  0.66425004  1
  O2-  O210  1  0.49878143  0.37542163  0.16488504  1
  O2-  O211  1  0.50007927  0.37620642  0.66471759  1
  O2-  O212  1  0.49894500  0.62600343  0.16799207  1
  O2-  O213  1  0.49990005  0.62464958  0.65911240  1
  O2-  O214  1  0.49933522  0.87448603  0.16600315  1
  O2-  O215  1  0.49747288  0.87363024  0.66142493  1
  O2-  O216  1  0.75168827  0.12446926  0.16752341  1
  O2-  O217  1  0.75298598  0.12592169  0.66274915  1
  O2-  O218  1  0.75107026  0.37515623  0.16828406  1
  O2-  O219  1  0.75135927  0.37627985  0.66330498  1
  O2-  O220  1  0.75106622  0.62578720  0.16964184  1
  O2-  O221  1  0.75007569  0.62376485  0.65818282  1
  O2-  O222  1  0.75042516  0.87477458  0.16711155  1
  O2-  O223  1  0.75263781  0.87463128  0.66070459  1
  O2-  O224  1  0.12463644  0.00002302  0.34854197  1
  O2-  O225  1  0.12483148  0.00223703  0.84984964  1
  O2-  O226  1  0.12445873  0.25131601  0.34636160  1
  O2-  O227  1  0.12422316  0.24821079  0.84959127  1
  O2-  O228  1  0.12490473  0.50230223  0.35133848  1
  O2-  O229  1  0.12481468  0.49710788  0.84416923  1
  O2-  O230  1  0.12470901  0.74649358  0.35304418  1
  O2-  O231  1  0.12477058  0.75200314  0.84725955  1
  O2-  O232  1  0.37489427  -0.00171104  0.35092062  1
  O2-  O233  1  0.37381220  -0.00019586  0.84351160  1
  O2-  O234  1  0.37501139  0.25118650  0.34566040  1
  O2-  O235  1  0.37405212  0.24918782  0.84698153  1
  O2-  O236  1  0.37477966  0.50148311  0.34926719  1
  O2-  O237  1  0.37452068  0.49988100  0.84376142  1
  O2-  O238  1  0.37484816  0.74905963  0.35450153  1
  O2-  O239  1  0.37468832  0.75083019  0.83954757  1
  O2-  O240  1  0.62524888  0.00027609  0.35018188  1
  O2-  O241  1  0.62495187  -0.00189007  0.84456074  1
  O2-  O242  1  0.62574939  0.25173272  0.34781710  1
  O2-  O243  1  0.62521671  0.24922806  0.85176087  1
  O2-  O244  1  0.62531022  0.50197639  0.35027844  1
  O2-  O245  1  0.62518165  0.49985748  0.84945301  1
  O2-  O246  1  0.62517333  0.74627833  0.35240315  1
  O2-  O247  1  0.62509414  0.75268112  0.84204993  1
  O2-  O248  1  0.87553386  0.00039063  0.35262896  1
  O2-  O249  1  0.87588339  -0.00024419  0.84094641  1
  O2-  O250  1  0.87530941  0.25049831  0.35170520  1
  O2-  O251  1  0.87600979  0.24920550  0.84417262  1
  O2-  O252  1  0.87523253  0.50005229  0.35380743  1
  O2-  O253  1  0.87539817  0.49971256  0.84188121  1
  O2-  O254  1  0.87517912  0.74920412  0.35479341  1
  O2-  O255  1  0.87540231  0.75105490  0.83932340  1
  O2-  O256  1  -0.00291421  0.12567798  0.35009327  1
  O2-  O257  1  0.00161687  0.12429824  0.84653469  1
  O2-  O258  1  -0.00142390  0.37558129  0.35257779  1
  O2-  O259  1  0.00019565  0.37442994  0.84240759  1
  O2-  O260  1  -0.00036752  0.62440716  0.35360406  1
  O2-  O261  1  -0.00219313  0.62562784  0.84273410  1
  O2-  O262  1  -0.00297458  0.87438208  0.35163072  1
  O2-  O263  1  -0.00020149  0.87533486  0.84665671  1
  O2-  O264  1  0.24987386  0.12548908  0.34800007  1
  O2-  O265  1  0.24859980  0.12454155  0.84829472  1
  O2-  O266  1  0.25059232  0.37599238  0.34688100  1
  O2-  O267  1  0.24973861  0.37444371  0.84489592  1
  O2-  O268  1  0.25064287  0.62503757  0.35183684  1
  O2-  O269  1  0.25210347  0.62566790  0.84379341  1
  O2-  O270  1  0.25294684  0.87402409  0.35056450  1
  O2-  O271  1  0.25027984  0.87495269  0.84773348  1
  O2-  O272  1  0.50063935  0.12561876  0.34910945  1
  O2-  O273  1  0.49790161  0.12427075  0.84664619  1
  O2-  O274  1  0.50012359  0.37638076  0.34757902  1
  O2-  O275  1  0.49758675  0.37498805  0.84665451  1
  O2-  O276  1  0.49935677  0.62472511  0.35250834  1
  O2-  O277  1  0.49768008  0.62557589  0.84205379  1
  O2-  O278  1  0.49715105  0.87387114  0.35033341  1
  O2-  O279  1  0.50007532  0.87484766  0.84213745  1
  O2-  O280  1  0.75287872  0.12555744  0.35112253  1
  O2-  O281  1  0.75165550  0.12434289  0.84529407  1
  O2-  O282  1  0.75117243  0.37595414  0.35276260  1
  O2-  O283  1  0.75232078  0.37473327  0.84488422  1
  O2-  O284  1  0.75037471  0.62432399  0.35457611  1
  O2-  O285  1  0.75241804  0.62568536  0.84120161  1
  O2-  O286  1  0.75308231  0.87448736  0.35124949  1
  O2-  O287  1  0.74966190  0.87500894  0.84126294  1
