# generated using pymatgen
data_BaYFeCuO5
_symmetry_space_group_name_H-M   'P 1'
_cell_length_a   15.68108299
_cell_length_b   15.67813639
_cell_length_c   15.51148793
_cell_angle_alpha   90.00652935
_cell_angle_beta   90.00074807
_cell_angle_gamma   89.99704816
_symmetry_Int_Tables_number   1
_chemical_formula_structural   BaYFeCuO5
_chemical_formula_sum   'Ba32 Y32 Fe32 Cu32 O160'
_cell_volume   3813.50172706
_cell_formula_units_Z   32
loop_
 _symmetry_equiv_pos_site_id
 _symmetry_equiv_pos_as_xyz
  1  'x, y, z'
loop_
 _atom_type_symbol
 _atom_type_oxidation_number
  Ba2+  2.0
  Y3+  3.0
  Fe3+  3.0
  Cu2+  2.0
  O2-  -2.0
loop_
 _atom_site_type_symbol
 _atom_site_label
 _atom_site_symmetry_multiplicity
 _atom_site_fract_x
 _atom_site_fract_y
 _atom_site_fract_z
 _atom_site_occupancy
  Ba2+  Ba0  1  -0.00063239  0.00178909  0.01540071  1
  Ba2+  Ba1  1  0.00194107  -0.00319340  0.51175118  1
  Ba2+  Ba2  1  -0.00354372  0.25600407  0.02317258  1
  Ba2+  Ba3  1  -0.00784875  0.24669859  0.50467108  1
  Ba2+  Ba4  1  -0.00597646  0.49684259  0.01834978  1
  Ba2+  Ba5  1  -0.01218987  0.49909530  0.51150791  1
  Ba2+  Ba6  1  -0.00303821  0.74538787  0.01090155  1
  Ba2+  Ba7  1  -0.00388102  0.75806679  0.51916561  1
  Ba2+  Ba8  1  0.25629066  -0.00259470  0.01193206  1
  Ba2+  Ba9  1  0.24764968  -0.00151643  0.51300496  1
  Ba2+  Ba10  1  0.25483906  0.25514267  0.02341827  1
  Ba2+  Ba11  1  0.25672935  0.24522163  0.51510091  1
  Ba2+  Ba12  1  0.25667527  0.49728114  0.01965396  1
  Ba2+  Ba13  1  0.25673367  0.49387352  0.50620609  1
  Ba2+  Ba14  1  0.25811430  0.74961582  0.00640481  1
  Ba2+  Ba15  1  0.24770142  0.76219528  0.50076734  1
  Ba2+  Ba16  1  0.50222816  -0.00225780  0.00169047  1
  Ba2+  Ba17  1  0.50152745  0.00050158  0.51934321  1
  Ba2+  Ba18  1  0.49944914  0.25175618  0.01748352  1
  Ba2+  Ba19  1  0.50052773  0.24998792  0.51946573  1
  Ba2+  Ba20  1  0.49802630  0.50126981  0.01312546  1
  Ba2+  Ba21  1  0.50436324  0.49385825  0.50718393  1
  Ba2+  Ba22  1  0.50044098  0.74853104  -0.00231625  1
  Ba2+  Ba23  1  0.50587030  0.75498651  0.50098654  1
  Ba2+  Ba24  1  0.74197852  0.00156439  0.00578982  1
  Ba2+  Ba25  1  0.74952653  -0.00137564  0.51998049  1
  Ba2+  Ba26  1  0.74911036  0.25232725  0.01813051  1
  Ba2+  Ba27  1  0.75089186  0.25162555  0.51146591  1
  Ba2+  Ba28  1  0.75070513  0.50110595  0.01241701  1
  Ba2+  Ba29  1  0.75046572  0.49814496  0.51165189  1
  Ba2+  Ba30  1  0.74445328  0.74483627  0.00258395  1
  Ba2+  Ba31  1  0.75049765  0.75173531  0.52113504  1
  Y3+  Y32  1  0.00025879  -0.00047533  0.25622607  1
  Y3+  Y33  1  0.00197152  -0.00076512  0.75590651  1
  Y3+  Y34  1  -0.00336228  0.25080774  0.25914116  1
  Y3+  Y35  1  0.00001385  0.25023132  0.75290275  1
  Y3+  Y36  1  -0.00279385  0.49956000  0.25794551  1
  Y3+  Y37  1  -0.00304879  0.50073873  0.75573485  1
  Y3+  Y38  1  0.00095329  0.75122361  0.25542985  1
  Y3+  Y39  1  -0.00133753  0.74912896  0.75868909  1
  Y3+  Y40  1  0.24937115  -0.00263647  0.25825680  1
  Y3+  Y41  1  0.24972023  0.00022161  0.75594427  1
  Y3+  Y42  1  0.25220109  0.25144295  0.25959846  1
  Y3+  Y43  1  0.25108921  0.24899114  0.75177783  1
  Y3+  Y44  1  0.25260581  0.49987298  0.25928873  1
  Y3+  Y45  1  0.25186435  0.50011001  0.75525696  1
  Y3+  Y46  1  0.24980477  0.75228254  0.25728273  1
  Y3+  Y47  1  0.25070746  0.75004679  0.75912160  1
  Y3+  Y48  1  0.50014188  -0.00113547  0.25493787  1
  Y3+  Y49  1  0.50227998  -0.00022710  0.76083586  1
  Y3+  Y50  1  0.49904001  0.25171854  0.25844286  1
  Y3+  Y51  1  0.50097916  0.24959659  0.75369744  1
  Y3+  Y52  1  0.49925897  0.49997979  0.25925513  1
  Y3+  Y53  1  0.49926099  0.49968883  0.75692887  1
  Y3+  Y54  1  0.50078950  0.75020426  0.25588517  1
  Y3+  Y55  1  0.50042916  0.74942135  0.76280824  1
  Y3+  Y56  1  0.75044997  0.00080514  0.25250378  1
  Y3+  Y57  1  0.74634863  -0.00080565  0.76103101  1
  Y3+  Y58  1  0.75239985  0.25092829  0.25852243  1
  Y3+  Y59  1  0.74811446  0.25084472  0.75457816  1
  Y3+  Y60  1  0.75080611  0.49978149  0.25768441  1
  Y3+  Y61  1  0.75165118  0.50045406  0.75678559  1
  Y3+  Y62  1  0.74891813  0.74911354  0.25305903  1
  Y3+  Y63  1  0.74960769  0.74854232  0.76290779  1
  Fe3+  Fe64  1  0.87384103  0.87546699  0.37398589  1
  Fe3+  Fe65  1  0.37611718  0.62675029  0.38078253  1
  Fe3+  Fe66  1  0.87550550  0.87544059  0.87938855  1
  Fe3+  Fe67  1  0.12541576  0.37444804  0.87591040  1
  Fe3+  Fe68  1  0.37476390  0.12674772  0.87622123  1
  Fe3+  Fe69  1  0.62680025  0.87601463  0.37465437  1
  Fe3+  Fe70  1  0.62464199  0.37477888  0.87615184  1
  Fe3+  Fe71  1  0.12532601  0.87541343  0.87935325  1
  Fe3+  Fe72  1  0.12460480  0.12451342  0.37610730  1
  Fe3+  Fe73  1  0.62560672  0.37461192  0.37611877  1
  Fe3+  Fe74  1  0.12365922  0.62593565  0.38043983  1
  Fe3+  Fe75  1  0.12547320  0.62228805  0.87980774  1
  Fe3+  Fe76  1  0.37662739  0.12320169  0.37648942  1
  Fe3+  Fe77  1  0.87525167  0.37396010  0.87450548  1
  Fe3+  Fe78  1  0.62609550  0.12394237  0.37719915  1
  Fe3+  Fe79  1  0.87513111  0.12673786  0.87856960  1
  Fe3+  Fe80  1  0.12522996  0.12729225  0.87993679  1
  Fe3+  Fe81  1  0.87352941  0.62753396  0.37655827  1
  Fe3+  Fe82  1  0.37444515  0.37411388  0.87322725  1
  Fe3+  Fe83  1  0.12441068  0.37495077  0.37922277  1
  Fe3+  Fe84  1  0.37617366  0.87394288  0.64014148  1
  Fe3+  Fe85  1  0.12522327  0.62565863  0.63312612  1
  Fe3+  Fe86  1  0.37568217  0.62630562  0.63426179  1
  Fe3+  Fe87  1  0.37645631  0.87440352  0.13878625  1
  Fe3+  Fe88  1  0.12591319  0.62453667  0.13612531  1
  Fe3+  Fe89  1  0.12613170  0.12581439  0.13527502  1
  Fe3+  Fe90  1  0.12406304  0.37485504  0.63201005  1
  Fe3+  Fe91  1  0.62381745  0.12579008  0.13741219  1
  Fe3+  Fe92  1  0.62384948  0.62451518  0.13923284  1
  Fe3+  Fe93  1  0.87459178  0.12354178  0.63894276  1
  Fe3+  Fe94  1  0.62446828  0.62540269  0.63914794  1
  Fe3+  Fe95  1  0.87386802  0.87459857  0.13290156  1
  Cu2+  Cu96  1  0.62504948  0.87444126  0.87485502  1
  Cu2+  Cu97  1  0.37395265  0.62287705  0.87367805  1
  Cu2+  Cu98  1  0.87420301  0.37546358  0.37278935  1
  Cu2+  Cu99  1  0.87591126  0.62312190  0.87474216  1
  Cu2+  Cu100  1  0.37611808  0.87605448  0.36338665  1
  Cu2+  Cu101  1  0.87409043  0.12337942  0.36187467  1
  Cu2+  Cu102  1  0.62592893  0.62585723  0.36430674  1
  Cu2+  Cu103  1  0.62481485  0.12766196  0.86340808  1
  Cu2+  Cu104  1  0.62458875  0.62199730  0.86296248  1
  Cu2+  Cu105  1  0.37600451  0.37384500  0.37415586  1
  Cu2+  Cu106  1  0.12330390  0.87543591  0.37142049  1
  Cu2+  Cu107  1  0.37418671  0.87567956  0.86279305  1
  Cu2+  Cu108  1  0.62477089  0.37561377  0.15316829  1
  Cu2+  Cu109  1  0.87411484  0.87542711  0.65839497  1
  Cu2+  Cu110  1  0.62437340  0.87438199  0.13997745  1
  Cu2+  Cu111  1  0.87485769  0.12500654  0.14807985  1
  Cu2+  Cu112  1  0.12507231  0.37558802  0.15557672  1
  Cu2+  Cu113  1  0.12523698  0.87481295  0.14534369  1
  Cu2+  Cu114  1  0.87389407  0.37550992  0.15542820  1
  Cu2+  Cu115  1  0.62537619  0.37576226  0.65078160  1
  Cu2+  Cu116  1  0.87445651  0.62526123  0.14171334  1
  Cu2+  Cu117  1  0.37580723  0.12320128  0.65177741  1
  Cu2+  Cu118  1  0.37507154  0.12474114  0.15167926  1
  Cu2+  Cu119  1  0.62462441  0.87355943  0.65825458  1
  Cu2+  Cu120  1  0.37589963  0.37545563  0.15723948  1
  Cu2+  Cu121  1  0.12564605  0.87398417  0.64537056  1
  Cu2+  Cu122  1  0.62553125  0.12436932  0.65103091  1
  Cu2+  Cu123  1  0.87449442  0.62597084  0.65260876  1
  Cu2+  Cu124  1  0.37553325  0.37546825  0.63948105  1
  Cu2+  Cu125  1  0.87442944  0.37444887  0.64079010  1
  Cu2+  Cu126  1  0.37543221  0.62594980  0.14461049  1
  Cu2+  Cu127  1  0.12455850  0.12453188  0.64775231  1
  O2-  O128  1  0.12621053  0.12826631  0.00578393  1
  O2-  O129  1  0.12445639  0.12369696  0.49623066  1
  O2-  O130  1  0.12591930  0.37472756  -0.00479454  1
  O2-  O131  1  0.12379982  0.37434363  0.50532035  1
  O2-  O132  1  0.12640261  0.62121944  0.00722847  1
  O2-  O133  1  0.12370894  0.62680407  0.50664900  1
  O2-  O134  1  0.12533742  0.87704642  -0.00119058  1
  O2-  O135  1  0.12387592  0.87530443  0.50661049  1
  O2-  O136  1  0.37340780  0.12927729  -0.00389739  1
  O2-  O137  1  0.37610556  0.12191969  0.49660802  1
  O2-  O138  1  0.37392156  0.37423857  -0.00655638  1
  O2-  O139  1  0.37611115  0.37393950  0.50629559  1
  O2-  O140  1  0.37391681  0.62352613  0.00806487  1
  O2-  O141  1  0.37608592  0.62771101  0.50822971  1
  O2-  O142  1  0.37559859  0.87382093  0.01805477  1
  O2-  O143  1  0.37674372  0.87512274  0.51982473  1
  O2-  O144  1  0.62330606  0.12777455  0.01689390  1
  O2-  O145  1  0.62594315  0.12247212  0.49708624  1
  O2-  O146  1  0.62435119  0.37491710  -0.00402477  1
  O2-  O147  1  0.62613303  0.37341394  0.49666497  1
  O2-  O148  1  0.62272522  0.62211680  0.01859029  1
  O2-  O149  1  0.62544571  0.62775707  0.51936564  1
  O2-  O150  1  0.62406628  0.87467163  0.00596477  1
  O2-  O151  1  0.62812747  0.87665449  0.49459522  1
  O2-  O152  1  0.87660424  0.12961442  -0.00164632  1
  O2-  O153  1  0.87468883  0.12092674  0.51853675  1
  O2-  O154  1  0.87553697  0.37378296  -0.00531719  1
  O2-  O155  1  0.87383800  0.37458694  0.50628893  1
  O2-  O156  1  0.87650684  0.62301440  0.00680834  1
  O2-  O157  1  0.87405885  0.62969432  0.49671103  1
  O2-  O158  1  0.87582410  0.87517366  0.00548852  1
  O2-  O159  1  0.87296670  0.87560312  0.49395754  1
  O2-  O160  1  0.12545050  0.00237669  0.16010363  1
  O2-  O161  1  0.12527476  0.00040184  0.66750142  1
  O2-  O162  1  0.12519855  0.24968906  0.16406392  1
  O2-  O163  1  0.12477712  0.25128016  0.65991226  1
  O2-  O164  1  0.12542573  0.50072662  0.16740499  1
  O2-  O165  1  0.12462254  0.50102862  0.65914400  1
  O2-  O166  1  0.12506600  0.74821480  0.16324886  1
  O2-  O167  1  0.12448665  0.74624900  0.66797259  1
  O2-  O168  1  0.37400075  -0.00056322  0.16402878  1
  O2-  O169  1  0.37559273  -0.00110811  0.66880664  1
  O2-  O170  1  0.37451320  0.25071775  0.16426570  1
  O2-  O171  1  0.37437704  0.24762683  0.65960333  1
  O2-  O172  1  0.37440006  0.49901469  0.16870161  1
  O2-  O173  1  0.37447028  0.50369600  0.66073401  1
  O2-  O174  1  0.37402971  0.75178515  0.17067891  1
  O2-  O175  1  0.37464985  0.74812106  0.66959579  1
  O2-  O176  1  0.62487231  0.00182590  0.16188277  1
  O2-  O177  1  0.62482626  -0.00193546  0.66754619  1
  O2-  O178  1  0.62435083  0.25078292  0.16528583  1
  O2-  O179  1  0.62538821  0.25125678  0.66032654  1
  O2-  O180  1  0.62459801  0.49952784  0.16865046  1
  O2-  O181  1  0.62508452  0.50031268  0.66379808  1
  O2-  O182  1  0.62455825  0.74858892  0.16606505  1
  O2-  O183  1  0.62541697  0.74915566  0.67093785  1
  O2-  O184  1  0.87573332  -0.00164187  0.15950077  1
  O2-  O185  1  0.87462378  -0.00026720  0.67086438  1
  O2-  O186  1  0.87566202  0.25077642  0.16601346  1
  O2-  O187  1  0.87525061  0.24776517  0.66244674  1
  O2-  O188  1  0.87522310  0.49914121  0.16691064  1
  O2-  O189  1  0.87519627  0.50118884  0.66195104  1
  O2-  O190  1  0.87605254  0.75262857  0.16129289  1
  O2-  O191  1  0.87511929  0.75131261  0.66893986  1
  O2-  O192  1  0.00202864  0.12570935  0.16176786  1
  O2-  O193  1  -0.00055300  0.12370301  0.66719281  1
  O2-  O194  1  -0.00091553  0.37562082  0.16534622  1
  O2-  O195  1  0.00289699  0.37551111  0.66208560  1
  O2-  O196  1  0.00285319  0.62430164  0.16293894  1
  O2-  O197  1  0.00059904  0.62556225  0.66241779  1
  O2-  O198  1  -0.00123550  0.87533410  0.16040104  1
  O2-  O199  1  -0.00069393  0.87477050  0.66546588  1
  O2-  O200  1  0.24892687  0.12625258  0.16273196  1
  O2-  O201  1  0.24979412  0.12381017  0.66263682  1
  O2-  O202  1  0.25103858  0.37580552  0.16758054  1
  O2-  O203  1  0.24638944  0.37552316  0.66018185  1
  O2-  O204  1  0.24735443  0.62437053  0.16808906  1
  O2-  O205  1  0.25005246  0.62497578  0.66163984  1
  O2-  O206  1  0.25032805  0.87487729  0.16681599  1
  O2-  O207  1  0.25176094  0.87418354  0.66674690  1
  O2-  O208  1  0.49949600  0.12595410  0.16635022  1
  O2-  O209  1  0.50133265  0.12434530  0.66409463  1
  O2-  O210  1  0.49947215  0.37571740  0.16518393  1
  O2-  O211  1  0.50169636  0.37531866  0.66359670  1
  O2-  O212  1  0.50113493  0.62418945  0.17092932  1
  O2-  O213  1  0.49857902  0.62537303  0.66689419  1
  O2-  O214  1  0.49911465  0.87493080  0.16805317  1
  O2-  O215  1  0.49991265  0.87402249  0.66836364  1
  O2-  O216  1  0.74923914  0.12631330  0.16425289  1
  O2-  O217  1  0.75002438  0.12356001  0.66797910  1
  O2-  O218  1  0.75010594  0.37498830  0.16311799  1
  O2-  O219  1  0.74854502  0.37518186  0.66465054  1
  O2-  O220  1  0.74826541  0.62450078  0.16424838  1
  O2-  O221  1  0.75004153  0.62595230  0.66799916  1
  O2-  O222  1  0.75201572  0.87528854  0.15885657  1
  O2-  O223  1  0.74911433  0.87462223  0.66781461  1
  O2-  O224  1  0.12405069  0.00184463  0.34323292  1
  O2-  O225  1  0.12509775  0.00204592  0.85068187  1
  O2-  O226  1  0.12463237  0.25078956  0.34776630  1
  O2-  O227  1  0.12494482  0.24895755  0.84282534  1
  O2-  O228  1  0.12507132  0.50104504  0.35269000  1
  O2-  O229  1  0.12525459  0.49942013  0.84287724  1
  O2-  O230  1  0.12537910  0.74704310  0.34772613  1
  O2-  O231  1  0.12513706  0.74904902  0.85207716  1
  O2-  O232  1  0.37492990  -0.00008322  0.34474150  1
  O2-  O233  1  0.37414315  0.00114489  0.85128903  1
  O2-  O234  1  0.37481770  0.24701387  0.34656718  1
  O2-  O235  1  0.37416445  0.25027253  0.83995718  1
  O2-  O236  1  0.37459625  0.50392347  0.35269508  1
  O2-  O237  1  0.37368460  0.49695794  0.84226853  1
  O2-  O238  1  0.37440562  0.74957524  0.35327523  1
  O2-  O239  1  0.37377638  0.75121018  0.85185365  1
  O2-  O240  1  0.62602441  0.00001256  0.34103139  1
  O2-  O241  1  0.62472119  0.00269722  0.85216334  1
  O2-  O242  1  0.62559043  0.24896748  0.34578304  1
  O2-  O243  1  0.62479336  0.25149277  0.84283867  1
  O2-  O244  1  0.62491719  0.50077519  0.35125751  1
  O2-  O245  1  0.62468894  0.49882663  0.84490201  1
  O2-  O246  1  0.62527625  0.75086683  0.34714821  1
  O2-  O247  1  0.62472811  0.74600928  0.85342571  1
  O2-  O248  1  0.87525033  -0.00104888  0.34173098  1
  O2-  O249  1  0.87604193  -0.00009780  0.85267647  1
  O2-  O250  1  0.87523910  0.24834105  0.35055743  1
  O2-  O251  1  0.87587515  0.24998932  0.84109062  1
  O2-  O252  1  0.87563025  0.50317550  0.34940643  1
  O2-  O253  1  0.87612564  0.49693929  0.84414905  1
  O2-  O254  1  0.87512762  0.75041003  0.34103201  1
  O2-  O255  1  0.87635038  0.75233698  0.85314472  1
  O2-  O256  1  -0.00033931  0.12525263  0.34594406  1
  O2-  O257  1  0.00165417  0.12517019  0.84857406  1
  O2-  O258  1  0.00255291  0.37548080  0.34935417  1
  O2-  O259  1  0.00072745  0.37431038  0.84230293  1
  O2-  O260  1  0.00076376  0.62563198  0.34614847  1
  O2-  O261  1  0.00425820  0.62439536  0.84688501  1
  O2-  O262  1  -0.00248792  0.87482853  0.34282492  1
  O2-  O263  1  0.00003092  0.87526240  0.84811660  1
  O2-  O264  1  0.24996390  0.12455022  0.34502734  1
  O2-  O265  1  0.24823278  0.12559373  0.84573118  1
  O2-  O266  1  0.24688113  0.37572774  0.35112720  1
  O2-  O267  1  0.24927119  0.37433042  0.84025438  1
  O2-  O268  1  0.24988341  0.62554874  0.35364741  1
  O2-  O269  1  0.24630757  0.62433199  0.84564347  1
  O2-  O270  1  0.25149127  0.87511004  0.35018452  1
  O2-  O271  1  0.24863260  0.87504807  0.84778995  1
  O2-  O272  1  0.50111182  0.12391684  0.34604219  1
  O2-  O273  1  0.49926410  0.12576805  0.84766902  1
  O2-  O274  1  0.50229746  0.37555067  0.34718008  1
  O2-  O275  1  0.49952569  0.37471473  0.84464599  1
  O2-  O276  1  0.49907395  0.62661990  0.35397968  1
  O2-  O277  1  0.50108621  0.62362596  0.84959350  1
  O2-  O278  1  0.50136511  0.87503550  0.34909879  1
  O2-  O279  1  0.49812180  0.87475925  0.85087907  1
  O2-  O280  1  0.74986342  0.12433462  0.34595018  1
  O2-  O281  1  0.75069613  0.12526503  0.85005637  1
  O2-  O282  1  0.74835335  0.37547315  0.34557127  1
  O2-  O283  1  0.75021921  0.37465472  0.84575169  1
  O2-  O284  1  0.75031068  0.62592433  0.34518190  1
  O2-  O285  1  0.74826171  0.62367229  0.85139206  1
  O2-  O286  1  0.75016098  0.87520227  0.33874403  1
  O2-  O287  1  0.75309797  0.87505539  0.85149986  1
