# generated using pymatgen
data_BaYFeCuO5
_symmetry_space_group_name_H-M   'P 1'
_cell_length_a   15.66448561
_cell_length_b   15.66456512
_cell_length_c   15.47071378
_cell_angle_alpha   89.99513778
_cell_angle_beta   90.00029952
_cell_angle_gamma   90.00273721
_symmetry_Int_Tables_number   1
_chemical_formula_structural   BaYFeCuO5
_chemical_formula_sum   'Ba32 Y32 Fe32 Cu32 O160'
_cell_volume   3796.16280742
_cell_formula_units_Z   32
loop_
 _symmetry_equiv_pos_site_id
 _symmetry_equiv_pos_as_xyz
  1  'x, y, z'
loop_
 _atom_type_symbol
 _atom_type_oxidation_number
  Ba2+  2.0
  Y3+  3.0
  Fe3+  3.0
  Cu2+  2.0
  O2-  -2.0
loop_
 _atom_site_type_symbol
 _atom_site_label
 _atom_site_symmetry_multiplicity
 _atom_site_fract_x
 _atom_site_fract_y
 _atom_site_fract_z
 _atom_site_occupancy
  Ba2+  Ba0  1  0.00524350  -0.00801121  0.00350179  1
  Ba2+  Ba1  1  0.00114919  -0.00126286  0.51932283  1
  Ba2+  Ba2  1  0.01059959  0.24892919  0.00708306  1
  Ba2+  Ba3  1  0.00487016  0.24421516  0.51216738  1
  Ba2+  Ba4  1  0.01258154  0.50304580  0.01076076  1
  Ba2+  Ba5  1  0.00863360  0.50055907  0.51712433  1
  Ba2+  Ba6  1  0.00819117  0.75560067  0.00619488  1
  Ba2+  Ba7  1  0.00457613  0.75541361  0.52402556  1
  Ba2+  Ba8  1  0.25055647  -0.00346729  -0.00296034  1
  Ba2+  Ba9  1  0.25250515  -0.00182722  0.51212308  1
  Ba2+  Ba10  1  0.25415303  0.25154810  0.00104322  1
  Ba2+  Ba11  1  0.25055494  0.24866005  0.51736813  1
  Ba2+  Ba12  1  0.25145303  0.50039506  0.01644722  1
  Ba2+  Ba13  1  0.24673890  0.49615193  0.52082191  1
  Ba2+  Ba14  1  0.24853856  0.75254465  0.01145737  1
  Ba2+  Ba15  1  0.24846925  0.75686337  0.51692059  1
  Ba2+  Ba16  1  0.49179514  0.00143400  0.00709872  1
  Ba2+  Ba17  1  0.49894971  0.00079660  0.50598407  1
  Ba2+  Ba18  1  0.49095587  0.24880945  0.00639666  1
  Ba2+  Ba19  1  0.50395804  0.24748762  0.50659625  1
  Ba2+  Ba20  1  0.49127998  0.50143836  0.01748693  1
  Ba2+  Ba21  1  0.50448223  0.49409123  0.51541513  1
  Ba2+  Ba22  1  0.49214268  0.74829471  0.01724533  1
  Ba2+  Ba23  1  0.50119886  0.75704357  0.51599760  1
  Ba2+  Ba24  1  0.75212397  -0.00312865  0.01140602  1
  Ba2+  Ba25  1  0.74648616  0.00219678  0.51206547  1
  Ba2+  Ba26  1  0.74408569  0.24522649  0.01275859  1
  Ba2+  Ba27  1  0.74157695  0.24412680  0.50179314  1
  Ba2+  Ba28  1  0.74328293  0.50519698  0.01235939  1
  Ba2+  Ba29  1  0.73990760  0.49839430  0.51107266  1
  Ba2+  Ba30  1  0.75247002  0.75372994  0.01006602  1
  Ba2+  Ba31  1  0.74602392  0.75572877  0.52284221  1
  Y3+  Y32  1  -0.00063458  -0.00193337  0.25421786  1
  Y3+  Y33  1  0.00222531  -0.00251724  0.76180965  1
  Y3+  Y34  1  0.00007047  0.24888634  0.25758437  1
  Y3+  Y35  1  0.00259867  0.24853781  0.75796033  1
  Y3+  Y36  1  0.00240416  0.50104386  0.25452804  1
  Y3+  Y37  1  0.00294063  0.50198568  0.75793472  1
  Y3+  Y38  1  0.00197659  0.75193123  0.25017496  1
  Y3+  Y39  1  0.00267433  0.75231578  0.76242667  1
  Y3+  Y40  1  0.25246099  -0.00301656  0.25807330  1
  Y3+  Y41  1  0.25034608  -0.00181822  0.75908803  1
  Y3+  Y42  1  0.25204408  0.25075771  0.25654306  1
  Y3+  Y43  1  0.25159580  0.24993326  0.75870708  1
  Y3+  Y44  1  0.25032449  0.50039119  0.25323234  1
  Y3+  Y45  1  0.25042966  0.49935002  0.75795507  1
  Y3+  Y46  1  0.25057970  0.75195854  0.25364938  1
  Y3+  Y47  1  0.24923852  0.75281262  0.75981799  1
  Y3+  Y48  1  0.49786542  0.00071771  0.26007282  1
  Y3+  Y49  1  0.49812984  -0.00066673  0.75569639  1
  Y3+  Y50  1  0.50063861  0.24833005  0.26036719  1
  Y3+  Y51  1  0.49896139  0.25128517  0.75551269  1
  Y3+  Y52  1  0.49880346  0.49937140  0.25734099  1
  Y3+  Y53  1  0.49910416  0.49702542  0.75506040  1
  Y3+  Y54  1  0.49596297  0.75114792  0.25649071  1
  Y3+  Y55  1  0.49822712  0.75265530  0.75555011  1
  Y3+  Y56  1  0.74999141  0.00174118  0.25691035  1
  Y3+  Y57  1  0.74975024  -0.00135422  0.75800483  1
  Y3+  Y58  1  0.74717477  0.24729418  0.26107380  1
  Y3+  Y59  1  0.74700095  0.24920894  0.75532414  1
  Y3+  Y60  1  0.74827535  0.49979295  0.25823697  1
  Y3+  Y61  1  0.74745708  0.49990504  0.75533222  1
  Y3+  Y62  1  0.75104088  0.75087791  0.25263089  1
  Y3+  Y63  1  0.75035915  0.75238767  0.75908165  1
  Fe3+  Fe64  1  0.62549981  0.87433274  0.37381172  1
  Fe3+  Fe65  1  0.62280391  0.62538165  0.87648158  1
  Fe3+  Fe66  1  0.12550324  0.37516658  0.37559741  1
  Fe3+  Fe67  1  0.37370019  0.62541453  0.38027592  1
  Fe3+  Fe68  1  0.87522202  0.62442418  0.87897399  1
  Fe3+  Fe69  1  0.87517839  0.12555118  0.88066188  1
  Fe3+  Fe70  1  0.62372103  0.12464993  0.87829290  1
  Fe3+  Fe71  1  0.62369068  0.37532890  0.88005955  1
  Fe3+  Fe72  1  0.12508900  0.62623229  0.37666955  1
  Fe3+  Fe73  1  0.87605996  0.62668241  0.38020807  1
  Fe3+  Fe74  1  0.87535309  0.37510190  0.37994574  1
  Fe3+  Fe75  1  0.62326683  0.87489106  0.87951973  1
  Fe3+  Fe76  1  0.12546875  0.12339673  0.37717733  1
  Fe3+  Fe77  1  0.37442067  0.37526301  0.37822423  1
  Fe3+  Fe78  1  0.87448814  0.37535269  0.88049007  1
  Fe3+  Fe79  1  0.12643852  0.37579356  0.87514443  1
  Fe3+  Fe80  1  0.87562462  0.87439866  0.37661266  1
  Fe3+  Fe81  1  0.37479667  0.62486921  0.87432080  1
  Fe3+  Fe82  1  0.62469204  0.62685098  0.37561993  1
  Fe3+  Fe83  1  0.12428041  0.87448063  0.37537504  1
  Fe3+  Fe84  1  0.12699872  0.12418010  0.13660904  1
  Fe3+  Fe85  1  0.87490694  0.12437302  0.63966857  1
  Fe3+  Fe86  1  0.87502853  0.37392766  0.63461430  1
  Fe3+  Fe87  1  0.87547775  0.12516071  0.13497567  1
  Fe3+  Fe88  1  0.87522926  0.37477450  0.13374882  1
  Fe3+  Fe89  1  0.37455500  0.12469678  0.14015618  1
  Fe3+  Fe90  1  0.62348341  0.87581338  0.13471359  1
  Fe3+  Fe91  1  0.37514475  0.12485856  0.63963867  1
  Fe3+  Fe92  1  0.62349528  0.37414978  0.13599816  1
  Fe3+  Fe93  1  0.37502332  0.62504459  0.63435283  1
  Fe3+  Fe94  1  0.87584876  0.62483668  0.13355891  1
  Fe3+  Fe95  1  0.87502913  0.62556828  0.63537559  1
  Cu2+  Cu96  1  0.62425716  0.12285428  0.37172350  1
  Cu2+  Cu97  1  0.37561240  0.37631049  0.87192541  1
  Cu2+  Cu98  1  0.37568970  0.12509145  0.86138534  1
  Cu2+  Cu99  1  0.87429092  0.87486825  0.87382272  1
  Cu2+  Cu100  1  0.37354874  0.12496040  0.36637122  1
  Cu2+  Cu101  1  0.62446310  0.37543840  0.37131358  1
  Cu2+  Cu102  1  0.37624487  0.87413672  0.87228333  1
  Cu2+  Cu103  1  0.37424587  0.87394498  0.37396760  1
  Cu2+  Cu104  1  0.12692375  0.62495148  0.87237914  1
  Cu2+  Cu105  1  0.12668150  0.87484443  0.87104669  1
  Cu2+  Cu106  1  0.12591916  0.12529730  0.86486595  1
  Cu2+  Cu107  1  0.87643114  0.12382958  0.36419790  1
  Cu2+  Cu108  1  0.37458539  0.87643003  0.14131184  1
  Cu2+  Cu109  1  0.62446750  0.12428197  0.64424977  1
  Cu2+  Cu110  1  0.12544011  0.12405750  0.65522075  1
  Cu2+  Cu111  1  0.12529567  0.37349748  0.15041545  1
  Cu2+  Cu112  1  0.87552888  0.87565480  0.13883479  1
  Cu2+  Cu113  1  0.62481509  0.87614870  0.65516326  1
  Cu2+  Cu114  1  0.12540481  0.87573037  0.65621614  1
  Cu2+  Cu115  1  0.12416736  0.37420173  0.65356096  1
  Cu2+  Cu116  1  0.62394221  0.12455672  0.14884299  1
  Cu2+  Cu117  1  0.37483934  0.37342693  0.14198520  1
  Cu2+  Cu118  1  0.12598932  0.62610766  0.13989198  1
  Cu2+  Cu119  1  0.62434624  0.62540564  0.14903930  1
  Cu2+  Cu120  1  0.87537539  0.87528407  0.65421855  1
  Cu2+  Cu121  1  0.37485302  0.37448764  0.64841074  1
  Cu2+  Cu122  1  0.62454140  0.62565989  0.65138315  1
  Cu2+  Cu123  1  0.12564502  0.62613847  0.65277451  1
  Cu2+  Cu124  1  0.37478559  0.87576425  0.64232062  1
  Cu2+  Cu125  1  0.62569890  0.37333971  0.64308893  1
  Cu2+  Cu126  1  0.37454054  0.62516977  0.15323173  1
  Cu2+  Cu127  1  0.12654784  0.87684068  0.14210309  1
  O2-  O128  1  0.12726643  0.12538142  0.01627783  1
  O2-  O129  1  0.12391250  0.12367911  0.49758612  1
  O2-  O130  1  0.12609765  0.37525415  -0.00391057  1
  O2-  O131  1  0.12355861  0.37505560  0.49575897  1
  O2-  O132  1  0.12673671  0.62471789  0.00624844  1
  O2-  O133  1  0.12315140  0.62609089  0.49668370  1
  O2-  O134  1  0.12718809  0.87583097  0.00619228  1
  O2-  O135  1  0.12266700  0.87491872  0.49568121  1
  O2-  O136  1  0.37340174  0.12511113  0.01926057  1
  O2-  O137  1  0.37456414  0.12553416  0.51870891  1
  O2-  O138  1  0.37536837  0.37544524  0.00710271  1
  O2-  O139  1  0.37361430  0.37627228  0.49866348  1
  O2-  O140  1  0.37504412  0.62430744  -0.00499285  1
  O2-  O141  1  0.37424936  0.62487922  0.50598676  1
  O2-  O142  1  0.37623800  0.87492040  0.00722679  1
  O2-  O143  1  0.37468042  0.87424648  0.50778359  1
  O2-  O144  1  0.62431339  0.12577246  -0.00157338  1
  O2-  O145  1  0.62509489  0.12295360  0.50723607  1
  O2-  O146  1  0.62401164  0.37496303  0.00738810  1
  O2-  O147  1  0.62636516  0.37475356  0.50682797  1
  O2-  O148  1  0.62227281  0.62410915  -0.00371133  1
  O2-  O149  1  0.62684557  0.62770843  0.49589598  1
  O2-  O150  1  0.62290121  0.87511810  0.00603508  1
  O2-  O151  1  0.62738612  0.87405833  0.49428652  1
  O2-  O152  1  0.87530170  0.12671395  0.00765756  1
  O2-  O153  1  0.87579231  0.12468038  0.51919920  1
  O2-  O154  1  0.87502815  0.37612566  0.00677794  1
  O2-  O155  1  0.87519826  0.37428598  0.50725668  1
  O2-  O156  1  0.87497661  0.62296849  0.00566484  1
  O2-  O157  1  0.87552966  0.62645027  0.50627103  1
  O2-  O158  1  0.87368327  0.87467910  0.00607971  1
  O2-  O159  1  0.87576169  0.87357610  0.49667407  1
  O2-  O160  1  0.12425158  0.00239113  0.16704809  1
  O2-  O161  1  0.12420727  -0.00059221  0.66696773  1
  O2-  O162  1  0.12395863  0.24880648  0.16655477  1
  O2-  O163  1  0.12337968  0.24986827  0.66528896  1
  O2-  O164  1  0.12433613  0.49807855  0.16272909  1
  O2-  O165  1  0.12307750  0.49988893  0.66226349  1
  O2-  O166  1  0.12538561  0.75120476  0.16183279  1
  O2-  O167  1  0.12444059  0.75091309  0.66538084  1
  O2-  O168  1  0.37611402  0.00199507  0.16986077  1
  O2-  O169  1  0.37446891  0.00127025  0.66814243  1
  O2-  O170  1  0.37580804  0.24803190  0.16881831  1
  O2-  O171  1  0.37432278  0.25009517  0.66753320  1
  O2-  O172  1  0.37522638  0.50142686  0.16397266  1
  O2-  O173  1  0.37549234  0.50084492  0.66096953  1
  O2-  O174  1  0.37502965  0.74857794  0.16355513  1
  O2-  O175  1  0.37537597  0.74760172  0.66224587  1
  O2-  O176  1  0.62537682  -0.00138597  0.16232382  1
  O2-  O177  1  0.62593855  -0.00101526  0.66864509  1
  O2-  O178  1  0.62632976  0.25172206  0.16545760  1
  O2-  O179  1  0.62595858  0.24946054  0.66817955  1
  O2-  O180  1  0.62560439  0.49882180  0.16229794  1
  O2-  O181  1  0.62649700  0.50070581  0.66432997  1
  O2-  O182  1  0.62585658  0.75084530  0.15862464  1
  O2-  O183  1  0.62577904  0.75080133  0.66497751  1
  O2-  O184  1  0.87467608  0.00365963  0.16279229  1
  O2-  O185  1  0.87537108  -0.00029117  0.66918228  1
  O2-  O186  1  0.87364054  0.25075534  0.16357910  1
  O2-  O187  1  0.87582573  0.25098836  0.66866132  1
  O2-  O188  1  0.87467285  0.49897935  0.16378589  1
  O2-  O189  1  0.87515077  0.50028994  0.66077816  1
  O2-  O190  1  0.87452191  0.74702702  0.16107917  1
  O2-  O191  1  0.87448918  0.74897655  0.66369902  1
  O2-  O192  1  -0.00114559  0.12700634  0.16285056  1
  O2-  O193  1  -0.00004961  0.12493168  0.66889978  1
  O2-  O194  1  -0.00229034  0.37443615  0.16204567  1
  O2-  O195  1  -0.00264827  0.37538843  0.66504970  1
  O2-  O196  1  -0.00279569  0.62367391  0.16282998  1
  O2-  O197  1  -0.00146556  0.62522221  0.66513421  1
  O2-  O198  1  0.00051358  0.87539829  0.16090826  1
  O2-  O199  1  0.00067786  0.87476509  0.66719923  1
  O2-  O200  1  0.25007918  0.12537474  0.17054107  1
  O2-  O201  1  0.24982416  0.12554977  0.66633830  1
  O2-  O202  1  0.24888222  0.37469138  0.16457254  1
  O2-  O203  1  0.24869397  0.37511969  0.66265629  1
  O2-  O204  1  0.25189797  0.62451477  0.16577475  1
  O2-  O205  1  0.25119405  0.62403356  0.66049930  1
  O2-  O206  1  0.25042330  0.87562084  0.16592128  1
  O2-  O207  1  0.24866476  0.87516132  0.66534153  1
  O2-  O208  1  0.49997702  0.12530111  0.16728809  1
  O2-  O209  1  0.49854233  0.12539158  0.66757386  1
  O2-  O210  1  0.50272702  0.37542719  0.16398026  1
  O2-  O211  1  0.49938850  0.37486998  0.66569962  1
  O2-  O212  1  0.49855038  0.62479746  0.16537171  1
  O2-  O213  1  0.49884383  0.62445398  0.65963159  1
  O2-  O214  1  0.50220620  0.87430914  0.16435343  1
  O2-  O215  1  0.50113908  0.87530452  0.66477369  1
  O2-  O216  1  0.75110408  0.12607199  0.16192179  1
  O2-  O217  1  0.75170718  0.12479947  0.66947314  1
  O2-  O218  1  0.75012550  0.37584332  0.16064968  1
  O2-  O219  1  0.75427895  0.37539473  0.66826281  1
  O2-  O220  1  0.75244433  0.62321489  0.16196882  1
  O2-  O221  1  0.75175452  0.62484826  0.66519049  1
  O2-  O222  1  0.74728537  0.87494055  0.16008634  1
  O2-  O223  1  0.74983410  0.87492785  0.66754085  1
  O2-  O224  1  0.12396250  -0.00095131  0.34600177  1
  O2-  O225  1  0.12525121  0.00163083  0.85094298  1
  O2-  O226  1  0.12351583  0.25039393  0.34689038  1
  O2-  O227  1  0.12453379  0.25092003  0.84867363  1
  O2-  O228  1  0.12384863  0.50038763  0.34421251  1
  O2-  O229  1  0.12448369  0.49829538  0.84493503  1
  O2-  O230  1  0.12387065  0.74962935  0.34252885  1
  O2-  O231  1  0.12516261  0.75000817  0.84912052  1
  O2-  O232  1  0.37449576  0.00101768  0.35209655  1
  O2-  O233  1  0.37596257  0.00153725  0.85134187  1
  O2-  O234  1  0.37450138  0.25056402  0.35014120  1
  O2-  O235  1  0.37578485  0.24877662  0.85101829  1
  O2-  O236  1  0.37466821  0.50147356  0.34684716  1
  O2-  O237  1  0.37600788  0.50158560  0.84322396  1
  O2-  O238  1  0.37437462  0.74660224  0.34744080  1
  O2-  O239  1  0.37631341  0.74840834  0.84469198  1
  O2-  O240  1  0.62591956  -0.00253107  0.34511971  1
  O2-  O241  1  0.62530261  -0.00046043  0.85133806  1
  O2-  O242  1  0.62549479  0.24904062  0.34971578  1
  O2-  O243  1  0.62571263  0.25122168  0.85071768  1
  O2-  O244  1  0.62607098  0.50303418  0.34524118  1
  O2-  O245  1  0.62607047  0.49874716  0.84759032  1
  O2-  O246  1  0.62576416  0.74971174  0.33950564  1
  O2-  O247  1  0.62558057  0.75065782  0.84832450  1
  O2-  O248  1  0.87512991  -0.00148840  0.34590154  1
  O2-  O249  1  0.87434167  0.00381851  0.85291890  1
  O2-  O250  1  0.87557868  0.25151695  0.35005017  1
  O2-  O251  1  0.87436942  0.25103915  0.85294057  1
  O2-  O252  1  0.87462252  0.50074446  0.35015165  1
  O2-  O253  1  0.87390223  0.49911693  0.84723208  1
  O2-  O254  1  0.87535696  0.74833522  0.34390119  1
  O2-  O255  1  0.87391407  0.74642801  0.84907060  1
  O2-  O256  1  0.00133473  0.12534719  0.34469173  1
  O2-  O257  1  -0.00189150  0.12675206  0.85265220  1
  O2-  O258  1  -0.00132217  0.37586166  0.34591376  1
  O2-  O259  1  -0.00190175  0.37526394  0.84910421  1
  O2-  O260  1  -0.00119683  0.62393040  0.34552807  1
  O2-  O261  1  -0.00275921  0.62355579  0.85010484  1
  O2-  O262  1  -0.00039983  0.87414952  0.34125314  1
  O2-  O263  1  0.00027931  0.87474745  0.85141302  1
  O2-  O264  1  0.24880541  0.12525623  0.34969948  1
  O2-  O265  1  0.25197984  0.12580053  0.85017830  1
  O2-  O266  1  0.24966590  0.37570384  0.34565986  1
  O2-  O267  1  0.24938927  0.37482906  0.84631858  1
  O2-  O268  1  0.25003947  0.62438246  0.34838382  1
  O2-  O269  1  0.25214250  0.62474646  0.84332430  1
  O2-  O270  1  0.24771860  0.87411460  0.34803034  1
  O2-  O271  1  0.25128484  0.87516859  0.84876362  1
  O2-  O272  1  0.49755816  0.12454289  0.35041112  1
  O2-  O273  1  0.50032081  0.12556816  0.84921955  1
  O2-  O274  1  0.49756972  0.37573766  0.34672714  1
  O2-  O275  1  0.50320008  0.37516869  0.84953677  1
  O2-  O276  1  0.49846880  0.62506729  0.34885614  1
  O2-  O277  1  0.50081540  0.62457182  0.84123645  1
  O2-  O278  1  0.50125656  0.87403812  0.34736009  1
  O2-  O279  1  0.50302557  0.87492396  0.84800488  1
  O2-  O280  1  0.75198646  0.12478929  0.34692886  1
  O2-  O281  1  0.75033429  0.12658156  0.85110258  1
  O2-  O282  1  0.75366059  0.37520725  0.34645735  1
  O2-  O283  1  0.74963264  0.37533618  0.85284259  1
  O2-  O284  1  0.75213667  0.62492571  0.34550731  1
  O2-  O285  1  0.75012944  0.62366496  0.84932932  1
  O2-  O286  1  0.75130265  0.87414548  0.34114516  1
  O2-  O287  1  0.74624678  0.87459781  0.85158503  1
