# generated using pymatgen
data_BaYFeCuO5
_symmetry_space_group_name_H-M   'P 1'
_cell_length_a   15.67067679
_cell_length_b   15.67370071
_cell_length_c   15.49140036
_cell_angle_alpha   89.99801919
_cell_angle_beta   89.99570438
_cell_angle_gamma   90.00300263
_symmetry_Int_Tables_number   1
_chemical_formula_structural   BaYFeCuO5
_chemical_formula_sum   'Ba32 Y32 Fe32 Cu32 O160'
_cell_volume   3804.95897980
_cell_formula_units_Z   32
loop_
 _symmetry_equiv_pos_site_id
 _symmetry_equiv_pos_as_xyz
  1  'x, y, z'
loop_
 _atom_type_symbol
 _atom_type_oxidation_number
  Ba2+  2.0
  Y3+  3.0
  Fe3+  3.0
  Cu2+  2.0
  O2-  -2.0
loop_
 _atom_site_type_symbol
 _atom_site_label
 _atom_site_symmetry_multiplicity
 _atom_site_fract_x
 _atom_site_fract_y
 _atom_site_fract_z
 _atom_site_occupancy
  Ba2+  Ba0  1  0.00204155  -0.00773889  0.00623883  1
  Ba2+  Ba1  1  -0.00199317  -0.00053227  0.52222998  1
  Ba2+  Ba2  1  0.00225759  0.25870155  0.00673190  1
  Ba2+  Ba3  1  0.00145926  0.25346344  0.51684342  1
  Ba2+  Ba4  1  0.00634759  0.49820257  0.01257326  1
  Ba2+  Ba5  1  0.00228896  0.49463709  0.50691608  1
  Ba2+  Ba6  1  0.00577681  0.75149700  0.01136403  1
  Ba2+  Ba7  1  -0.00154789  0.75232715  0.51112704  1
  Ba2+  Ba8  1  0.25496780  -0.00346143  0.01258418  1
  Ba2+  Ba9  1  0.24900674  0.00093487  0.50680074  1
  Ba2+  Ba10  1  0.25681428  0.25691884  0.00655063  1
  Ba2+  Ba11  1  0.24821006  0.25598698  0.50692741  1
  Ba2+  Ba12  1  0.25264798  0.49805606  -0.00151970  1
  Ba2+  Ba13  1  0.25028321  0.49815231  0.51239004  1
  Ba2+  Ba14  1  0.25031678  0.74779727  0.00540105  1
  Ba2+  Ba15  1  0.25103523  0.74588711  0.51177024  1
  Ba2+  Ba16  1  0.49504812  -0.00395744  0.02288386  1
  Ba2+  Ba17  1  0.50031265  -0.00018862  0.50615970  1
  Ba2+  Ba18  1  0.49330794  0.25630786  0.01820721  1
  Ba2+  Ba19  1  0.49243141  0.24897877  0.50590175  1
  Ba2+  Ba20  1  0.49213553  0.49473849  0.00653178  1
  Ba2+  Ba21  1  0.49106904  0.50352289  0.51099546  1
  Ba2+  Ba22  1  0.49466301  0.75269185  0.01407328  1
  Ba2+  Ba23  1  0.49822862  0.74728352  0.51204031  1
  Ba2+  Ba24  1  0.74880739  -0.00742071  0.01616647  1
  Ba2+  Ba25  1  0.75224923  -0.00205494  0.52087146  1
  Ba2+  Ba26  1  0.74878820  0.25772643  0.01734774  1
  Ba2+  Ba27  1  0.75718877  0.24736436  0.51697261  1
  Ba2+  Ba28  1  0.74917618  0.49312131  0.01836336  1
  Ba2+  Ba29  1  0.75742265  0.50131628  0.50556228  1
  Ba2+  Ba30  1  0.74925595  0.75649665  0.01778353  1
  Ba2+  Ba31  1  0.75241151  0.75345369  0.51146037  1
  Y3+  Y32  1  -0.00100297  -0.00205213  0.25656913  1
  Y3+  Y33  1  0.00102636  -0.00122017  0.75629098  1
  Y3+  Y34  1  0.00040492  0.25359083  0.25972807  1
  Y3+  Y35  1  0.00149841  0.25142766  0.75451458  1
  Y3+  Y36  1  -0.00012848  0.49833298  0.26127284  1
  Y3+  Y37  1  0.00285001  0.49811047  0.75389244  1
  Y3+  Y38  1  -0.00151193  0.75021062  0.25875347  1
  Y3+  Y39  1  0.00242919  0.75144307  0.75501675  1
  Y3+  Y40  1  0.25365333  0.00053027  0.25893812  1
  Y3+  Y41  1  0.24706591  -0.00068878  0.75733078  1
  Y3+  Y42  1  0.25296645  0.25216067  0.26070085  1
  Y3+  Y43  1  0.24955736  0.25414465  0.75598684  1
  Y3+  Y44  1  0.25112782  0.49869254  0.26318439  1
  Y3+  Y45  1  0.25157824  0.49880187  0.75394318  1
  Y3+  Y46  1  0.25170212  0.74861859  0.26083787  1
  Y3+  Y47  1  0.24905992  0.74789477  0.75493134  1
  Y3+  Y48  1  0.49651108  -0.00061632  0.25879777  1
  Y3+  Y49  1  0.50227527  0.00062858  0.75389326  1
  Y3+  Y50  1  0.49578724  0.25175272  0.25843171  1
  Y3+  Y51  1  0.49861962  0.25145952  0.75514434  1
  Y3+  Y52  1  0.49667745  0.49845590  0.26042133  1
  Y3+  Y53  1  0.49598300  0.50067650  0.75455204  1
  Y3+  Y54  1  0.49729554  0.75034961  0.26038512  1
  Y3+  Y55  1  0.49979368  0.74688496  0.75425265  1
  Y3+  Y56  1  0.75075221  -0.00306485  0.25637168  1
  Y3+  Y57  1  0.74985015  -0.00031973  0.75423827  1
  Y3+  Y58  1  0.75107469  0.25309374  0.25766973  1
  Y3+  Y59  1  0.75042345  0.24925526  0.75418623  1
  Y3+  Y60  1  0.75230478  0.49801520  0.25922585  1
  Y3+  Y61  1  0.74933849  0.50020910  0.75412550  1
  Y3+  Y62  1  0.75231061  0.75188263  0.25885217  1
  Y3+  Y63  1  0.74855982  0.75060335  0.75398135  1
  Fe3+  Fe64  1  0.62448177  0.62464764  0.88070762  1
  Fe3+  Fe65  1  0.87442336  0.62484290  0.88062039  1
  Fe3+  Fe66  1  0.62605117  0.12513869  0.37621967  1
  Fe3+  Fe67  1  0.62504812  0.87533324  0.37621781  1
  Fe3+  Fe68  1  0.12401042  0.12510779  0.37669071  1
  Fe3+  Fe69  1  0.12477727  0.87578621  0.37774576  1
  Fe3+  Fe70  1  0.12489015  0.62435989  0.87530598  1
  Fe3+  Fe71  1  0.87461916  0.37612313  0.87553520  1
  Fe3+  Fe72  1  0.62498320  0.37453884  0.37967003  1
  Fe3+  Fe73  1  0.62360972  0.87496742  0.87596676  1
  Fe3+  Fe74  1  0.62561174  0.62489342  0.37714896  1
  Fe3+  Fe75  1  0.37529362  0.87481100  0.87459026  1
  Fe3+  Fe76  1  0.37612816  0.12471352  0.87757465  1
  Fe3+  Fe77  1  0.12423849  0.62489925  0.37801597  1
  Fe3+  Fe78  1  0.12560708  0.12571455  0.88026499  1
  Fe3+  Fe79  1  0.87526551  0.12412005  0.37500865  1
  Fe3+  Fe80  1  0.62435919  0.12521615  0.88070878  1
  Fe3+  Fe81  1  0.62446737  0.37481799  0.87531558  1
  Fe3+  Fe82  1  0.87471411  0.87381958  0.87593777  1
  Fe3+  Fe83  1  0.87447657  0.12519705  0.87978702  1
  Fe3+  Fe84  1  0.62364431  0.62431649  0.13557815  1
  Fe3+  Fe85  1  0.12629451  0.12585474  0.13405659  1
  Fe3+  Fe86  1  0.37465056  0.87540883  0.63677700  1
  Fe3+  Fe87  1  0.87643460  0.62461189  0.13527619  1
  Fe3+  Fe88  1  0.37362545  0.12507610  0.63753248  1
  Fe3+  Fe89  1  0.62441741  0.37553302  0.63308536  1
  Fe3+  Fe90  1  0.62418104  0.12563312  0.13502701  1
  Fe3+  Fe91  1  0.87650218  0.12543718  0.13262649  1
  Fe3+  Fe92  1  0.12720664  0.37620820  0.14000073  1
  Fe3+  Fe93  1  0.37295186  0.62374453  0.13928760  1
  Fe3+  Fe94  1  0.87607230  0.62487226  0.63831685  1
  Fe3+  Fe95  1  0.12674736  0.87388555  0.13863091  1
  Cu2+  Cu96  1  0.37496033  0.37557227  0.37500881  1
  Cu2+  Cu97  1  0.37455631  0.87476529  0.36915489  1
  Cu2+  Cu98  1  0.87537804  0.87637437  0.37335151  1
  Cu2+  Cu99  1  0.37482932  0.12499377  0.36499999  1
  Cu2+  Cu100  1  0.12555452  0.87474440  0.86310781  1
  Cu2+  Cu101  1  0.37495346  0.62516599  0.37372757  1
  Cu2+  Cu102  1  0.37547297  0.62522625  0.86217690  1
  Cu2+  Cu103  1  0.87505843  0.37371307  0.37418127  1
  Cu2+  Cu104  1  0.12500731  0.37505923  0.86148722  1
  Cu2+  Cu105  1  0.87512866  0.62549736  0.36297108  1
  Cu2+  Cu106  1  0.37586980  0.37450918  0.86930765  1
  Cu2+  Cu107  1  0.12500426  0.37441840  0.37230657  1
  Cu2+  Cu108  1  0.87653904  0.37514674  0.15222794  1
  Cu2+  Cu109  1  0.12563660  0.37526330  0.64250258  1
  Cu2+  Cu110  1  0.37379347  0.87352203  0.15589698  1
  Cu2+  Cu111  1  0.62402608  0.87460461  0.64813969  1
  Cu2+  Cu112  1  0.87627848  0.87484438  0.15000510  1
  Cu2+  Cu113  1  0.62429577  0.12585653  0.64716702  1
  Cu2+  Cu114  1  0.12575044  0.62435911  0.15312528  1
  Cu2+  Cu115  1  0.87600250  0.12489260  0.65516214  1
  Cu2+  Cu116  1  0.62535669  0.62411357  0.64718197  1
  Cu2+  Cu117  1  0.37492904  0.37460487  0.64208934  1
  Cu2+  Cu118  1  0.12603912  0.87492676  0.64841727  1
  Cu2+  Cu119  1  0.37342103  0.37683544  0.14712749  1
  Cu2+  Cu120  1  0.12592803  0.12525605  0.65207850  1
  Cu2+  Cu121  1  0.62382709  0.87414949  0.15265434  1
  Cu2+  Cu122  1  0.37402794  0.12575951  0.15105727  1
  Cu2+  Cu123  1  0.87532825  0.87405190  0.64316194  1
  Cu2+  Cu124  1  0.37414734  0.62522196  0.64254049  1
  Cu2+  Cu125  1  0.87508340  0.37587504  0.64242304  1
  Cu2+  Cu126  1  0.12453548  0.62476814  0.64870697  1
  Cu2+  Cu127  1  0.62374096  0.37591379  0.15405341  1
  O2-  O128  1  0.12622621  0.12570894  0.00704590  1
  O2-  O129  1  0.12210182  0.12357980  0.49667097  1
  O2-  O130  1  0.12692262  0.37594807  0.01898201  1
  O2-  O131  1  0.12444819  0.37403532  0.50825793  1
  O2-  O132  1  0.12519380  0.62500630  -0.00421673  1
  O2-  O133  1  0.12223042  0.62608779  0.49820702  1
  O2-  O134  1  0.12749404  0.87414005  0.01752816  1
  O2-  O135  1  0.12342711  0.87719110  0.49792315  1
  O2-  O136  1  0.37713058  0.12421085  -0.00218144  1
  O2-  O137  1  0.37401457  0.12355471  0.51709313  1
  O2-  O138  1  0.37481501  0.37599814  0.00615008  1
  O2-  O139  1  0.37546336  0.37423717  0.50790009  1
  O2-  O140  1  0.37426611  0.62446269  0.01858703  1
  O2-  O141  1  0.37457939  0.62655835  0.50837878  1
  O2-  O142  1  0.37574306  0.87476674  -0.00467313  1
  O2-  O143  1  0.37460069  0.87638111  0.51595284  1
  O2-  O144  1  0.62336819  0.12532802  0.00605938  1
  O2-  O145  1  0.62795815  0.12433019  0.49599360  1
  O2-  O146  1  0.62470959  0.37498783  -0.00432407  1
  O2-  O147  1  0.62561569  0.37421072  0.50586038  1
  O2-  O148  1  0.62396627  0.62456771  0.00701459  1
  O2-  O149  1  0.62738793  0.62590623  0.49718895  1
  O2-  O150  1  0.62298114  0.87479182  -0.00401066  1
  O2-  O151  1  0.62597031  0.87611185  0.49641089  1
  O2-  O152  1  0.87484181  0.12556873  0.00531023  1
  O2-  O153  1  0.87476848  0.12325876  0.49519727  1
  O2-  O154  1  0.87408778  0.37580663  -0.00381425  1
  O2-  O155  1  0.87432355  0.37392998  0.50705601  1
  O2-  O156  1  0.87500883  0.62471780  0.00654139  1
  O2-  O157  1  0.87498227  0.62586651  0.51767857  1
  O2-  O158  1  0.87437611  0.87399303  -0.00344157  1
  O2-  O159  1  0.87497986  0.87610959  0.50703000  1
  O2-  O160  1  0.12513781  0.00144176  0.16145393  1
  O2-  O161  1  0.12456645  0.00024444  0.66702525  1
  O2-  O162  1  0.12480217  0.24908462  0.16452184  1
  O2-  O163  1  0.12490371  0.24883517  0.66728147  1
  O2-  O164  1  0.12427621  0.50006116  0.16816432  1
  O2-  O165  1  0.12475760  0.50112646  0.66479951  1
  O2-  O166  1  0.12467844  0.74957150  0.16522373  1
  O2-  O167  1  0.12498468  0.74978783  0.66363994  1
  O2-  O168  1  0.37493470  -0.00084793  0.16372225  1
  O2-  O169  1  0.37491436  0.00000430  0.66787622  1
  O2-  O170  1  0.37487980  0.25046762  0.16546163  1
  O2-  O171  1  0.37501968  0.24827979  0.66650812  1
  O2-  O172  1  0.37509132  0.50162363  0.17048615  1
  O2-  O173  1  0.37496037  0.49999401  0.66446784  1
  O2-  O174  1  0.37494269  0.74865701  0.16703952  1
  O2-  O175  1  0.37526728  0.75199004  0.66569539  1
  O2-  O176  1  0.62501010  0.00127328  0.16063156  1
  O2-  O177  1  0.62568992  0.00051389  0.66487932  1
  O2-  O178  1  0.62516646  0.24914763  0.16265448  1
  O2-  O179  1  0.62566798  0.25195415  0.66412002  1
  O2-  O180  1  0.62570944  0.50190855  0.16550349  1
  O2-  O181  1  0.62536340  0.49798924  0.66432122  1
  O2-  O182  1  0.62515049  0.74789564  0.16219178  1
  O2-  O183  1  0.62489209  0.74940168  0.66504339  1
  O2-  O184  1  0.87499887  0.00214371  0.15959526  1
  O2-  O185  1  0.87518700  0.00090595  0.66739627  1
  O2-  O186  1  0.87507592  0.24809742  0.16180546  1
  O2-  O187  1  0.87509998  0.24860510  0.66630283  1
  O2-  O188  1  0.87495511  0.50158023  0.16429575  1
  O2-  O189  1  0.87461993  0.50187616  0.66813589  1
  O2-  O190  1  0.87521028  0.74821285  0.16334022  1
  O2-  O191  1  0.87486069  0.74828023  0.66838345  1
  O2-  O192  1  0.00050642  0.12492409  0.15741910  1
  O2-  O193  1  0.00078526  0.12463400  0.66831775  1
  O2-  O194  1  0.00138399  0.37498750  0.16561203  1
  O2-  O195  1  -0.00005265  0.37461600  0.66565562  1
  O2-  O196  1  -0.00105306  0.62493640  0.16035188  1
  O2-  O197  1  -0.00013929  0.62531286  0.66849383  1
  O2-  O198  1  0.00145189  0.87518055  0.16388598  1
  O2-  O199  1  0.00188712  0.87521835  0.66626970  1
  O2-  O200  1  0.24849488  0.12481274  0.16409189  1
  O2-  O201  1  0.25037523  0.12425931  0.66902571  1
  O2-  O202  1  0.24885459  0.37518771  0.17108282  1
  O2-  O203  1  0.25036978  0.37485589  0.66564744  1
  O2-  O204  1  0.24988924  0.62515951  0.16943992  1
  O2-  O205  1  0.24808531  0.62528971  0.66492052  1
  O2-  O206  1  0.24938408  0.87515869  0.16909453  1
  O2-  O207  1  0.25070743  0.87563066  0.66623524  1
  O2-  O208  1  0.50105063  0.12539819  0.16368459  1
  O2-  O209  1  0.49894808  0.12489969  0.66514401  1
  O2-  O210  1  0.49975081  0.37551349  0.16719614  1
  O2-  O211  1  0.50240249  0.37487176  0.66194288  1
  O2-  O212  1  0.50047238  0.62505768  0.16534445  1
  O2-  O213  1  0.50128853  0.62470043  0.66516561  1
  O2-  O214  1  0.49868145  0.87454106  0.16522816  1
  O2-  O215  1  0.49962816  0.87550082  0.66316521  1
  O2-  O216  1  0.75016282  0.12540095  0.15579500  1
  O2-  O217  1  0.75018203  0.12499428  0.66602371  1
  O2-  O218  1  0.75060421  0.37516911  0.16257268  1
  O2-  O219  1  0.74744108  0.37472332  0.66251067  1
  O2-  O220  1  0.75026081  0.62482940  0.15787756  1
  O2-  O221  1  0.75063779  0.62502800  0.66861652  1
  O2-  O222  1  0.75045961  0.87468922  0.16058054  1
  O2-  O223  1  0.74802757  0.87484835  0.66438511  1
  O2-  O224  1  0.12531977  0.00026971  0.34234778  1
  O2-  O225  1  0.12410278  0.00203496  0.85178469  1
  O2-  O226  1  0.12498889  0.24828780  0.34624637  1
  O2-  O227  1  0.12433950  0.24889451  0.85171273  1
  O2-  O228  1  0.12383021  0.50106146  0.34988665  1
  O2-  O229  1  0.12471110  0.49977909  0.84759504  1
  O2-  O230  1  0.12454990  0.75070026  0.34664481  1
  O2-  O231  1  0.12489580  0.74901327  0.84679592  1
  O2-  O232  1  0.37544858  0.00006576  0.34883248  1
  O2-  O233  1  0.37534388  0.00018930  0.84588418  1
  O2-  O234  1  0.37562732  0.24922693  0.34961407  1
  O2-  O235  1  0.37573005  0.24762599  0.84701784  1
  O2-  O236  1  0.37567975  0.50037930  0.35163170  1
  O2-  O237  1  0.37574759  0.50106317  0.84849101  1
  O2-  O238  1  0.37519609  0.75075197  0.34969600  1
  O2-  O239  1  0.37551179  0.75060810  0.84741436  1
  O2-  O240  1  0.62434800  0.00021676  0.34284922  1
  O2-  O241  1  0.62553376  0.00128435  0.84798752  1
  O2-  O242  1  0.62516686  0.25078956  0.34656244  1
  O2-  O243  1  0.62585342  0.24833369  0.84742589  1
  O2-  O244  1  0.62612671  0.49866354  0.34919115  1
  O2-  O245  1  0.62562152  0.50154785  0.84810989  1
  O2-  O246  1  0.62556673  0.75032658  0.34458380  1
  O2-  O247  1  0.62488367  0.74856414  0.84848334  1
  O2-  O248  1  0.87472124  0.00195733  0.34097952  1
  O2-  O249  1  0.87487339  0.00106994  0.85026165  1
  O2-  O250  1  0.87425340  0.24747099  0.34410435  1
  O2-  O251  1  0.87422470  0.24880559  0.84918066  1
  O2-  O252  1  0.87415970  0.50107568  0.34941588  1
  O2-  O253  1  0.87361379  0.50136530  0.84884446  1
  O2-  O254  1  0.87453770  0.74940199  0.34808100  1
  O2-  O255  1  0.87423074  0.74864227  0.84933820  1
  O2-  O256  1  -0.00008332  0.12479762  0.33969466  1
  O2-  O257  1  -0.00037496  0.12529386  0.85407591  1
  O2-  O258  1  0.00019738  0.37461136  0.34852601  1
  O2-  O259  1  -0.00131751  0.37461152  0.84866342  1
  O2-  O260  1  -0.00005137  0.62558386  0.34476406  1
  O2-  O261  1  -0.00201048  0.62484272  0.85028028  1
  O2-  O262  1  0.00205993  0.87538283  0.34504287  1
  O2-  O263  1  -0.00072127  0.87507901  0.84949307  1
  O2-  O264  1  0.24977160  0.12454576  0.34833746  1
  O2-  O265  1  0.24898450  0.12460492  0.85146039  1
  O2-  O266  1  0.24993765  0.37440716  0.35238679  1
  O2-  O267  1  0.24899917  0.37473338  0.84942277  1
  O2-  O268  1  0.24814752  0.62551667  0.35075459  1
  O2-  O269  1  0.25029385  0.62495289  0.84852910  1
  O2-  O270  1  0.24930587  0.87607193  0.35058778  1
  O2-  O271  1  0.25056728  0.87519306  0.84814586  1
  O2-  O272  1  0.50064551  0.12521731  0.34825349  1
  O2-  O273  1  0.50202259  0.12481503  0.84635103  1
  O2-  O274  1  0.50273441  0.37466947  0.35081302  1
  O2-  O275  1  0.50256352  0.37498623  0.84352227  1
  O2-  O276  1  0.50218652  0.62498664  0.34751328  1
  O2-  O277  1  0.50162708  0.62475118  0.84998972  1
  O2-  O278  1  0.50031178  0.87536814  0.34883524  1
  O2-  O279  1  0.50061034  0.87508188  0.84282676  1
  O2-  O280  1  0.74956769  0.12490941  0.33863338  1
  O2-  O281  1  0.74977542  0.12469417  0.85102720  1
  O2-  O282  1  0.74702820  0.37476336  0.34736168  1
  O2-  O283  1  0.74982008  0.37472934  0.84349355  1
  O2-  O284  1  0.74947643  0.62480782  0.34274147  1
  O2-  O285  1  0.74952356  0.62521524  0.85212752  1
  O2-  O286  1  0.74810914  0.87538089  0.34407870  1
  O2-  O287  1  0.74937994  0.87502909  0.84577224  1
