# generated using pymatgen
data_BaYFeCuO5
_symmetry_space_group_name_H-M   'P 1'
_cell_length_a   15.67097356
_cell_length_b   15.66450961
_cell_length_c   15.48221701
_cell_angle_alpha   90.00027045
_cell_angle_beta   89.99971409
_cell_angle_gamma   90.00015128
_symmetry_Int_Tables_number   1
_chemical_formula_structural   BaYFeCuO5
_chemical_formula_sum   'Ba32 Y32 Fe32 Cu32 O160'
_cell_volume   3800.54546106
_cell_formula_units_Z   32
loop_
 _symmetry_equiv_pos_site_id
 _symmetry_equiv_pos_as_xyz
  1  'x, y, z'
loop_
 _atom_type_symbol
 _atom_type_oxidation_number
  Ba2+  2.0
  Y3+  3.0
  Fe3+  3.0
  Cu2+  2.0
  O2-  -2.0
loop_
 _atom_site_type_symbol
 _atom_site_label
 _atom_site_symmetry_multiplicity
 _atom_site_fract_x
 _atom_site_fract_y
 _atom_site_fract_z
 _atom_site_occupancy
  Ba2+  Ba0  1  0.00374878  -0.00540308  0.02374286  1
  Ba2+  Ba1  1  0.00426184  0.00780635  0.50534270  1
  Ba2+  Ba2  1  0.00006347  0.24946427  0.01736312  1
  Ba2+  Ba3  1  -0.00086200  0.25447094  0.50155493  1
  Ba2+  Ba4  1  -0.00151327  0.50730011  0.00462554  1
  Ba2+  Ba5  1  0.00100840  0.49478661  0.51692152  1
  Ba2+  Ba6  1  0.00281607  0.74819639  0.01109347  1
  Ba2+  Ba7  1  0.00604801  0.74408217  0.52199657  1
  Ba2+  Ba8  1  0.24507506  -0.00395240  0.02331314  1
  Ba2+  Ba9  1  0.25460615  0.00075899  0.50613459  1
  Ba2+  Ba10  1  0.25306994  0.25256161  0.01123043  1
  Ba2+  Ba11  1  0.24941918  0.25104071  0.49530266  1
  Ba2+  Ba12  1  0.24927918  0.50045838  0.00667562  1
  Ba2+  Ba13  1  0.24672006  0.49798039  0.51418516  1
  Ba2+  Ba14  1  0.24216051  0.75173002  0.01546131  1
  Ba2+  Ba15  1  0.25173977  0.75072779  0.52166886  1
  Ba2+  Ba16  1  0.50061641  0.00148537  0.01745456  1
  Ba2+  Ba17  1  0.49029925  0.00430712  0.51064500  1
  Ba2+  Ba18  1  0.50225136  0.25551306  0.01737092  1
  Ba2+  Ba19  1  0.49679408  0.24926859  0.50199346  1
  Ba2+  Ba20  1  0.50137145  0.49260236  0.00720219  1
  Ba2+  Ba21  1  0.49855076  0.49973474  0.50777608  1
  Ba2+  Ba22  1  0.49999548  0.74943418  0.00610718  1
  Ba2+  Ba23  1  0.49173411  0.74666143  0.51785077  1
  Ba2+  Ba24  1  0.75090399  0.00033843  0.01725196  1
  Ba2+  Ba25  1  0.75177825  0.01109940  0.51083322  1
  Ba2+  Ba26  1  0.74525957  0.25406912  0.02400426  1
  Ba2+  Ba27  1  0.75583494  0.25291440  0.50638479  1
  Ba2+  Ba28  1  0.75043382  0.49927018  0.00557682  1
  Ba2+  Ba29  1  0.75354068  0.49608006  0.51153667  1
  Ba2+  Ba30  1  0.75536113  0.74515777  -0.00043651  1
  Ba2+  Ba31  1  0.74957701  0.73929410  0.51738332  1
  Y3+  Y32  1  0.00072718  0.00140387  0.26018903  1
  Y3+  Y33  1  0.00042860  0.00082710  0.75225228  1
  Y3+  Y34  1  -0.00008151  0.25109550  0.26231870  1
  Y3+  Y35  1  -0.00101446  0.25136729  0.75207075  1
  Y3+  Y36  1  0.00060455  0.49768061  0.25802021  1
  Y3+  Y37  1  0.00077460  0.50058124  0.75622474  1
  Y3+  Y38  1  0.00183829  0.75002079  0.25366117  1
  Y3+  Y39  1  0.00210468  0.74671527  0.75841850  1
  Y3+  Y40  1  0.25103888  0.00017915  0.26143967  1
  Y3+  Y41  1  0.25158841  -0.00060198  0.75173743  1
  Y3+  Y42  1  0.24998359  0.25095016  0.25853687  1
  Y3+  Y43  1  0.25060193  0.25104400  0.75766192  1
  Y3+  Y44  1  0.24898717  0.49781172  0.25565895  1
  Y3+  Y45  1  0.24841128  0.49947462  0.76023786  1
  Y3+  Y46  1  0.25004180  0.75165714  0.25507172  1
  Y3+  Y47  1  0.24904438  0.74929290  0.75686086  1
  Y3+  Y48  1  0.49713021  -0.00023614  0.26052793  1
  Y3+  Y49  1  0.49819903  0.00213736  0.75233205  1
  Y3+  Y50  1  0.49903582  0.25269060  0.25842359  1
  Y3+  Y51  1  0.49853705  0.24882953  0.75730470  1
  Y3+  Y52  1  0.49925073  0.49616453  0.25678835  1
  Y3+  Y53  1  0.49992513  0.50024133  0.75999823  1
  Y3+  Y54  1  0.49738738  0.75164021  0.25733458  1
  Y3+  Y55  1  0.49937403  0.74865531  0.75637848  1
  Y3+  Y56  1  0.75087443  0.00137325  0.25939535  1
  Y3+  Y57  1  0.75038236  0.00289133  0.75312504  1
  Y3+  Y58  1  0.75065625  0.25318962  0.26203277  1
  Y3+  Y59  1  0.75172988  0.24900420  0.75165010  1
  Y3+  Y60  1  0.75046776  0.49600442  0.25934893  1
  Y3+  Y61  1  0.75121722  0.50151506  0.75562655  1
  Y3+  Y62  1  0.75074914  0.75055239  0.25712062  1
  Y3+  Y63  1  0.74972408  0.74624414  0.75687036  1
  Fe3+  Fe64  1  0.62536787  0.87613803  0.87757206  1
  Fe3+  Fe65  1  0.12401437  0.37385710  0.87968174  1
  Fe3+  Fe66  1  0.37451269  0.12425475  0.88101544  1
  Fe3+  Fe67  1  0.62432947  0.12574786  0.37636076  1
  Fe3+  Fe68  1  0.62629680  0.37345410  0.87507595  1
  Fe3+  Fe69  1  0.12551671  0.62487501  0.37585682  1
  Fe3+  Fe70  1  0.12537571  0.87339244  0.37792908  1
  Fe3+  Fe71  1  0.87469396  0.37349845  0.87727918  1
  Fe3+  Fe72  1  0.87568731  0.12490470  0.88014861  1
  Fe3+  Fe73  1  0.62427030  0.87407040  0.38122155  1
  Fe3+  Fe74  1  0.62411593  0.62460939  0.37721184  1
  Fe3+  Fe75  1  0.87657122  0.62492614  0.37775100  1
  Fe3+  Fe76  1  0.37454901  0.87664031  0.87770510  1
  Fe3+  Fe77  1  0.62580780  0.12504040  0.87740185  1
  Fe3+  Fe78  1  0.87580100  0.87618388  0.87543672  1
  Fe3+  Fe79  1  0.12495121  0.87666726  0.87375521  1
  Fe3+  Fe80  1  0.12444015  0.12372914  0.87880979  1
  Fe3+  Fe81  1  0.87543969  0.87364150  0.38058356  1
  Fe3+  Fe82  1  0.37463836  0.62527924  0.87942570  1
  Fe3+  Fe83  1  0.37322988  0.62467521  0.37501989  1
  Fe3+  Fe84  1  0.87443068  0.62409143  0.13854303  1
  Fe3+  Fe85  1  0.62568577  0.87431536  0.13541156  1
  Fe3+  Fe86  1  0.12658235  0.12696773  0.63607423  1
  Fe3+  Fe87  1  0.87577452  0.87474869  0.63342924  1
  Fe3+  Fe88  1  0.37491845  0.62482542  0.13420216  1
  Fe3+  Fe89  1  0.37487105  0.12531908  0.13746056  1
  Fe3+  Fe90  1  0.62428006  0.37455948  0.63664757  1
  Fe3+  Fe91  1  0.12388468  0.37519072  0.13590341  1
  Fe3+  Fe92  1  0.62526262  0.62430360  0.13650112  1
  Fe3+  Fe93  1  0.62470042  0.87541410  0.63391218  1
  Fe3+  Fe94  1  0.87490294  0.12556003  0.13771059  1
  Fe3+  Fe95  1  0.37440317  0.37477862  0.63949932  1
  Cu2+  Cu96  1  0.37508577  0.12577615  0.37092996  1
  Cu2+  Cu97  1  0.87492474  0.12533635  0.37198079  1
  Cu2+  Cu98  1  0.87525353  0.62459711  0.86089654  1
  Cu2+  Cu99  1  0.12548026  0.62542721  0.87350206  1
  Cu2+  Cu100  1  0.62465436  0.62469032  0.86556444  1
  Cu2+  Cu101  1  0.37534933  0.37392643  0.87514879  1
  Cu2+  Cu102  1  0.12552851  0.12532940  0.36276671  1
  Cu2+  Cu103  1  0.62443593  0.37587877  0.36835658  1
  Cu2+  Cu104  1  0.37435383  0.37640043  0.36267678  1
  Cu2+  Cu105  1  0.87566557  0.37663381  0.37180856  1
  Cu2+  Cu106  1  0.37447990  0.87338001  0.37339097  1
  Cu2+  Cu107  1  0.12519129  0.37656757  0.37235258  1
  Cu2+  Cu108  1  0.87553413  0.37527412  0.64291898  1
  Cu2+  Cu109  1  0.12590790  0.37406790  0.64368349  1
  Cu2+  Cu110  1  0.37542406  0.87496499  0.14847289  1
  Cu2+  Cu111  1  0.12517215  0.87558347  0.64648304  1
  Cu2+  Cu112  1  0.87437921  0.87457646  0.15141328  1
  Cu2+  Cu113  1  0.87589665  0.62481336  0.65187760  1
  Cu2+  Cu114  1  0.37434680  0.37551684  0.14150262  1
  Cu2+  Cu115  1  0.62477237  0.12504676  0.15324628  1
  Cu2+  Cu116  1  0.87635635  0.12588640  0.63958509  1
  Cu2+  Cu117  1  0.87539688  0.37528452  0.15012835  1
  Cu2+  Cu118  1  0.37392081  0.12743001  0.64247453  1
  Cu2+  Cu119  1  0.12460075  0.62386654  0.14067650  1
  Cu2+  Cu120  1  0.12474310  0.87538830  0.15626419  1
  Cu2+  Cu121  1  0.37461688  0.62295394  0.65628846  1
  Cu2+  Cu122  1  0.12504633  0.12587290  0.15277953  1
  Cu2+  Cu123  1  0.62549596  0.37571934  0.15501795  1
  Cu2+  Cu124  1  0.37500071  0.87486062  0.64235206  1
  Cu2+  Cu125  1  0.62399016  0.62364181  0.65126401  1
  Cu2+  Cu126  1  0.12614917  0.62394255  0.65442326  1
  Cu2+  Cu127  1  0.62410411  0.12632146  0.64581425  1
  O2-  O128  1  0.12294987  0.12141099  -0.00146665  1
  O2-  O129  1  0.12662216  0.12757043  0.51561959  1
  O2-  O130  1  0.12293918  0.37430677  0.00743211  1
  O2-  O131  1  0.12622172  0.37575168  0.50758668  1
  O2-  O132  1  0.12435900  0.62568122  0.00640466  1
  O2-  O133  1  0.12689605  0.62559801  0.49574963  1
  O2-  O134  1  0.12352858  0.87707382  -0.00602717  1
  O2-  O135  1  0.12496048  0.87191607  0.49796449  1
  O2-  O136  1  0.37512330  0.12291564  0.00803886  1
  O2-  O137  1  0.37392104  0.12717688  0.50647162  1
  O2-  O138  1  0.37563405  0.37369794  0.00833390  1
  O2-  O139  1  0.37473036  0.37611198  0.51898080  1
  O2-  O140  1  0.37579180  0.62615973  0.00670673  1
  O2-  O141  1  0.37325088  0.62440118  0.49511515  1
  O2-  O142  1  0.37561175  0.87801115  -0.00252751  1
  O2-  O143  1  0.37522449  0.87301159  0.50702684  1
  O2-  O144  1  0.62664969  0.12390784  -0.00293417  1
  O2-  O145  1  0.62362811  0.12492205  0.49694875  1
  O2-  O146  1  0.62725298  0.37344462  -0.00409181  1
  O2-  O147  1  0.62297148  0.37608477  0.51589440  1
  O2-  O148  1  0.62680543  0.62588731  0.01644426  1
  O2-  O149  1  0.62244263  0.62582795  0.49740919  1
  O2-  O150  1  0.62652833  0.87557336  0.00576262  1
  O2-  O151  1  0.62429923  0.87384509  0.50672220  1
  O2-  O152  1  0.87491369  0.12427443  0.00718606  1
  O2-  O153  1  0.87590055  0.12486767  0.50570363  1
  O2-  O154  1  0.87374243  0.37201351  -0.00270080  1
  O2-  O155  1  0.87529472  0.37679952  0.50724493  1
  O2-  O156  1  0.87335238  0.62529650  0.01773487  1
  O2-  O157  1  0.87660144  0.62555640  0.49803617  1
  O2-  O158  1  0.87486959  0.87685939  -0.00446641  1
  O2-  O159  1  0.87508525  0.87324042  0.50630649  1
  O2-  O160  1  0.12406107  0.00012311  0.16689362  1
  O2-  O161  1  0.12526151  0.00086894  0.66150136  1
  O2-  O162  1  0.12453982  0.25166828  0.16329266  1
  O2-  O163  1  0.12548452  0.24900232  0.67063315  1
  O2-  O164  1  0.12404032  0.49712126  0.16310614  1
  O2-  O165  1  0.12569709  0.50069671  0.66847004  1
  O2-  O166  1  0.12488917  0.75145526  0.16142959  1
  O2-  O167  1  0.12538908  0.74949895  0.66421729  1
  O2-  O168  1  0.37606466  0.00123726  0.16533205  1
  O2-  O169  1  0.37535372  0.00073209  0.66246502  1
  O2-  O170  1  0.37490886  0.24750845  0.16395198  1
  O2-  O171  1  0.37506966  0.25231702  0.67121699  1
  O2-  O172  1  0.37583433  0.50293363  0.16261428  1
  O2-  O173  1  0.37517159  0.49904867  0.67115394  1
  O2-  O174  1  0.37550725  0.74912239  0.16058583  1
  O2-  O175  1  0.37571214  0.74750292  0.66628788  1
  O2-  O176  1  0.62499529  -0.00226860  0.16362326  1
  O2-  O177  1  0.62557302  -0.00104764  0.66123339  1
  O2-  O178  1  0.62572314  0.25062065  0.16475862  1
  O2-  O179  1  0.62444498  0.25070413  0.66524103  1
  O2-  O180  1  0.62459558  0.50078742  0.16577669  1
  O2-  O181  1  0.62444245  0.49926456  0.66757795  1
  O2-  O182  1  0.62575769  0.75081963  0.16476797  1
  O2-  O183  1  0.62481158  0.75089686  0.66411460  1
  O2-  O184  1  0.87460952  0.00128660  0.16461145  1
  O2-  O185  1  0.87414543  -0.00320676  0.66211897  1
  O2-  O186  1  0.87404900  0.24853521  0.16384203  1
  O2-  O187  1  0.87535571  0.25020798  0.66549339  1
  O2-  O188  1  0.87475407  0.49987434  0.16531075  1
  O2-  O189  1  0.87535506  0.50181837  0.66738223  1
  O2-  O190  1  0.87343134  0.74963370  0.16597226  1
  O2-  O191  1  0.87459434  0.75133631  0.66335403  1
  O2-  O192  1  -0.00200513  0.12483706  0.16377922  1
  O2-  O193  1  0.00253320  0.12461436  0.66662842  1
  O2-  O194  1  0.00110052  0.37382889  0.16395169  1
  O2-  O195  1  0.00012369  0.37565236  0.66558032  1
  O2-  O196  1  -0.00189101  0.62569359  0.16463853  1
  O2-  O197  1  0.00140919  0.62501904  0.66442019  1
  O2-  O198  1  -0.00018070  0.87527597  0.16469590  1
  O2-  O199  1  -0.00162344  0.87474053  0.66073543  1
  O2-  O200  1  0.25142124  0.12419520  0.16233673  1
  O2-  O201  1  0.24866345  0.12553786  0.66979998  1
  O2-  O202  1  0.24684005  0.37490995  0.16207082  1
  O2-  O203  1  0.25155382  0.37596150  0.67112685  1
  O2-  O204  1  0.25242326  0.62522903  0.15933199  1
  O2-  O205  1  0.25021704  0.62428052  0.66756309  1
  O2-  O206  1  0.24964935  0.87595067  0.16260017  1
  O2-  O207  1  0.24921595  0.87426091  0.66518876  1
  O2-  O208  1  0.49893034  0.12467766  0.16178022  1
  O2-  O209  1  0.50017586  0.12515387  0.66650390  1
  O2-  O210  1  0.50129440  0.37473312  0.16467274  1
  O2-  O211  1  0.49997740  0.37540402  0.66948980  1
  O2-  O212  1  0.49953638  0.62675430  0.16288553  1
  O2-  O213  1  0.49922341  0.62485996  0.66732914  1
  O2-  O214  1  0.50263801  0.87462019  0.16284317  1
  O2-  O215  1  0.50317849  0.87473263  0.66564795  1
  O2-  O216  1  0.75120539  0.12350691  0.16286519  1
  O2-  O217  1  0.74913042  0.12475460  0.66399685  1
  O2-  O218  1  0.75017043  0.37518784  0.16637146  1
  O2-  O219  1  0.74860264  0.37527244  0.66334196  1
  O2-  O220  1  0.74949814  0.62489999  0.16959461  1
  O2-  O221  1  0.74987330  0.62555821  0.66308979  1
  O2-  O222  1  0.74774162  0.87580623  0.16641639  1
  O2-  O223  1  0.74963544  0.87436080  0.66106837  1
  O2-  O224  1  0.12457398  -0.00064983  0.35071034  1
  O2-  O225  1  0.12475088  0.00043507  0.84062623  1
  O2-  O226  1  0.12527811  0.24925764  0.34827373  1
  O2-  O227  1  0.12435469  0.24964230  0.85162658  1
  O2-  O228  1  0.12554482  0.50231673  0.34449995  1
  O2-  O229  1  0.12446996  0.49668232  0.85279803  1
  O2-  O230  1  0.12477149  0.74965672  0.34229731  1
  O2-  O231  1  0.12507228  0.75281288  0.84683157  1
  O2-  O232  1  0.37521098  -0.00036524  0.34973622  1
  O2-  O233  1  0.37595892  0.00122508  0.84461073  1
  O2-  O234  1  0.37509354  0.25253068  0.34816975  1
  O2-  O235  1  0.37511575  0.24598197  0.85289310  1
  O2-  O236  1  0.37461689  0.50079859  0.34514707  1
  O2-  O237  1  0.37560991  0.50214398  0.85443919  1
  O2-  O238  1  0.37532624  0.74767033  0.34276030  1
  O2-  O239  1  0.37610425  0.75049457  0.84969424  1
  O2-  O240  1  0.62576089  -0.00202350  0.34822179  1
  O2-  O241  1  0.62545454  -0.00055066  0.84481836  1
  O2-  O242  1  0.62413147  0.25068901  0.34910143  1
  O2-  O243  1  0.62597452  0.24838658  0.84467421  1
  O2-  O244  1  0.62460969  0.50100078  0.34799065  1
  O2-  O245  1  0.62543585  0.49904026  0.85020310  1
  O2-  O246  1  0.62461516  0.75089825  0.34632654  1
  O2-  O247  1  0.62550372  0.75226540  0.85019329  1
  O2-  O248  1  0.87388954  -0.00404248  0.34963448  1
  O2-  O249  1  0.87421322  0.00158268  0.84451377  1
  O2-  O250  1  0.87519891  0.25100517  0.34895547  1
  O2-  O251  1  0.87495282  0.24775095  0.84743222  1
  O2-  O252  1  0.87464307  0.50267647  0.34649333  1
  O2-  O253  1  0.87481345  0.49922018  0.85111877  1
  O2-  O254  1  0.87471005  0.75114270  0.34694276  1
  O2-  O255  1  0.87397418  0.75060894  0.84740156  1
  O2-  O256  1  0.00114821  0.12462235  0.34813707  1
  O2-  O257  1  -0.00152862  0.12409512  0.84840071  1
  O2-  O258  1  0.00027440  0.37553212  0.34759777  1
  O2-  O259  1  0.00009444  0.37401770  0.84820440  1
  O2-  O260  1  0.00037521  0.62577477  0.34439837  1
  O2-  O261  1  -0.00072022  0.62527925  0.84878612  1
  O2-  O262  1  -0.00096382  0.87504553  0.34839476  1
  O2-  O263  1  -0.00050388  0.87569443  0.84220119  1
  O2-  O264  1  0.24925235  0.12583166  0.34653896  1
  O2-  O265  1  0.25072625  0.12440570  0.85153595  1
  O2-  O266  1  0.25115388  0.37520975  0.34591601  1
  O2-  O267  1  0.24710195  0.37386157  0.85352853  1
  O2-  O268  1  0.24957905  0.62507110  0.34043530  1
  O2-  O269  1  0.25312017  0.62540616  0.85119704  1
  O2-  O270  1  0.24782837  0.87470151  0.34588235  1
  O2-  O271  1  0.25068622  0.87581694  0.84588389  1
  O2-  O272  1  0.50179381  0.12469292  0.34458868  1
  O2-  O273  1  0.49937700  0.12363305  0.84975860  1
  O2-  O274  1  0.49891000  0.37605495  0.34933887  1
  O2-  O275  1  0.50237315  0.37404807  0.84928954  1
  O2-  O276  1  0.49966257  0.62485980  0.34384874  1
  O2-  O277  1  0.49816362  0.62628495  0.85156382  1
  O2-  O278  1  0.50318160  0.87476876  0.34767339  1
  O2-  O279  1  0.50123324  0.87537639  0.84941640  1
  O2-  O280  1  0.74764715  0.12468596  0.34579148  1
  O2-  O281  1  0.75180290  0.12342083  0.84692153  1
  O2-  O282  1  0.74924015  0.37547563  0.35069356  1
  O2-  O283  1  0.75080876  0.37463220  0.84320945  1
  O2-  O284  1  0.74982659  0.62671015  0.34901821  1
  O2-  O285  1  0.74983024  0.62563272  0.84795831  1
  O2-  O286  1  0.74956789  0.87386021  0.35099375  1
  O2-  O287  1  0.74900882  0.87539549  0.84573208  1
