# generated using pymatgen
data_BaYFeCuO5
_symmetry_space_group_name_H-M   'P 1'
_cell_length_a   15.66221398
_cell_length_b   15.65949451
_cell_length_c   15.45774187
_cell_angle_alpha   90.00607757
_cell_angle_beta   89.99750878
_cell_angle_gamma   89.99789183
_symmetry_Int_Tables_number   1
_chemical_formula_structural   BaYFeCuO5
_chemical_formula_sum   'Ba32 Y32 Fe32 Cu32 O160'
_cell_volume   3791.20213044
_cell_formula_units_Z   32
loop_
 _symmetry_equiv_pos_site_id
 _symmetry_equiv_pos_as_xyz
  1  'x, y, z'
loop_
 _atom_type_symbol
 _atom_type_oxidation_number
  Ba2+  2.0
  Y3+  3.0
  Fe3+  3.0
  Cu2+  2.0
  O2-  -2.0
loop_
 _atom_site_type_symbol
 _atom_site_label
 _atom_site_symmetry_multiplicity
 _atom_site_fract_x
 _atom_site_fract_y
 _atom_site_fract_z
 _atom_site_occupancy
  Ba2+  Ba0  1  0.00397722  0.00570584  0.01069931  1
  Ba2+  Ba1  1  0.00602781  0.00180236  0.51180621  1
  Ba2+  Ba2  1  -0.00027179  0.25203981  0.01939758  1
  Ba2+  Ba3  1  -0.00135282  0.23930615  0.51073173  1
  Ba2+  Ba4  1  0.00300951  0.50038096  0.02164477  1
  Ba2+  Ba5  1  0.00623750  0.50528942  0.51088077  1
  Ba2+  Ba6  1  0.00635992  0.74309906  0.01521156  1
  Ba2+  Ba7  1  0.01247895  0.75356627  0.51058447  1
  Ba2+  Ba8  1  0.25315412  -0.00315958  0.01100344  1
  Ba2+  Ba9  1  0.24486561  -0.00767383  0.51638634  1
  Ba2+  Ba10  1  0.25153648  0.25374565  0.01106320  1
  Ba2+  Ba11  1  0.25104165  0.25012692  0.50699940  1
  Ba2+  Ba12  1  0.25240618  0.50292827  0.01103241  1
  Ba2+  Ba13  1  0.25761785  0.50815842  0.50681407  1
  Ba2+  Ba14  1  0.25319578  0.74665230  0.01102055  1
  Ba2+  Ba15  1  0.25115544  0.75020118  0.51979613  1
  Ba2+  Ba16  1  0.49660275  -0.00318341  0.01081287  1
  Ba2+  Ba17  1  0.49840461  -0.00986649  0.51871530  1
  Ba2+  Ba18  1  0.49368484  0.24771836  0.01777438  1
  Ba2+  Ba19  1  0.50164454  0.26043338  0.50275850  1
  Ba2+  Ba20  1  0.49375537  0.50553408  0.00694041  1
  Ba2+  Ba21  1  0.49411565  0.49884143  0.49998814  1
  Ba2+  Ba22  1  0.49609901  0.74730202  0.00172641  1
  Ba2+  Ba23  1  0.49072795  0.75035277  0.51922232  1
  Ba2+  Ba24  1  0.74591840  0.00511723  0.01278074  1
  Ba2+  Ba25  1  0.75346920  0.00321515  0.51084057  1
  Ba2+  Ba26  1  0.75496078  0.24720890  0.02496451  1
  Ba2+  Ba27  1  0.74962992  0.24914159  0.50631233  1
  Ba2+  Ba28  1  0.75230928  0.50497751  0.01867062  1
  Ba2+  Ba29  1  0.74204290  0.49444686  0.50723279  1
  Ba2+  Ba30  1  0.74309722  0.74369300  0.00601432  1
  Ba2+  Ba31  1  0.74399696  0.75487941  0.51239225  1
  Y3+  Y32  1  0.00161289  -0.00095286  0.25943844  1
  Y3+  Y33  1  0.00189832  0.00156119  0.75444928  1
  Y3+  Y34  1  -0.00122605  0.24927196  0.25942684  1
  Y3+  Y35  1  0.00080957  0.24690796  0.75460807  1
  Y3+  Y36  1  0.00151245  0.50116761  0.25552362  1
  Y3+  Y37  1  0.00269909  0.50135571  0.75720036  1
  Y3+  Y38  1  0.00418299  0.75070793  0.25545834  1
  Y3+  Y39  1  0.00396113  0.74952411  0.75704900  1
  Y3+  Y40  1  0.25021255  -0.00402130  0.25455601  1
  Y3+  Y41  1  0.24811864  -0.00224642  0.75871004  1
  Y3+  Y42  1  0.25279357  0.25246999  0.25569920  1
  Y3+  Y43  1  0.24946711  0.24985419  0.75916727  1
  Y3+  Y44  1  0.25332959  0.50153072  0.25432573  1
  Y3+  Y45  1  0.25201148  0.50321097  0.76128459  1
  Y3+  Y46  1  0.25076861  0.74990856  0.25393882  1
  Y3+  Y47  1  0.25121994  0.74833402  0.76088661  1
  Y3+  Y48  1  0.49784171  0.00003918  0.25289705  1
  Y3+  Y49  1  0.49961988  -0.00426007  0.76040845  1
  Y3+  Y50  1  0.49915462  0.25240666  0.25770137  1
  Y3+  Y51  1  0.49947306  0.25323334  0.75791043  1
  Y3+  Y52  1  0.49752538  0.50070535  0.25617139  1
  Y3+  Y53  1  0.49804312  0.50142492  0.76015354  1
  Y3+  Y54  1  0.49643269  0.74763774  0.25279254  1
  Y3+  Y55  1  0.49775500  0.74958197  0.76220809  1
  Y3+  Y56  1  0.75139187  0.00227788  0.25823940  1
  Y3+  Y57  1  0.74928437  -0.00073049  0.75575830  1
  Y3+  Y58  1  0.75037979  0.24927750  0.26181711  1
  Y3+  Y59  1  0.74922598  0.25067350  0.75157891  1
  Y3+  Y60  1  0.74807033  0.50033757  0.25794113  1
  Y3+  Y61  1  0.74609778  0.49933982  0.75709833  1
  Y3+  Y62  1  0.74945694  0.74831461  0.25485982  1
  Y3+  Y63  1  0.74617380  0.75020097  0.75960756  1
  Fe3+  Fe64  1  0.12745036  0.62619750  0.37544787  1
  Fe3+  Fe65  1  0.12396448  0.37477385  0.87679963  1
  Fe3+  Fe66  1  0.37445053  0.12504516  0.87559900  1
  Fe3+  Fe67  1  0.12715470  0.12408158  0.37642401  1
  Fe3+  Fe68  1  0.87500771  0.87489224  0.87959989  1
  Fe3+  Fe69  1  0.62520487  0.12659900  0.87615091  1
  Fe3+  Fe70  1  0.37510663  0.12355947  0.37988513  1
  Fe3+  Fe71  1  0.62301146  0.62650241  0.37932812  1
  Fe3+  Fe72  1  0.87563247  0.62383116  0.87515964  1
  Fe3+  Fe73  1  0.12407989  0.87490852  0.87835429  1
  Fe3+  Fe74  1  0.62339814  0.87467544  0.37688009  1
  Fe3+  Fe75  1  0.87479053  0.37464307  0.87547696  1
  Fe3+  Fe76  1  0.62317413  0.12364538  0.37903881  1
  Fe3+  Fe77  1  0.87460483  0.12622082  0.87463762  1
  Fe3+  Fe78  1  0.12625923  0.37574288  0.37932459  1
  Fe3+  Fe79  1  0.87521462  0.62631711  0.37993767  1
  Fe3+  Fe80  1  0.87620216  0.37594776  0.37939181  1
  Fe3+  Fe81  1  0.62536639  0.37426829  0.88170816  1
  Fe3+  Fe82  1  0.87587304  0.87448224  0.37927763  1
  Fe3+  Fe83  1  0.37436383  0.87388198  0.37527882  1
  Fe3+  Fe84  1  0.62497158  0.87448270  0.13658860  1
  Fe3+  Fe85  1  0.62278227  0.62453113  0.63588755  1
  Fe3+  Fe86  1  0.12635804  0.12549984  0.13854775  1
  Fe3+  Fe87  1  0.87549104  0.37564676  0.63277982  1
  Fe3+  Fe88  1  0.87463612  0.62556860  0.63279870  1
  Fe3+  Fe89  1  0.37475292  0.37597738  0.63898878  1
  Fe3+  Fe90  1  0.62292032  0.12489493  0.63396964  1
  Fe3+  Fe91  1  0.62460249  0.37533516  0.13685000  1
  Fe3+  Fe92  1  0.37496945  0.12445820  0.63444804  1
  Fe3+  Fe93  1  0.87558647  0.87420164  0.63542062  1
  Fe3+  Fe94  1  0.87542441  0.87478057  0.13414780  1
  Fe3+  Fe95  1  0.12647003  0.37556221  0.63374479  1
  Cu2+  Cu96  1  0.37412825  0.87519840  0.87363331  1
  Cu2+  Cu97  1  0.62499810  0.62342793  0.87308910  1
  Cu2+  Cu98  1  0.37493788  0.62681785  0.37098128  1
  Cu2+  Cu99  1  0.37408268  0.37548800  0.36277928  1
  Cu2+  Cu100  1  0.62474752  0.37576799  0.37181775  1
  Cu2+  Cu101  1  0.12443165  0.12537214  0.86443783  1
  Cu2+  Cu102  1  0.12669303  0.87446111  0.37110153  1
  Cu2+  Cu103  1  0.12442137  0.62427236  0.87360342  1
  Cu2+  Cu104  1  0.37478111  0.37448393  0.87434423  1
  Cu2+  Cu105  1  0.37430019  0.62478222  0.86982378  1
  Cu2+  Cu106  1  0.87587822  0.12383128  0.37401066  1
  Cu2+  Cu107  1  0.62561914  0.87564262  0.86700457  1
  Cu2+  Cu108  1  0.62471521  0.87433166  0.65205430  1
  Cu2+  Cu109  1  0.37526748  0.62507116  0.14496661  1
  Cu2+  Cu110  1  0.12596205  0.62410841  0.65173414  1
  Cu2+  Cu111  1  0.62307344  0.37578277  0.64091420  1
  Cu2+  Cu112  1  0.87461807  0.12432666  0.63990412  1
  Cu2+  Cu113  1  0.12676847  0.12569155  0.64979317  1
  Cu2+  Cu114  1  0.37510610  0.62457222  0.64484570  1
  Cu2+  Cu115  1  0.37435612  0.12499763  0.15242337  1
  Cu2+  Cu116  1  0.87470962  0.37535833  0.15629184  1
  Cu2+  Cu117  1  0.37403866  0.87482426  0.65629052  1
  Cu2+  Cu118  1  0.62456574  0.12533183  0.15320721  1
  Cu2+  Cu119  1  0.87611647  0.12402811  0.15580066  1
  Cu2+  Cu120  1  0.12551567  0.37479797  0.15338418  1
  Cu2+  Cu121  1  0.87526797  0.62582126  0.15378282  1
  Cu2+  Cu122  1  0.62380953  0.62494602  0.14206976  1
  Cu2+  Cu123  1  0.12492400  0.87518340  0.14610613  1
  Cu2+  Cu124  1  0.37511438  0.87407046  0.13991196  1
  Cu2+  Cu125  1  0.37524789  0.37585301  0.14133460  1
  Cu2+  Cu126  1  0.12662665  0.62457968  0.14254631  1
  Cu2+  Cu127  1  0.12519290  0.87416647  0.64486042  1
  O2-  O128  1  0.12444339  0.12752912  0.01760680  1
  O2-  O129  1  0.12773324  0.12416717  0.49744033  1
  O2-  O130  1  0.12137675  0.37329187  -0.00267709  1
  O2-  O131  1  0.12652147  0.37579810  0.50617161  1
  O2-  O132  1  0.12382978  0.62290055  0.00710684  1
  O2-  O133  1  0.12713503  0.62596475  0.49661297  1
  O2-  O134  1  0.12115820  0.87668085  -0.00092772  1
  O2-  O135  1  0.12586622  0.87485287  0.50746917  1
  O2-  O136  1  0.37481132  0.12525200  -0.00355943  1
  O2-  O137  1  0.37575215  0.12335020  0.50639126  1
  O2-  O138  1  0.37536593  0.37356213  0.00789992  1
  O2-  O139  1  0.37419572  0.37584418  0.51783454  1
  O2-  O140  1  0.37451053  0.62515438  0.00747644  1
  O2-  O141  1  0.37569487  0.62643989  0.50840262  1
  O2-  O142  1  0.37537982  0.87608583  0.00635023  1
  O2-  O143  1  0.37424913  0.87470480  0.49604673  1
  O2-  O144  1  0.62720231  0.12823216  -0.00354215  1
  O2-  O145  1  0.62209926  0.12322013  0.50589411  1
  O2-  O146  1  0.62739521  0.37333729  0.00797492  1
  O2-  O147  1  0.62459132  0.37530347  0.50641194  1
  O2-  O148  1  0.62633787  0.62298031  0.00718460  1
  O2-  O149  1  0.62285823  0.62634723  0.50714832  1
  O2-  O150  1  0.62811911  0.87619233  0.01584137  1
  O2-  O151  1  0.62323344  0.87464295  0.49711870  1
  O2-  O152  1  0.87403902  0.12753913  -0.00503673  1
  O2-  O153  1  0.87479595  0.12344398  0.50646349  1
  O2-  O154  1  0.87488325  0.37447077  -0.00465157  1
  O2-  O155  1  0.87583727  0.37595590  0.50578485  1
  O2-  O156  1  0.87577482  0.62267819  -0.00430111  1
  O2-  O157  1  0.87467264  0.62727098  0.50593846  1
  O2-  O158  1  0.87477032  0.87522340  0.00633183  1
  O2-  O159  1  0.87526190  0.87410416  0.50696681  1
  O2-  O160  1  0.12462055  0.00070580  0.16524597  1
  O2-  O161  1  0.12526911  0.00133469  0.66504776  1
  O2-  O162  1  0.12442123  0.24983026  0.16969049  1
  O2-  O163  1  0.12439752  0.25229755  0.66031477  1
  O2-  O164  1  0.12454050  0.49827749  0.16731020  1
  O2-  O165  1  0.12503396  0.49823642  0.66194231  1
  O2-  O166  1  0.12439812  0.75115697  0.16323319  1
  O2-  O167  1  0.12429889  0.74774573  0.66590481  1
  O2-  O168  1  0.37487703  0.00108828  0.16420217  1
  O2-  O169  1  0.37419060  0.00084355  0.66200184  1
  O2-  O170  1  0.37551949  0.24893707  0.16835960  1
  O2-  O171  1  0.37593876  0.24866574  0.66238899  1
  O2-  O172  1  0.37563084  0.50124485  0.16580726  1
  O2-  O173  1  0.37415995  0.49864810  0.66849233  1
  O2-  O174  1  0.37515047  0.74879711  0.16294923  1
  O2-  O175  1  0.37514041  0.75132508  0.66681480  1
  O2-  O176  1  0.62617857  0.00011097  0.16554614  1
  O2-  O177  1  0.62533338  0.00081253  0.66247687  1
  O2-  O178  1  0.62598511  0.25111774  0.16671854  1
  O2-  O179  1  0.62329295  0.24737343  0.66110569  1
  O2-  O180  1  0.62631684  0.49734946  0.16614111  1
  O2-  O181  1  0.62555855  0.50286922  0.66475804  1
  O2-  O182  1  0.62634499  0.75146504  0.16661804  1
  O2-  O183  1  0.62527413  0.74832548  0.66437673  1
  O2-  O184  1  0.87482528  -0.00195435  0.16296773  1
  O2-  O185  1  0.87411995  -0.00320711  0.66453643  1
  O2-  O186  1  0.87520528  0.24948065  0.16804586  1
  O2-  O187  1  0.87567143  0.25319197  0.65916791  1
  O2-  O188  1  0.87467408  0.50066788  0.16805627  1
  O2-  O189  1  0.87454623  0.50092453  0.65768385  1
  O2-  O190  1  0.87490126  0.75202201  0.16351836  1
  O2-  O191  1  0.87452076  0.74905351  0.66299130  1
  O2-  O192  1  0.00076668  0.12494007  0.16707301  1
  O2-  O193  1  0.00172085  0.12454355  0.66220279  1
  O2-  O194  1  -0.00080425  0.37523115  0.16759357  1
  O2-  O195  1  0.00038985  0.37638763  0.65762144  1
  O2-  O196  1  -0.00069150  0.62511837  0.16716393  1
  O2-  O197  1  -0.00162417  0.62440749  0.65918426  1
  O2-  O198  1  -0.00213116  0.87509747  0.16523104  1
  O2-  O199  1  -0.00250242  0.87440324  0.66308704  1
  O2-  O200  1  0.24973398  0.12577046  0.16685754  1
  O2-  O201  1  0.25246624  0.12600606  0.66209142  1
  O2-  O202  1  0.24949116  0.37459806  0.16584164  1
  O2-  O203  1  0.24904283  0.37382593  0.66588591  1
  O2-  O204  1  0.25142379  0.62453688  0.16400276  1
  O2-  O205  1  0.24919159  0.62507998  0.66727859  1
  O2-  O206  1  0.24913399  0.87509070  0.16212262  1
  O2-  O207  1  0.25040189  0.87444427  0.66684566  1
  O2-  O208  1  0.49908206  0.12543067  0.16528288  1
  O2-  O209  1  0.49913851  0.12303070  0.66186503  1
  O2-  O210  1  0.50285898  0.37427422  0.16436443  1
  O2-  O211  1  0.49755872  0.37537743  0.66988051  1
  O2-  O212  1  0.49878386  0.62432479  0.16609580  1
  O2-  O213  1  0.50219495  0.62521519  0.66663446  1
  O2-  O214  1  0.50180040  0.87576396  0.16451875  1
  O2-  O215  1  0.49933502  0.87542922  0.66547055  1
  O2-  O216  1  0.75143328  0.12531781  0.16791462  1
  O2-  O217  1  0.74619092  0.12520772  0.65946905  1
  O2-  O218  1  0.74886336  0.37449547  0.16651666  1
  O2-  O219  1  0.75269152  0.37540873  0.66142886  1
  O2-  O220  1  0.75144230  0.62486125  0.16911707  1
  O2-  O221  1  0.74974898  0.62549522  0.65887622  1
  O2-  O222  1  0.75162568  0.87546405  0.16747634  1
  O2-  O223  1  0.75182883  0.87371231  0.66255720  1
  O2-  O224  1  0.12575732  0.00109295  0.34679784  1
  O2-  O225  1  0.12276597  -0.00036837  0.84842054  1
  O2-  O226  1  0.12531001  0.25168819  0.35194853  1
  O2-  O227  1  0.12399091  0.25040970  0.84372763  1
  O2-  O228  1  0.12430723  0.49934512  0.35033795  1
  O2-  O229  1  0.12368685  0.49802841  0.84501962  1
  O2-  O230  1  0.12470141  0.74846385  0.34548694  1
  O2-  O231  1  0.12332552  0.75142968  0.84896778  1
  O2-  O232  1  0.37543086  0.00095201  0.34697082  1
  O2-  O233  1  0.37537227  0.00209075  0.84510961  1
  O2-  O234  1  0.37542906  0.24831655  0.35331734  1
  O2-  O235  1  0.37475274  0.24784379  0.84351144  1
  O2-  O236  1  0.37543665  0.49959492  0.35009109  1
  O2-  O237  1  0.37536537  0.50074001  0.85051768  1
  O2-  O238  1  0.37566183  0.75161650  0.34442605  1
  O2-  O239  1  0.37482596  0.74882178  0.85064358  1
  O2-  O240  1  0.62497369  0.00049192  0.34762757  1
  O2-  O241  1  0.62592382  0.00155095  0.84684711  1
  O2-  O242  1  0.62462644  0.24700921  0.35171182  1
  O2-  O243  1  0.62615142  0.25160025  0.84316847  1
  O2-  O244  1  0.62565470  0.50370836  0.35069578  1
  O2-  O245  1  0.62551315  0.49595990  0.84851385  1
  O2-  O246  1  0.62648226  0.74945126  0.34801707  1
  O2-  O247  1  0.62619356  0.75070559  0.84992560  1
  O2-  O248  1  0.87496154  -0.00369747  0.34774464  1
  O2-  O249  1  0.87428214  -0.00069137  0.84851836  1
  O2-  O250  1  0.87552036  0.25304282  0.35255484  1
  O2-  O251  1  0.87421011  0.25031699  0.83974455  1
  O2-  O252  1  0.87521392  0.50149491  0.35329083  1
  O2-  O253  1  0.87473113  0.49854127  0.83985852  1
  O2-  O254  1  0.87429951  0.74953376  0.34874377  1
  O2-  O255  1  0.87396262  0.75142562  0.84794098  1
  O2-  O256  1  0.00303967  0.12499095  0.34868251  1
  O2-  O257  1  -0.00168026  0.12505663  0.84525045  1
  O2-  O258  1  0.00073353  0.37583840  0.35206454  1
  O2-  O259  1  -0.00098976  0.37429391  0.83991860  1
  O2-  O260  1  -0.00095750  0.62540360  0.35067647  1
  O2-  O261  1  -0.00261445  0.62504640  0.84161606  1
  O2-  O262  1  -0.00192657  0.87405001  0.35029219  1
  O2-  O263  1  -0.00200619  0.87524641  0.84560260  1
  O2-  O264  1  0.25226280  0.12587095  0.34872817  1
  O2-  O265  1  0.24960249  0.12489906  0.84633853  1
  O2-  O266  1  0.24846880  0.37513174  0.35058316  1
  O2-  O267  1  0.24809667  0.37412759  0.84828101  1
  O2-  O268  1  0.24939772  0.62440029  0.34590248  1
  O2-  O269  1  0.25062993  0.62447881  0.85084930  1
  O2-  O270  1  0.25209443  0.87520502  0.34441390  1
  O2-  O271  1  0.24733788  0.87589439  0.84949383  1
  O2-  O272  1  0.49922894  0.12489529  0.35015516  1
  O2-  O273  1  0.50117249  0.12569676  0.84413378  1
  O2-  O274  1  0.49812515  0.37522960  0.34822714  1
  O2-  O275  1  0.50296802  0.37374215  0.85264144  1
  O2-  O276  1  0.50208037  0.62543288  0.34954046  1
  O2-  O277  1  0.49882075  0.62471486  0.85016851  1
  O2-  O278  1  0.49994090  0.87549936  0.34454010  1
  O2-  O279  1  0.50119479  0.87497717  0.85081720  1
  O2-  O280  1  0.74680248  0.12441663  0.35263064  1
  O2-  O281  1  0.75009294  0.12512485  0.84046286  1
  O2-  O282  1  0.75350837  0.37581937  0.35067603  1
  O2-  O283  1  0.74904404  0.37464155  0.84436615  1
  O2-  O284  1  0.75020027  0.62558609  0.35356410  1
  O2-  O285  1  0.75233234  0.62440351  0.84211463  1
  O2-  O286  1  0.75060275  0.87480894  0.35071902  1
  O2-  O287  1  0.75226965  0.87544871  0.84740590  1
