# generated using pymatgen
data_BaYFeCuO5
_symmetry_space_group_name_H-M   'P 1'
_cell_length_a   15.67646288
_cell_length_b   15.67711316
_cell_length_c   15.50009019
_cell_angle_alpha   89.99586799
_cell_angle_beta   89.99841670
_cell_angle_gamma   90.00660149
_symmetry_Int_Tables_number   1
_chemical_formula_structural   BaYFeCuO5
_chemical_formula_sum   'Ba32 Y32 Fe32 Cu32 O160'
_cell_volume   3809.32820827
_cell_formula_units_Z   32
loop_
 _symmetry_equiv_pos_site_id
 _symmetry_equiv_pos_as_xyz
  1  'x, y, z'
loop_
 _atom_type_symbol
 _atom_type_oxidation_number
  Ba2+  2.0
  Y3+  3.0
  Fe3+  3.0
  Cu2+  2.0
  O2-  -2.0
loop_
 _atom_site_type_symbol
 _atom_site_label
 _atom_site_symmetry_multiplicity
 _atom_site_fract_x
 _atom_site_fract_y
 _atom_site_fract_z
 _atom_site_occupancy
  Ba2+  Ba0  1  0.00059178  -0.00010912  0.00633410  1
  Ba2+  Ba1  1  -0.00473388  0.00702158  0.52262932  1
  Ba2+  Ba2  1  0.00271029  0.25403124  0.01232020  1
  Ba2+  Ba3  1  0.00159574  0.24964867  0.52174004  1
  Ba2+  Ba4  1  0.00411064  0.49771620  0.01407527  1
  Ba2+  Ba5  1  0.00316358  0.48773724  0.51037844  1
  Ba2+  Ba6  1  0.00092542  0.74857518  0.00673388  1
  Ba2+  Ba7  1  -0.00372880  0.75591495  0.51065562  1
  Ba2+  Ba8  1  0.25234816  0.00207384  0.01148892  1
  Ba2+  Ba9  1  0.25562959  0.00584675  0.52244268  1
  Ba2+  Ba10  1  0.24939514  0.25088853  -0.00296888  1
  Ba2+  Ba11  1  0.24864160  0.25056811  0.52201606  1
  Ba2+  Ba12  1  0.24761299  0.49770845  0.00057895  1
  Ba2+  Ba13  1  0.25311893  0.49363087  0.51100140  1
  Ba2+  Ba14  1  0.24811475  0.74975696  0.02114920  1
  Ba2+  Ba15  1  0.26033445  0.74879066  0.50980366  1
  Ba2+  Ba16  1  0.49587463  0.00666891  0.01067268  1
  Ba2+  Ba17  1  0.50238122  0.00198715  0.52391848  1
  Ba2+  Ba18  1  0.49513371  0.24308370  0.00351830  1
  Ba2+  Ba19  1  0.49779692  0.24159735  0.51776579  1
  Ba2+  Ba20  1  0.49645311  0.50550566  -0.00388430  1
  Ba2+  Ba21  1  0.48924253  0.50099115  0.51141279  1
  Ba2+  Ba22  1  0.49712426  0.74395088  0.00740650  1
  Ba2+  Ba23  1  0.49447340  0.75489911  0.51741866  1
  Ba2+  Ba24  1  0.75127765  0.00600168  0.00720374  1
  Ba2+  Ba25  1  0.74684423  0.00367891  0.52274298  1
  Ba2+  Ba26  1  0.75331987  0.24639218  0.01730335  1
  Ba2+  Ba27  1  0.75170176  0.24072423  0.51677508  1
  Ba2+  Ba28  1  0.75256964  0.50610157  0.00716993  1
  Ba2+  Ba29  1  0.75417219  0.49334729  0.51106310  1
  Ba2+  Ba30  1  0.75241617  0.74387330  -0.00397134  1
  Ba2+  Ba31  1  0.74811619  0.76199687  0.51734121  1
  Y3+  Y32  1  0.00054540  0.00121418  0.25349818  1
  Y3+  Y33  1  -0.00090924  0.00142439  0.75881726  1
  Y3+  Y34  1  0.00138366  0.25216983  0.25474826  1
  Y3+  Y35  1  0.00344009  0.25117714  0.75808372  1
  Y3+  Y36  1  0.00323760  0.49628603  0.25817755  1
  Y3+  Y37  1  0.00193705  0.49632157  0.75651931  1
  Y3+  Y38  1  0.00261714  0.75043967  0.25782509  1
  Y3+  Y39  1  -0.00232216  0.75132473  0.75668946  1
  Y3+  Y40  1  0.25156849  0.00002550  0.25222896  1
  Y3+  Y41  1  0.25093909  0.00442037  0.76028779  1
  Y3+  Y42  1  0.24867365  0.25116501  0.25478718  1
  Y3+  Y43  1  0.24953906  0.25109579  0.76010971  1
  Y3+  Y44  1  0.24810711  0.49817141  0.26086048  1
  Y3+  Y45  1  0.25128452  0.49661557  0.75556838  1
  Y3+  Y46  1  0.25127186  0.74985586  0.25991225  1
  Y3+  Y47  1  0.25306611  0.74874586  0.75376395  1
  Y3+  Y48  1  0.50039014  0.00296689  0.25150489  1
  Y3+  Y49  1  0.50079817  0.00290214  0.76146634  1
  Y3+  Y50  1  0.50131616  0.24598843  0.25406158  1
  Y3+  Y51  1  0.49822497  0.24744346  0.76143874  1
  Y3+  Y52  1  0.49968448  0.50162552  0.25893099  1
  Y3+  Y53  1  0.49676779  0.50112752  0.75816140  1
  Y3+  Y54  1  0.49889071  0.74858301  0.25682287  1
  Y3+  Y55  1  0.49947032  0.74884110  0.75779427  1
  Y3+  Y56  1  0.74750365  0.00372070  0.25367732  1
  Y3+  Y57  1  0.74914863  0.00063863  0.75939609  1
  Y3+  Y58  1  0.74874611  0.24727507  0.25531465  1
  Y3+  Y59  1  0.74889106  0.24793652  0.75785963  1
  Y3+  Y60  1  0.74900614  0.49954039  0.25635262  1
  Y3+  Y61  1  0.74919208  0.50093236  0.75870318  1
  Y3+  Y62  1  0.74736918  0.74922852  0.25614440  1
  Y3+  Y63  1  0.75009212  0.75091492  0.75921425  1
  Fe3+  Fe64  1  0.37533892  0.37221128  0.37760908  1
  Fe3+  Fe65  1  0.37515977  0.12451048  0.37493551  1
  Fe3+  Fe66  1  0.62480791  0.62552607  0.38241012  1
  Fe3+  Fe67  1  0.87391554  0.87756605  0.37682373  1
  Fe3+  Fe68  1  0.87466580  0.37230006  0.37619225  1
  Fe3+  Fe69  1  0.62416147  0.87759738  0.37583149  1
  Fe3+  Fe70  1  0.87525369  0.37562003  0.87640121  1
  Fe3+  Fe71  1  0.62498392  0.37477094  0.87956242  1
  Fe3+  Fe72  1  0.12559041  0.87805311  0.38053128  1
  Fe3+  Fe73  1  0.12582959  0.87449449  0.87455542  1
  Fe3+  Fe74  1  0.12541747  0.62537506  0.87336387  1
  Fe3+  Fe75  1  0.87475839  0.62514354  0.38138386  1
  Fe3+  Fe76  1  0.37393852  0.87398823  0.87694369  1
  Fe3+  Fe77  1  0.12546028  0.12512593  0.37741568  1
  Fe3+  Fe78  1  0.37648056  0.87780577  0.37524139  1
  Fe3+  Fe79  1  0.87602558  0.12633308  0.87604985  1
  Fe3+  Fe80  1  0.87521920  0.12432833  0.37436149  1
  Fe3+  Fe81  1  0.62467170  0.87493314  0.87940640  1
  Fe3+  Fe82  1  0.12495141  0.62463260  0.38156983  1
  Fe3+  Fe83  1  0.62418986  0.37269319  0.38102896  1
  Fe3+  Fe84  1  0.12622471  0.87582844  0.63438322  1
  Fe3+  Fe85  1  0.37381913  0.62289912  0.14047241  1
  Fe3+  Fe86  1  0.62485140  0.62510205  0.63535074  1
  Fe3+  Fe87  1  0.62465804  0.87350475  0.13231403  1
  Fe3+  Fe88  1  0.87537677  0.62425663  0.63461156  1
  Fe3+  Fe89  1  0.37494318  0.37528534  0.13620276  1
  Fe3+  Fe90  1  0.62371806  0.37647753  0.13405706  1
  Fe3+  Fe91  1  0.87458584  0.87426944  0.13587473  1
  Fe3+  Fe92  1  0.87600825  0.62503152  0.14116006  1
  Fe3+  Fe93  1  0.62391844  0.37430887  0.63599369  1
  Fe3+  Fe94  1  0.12527605  0.62478411  0.63341086  1
  Fe3+  Fe95  1  0.12523024  0.12560549  0.13472478  1
  Cu2+  Cu96  1  0.37286556  0.62570803  0.85984067  1
  Cu2+  Cu97  1  0.37522599  0.37532012  0.86520709  1
  Cu2+  Cu98  1  0.87694119  0.62397698  0.85792598  1
  Cu2+  Cu99  1  0.12422106  0.12514166  0.86659319  1
  Cu2+  Cu100  1  0.37526065  0.62503932  0.37512222  1
  Cu2+  Cu101  1  0.62458755  0.62474923  0.87238186  1
  Cu2+  Cu102  1  0.12551644  0.37197693  0.37418730  1
  Cu2+  Cu103  1  0.37393841  0.12452512  0.87234032  1
  Cu2+  Cu104  1  0.62447959  0.12392166  0.37199940  1
  Cu2+  Cu105  1  0.87528421  0.87524764  0.86554344  1
  Cu2+  Cu106  1  0.12478420  0.37558786  0.87149771  1
  Cu2+  Cu107  1  0.62594412  0.12563288  0.87437845  1
  Cu2+  Cu108  1  0.37503613  0.87637905  0.65476143  1
  Cu2+  Cu109  1  0.12679406  0.37550785  0.14080739  1
  Cu2+  Cu110  1  0.87366393  0.37463038  0.65238004  1
  Cu2+  Cu111  1  0.62433423  0.87508314  0.65661427  1
  Cu2+  Cu112  1  0.37644534  0.37382272  0.65371234  1
  Cu2+  Cu113  1  0.37529492  0.12549115  0.65752090  1
  Cu2+  Cu114  1  0.62493412  0.12558973  0.13855025  1
  Cu2+  Cu115  1  0.37335932  0.12645843  0.14024506  1
  Cu2+  Cu116  1  0.12585064  0.37464555  0.64303005  1
  Cu2+  Cu117  1  0.37491229  0.62449817  0.64222911  1
  Cu2+  Cu118  1  0.37537377  0.87426566  0.14758421  1
  Cu2+  Cu119  1  0.12543265  0.62467819  0.15632473  1
  Cu2+  Cu120  1  0.62457760  0.62454698  0.14181434  1
  Cu2+  Cu121  1  0.87501645  0.87571072  0.65383404  1
  Cu2+  Cu122  1  0.12536467  0.12486104  0.65379423  1
  Cu2+  Cu123  1  0.87636834  0.12526963  0.14835909  1
  Cu2+  Cu124  1  0.87484045  0.12574134  0.65705469  1
  Cu2+  Cu125  1  0.12491870  0.87478239  0.15097564  1
  Cu2+  Cu126  1  0.87465260  0.37579463  0.15092266  1
  Cu2+  Cu127  1  0.62456306  0.12527985  0.64627390  1
  O2-  O128  1  0.12419163  0.12486192  0.01398683  1
  O2-  O129  1  0.12497878  0.12384117  0.49751731  1
  O2-  O130  1  0.12523304  0.37671416  0.00682899  1
  O2-  O131  1  0.12546263  0.37209151  0.50874446  1
  O2-  O132  1  0.12485476  0.62656917  -0.00648774  1
  O2-  O133  1  0.12422287  0.62491576  0.50726226  1
  O2-  O134  1  0.12523241  0.87188730  -0.00533575  1
  O2-  O135  1  0.12525704  0.87867216  0.50596501  1
  O2-  O136  1  0.37276575  0.12504567  0.00598936  1
  O2-  O137  1  0.37578535  0.12354646  0.49508116  1
  O2-  O138  1  0.37553935  0.37822193  0.01595083  1
  O2-  O139  1  0.37626030  0.37034663  0.49803051  1
  O2-  O140  1  0.37236344  0.62363005  0.01993650  1
  O2-  O141  1  0.37617613  0.62580921  0.50816443  1
  O2-  O142  1  0.37203204  0.87134363  -0.00323568  1
  O2-  O143  1  0.37713604  0.87975294  0.49515434  1
  O2-  O144  1  0.62646296  0.12574110  0.00637618  1
  O2-  O145  1  0.62452532  0.12388675  0.50762650  1
  O2-  O146  1  0.62473161  0.37714946  0.00679693  1
  O2-  O147  1  0.62436789  0.37308784  0.50753503  1
  O2-  O148  1  0.62520629  0.62442002  0.00681103  1
  O2-  O149  1  0.62557418  0.62631494  0.50859202  1
  O2-  O150  1  0.62574937  0.87228990  0.00578496  1
  O2-  O151  1  0.62408355  0.87764460  0.49590132  1
  O2-  O152  1  0.87685883  0.12633145  -0.00347901  1
  O2-  O153  1  0.87469330  0.12364587  0.49441069  1
  O2-  O154  1  0.87477473  0.37788008  -0.00384735  1
  O2-  O155  1  0.87365917  0.37055077  0.49647909  1
  O2-  O156  1  0.87676301  0.62538187  0.02075045  1
  O2-  O157  1  0.87423029  0.62523559  0.50764909  1
  O2-  O158  1  0.87566404  0.87076895  0.01594814  1
  O2-  O159  1  0.87361042  0.87955572  0.49687782  1
  O2-  O160  1  0.12427600  -0.00007379  0.16182442  1
  O2-  O161  1  0.12541016  -0.00135876  0.66395589  1
  O2-  O162  1  0.12447953  0.24875902  0.16381002  1
  O2-  O163  1  0.12518213  0.24851764  0.66674630  1
  O2-  O164  1  0.12462647  0.50103645  0.16990158  1
  O2-  O165  1  0.12461185  0.50271049  0.66228532  1
  O2-  O166  1  0.12544560  0.75013564  0.16893333  1
  O2-  O167  1  0.12407112  0.75048602  0.65704966  1
  O2-  O168  1  0.37463364  -0.00123957  0.15851014  1
  O2-  O169  1  0.37474797  0.00083556  0.66642910  1
  O2-  O170  1  0.37547784  0.25218277  0.16435801  1
  O2-  O171  1  0.37671626  0.24946006  0.66671780  1
  O2-  O172  1  0.37510960  0.49949057  0.17362234  1
  O2-  O173  1  0.37562925  0.49819992  0.66468043  1
  O2-  O174  1  0.37403147  0.74878791  0.16810424  1
  O2-  O175  1  0.37611722  0.75185506  0.66261911  1
  O2-  O176  1  0.62541527  -0.00319275  0.15814276  1
  O2-  O177  1  0.62518700  -0.00112729  0.66880818  1
  O2-  O178  1  0.62595816  0.25349226  0.16339322  1
  O2-  O179  1  0.62473313  0.25248322  0.66509705  1
  O2-  O180  1  0.62507801  0.49737645  0.17027578  1
  O2-  O181  1  0.62583731  0.50053244  0.66145318  1
  O2-  O182  1  0.62490905  0.75231094  0.16692411  1
  O2-  O183  1  0.62556054  0.74864541  0.66313155  1
  O2-  O184  1  0.87546205  -0.00102649  0.16006604  1
  O2-  O185  1  0.87479374  0.00061637  0.66613771  1
  O2-  O186  1  0.87454036  0.25073804  0.16076984  1
  O2-  O187  1  0.87361776  0.25013427  0.66433586  1
  O2-  O188  1  0.87562853  0.50103038  0.17188721  1
  O2-  O189  1  0.87420325  0.50178253  0.66078262  1
  O2-  O190  1  0.87551845  0.74994796  0.17372686  1
  O2-  O191  1  0.87459554  0.74813017  0.66196710  1
  O2-  O192  1  0.00089937  0.12484921  0.16428827  1
  O2-  O193  1  -0.00038455  0.12490056  0.66374054  1
  O2-  O194  1  -0.00092935  0.37614684  0.16380332  1
  O2-  O195  1  -0.00194826  0.37502437  0.66406837  1
  O2-  O196  1  0.00075347  0.62565999  0.16962911  1
  O2-  O197  1  -0.00035117  0.62585599  0.65892461  1
  O2-  O198  1  -0.00098842  0.87362675  0.16766226  1
  O2-  O199  1  0.00187159  0.87504255  0.66136020  1
  O2-  O200  1  0.24767053  0.12422918  0.16546978  1
  O2-  O201  1  0.25072755  0.12533781  0.66482577  1
  O2-  O202  1  0.25193012  0.37619045  0.16768493  1
  O2-  O203  1  0.25235483  0.37420729  0.66515518  1
  O2-  O204  1  0.24972093  0.62528542  0.17013498  1
  O2-  O205  1  0.24708383  0.62596665  0.66069217  1
  O2-  O206  1  0.24991107  0.87380713  0.16584125  1
  O2-  O207  1  0.24889858  0.87427921  0.65977384  1
  O2-  O208  1  0.49954731  0.12563737  0.16160166  1
  O2-  O209  1  0.49911007  0.12463997  0.66895397  1
  O2-  O210  1  0.50089675  0.37564397  0.16630356  1
  O2-  O211  1  0.50221508  0.37600068  0.66599119  1
  O2-  O212  1  0.49771309  0.62480122  0.16822622  1
  O2-  O213  1  0.50334326  0.62480304  0.66498630  1
  O2-  O214  1  0.50145977  0.87363022  0.15878606  1
  O2-  O215  1  0.49937954  0.87536719  0.66752024  1
  O2-  O216  1  0.75199492  0.12532096  0.16249822  1
  O2-  O217  1  0.75082190  0.12494948  0.66621365  1
  O2-  O218  1  0.74840900  0.37678833  0.16272748  1
  O2-  O219  1  0.74753330  0.37601497  0.66357780  1
  O2-  O220  1  0.75180428  0.62445753  0.16932948  1
  O2-  O221  1  0.74992927  0.62513830  0.66253487  1
  O2-  O222  1  0.74911984  0.87370394  0.16390861  1
  O2-  O223  1  0.75014934  0.87447877  0.66605048  1
  O2-  O224  1  0.12498336  -0.00109447  0.34357655  1
  O2-  O225  1  0.12426069  -0.00099438  0.84736568  1
  O2-  O226  1  0.12467751  0.24729958  0.34421616  1
  O2-  O227  1  0.12516495  0.24978646  0.85056567  1
  O2-  O228  1  0.12422946  0.50162108  0.35422047  1
  O2-  O229  1  0.12520323  0.50156280  0.84459180  1
  O2-  O230  1  0.12392253  0.75151391  0.35441984  1
  O2-  O231  1  0.12449594  0.75025940  0.83858766  1
  O2-  O232  1  0.37477826  0.00018294  0.33893946  1
  O2-  O233  1  0.37461572  -0.00231926  0.84897670  1
  O2-  O234  1  0.37626195  0.24906764  0.34269668  1
  O2-  O235  1  0.37490906  0.25091955  0.85097046  1
  O2-  O236  1  0.37559070  0.49757283  0.35309386  1
  O2-  O237  1  0.37465597  0.50112413  0.84890304  1
  O2-  O238  1  0.37534871  0.75272075  0.34967612  1
  O2-  O239  1  0.37470967  0.75032217  0.84453076  1
  O2-  O240  1  0.62514153  -0.00153911  0.34001186  1
  O2-  O241  1  0.62548746  -0.00291924  0.85216982  1
  O2-  O242  1  0.62511366  0.25239024  0.34767712  1
  O2-  O243  1  0.62517685  0.25349760  0.84905884  1
  O2-  O244  1  0.62645139  0.49978739  0.35531585  1
  O2-  O245  1  0.62463426  0.49732476  0.84668150  1
  O2-  O246  1  0.62545529  0.74910879  0.34963961  1
  O2-  O247  1  0.62587028  0.75237955  0.84784546  1
  O2-  O248  1  0.87503003  -0.00023872  0.33954513  1
  O2-  O249  1  0.87574145  0.00097006  0.84954865  1
  O2-  O250  1  0.87430394  0.24909386  0.34221485  1
  O2-  O251  1  0.87461532  0.25123704  0.84558380  1
  O2-  O252  1  0.87400050  0.50106594  0.35428715  1
  O2-  O253  1  0.87482356  0.49940339  0.84353240  1
  O2-  O254  1  0.87533147  0.74928190  0.35401811  1
  O2-  O255  1  0.87537974  0.74895591  0.84717584  1
  O2-  O256  1  0.00012129  0.12384676  0.34411832  1
  O2-  O257  1  -0.00064179  0.12517592  0.84635491  1
  O2-  O258  1  -0.00217555  0.37484118  0.34686767  1
  O2-  O259  1  -0.00131196  0.37575609  0.84639710  1
  O2-  O260  1  -0.00045711  0.62580117  0.35302951  1
  O2-  O261  1  0.00108613  0.62565097  0.84197132  1
  O2-  O262  1  0.00097452  0.87486881  0.35009331  1
  O2-  O263  1  0.00064306  0.87421837  0.84528842  1
  O2-  O264  1  0.25016908  0.12419369  0.34498581  1
  O2-  O265  1  0.24813549  0.12516031  0.84916603  1
  O2-  O266  1  0.25194117  0.37389949  0.34844530  1
  O2-  O267  1  0.25143008  0.37590636  0.84947470  1
  O2-  O268  1  0.24653122  0.62616370  0.35247744  1
  O2-  O269  1  0.24911252  0.62515286  0.84270301  1
  O2-  O270  1  0.24877657  0.87496268  0.34922528  1
  O2-  O271  1  0.24989672  0.87447975  0.84149826  1
  O2-  O272  1  0.49852253  0.12431914  0.34355608  1
  O2-  O273  1  0.50020646  0.12529277  0.85187730  1
  O2-  O274  1  0.50174393  0.37556058  0.34817062  1
  O2-  O275  1  0.50097685  0.37620714  0.85111402  1
  O2-  O276  1  0.50397485  0.62443349  0.35014639  1
  O2-  O277  1  0.49707642  0.62520486  0.84919307  1
  O2-  O278  1  0.50040619  0.87491570  0.34069331  1
  O2-  O279  1  0.50053143  0.87356662  0.85093295  1
  O2-  O280  1  0.75138233  0.12482672  0.34479661  1
  O2-  O281  1  0.75217817  0.12516091  0.84775781  1
  O2-  O282  1  0.74868182  0.37540558  0.34707802  1
  O2-  O283  1  0.74895273  0.37652455  0.84716440  1
  O2-  O284  1  0.74999763  0.62515942  0.35189223  1
  O2-  O285  1  0.75256421  0.62454609  0.84727253  1
  O2-  O286  1  0.74978640  0.87404302  0.34402424  1
  O2-  O287  1  0.74891310  0.87388767  0.85118462  1
