# generated using pymatgen
data_BaYFeCuO5
_symmetry_space_group_name_H-M   'P 1'
_cell_length_a   15.66603871
_cell_length_b   15.66649091
_cell_length_c   15.48178337
_cell_angle_alpha   89.99739690
_cell_angle_beta   90.00252645
_cell_angle_gamma   90.00522566
_symmetry_Int_Tables_number   1
_chemical_formula_structural   BaYFeCuO5
_chemical_formula_sum   'Ba32 Y32 Fe32 Cu32 O160'
_cell_volume   3799.72275707
_cell_formula_units_Z   32
loop_
 _symmetry_equiv_pos_site_id
 _symmetry_equiv_pos_as_xyz
  1  'x, y, z'
loop_
 _atom_type_symbol
 _atom_type_oxidation_number
  Ba2+  2.0
  Y3+  3.0
  Fe3+  3.0
  Cu2+  2.0
  O2-  -2.0
loop_
 _atom_site_type_symbol
 _atom_site_label
 _atom_site_symmetry_multiplicity
 _atom_site_fract_x
 _atom_site_fract_y
 _atom_site_fract_z
 _atom_site_occupancy
  Ba2+  Ba0  1  0.00160488  -0.00366766  0.01201372  1
  Ba2+  Ba1  1  0.00152999  0.00026868  0.51793502  1
  Ba2+  Ba2  1  0.00597536  0.24230654  0.00773978  1
  Ba2+  Ba3  1  -0.00183159  0.25228198  0.51100910  1
  Ba2+  Ba4  1  0.00565493  0.50740945  0.00728582  1
  Ba2+  Ba5  1  -0.00509299  0.49419857  0.51699815  1
  Ba2+  Ba6  1  0.00123702  0.75364415  0.01117750  1
  Ba2+  Ba7  1  -0.00258449  0.75429357  0.52280945  1
  Ba2+  Ba8  1  0.24464141  -0.00034357  0.00694539  1
  Ba2+  Ba9  1  0.24345408  -0.00461370  0.52253042  1
  Ba2+  Ba10  1  0.24742266  0.24659089  0.00223143  1
  Ba2+  Ba11  1  0.24323284  0.25389233  0.52243518  1
  Ba2+  Ba12  1  0.24768717  0.50258259  0.00152293  1
  Ba2+  Ba13  1  0.25288208  0.49650393  0.52302158  1
  Ba2+  Ba14  1  0.24492752  0.75070364  0.00616640  1
  Ba2+  Ba15  1  0.25245366  0.75354666  0.52273880  1
  Ba2+  Ba16  1  0.50299814  -0.00380738  0.00101221  1
  Ba2+  Ba17  1  0.49499245  -0.00367770  0.51047892  1
  Ba2+  Ba18  1  0.49529829  0.24547611  0.00249683  1
  Ba2+  Ba19  1  0.49974835  0.25901699  0.51730114  1
  Ba2+  Ba20  1  0.49782622  0.50739512  0.00746019  1
  Ba2+  Ba21  1  0.49527711  0.49670734  0.52332847  1
  Ba2+  Ba22  1  0.50554032  0.75131559  0.00662814  1
  Ba2+  Ba23  1  0.49054653  0.74847535  0.51753292  1
  Ba2+  Ba24  1  0.75097065  -0.00737480  0.00791905  1
  Ba2+  Ba25  1  0.76029008  0.00125680  0.50498445  1
  Ba2+  Ba26  1  0.75016562  0.23985259  0.00825832  1
  Ba2+  Ba27  1  0.75830711  0.25642385  0.50549250  1
  Ba2+  Ba28  1  0.74843988  0.51132422  0.01189126  1
  Ba2+  Ba29  1  0.75697338  0.49428737  0.51708874  1
  Ba2+  Ba30  1  0.74893540  0.75410317  0.01230511  1
  Ba2+  Ba31  1  0.75986757  0.74883933  0.51735909  1
  Y3+  Y32  1  0.00012958  0.00060626  0.25153871  1
  Y3+  Y33  1  0.00200886  -0.00234266  0.76201009  1
  Y3+  Y34  1  -0.00145976  0.24833968  0.25690737  1
  Y3+  Y35  1  0.00306631  0.25034444  0.75855880  1
  Y3+  Y36  1  -0.00021619  0.50143669  0.25523745  1
  Y3+  Y37  1  0.00072557  0.49892400  0.75884841  1
  Y3+  Y38  1  0.00079688  0.75007846  0.24995139  1
  Y3+  Y39  1  0.00027112  0.75231128  0.76193581  1
  Y3+  Y40  1  0.24745059  0.00098102  0.25189019  1
  Y3+  Y41  1  0.24672334  -0.00220976  0.76105252  1
  Y3+  Y42  1  0.24880098  0.24758436  0.25316313  1
  Y3+  Y43  1  0.24686569  0.25128589  0.76101509  1
  Y3+  Y44  1  0.24941821  0.50307501  0.25253237  1
  Y3+  Y45  1  0.24903644  0.49851645  0.76092071  1
  Y3+  Y46  1  0.24829612  0.74889162  0.25125045  1
  Y3+  Y47  1  0.24908598  0.75183767  0.76086315  1
  Y3+  Y48  1  0.49983726  -0.00098418  0.25645272  1
  Y3+  Y49  1  0.50055079  -0.00260011  0.75871428  1
  Y3+  Y50  1  0.49927076  0.24949677  0.25711025  1
  Y3+  Y51  1  0.49964275  0.25199718  0.75875343  1
  Y3+  Y52  1  0.49999274  0.50333833  0.25363785  1
  Y3+  Y53  1  0.49938897  0.49943034  0.76041159  1
  Y3+  Y54  1  0.50100982  0.74875285  0.25302703  1
  Y3+  Y55  1  0.50022151  0.75059486  0.76057151  1
  Y3+  Y56  1  0.75285463  -0.00121223  0.25424858  1
  Y3+  Y57  1  0.75023698  -0.00232675  0.76113931  1
  Y3+  Y58  1  0.75347827  0.24972480  0.25940487  1
  Y3+  Y59  1  0.75003134  0.25124359  0.75718755  1
  Y3+  Y60  1  0.75106430  0.50187594  0.25623647  1
  Y3+  Y61  1  0.75048446  0.49987697  0.75777482  1
  Y3+  Y62  1  0.75025083  0.74994496  0.25175622  1
  Y3+  Y63  1  0.75022674  0.75129998  0.76208561  1
  Fe3+  Fe64  1  0.62549290  0.37518497  0.88065838  1
  Fe3+  Fe65  1  0.87544475  0.37463589  0.88102970  1
  Fe3+  Fe66  1  0.37348164  0.37574999  0.37495919  1
  Fe3+  Fe67  1  0.37293988  0.87461203  0.37603054  1
  Fe3+  Fe68  1  0.87513161  0.12401354  0.87751574  1
  Fe3+  Fe69  1  0.12562491  0.37607154  0.37573037  1
  Fe3+  Fe70  1  0.87621455  0.62580727  0.37622079  1
  Fe3+  Fe71  1  0.62499646  0.62538578  0.38131791  1
  Fe3+  Fe72  1  0.62540478  0.87379099  0.38085433  1
  Fe3+  Fe73  1  0.37400731  0.62498256  0.37679013  1
  Fe3+  Fe74  1  0.37474574  0.62606446  0.87586881  1
  Fe3+  Fe75  1  0.12511742  0.62588685  0.38089596  1
  Fe3+  Fe76  1  0.12493292  0.87418892  0.37529523  1
  Fe3+  Fe77  1  0.87524600  0.62576425  0.87651460  1
  Fe3+  Fe78  1  0.37314099  0.12531466  0.38120240  1
  Fe3+  Fe79  1  0.87718997  0.87412741  0.37407279  1
  Fe3+  Fe80  1  0.37456708  0.12371585  0.87462678  1
  Fe3+  Fe81  1  0.12476665  0.12425427  0.37723742  1
  Fe3+  Fe82  1  0.62446768  0.37706494  0.37670265  1
  Fe3+  Fe83  1  0.62520567  0.12520309  0.38183623  1
  Fe3+  Fe84  1  0.87583222  0.12501228  0.64041965  1
  Fe3+  Fe85  1  0.37390712  0.12499307  0.63636649  1
  Fe3+  Fe86  1  0.62598364  0.87517246  0.63466588  1
  Fe3+  Fe87  1  0.12444310  0.62494048  0.63686499  1
  Fe3+  Fe88  1  0.87512068  0.37509710  0.13302135  1
  Fe3+  Fe89  1  0.62449395  0.12431963  0.13931750  1
  Fe3+  Fe90  1  0.62574955  0.12528029  0.63495550  1
  Fe3+  Fe91  1  0.62512881  0.37466521  0.13399623  1
  Fe3+  Fe92  1  0.37537250  0.87526981  0.13499136  1
  Fe3+  Fe93  1  0.12476274  0.37486585  0.13492991  1
  Fe3+  Fe94  1  0.62546799  0.62481482  0.63611204  1
  Fe3+  Fe95  1  0.37479593  0.37474429  0.13381274  1
  Cu2+  Cu96  1  0.37473007  0.37487725  0.86750346  1
  Cu2+  Cu97  1  0.62521503  0.87449798  0.87098809  1
  Cu2+  Cu98  1  0.87617109  0.12393254  0.36257256  1
  Cu2+  Cu99  1  0.62517999  0.12503271  0.86150901  1
  Cu2+  Cu100  1  0.12432212  0.12407959  0.87161550  1
  Cu2+  Cu101  1  0.87532562  0.87486102  0.87283833  1
  Cu2+  Cu102  1  0.12396432  0.37501478  0.86847052  1
  Cu2+  Cu103  1  0.37486383  0.87494279  0.86700409  1
  Cu2+  Cu104  1  0.62561826  0.62497069  0.87153867  1
  Cu2+  Cu105  1  0.87647035  0.37655793  0.36952705  1
  Cu2+  Cu106  1  0.12446610  0.62562977  0.87012548  1
  Cu2+  Cu107  1  0.12480714  0.87459675  0.87283144  1
  Cu2+  Cu108  1  0.62480010  0.62540905  0.14123215  1
  Cu2+  Cu109  1  0.87516972  0.87502181  0.14082005  1
  Cu2+  Cu110  1  0.12421075  0.37548893  0.65505259  1
  Cu2+  Cu111  1  0.87526728  0.62498668  0.65392343  1
  Cu2+  Cu112  1  0.12484435  0.12469325  0.65345830  1
  Cu2+  Cu113  1  0.87540095  0.37381540  0.64895669  1
  Cu2+  Cu114  1  0.12497734  0.12572825  0.14071780  1
  Cu2+  Cu115  1  0.37477767  0.62563119  0.14398631  1
  Cu2+  Cu116  1  0.37562047  0.87575827  0.65488620  1
  Cu2+  Cu117  1  0.62569824  0.37488154  0.65331159  1
  Cu2+  Cu118  1  0.37566947  0.12464966  0.14913890  1
  Cu2+  Cu119  1  0.12424478  0.87409527  0.65600600  1
  Cu2+  Cu120  1  0.12534855  0.62452936  0.13993170  1
  Cu2+  Cu121  1  0.62446613  0.87581611  0.14401615  1
  Cu2+  Cu122  1  0.12553494  0.87522487  0.14075675  1
  Cu2+  Cu123  1  0.87460958  0.12552824  0.14859566  1
  Cu2+  Cu124  1  0.37456278  0.62498429  0.65530325  1
  Cu2+  Cu125  1  0.87428088  0.87585886  0.65555356  1
  Cu2+  Cu126  1  0.37422647  0.37405210  0.65800214  1
  Cu2+  Cu127  1  0.87527542  0.62455312  0.14795365  1
  O2-  O128  1  0.12568303  0.12484347  0.00662491  1
  O2-  O129  1  0.12569843  0.12433570  0.49753536  1
  O2-  O130  1  0.12495275  0.37485132  0.01464825  1
  O2-  O131  1  0.12591756  0.37646878  0.49629460  1
  O2-  O132  1  0.12575819  0.62494415  0.00560333  1
  O2-  O133  1  0.12559501  0.62541600  0.50722751  1
  O2-  O134  1  0.12547720  0.87506961  0.00670577  1
  O2-  O135  1  0.12471368  0.87396052  0.49583252  1
  O2-  O136  1  0.37644489  0.12394934  -0.00465190  1
  O2-  O137  1  0.37240321  0.12633397  0.50720018  1
  O2-  O138  1  0.37596057  0.37369923  0.01396325  1
  O2-  O139  1  0.37383368  0.37550383  0.49518627  1
  O2-  O140  1  0.37509926  0.62590648  -0.00313116  1
  O2-  O141  1  0.37374141  0.62361314  0.49695296  1
  O2-  O142  1  0.37706633  0.87615999  0.01432289  1
  O2-  O143  1  0.37289074  0.87472295  0.49663515  1
  O2-  O144  1  0.62328281  0.12479883  0.01904848  1
  O2-  O145  1  0.62577923  0.12631634  0.50854175  1
  O2-  O146  1  0.62518476  0.37406733  0.00748303  1
  O2-  O147  1  0.62402512  0.37748508  0.49704233  1
  O2-  O148  1  0.62485785  0.62490603  0.00622938  1
  O2-  O149  1  0.62426799  0.62408280  0.50723759  1
  O2-  O150  1  0.62462233  0.87589299  0.00768145  1
  O2-  O151  1  0.62566612  0.87370996  0.50704903  1
  O2-  O152  1  0.87408339  0.12446132  -0.00181474  1
  O2-  O153  1  0.87591093  0.12577908  0.51931342  1
  O2-  O154  1  0.87453612  0.37447342  0.00673946  1
  O2-  O155  1  0.87612335  0.37500986  0.50579329  1
  O2-  O156  1  0.87486602  0.62544156  -0.00312133  1
  O2-  O157  1  0.87657455  0.62509144  0.49656755  1
  O2-  O158  1  0.87439294  0.87470747  0.00736980  1
  O2-  O159  1  0.87704200  0.87445827  0.49492710  1
  O2-  O160  1  0.12514246  0.00074368  0.16347502  1
  O2-  O161  1  0.12481368  -0.00161386  0.66540121  1
  O2-  O162  1  0.12475631  0.25218236  0.16593018  1
  O2-  O163  1  0.12528940  0.25074661  0.66556291  1
  O2-  O164  1  0.12482291  0.49768276  0.16574974  1
  O2-  O165  1  0.12448658  0.50148768  0.66422667  1
  O2-  O166  1  0.12537556  0.74962416  0.16341390  1
  O2-  O167  1  0.12499579  0.74855367  0.66363898  1
  O2-  O168  1  0.37601180  -0.00014717  0.16802198  1
  O2-  O169  1  0.37643154  0.00193796  0.66162595  1
  O2-  O170  1  0.37612871  0.25056421  0.16618999  1
  O2-  O171  1  0.37511105  0.24793337  0.66419838  1
  O2-  O172  1  0.37601377  0.49938192  0.16244257  1
  O2-  O173  1  0.37561774  0.49902201  0.66580149  1
  O2-  O174  1  0.37549342  0.75051769  0.16412469  1
  O2-  O175  1  0.37568555  0.75070848  0.66314902  1
  O2-  O176  1  0.62484058  0.00185972  0.17227321  1
  O2-  O177  1  0.62412846  0.00033715  0.66076234  1
  O2-  O178  1  0.62512807  0.25154101  0.16736243  1
  O2-  O179  1  0.62462234  0.24814488  0.66572888  1
  O2-  O180  1  0.62488244  0.49665427  0.16251707  1
  O2-  O181  1  0.62486842  0.50158627  0.66498559  1
  O2-  O182  1  0.62491005  0.75007863  0.16627419  1
  O2-  O183  1  0.62559071  0.74990670  0.66091202  1
  O2-  O184  1  0.87431126  0.00158212  0.16468119  1
  O2-  O185  1  0.87455895  0.00061339  0.66647589  1
  O2-  O186  1  0.87382085  0.25240716  0.16449814  1
  O2-  O187  1  0.87462786  0.24804120  0.67023201  1
  O2-  O188  1  0.87411243  0.49817362  0.16110911  1
  O2-  O189  1  0.87449977  0.50019852  0.66662786  1
  O2-  O190  1  0.87468493  0.74819452  0.16292818  1
  O2-  O191  1  0.87364753  0.75081534  0.66301788  1
  O2-  O192  1  -0.00174448  0.12621714  0.16329099  1
  O2-  O193  1  0.00063467  0.12484034  0.66628327  1
  O2-  O194  1  -0.00167674  0.37524042  0.16244524  1
  O2-  O195  1  0.00063872  0.37467323  0.66731801  1
  O2-  O196  1  -0.00101101  0.62391324  0.16368134  1
  O2-  O197  1  0.00104625  0.62487062  0.66218070  1
  O2-  O198  1  0.00046464  0.87501621  0.16153381  1
  O2-  O199  1  -0.00094898  0.87458489  0.66574257  1
  O2-  O200  1  0.25169460  0.12566991  0.16333836  1
  O2-  O201  1  0.25059351  0.12452172  0.66284085  1
  O2-  O202  1  0.25050009  0.37481637  0.16408490  1
  O2-  O203  1  0.24932384  0.37515083  0.66544287  1
  O2-  O204  1  0.25108328  0.62458528  0.16396839  1
  O2-  O205  1  0.24853047  0.62470341  0.66315492  1
  O2-  O206  1  0.25196076  0.87549274  0.16364556  1
  O2-  O207  1  0.25020362  0.87515412  0.66481906  1
  O2-  O208  1  0.50090637  0.12561020  0.17201562  1
  O2-  O209  1  0.50040040  0.12570017  0.65857748  1
  O2-  O210  1  0.50111094  0.37433505  0.16409104  1
  O2-  O211  1  0.49995679  0.37421108  0.66516525  1
  O2-  O212  1  0.49896543  0.62501027  0.16583310  1
  O2-  O213  1  0.50143678  0.62500597  0.66264369  1
  O2-  O214  1  0.49815954  0.87539785  0.16966113  1
  O2-  O215  1  0.50278018  0.87477852  0.66253830  1
  O2-  O216  1  0.74908962  0.12625979  0.16871001  1
  O2-  O217  1  0.74835449  0.12497674  0.66547150  1
  O2-  O218  1  0.74997094  0.37479450  0.16152637  1
  O2-  O219  1  0.74951884  0.37461956  0.66774560  1
  O2-  O220  1  0.75114070  0.62423372  0.16671063  1
  O2-  O221  1  0.74879455  0.62406449  0.66170976  1
  O2-  O222  1  0.75002002  0.87530636  0.16620283  1
  O2-  O223  1  0.74771061  0.87560296  0.66413600  1
  O2-  O224  1  0.12548459  -0.00030251  0.34472588  1
  O2-  O225  1  0.12523374  -0.00038052  0.84955547  1
  O2-  O226  1  0.12547471  0.24948943  0.34641296  1
  O2-  O227  1  0.12477061  0.25064172  0.85042989  1
  O2-  O228  1  0.12576539  0.50250288  0.34711388  1
  O2-  O229  1  0.12472778  0.49912649  0.84862704  1
  O2-  O230  1  0.12562777  0.74853791  0.34606239  1
  O2-  O231  1  0.12509583  0.75001082  0.84741065  1
  O2-  O232  1  0.37614800  0.00140975  0.35080015  1
  O2-  O233  1  0.37603885  0.00011948  0.84512245  1
  O2-  O234  1  0.37564425  0.24867514  0.34803308  1
  O2-  O235  1  0.37555921  0.24924638  0.84759208  1
  O2-  O236  1  0.37515522  0.50083497  0.34253243  1
  O2-  O237  1  0.37505562  0.50023296  0.84931972  1
  O2-  O238  1  0.37571887  0.74977925  0.34530157  1
  O2-  O239  1  0.37555373  0.75000302  0.84705504  1
  O2-  O240  1  0.62430230  -0.00013872  0.35641739  1
  O2-  O241  1  0.62457456  0.00115981  0.84574595  1
  O2-  O242  1  0.62439202  0.24907838  0.34997665  1
  O2-  O243  1  0.62499266  0.25199480  0.85126815  1
  O2-  O244  1  0.62453204  0.50256735  0.34504003  1
  O2-  O245  1  0.62519146  0.49644504  0.84999637  1
  O2-  O246  1  0.62460685  0.74978214  0.35080950  1
  O2-  O247  1  0.62464597  0.74964011  0.84600746  1
  O2-  O248  1  0.87447248  -0.00136988  0.34750141  1
  O2-  O249  1  0.87402568  0.00104650  0.84810361  1
  O2-  O250  1  0.87505588  0.24851019  0.34862774  1
  O2-  O251  1  0.87383289  0.25129029  0.85126475  1
  O2-  O252  1  0.87489695  0.50353072  0.34263054  1
  O2-  O253  1  0.87451880  0.49798762  0.84978301  1
  O2-  O254  1  0.87436207  0.74996367  0.34331203  1
  O2-  O255  1  0.87477041  0.74907429  0.84687115  1
  O2-  O256  1  0.00100974  0.12475351  0.34615705  1
  O2-  O257  1  -0.00207476  0.12558311  0.84801319  1
  O2-  O258  1  0.00311963  0.37582836  0.34372151  1
  O2-  O259  1  -0.00245943  0.37478717  0.85121681  1
  O2-  O260  1  0.00206034  0.62539474  0.34699993  1
  O2-  O261  1  -0.00198557  0.62393067  0.84542279  1
  O2-  O262  1  0.00075765  0.87436677  0.34209888  1
  O2-  O263  1  0.00014989  0.87480140  0.85001554  1
  O2-  O264  1  0.25131935  0.12501197  0.34547043  1
  O2-  O265  1  0.25112234  0.12499214  0.84652294  1
  O2-  O266  1  0.25012081  0.37513194  0.34217294  1
  O2-  O267  1  0.24916032  0.37472199  0.85029074  1
  O2-  O268  1  0.24870881  0.62533286  0.34640904  1
  O2-  O269  1  0.25144314  0.62485219  0.84671591  1
  O2-  O270  1  0.24982998  0.87502973  0.34298872  1
  O2-  O271  1  0.25081194  0.87495702  0.84945304  1
  O2-  O272  1  0.49955071  0.12507144  0.35528672  1
  O2-  O273  1  0.49990661  0.12524321  0.84355322  1
  O2-  O274  1  0.49944114  0.37521238  0.34446572  1
  O2-  O275  1  0.50233615  0.37422036  0.85046118  1
  O2-  O276  1  0.50124650  0.62527257  0.34880591  1
  O2-  O277  1  0.49842745  0.62445253  0.84603699  1
  O2-  O278  1  0.50108758  0.87549451  0.35144008  1
  O2-  O279  1  0.49948336  0.87544323  0.84691802  1
  O2-  O280  1  0.74837169  0.12500100  0.35316058  1
  O2-  O281  1  0.75036120  0.12569463  0.84757603  1
  O2-  O282  1  0.74773963  0.37536804  0.34501639  1
  O2-  O283  1  0.75021157  0.37453671  0.85169638  1
  O2-  O284  1  0.74823970  0.62553901  0.34997937  1
  O2-  O285  1  0.75205257  0.62393710  0.84495581  1
  O2-  O286  1  0.74875540  0.87522982  0.34934005  1
  O2-  O287  1  0.74978528  0.87502018  0.84807614  1
