# generated using pymatgen
data_BaYFeCuO5
_symmetry_space_group_name_H-M   'P 1'
_cell_length_a   15.65329537
_cell_length_b   15.65013626
_cell_length_c   15.43856522
_cell_angle_alpha   90.00434291
_cell_angle_beta   89.99744782
_cell_angle_gamma   90.00098800
_symmetry_Int_Tables_number   1
_chemical_formula_structural   BaYFeCuO5
_chemical_formula_sum   'Ba32 Y32 Fe32 Cu32 O160'
_cell_volume   3782.08110978
_cell_formula_units_Z   32
loop_
 _symmetry_equiv_pos_site_id
 _symmetry_equiv_pos_as_xyz
  1  'x, y, z'
loop_
 _atom_type_symbol
 _atom_type_oxidation_number
  Ba2+  2.0
  Y3+  3.0
  Fe3+  3.0
  Cu2+  2.0
  O2-  -2.0
loop_
 _atom_site_type_symbol
 _atom_site_label
 _atom_site_symmetry_multiplicity
 _atom_site_fract_x
 _atom_site_fract_y
 _atom_site_fract_z
 _atom_site_occupancy
  Ba2+  Ba0  1  -0.00282017  -0.00153134  0.01229026  1
  Ba2+  Ba1  1  0.00361871  -0.00858144  0.51019480  1
  Ba2+  Ba2  1  -0.00355786  0.24545274  0.01334804  1
  Ba2+  Ba3  1  0.00362827  0.25835194  0.50992181  1
  Ba2+  Ba4  1  0.00431618  0.49593949  0.01138498  1
  Ba2+  Ba5  1  0.00126735  0.49771104  0.51596899  1
  Ba2+  Ba6  1  0.00373303  0.75825197  0.01073197  1
  Ba2+  Ba7  1  0.00128063  0.75257497  0.51684427  1
  Ba2+  Ba8  1  0.23752581  -0.00219326  0.01094787  1
  Ba2+  Ba9  1  0.24357328  -0.00625018  0.51636332  1
  Ba2+  Ba10  1  0.23936219  0.25051678  0.00598427  1
  Ba2+  Ba11  1  0.24608929  0.25877211  0.51099562  1
  Ba2+  Ba12  1  0.24743255  0.50730770  0.00727537  1
  Ba2+  Ba13  1  0.24848330  0.49673157  0.50592750  1
  Ba2+  Ba14  1  0.24451079  0.74598867  0.01236217  1
  Ba2+  Ba15  1  0.24494369  0.75082176  0.51245855  1
  Ba2+  Ba16  1  0.50768273  -0.00655694  0.00652348  1
  Ba2+  Ba17  1  0.49976070  0.00028396  0.51746829  1
  Ba2+  Ba18  1  0.50562831  0.25483952  0.01138330  1
  Ba2+  Ba19  1  0.50121804  0.25662034  0.51771899  1
  Ba2+  Ba20  1  0.49602345  0.50390605  0.01093100  1
  Ba2+  Ba21  1  0.49278793  0.49430504  0.50613616  1
  Ba2+  Ba22  1  0.49870131  0.74878543  0.00646110  1
  Ba2+  Ba23  1  0.49032996  0.74910064  0.50642015  1
  Ba2+  Ba24  1  0.75947080  -0.00359403  0.00600751  1
  Ba2+  Ba25  1  0.75399781  -0.00258190  0.51147920  1
  Ba2+  Ba26  1  0.75902229  0.24948486  0.01615049  1
  Ba2+  Ba27  1  0.74866521  0.25586132  0.51643769  1
  Ba2+  Ba28  1  0.75128778  0.49104123  0.01747879  1
  Ba2+  Ba29  1  0.75660639  0.49468361  0.51441157  1
  Ba2+  Ba30  1  0.75173582  0.76191891  0.00688805  1
  Ba2+  Ba31  1  0.76145131  0.75124811  0.51166721  1
  Y3+  Y32  1  -0.00040329  -0.00211924  0.25666772  1
  Y3+  Y33  1  -0.00048770  -0.00255589  0.75809471  1
  Y3+  Y34  1  -0.00125666  0.25009063  0.25916358  1
  Y3+  Y35  1  0.00085279  0.25051673  0.75474364  1
  Y3+  Y36  1  0.00070753  0.49793702  0.26032506  1
  Y3+  Y37  1  0.00119741  0.49952933  0.75333451  1
  Y3+  Y38  1  0.00136938  0.75425377  0.25767265  1
  Y3+  Y39  1  0.00012648  0.75283797  0.75666365  1
  Y3+  Y40  1  0.24556715  -0.00133114  0.25717039  1
  Y3+  Y41  1  0.24607295  -0.00214853  0.75636350  1
  Y3+  Y42  1  0.24854240  0.25187369  0.26071843  1
  Y3+  Y43  1  0.24725622  0.25179994  0.75401367  1
  Y3+  Y44  1  0.25111299  0.50117798  0.25932819  1
  Y3+  Y45  1  0.24820142  0.49971127  0.75652045  1
  Y3+  Y46  1  0.24802502  0.74874761  0.25618680  1
  Y3+  Y47  1  0.24747147  0.75053043  0.75906035  1
  Y3+  Y48  1  0.50136150  -0.00128686  0.25544949  1
  Y3+  Y49  1  0.50162467  -0.00105316  0.75840717  1
  Y3+  Y50  1  0.49962281  0.25186841  0.25767858  1
  Y3+  Y51  1  0.50039932  0.25101943  0.75503187  1
  Y3+  Y52  1  0.49715343  0.50090181  0.25690331  1
  Y3+  Y53  1  0.49765739  0.49985131  0.75788228  1
  Y3+  Y54  1  0.49896614  0.74894572  0.25395195  1
  Y3+  Y55  1  0.49910239  0.74997524  0.76122409  1
  Y3+  Y56  1  0.75360481  -0.00185815  0.25492404  1
  Y3+  Y57  1  0.75266372  -0.00110068  0.75944302  1
  Y3+  Y58  1  0.75342482  0.25073856  0.25665574  1
  Y3+  Y59  1  0.75167506  0.24903348  0.75546857  1
  Y3+  Y60  1  0.75139558  0.49814359  0.25780173  1
  Y3+  Y61  1  0.75219351  0.49931070  0.75368491  1
  Y3+  Y62  1  0.75203594  0.75348986  0.25607459  1
  Y3+  Y63  1  0.75276820  0.75240746  0.75850234  1
  Fe3+  Fe64  1  0.37491798  0.12478028  0.37977868  1
  Fe3+  Fe65  1  0.87586993  0.62530721  0.37626513  1
  Fe3+  Fe66  1  0.62496977  0.87458915  0.37977732  1
  Fe3+  Fe67  1  0.62677455  0.12555110  0.87872404  1
  Fe3+  Fe68  1  0.62520515  0.37523226  0.37509794  1
  Fe3+  Fe69  1  0.62502611  0.12496984  0.37793482  1
  Fe3+  Fe70  1  0.62619144  0.37530294  0.87619329  1
  Fe3+  Fe71  1  0.12449091  0.62567089  0.37730291  1
  Fe3+  Fe72  1  0.12307252  0.12518954  0.87481021  1
  Fe3+  Fe73  1  0.62529575  0.62537688  0.37994273  1
  Fe3+  Fe74  1  0.87535509  0.62453939  0.87959520  1
  Fe3+  Fe75  1  0.37403274  0.87563118  0.37608675  1
  Fe3+  Fe76  1  0.37452617  0.12516042  0.87965248  1
  Fe3+  Fe77  1  0.62668640  0.62433965  0.87953426  1
  Fe3+  Fe78  1  0.87639800  0.37465956  0.87518909  1
  Fe3+  Fe79  1  0.37358457  0.37464613  0.87964140  1
  Fe3+  Fe80  1  0.37329652  0.87533091  0.87955591  1
  Fe3+  Fe81  1  0.12481015  0.12454959  0.37889803  1
  Fe3+  Fe82  1  0.12337662  0.62482680  0.87568839  1
  Fe3+  Fe83  1  0.87497293  0.12482259  0.38009084  1
  Fe3+  Fe84  1  0.62486102  0.62500592  0.63442937  1
  Fe3+  Fe85  1  0.87642956  0.12461550  0.63498379  1
  Fe3+  Fe86  1  0.87676000  0.62527823  0.13385119  1
  Fe3+  Fe87  1  0.37378182  0.37476050  0.13497154  1
  Fe3+  Fe88  1  0.37379371  0.62522736  0.63962606  1
  Fe3+  Fe89  1  0.12509562  0.37505576  0.13920672  1
  Fe3+  Fe90  1  0.62638655  0.12475445  0.13476260  1
  Fe3+  Fe91  1  0.37390994  0.12491642  0.13280203  1
  Fe3+  Fe92  1  0.62489212  0.87360115  0.63617386  1
  Fe3+  Fe93  1  0.37355257  0.12476939  0.63593253  1
  Fe3+  Fe94  1  0.37409849  0.87519502  0.13453094  1
  Fe3+  Fe95  1  0.62660376  0.62514409  0.13531649  1
  Cu2+  Cu96  1  0.12430812  0.37499225  0.86312311  1
  Cu2+  Cu97  1  0.37486515  0.62591523  0.36302939  1
  Cu2+  Cu98  1  0.87555742  0.87499384  0.37267855  1
  Cu2+  Cu99  1  0.37525409  0.37433193  0.37211961  1
  Cu2+  Cu100  1  0.12442572  0.87509741  0.87188766  1
  Cu2+  Cu101  1  0.62559173  0.87474934  0.87197184  1
  Cu2+  Cu102  1  0.87649099  0.87493779  0.87091819  1
  Cu2+  Cu103  1  0.87498476  0.37485642  0.37334375  1
  Cu2+  Cu104  1  0.37405554  0.62492342  0.87392295  1
  Cu2+  Cu105  1  0.12486889  0.37557312  0.37104204  1
  Cu2+  Cu106  1  0.87579449  0.12547785  0.87026515  1
  Cu2+  Cu107  1  0.12523616  0.87462173  0.37115781  1
  Cu2+  Cu108  1  0.87637811  0.37557613  0.15300210  1
  Cu2+  Cu109  1  0.87608440  0.12428980  0.14318691  1
  Cu2+  Cu110  1  0.12443324  0.12465455  0.64576458  1
  Cu2+  Cu111  1  0.87502819  0.87552815  0.64387596  1
  Cu2+  Cu112  1  0.62481657  0.37496661  0.15044728  1
  Cu2+  Cu113  1  0.87605712  0.87464570  0.14417216  1
  Cu2+  Cu114  1  0.37415424  0.37600466  0.64426433  1
  Cu2+  Cu115  1  0.87540933  0.62549405  0.65087637  1
  Cu2+  Cu116  1  0.12493736  0.87498987  0.14250317  1
  Cu2+  Cu117  1  0.12486745  0.12581231  0.15314807  1
  Cu2+  Cu118  1  0.37392401  0.62515189  0.14079867  1
  Cu2+  Cu119  1  0.62468757  0.37644452  0.65207367  1
  Cu2+  Cu120  1  0.62545381  0.12439915  0.64950755  1
  Cu2+  Cu121  1  0.12531543  0.37586892  0.64358052  1
  Cu2+  Cu122  1  0.62558985  0.87484584  0.14131092  1
  Cu2+  Cu123  1  0.12356489  0.62417576  0.15201075  1
  Cu2+  Cu124  1  0.12464000  0.87419646  0.64443552  1
  Cu2+  Cu125  1  0.12488813  0.62538447  0.64933084  1
  Cu2+  Cu126  1  0.87581578  0.37445068  0.64237020  1
  Cu2+  Cu127  1  0.37507432  0.87435192  0.65353247  1
  O2-  O128  1  0.12316889  0.12590938  -0.00387880  1
  O2-  O129  1  0.12682159  0.12452484  0.49921244  1
  O2-  O130  1  0.12536571  0.37497494  0.01805779  1
  O2-  O131  1  0.12561077  0.37686036  0.50741893  1
  O2-  O132  1  0.12254739  0.62424342  -0.00310504  1
  O2-  O133  1  0.12421778  0.62560480  0.49803531  1
  O2-  O134  1  0.12543284  0.87516282  0.00789967  1
  O2-  O135  1  0.12598160  0.87336805  0.50772460  1
  O2-  O136  1  0.37468202  0.12522782  0.00606206  1
  O2-  O137  1  0.37553422  0.12478853  0.50641809  1
  O2-  O138  1  0.37384801  0.37377349  0.00738348  1
  O2-  O139  1  0.37563075  0.37435159  0.50770164  1
  O2-  O140  1  0.37516865  0.62471395  0.00785458  1
  O2-  O141  1  0.37557648  0.62488754  0.51886150  1
  O2-  O142  1  0.37410287  0.87631544  0.00687239  1
  O2-  O143  1  0.37571757  0.87637038  0.49696355  1
  O2-  O144  1  0.62641215  0.12543883  0.00622677  1
  O2-  O145  1  0.62246165  0.12577593  0.49788630  1
  O2-  O146  1  0.62610388  0.37511402  -0.00373824  1
  O2-  O147  1  0.62419053  0.37581339  0.49601032  1
  O2-  O148  1  0.62708868  0.62410744  0.00683070  1
  O2-  O149  1  0.62439851  0.62539844  0.50698214  1
  O2-  O150  1  0.62459776  0.87460030  0.00709026  1
  O2-  O151  1  0.62349434  0.87389494  0.50743399  1
  O2-  O152  1  0.87521195  0.12525912  0.00729195  1
  O2-  O153  1  0.87440298  0.12531049  0.50691172  1
  O2-  O154  1  0.87580698  0.37494926  -0.00389414  1
  O2-  O155  1  0.87413286  0.37455983  0.50659450  1
  O2-  O156  1  0.87464773  0.62379418  0.00610290  1
  O2-  O157  1  0.87524129  0.62436143  0.49695957  1
  O2-  O158  1  0.87633276  0.87466861  0.00729115  1
  O2-  O159  1  0.87424056  0.87550403  0.50774330  1
  O2-  O160  1  0.12531673  0.00208741  0.16517142  1
  O2-  O161  1  0.12557539  0.00011411  0.66504487  1
  O2-  O162  1  0.12601935  0.25085914  0.16659834  1
  O2-  O163  1  0.12580366  0.24916773  0.66413041  1
  O2-  O164  1  0.12525220  0.49894236  0.16582736  1
  O2-  O165  1  0.12534209  0.50171463  0.66583769  1
  O2-  O166  1  0.12507452  0.74810586  0.16442127  1
  O2-  O167  1  0.12496352  0.74908913  0.66646451  1
  O2-  O168  1  0.37602300  0.00095576  0.16203908  1
  O2-  O169  1  0.37594831  0.00093223  0.66433817  1
  O2-  O170  1  0.37548551  0.24961312  0.16197720  1
  O2-  O171  1  0.37559560  0.24710514  0.66554709  1
  O2-  O172  1  0.37511872  0.49686120  0.16319657  1
  O2-  O173  1  0.37531205  0.50245256  0.67007922  1
  O2-  O174  1  0.37502005  0.75266235  0.16232510  1
  O2-  O175  1  0.37605271  0.74946334  0.66877747  1
  O2-  O176  1  0.62398858  0.00323428  0.16562369  1
  O2-  O177  1  0.62392476  -0.00283161  0.66359088  1
  O2-  O178  1  0.62420590  0.24863466  0.16097732  1
  O2-  O179  1  0.62388317  0.25083034  0.66409765  1
  O2-  O180  1  0.62531829  0.50118065  0.16290215  1
  O2-  O181  1  0.62473653  0.50256664  0.66321738  1
  O2-  O182  1  0.62589832  0.74673842  0.16629333  1
  O2-  O183  1  0.62443029  0.74943848  0.66404918  1
  O2-  O184  1  0.87545106  -0.00060097  0.16713082  1
  O2-  O185  1  0.87400228  0.00262766  0.66447086  1
  O2-  O186  1  0.87516929  0.25166153  0.16505447  1
  O2-  O187  1  0.87444542  0.24703078  0.66331576  1
  O2-  O188  1  0.87458245  0.50128179  0.16195797  1
  O2-  O189  1  0.87447583  0.50111554  0.66485021  1
  O2-  O190  1  0.87464953  0.74699889  0.16374509  1
  O2-  O191  1  0.87414503  0.74939834  0.66664896  1
  O2-  O192  1  0.00145696  0.12590286  0.16738284  1
  O2-  O193  1  -0.00115085  0.12489335  0.66113221  1
  O2-  O194  1  0.00093131  0.37472961  0.16682251  1
  O2-  O195  1  0.00031014  0.37514302  0.66355847  1
  O2-  O196  1  -0.00143441  0.62376079  0.16135568  1
  O2-  O197  1  -0.00013274  0.62518958  0.66344241  1
  O2-  O198  1  0.00045866  0.87508843  0.16572138  1
  O2-  O199  1  -0.00052329  0.87492650  0.66508422  1
  O2-  O200  1  0.25207724  0.12513275  0.16300751  1
  O2-  O201  1  0.25126898  0.12413324  0.66435164  1
  O2-  O202  1  0.25135213  0.37410682  0.16647967  1
  O2-  O203  1  0.24977642  0.37505375  0.66771820  1
  O2-  O204  1  0.24746900  0.62445700  0.16475862  1
  O2-  O205  1  0.25008105  0.62600014  0.66722138  1
  O2-  O206  1  0.25250997  0.87614563  0.16334118  1
  O2-  O207  1  0.25117718  0.87472656  0.66691736  1
  O2-  O208  1  0.49945179  0.12560066  0.16024040  1
  O2-  O209  1  0.49845665  0.12428045  0.66592852  1
  O2-  O210  1  0.49761048  0.37429653  0.16105932  1
  O2-  O211  1  0.50073390  0.37555866  0.66754226  1
  O2-  O212  1  0.50328863  0.62480776  0.16412000  1
  O2-  O213  1  0.50122777  0.62562747  0.66834035  1
  O2-  O214  1  0.49693261  0.87529342  0.16338133  1
  O2-  O215  1  0.50187964  0.87452856  0.66615420  1
  O2-  O216  1  0.74787287  0.12533956  0.16459663  1
  O2-  O217  1  0.75121452  0.12481308  0.66275606  1
  O2-  O218  1  0.75078643  0.37505454  0.16254370  1
  O2-  O219  1  0.74890544  0.37516113  0.66312333  1
  O2-  O220  1  0.75098911  0.62382514  0.16272984  1
  O2-  O221  1  0.74818012  0.62550896  0.66308231  1
  O2-  O222  1  0.75085275  0.87518418  0.16641084  1
  O2-  O223  1  0.74707175  0.87449576  0.66375295  1
  O2-  O224  1  0.12575175  0.00133713  0.34795125  1
  O2-  O225  1  0.12552755  0.00147636  0.84738544  1
  O2-  O226  1  0.12570058  0.24811253  0.34838149  1
  O2-  O227  1  0.12573101  0.25011816  0.84689445  1
  O2-  O228  1  0.12575561  0.50204275  0.34726051  1
  O2-  O229  1  0.12458655  0.49972310  0.84879247  1
  O2-  O230  1  0.12569321  0.74888607  0.34677590  1
  O2-  O231  1  0.12457644  0.74867491  0.84884271  1
  O2-  O232  1  0.37622017  0.00150537  0.34578806  1
  O2-  O233  1  0.37592007  0.00108518  0.85029891  1
  O2-  O234  1  0.37619347  0.24594235  0.34645169  1
  O2-  O235  1  0.37562431  0.24965908  0.85081366  1
  O2-  O236  1  0.37609337  0.50172660  0.34779127  1
  O2-  O237  1  0.37543562  0.49653104  0.85259729  1
  O2-  O238  1  0.37687416  0.75136135  0.34618967  1
  O2-  O239  1  0.37546478  0.75266855  0.85207164  1
  O2-  O240  1  0.62407522  -0.00129824  0.34915952  1
  O2-  O241  1  0.62400097  0.00323066  0.84876838  1
  O2-  O242  1  0.62447648  0.24933286  0.34364438  1
  O2-  O243  1  0.62431747  0.24955079  0.84780026  1
  O2-  O244  1  0.62453880  0.50205673  0.34719560  1
  O2-  O245  1  0.62504744  0.50052927  0.84706621  1
  O2-  O246  1  0.62371715  0.75004740  0.35124213  1
  O2-  O247  1  0.62530739  0.74637812  0.84895574  1
  O2-  O248  1  0.87376846  0.00253253  0.35084173  1
  O2-  O249  1  0.87471501  -0.00001369  0.84813566  1
  O2-  O250  1  0.87423892  0.24650234  0.34898913  1
  O2-  O251  1  0.87453689  0.25196295  0.84529090  1
  O2-  O252  1  0.87392618  0.50223207  0.34491821  1
  O2-  O253  1  0.87433405  0.50075869  0.84762332  1
  O2-  O254  1  0.87389447  0.74881267  0.34607884  1
  O2-  O255  1  0.87414713  0.74691585  0.85085761  1
  O2-  O256  1  -0.00097963  0.12469902  0.35111454  1
  O2-  O257  1  0.00118154  0.12579190  0.84386707  1
  O2-  O258  1  0.00023629  0.37479762  0.34979064  1
  O2-  O259  1  -0.00040698  0.37535021  0.84608908  1
  O2-  O260  1  0.00001632  0.62538887  0.34380829  1
  O2-  O261  1  -0.00190027  0.62412378  0.84728982  1
  O2-  O262  1  0.00024024  0.87543347  0.34930201  1
  O2-  O263  1  0.00044223  0.87490985  0.84831312  1
  O2-  O264  1  0.25137912  0.12456200  0.34754549  1
  O2-  O265  1  0.25136585  0.12557503  0.84863256  1
  O2-  O266  1  0.25021254  0.37465750  0.34898037  1
  O2-  O267  1  0.25118584  0.37370922  0.85181665  1
  O2-  O268  1  0.25024136  0.62570696  0.34847128  1
  O2-  O269  1  0.24787418  0.62428694  0.84933391  1
  O2-  O270  1  0.25179540  0.87558362  0.34542770  1
  O2-  O271  1  0.25199917  0.87622739  0.85059957  1
  O2-  O272  1  0.49953390  0.12401487  0.34470234  1
  O2-  O273  1  0.49989678  0.12551575  0.85206210  1
  O2-  O274  1  0.50211038  0.37533811  0.34395000  1
  O2-  O275  1  0.49919732  0.37421820  0.85055228  1
  O2-  O276  1  0.50170694  0.62561428  0.34963112  1
  O2-  O277  1  0.50271047  0.62436905  0.85262848  1
  O2-  O278  1  0.50122225  0.87527321  0.34647853  1
  O2-  O279  1  0.49695694  0.87570409  0.85069693  1
  O2-  O280  1  0.75014145  0.12438920  0.34816021  1
  O2-  O281  1  0.74786066  0.12531361  0.84793803  1
  O2-  O282  1  0.74781089  0.37504271  0.34552611  1
  O2-  O283  1  0.75012131  0.37529528  0.84451557  1
  O2-  O284  1  0.74812459  0.62589932  0.34689739  1
  O2-  O285  1  0.75052478  0.62430038  0.84864707  1
  O2-  O286  1  0.74662576  0.87469172  0.35025738  1
  O2-  O287  1  0.75058470  0.87505955  0.84748370  1
