# generated using pymatgen
data_BaYFeCuO5
_symmetry_space_group_name_H-M   'P 1'
_cell_length_a   15.67084737
_cell_length_b   15.67349100
_cell_length_c   15.48903362
_cell_angle_alpha   90.00517032
_cell_angle_beta   89.99375937
_cell_angle_gamma   89.99652480
_symmetry_Int_Tables_number   1
_chemical_formula_structural   BaYFeCuO5
_chemical_formula_sum   'Ba32 Y32 Fe32 Cu32 O160'
_cell_volume   3804.36814878
_cell_formula_units_Z   32
loop_
 _symmetry_equiv_pos_site_id
 _symmetry_equiv_pos_as_xyz
  1  'x, y, z'
loop_
 _atom_type_symbol
 _atom_type_oxidation_number
  Ba2+  2.0
  Y3+  3.0
  Fe3+  3.0
  Cu2+  2.0
  O2-  -2.0
loop_
 _atom_site_type_symbol
 _atom_site_label
 _atom_site_symmetry_multiplicity
 _atom_site_fract_x
 _atom_site_fract_y
 _atom_site_fract_z
 _atom_site_occupancy
  Ba2+  Ba0  1  0.00130849  -0.00320143  0.00097110  1
  Ba2+  Ba1  1  -0.00141975  0.00128927  0.50632390  1
  Ba2+  Ba2  1  0.00374593  0.24496275  0.00108166  1
  Ba2+  Ba3  1  -0.00452294  0.25386459  0.51130923  1
  Ba2+  Ba4  1  0.00436669  0.50721908  0.00817203  1
  Ba2+  Ba5  1  0.00644072  0.49386169  0.51572362  1
  Ba2+  Ba6  1  0.00288823  0.75155533  0.00786456  1
  Ba2+  Ba7  1  0.00978927  0.75200343  0.51069032  1
  Ba2+  Ba8  1  0.24247926  0.00174712  -0.00366632  1
  Ba2+  Ba9  1  0.24815222  -0.00194452  0.51127409  1
  Ba2+  Ba10  1  0.24475571  0.24456518  -0.00940252  1
  Ba2+  Ba11  1  0.25458142  0.25920063  0.51042139  1
  Ba2+  Ba12  1  0.23906838  0.50207915  0.00225089  1
  Ba2+  Ba13  1  0.25225425  0.49564593  0.51628728  1
  Ba2+  Ba14  1  0.23680789  0.75124750  0.00806666  1
  Ba2+  Ba15  1  0.24669968  0.74552060  0.51794658  1
  Ba2+  Ba16  1  0.50837035  0.00380886  0.00334103  1
  Ba2+  Ba17  1  0.50489634  0.00486252  0.52390370  1
  Ba2+  Ba18  1  0.50574150  0.24256659  0.00693961  1
  Ba2+  Ba19  1  0.49906094  0.25322468  0.52246830  1
  Ba2+  Ba20  1  0.50796941  0.49925252  0.01498579  1
  Ba2+  Ba21  1  0.49738212  0.49734050  0.52139480  1
  Ba2+  Ba22  1  0.51016673  0.75368177  0.01056980  1
  Ba2+  Ba23  1  0.50268018  0.74383629  0.52314497  1
  Ba2+  Ba24  1  0.74711200  -0.00042842  0.00711313  1
  Ba2+  Ba25  1  0.74857814  0.00815933  0.51573528  1
  Ba2+  Ba26  1  0.74636046  0.24268360  0.01623107  1
  Ba2+  Ba27  1  0.75023429  0.24865991  0.52025411  1
  Ba2+  Ba28  1  0.74873233  0.50472068  0.02008372  1
  Ba2+  Ba29  1  0.74363565  0.49463355  0.52030452  1
  Ba2+  Ba30  1  0.75082696  0.75398729  0.01234453  1
  Ba2+  Ba31  1  0.74068538  0.74987660  0.51608984  1
  Y3+  Y32  1  0.00000122  -0.00023212  0.26170478  1
  Y3+  Y33  1  0.00040156  -0.00187736  0.75508861  1
  Y3+  Y34  1  -0.00111803  0.24924295  0.26231176  1
  Y3+  Y35  1  0.00018408  0.25112752  0.75421806  1
  Y3+  Y36  1  0.00121458  0.50078290  0.25669907  1
  Y3+  Y37  1  0.00326671  0.49915688  0.75727325  1
  Y3+  Y38  1  0.00281802  0.75025129  0.25641827  1
  Y3+  Y39  1  0.00328728  0.75138530  0.75800728  1
  Y3+  Y40  1  0.24808044  -0.00250651  0.26025323  1
  Y3+  Y41  1  0.24925587  0.00010547  0.75694577  1
  Y3+  Y42  1  0.25065731  0.25276851  0.26370444  1
  Y3+  Y43  1  0.25058942  0.25060880  0.75435883  1
  Y3+  Y44  1  0.24967850  0.49857037  0.25920915  1
  Y3+  Y45  1  0.24742579  0.49970723  0.75598312  1
  Y3+  Y46  1  0.24653974  0.75101476  0.25624579  1
  Y3+  Y47  1  0.24606121  0.74968842  0.75871774  1
  Y3+  Y48  1  0.50197719  0.00008500  0.25286197  1
  Y3+  Y49  1  0.50205377  0.00242884  0.76195414  1
  Y3+  Y50  1  0.50070045  0.25049643  0.25437094  1
  Y3+  Y51  1  0.49916102  0.24761762  0.75920598  1
  Y3+  Y52  1  0.49978353  0.49815461  0.25437910  1
  Y3+  Y53  1  0.49857835  0.49920384  0.75654446  1
  Y3+  Y54  1  0.50090609  0.75119927  0.25269348  1
  Y3+  Y55  1  0.50148206  0.75099420  0.75914158  1
  Y3+  Y56  1  0.75044501  0.00226898  0.25607299  1
  Y3+  Y57  1  0.74843295  0.00054116  0.75837559  1
  Y3+  Y58  1  0.75007353  0.24693096  0.25547089  1
  Y3+  Y59  1  0.75043770  0.24809786  0.75602647  1
  Y3+  Y60  1  0.74927893  0.50044815  0.25377111  1
  Y3+  Y61  1  0.75036743  0.49851144  0.75543236  1
  Y3+  Y62  1  0.74945078  0.75034773  0.25427051  1
  Y3+  Y63  1  0.74870359  0.75306453  0.75816573  1
  Fe3+  Fe64  1  0.12545517  0.12624979  0.38261875  1
  Fe3+  Fe65  1  0.87520618  0.37537736  0.87946539  1
  Fe3+  Fe66  1  0.37487682  0.37498797  0.87995217  1
  Fe3+  Fe67  1  0.62377267  0.62427086  0.37434569  1
  Fe3+  Fe68  1  0.62373861  0.87526483  0.37757428  1
  Fe3+  Fe69  1  0.37473256  0.87494048  0.87938734  1
  Fe3+  Fe70  1  0.62437048  0.37458877  0.37466296  1
  Fe3+  Fe71  1  0.37465280  0.62537333  0.87984800  1
  Fe3+  Fe72  1  0.37626089  0.62502805  0.37569129  1
  Fe3+  Fe73  1  0.87291496  0.37610213  0.37607299  1
  Fe3+  Fe74  1  0.37648953  0.87395605  0.38078912  1
  Fe3+  Fe75  1  0.87530227  0.12428317  0.87552857  1
  Fe3+  Fe76  1  0.12585429  0.62388169  0.37705109  1
  Fe3+  Fe77  1  0.62384237  0.12564330  0.37599728  1
  Fe3+  Fe78  1  0.87484952  0.62585273  0.87501535  1
  Fe3+  Fe79  1  0.37717449  0.12486360  0.37986591  1
  Fe3+  Fe80  1  0.87404342  0.62479920  0.38037833  1
  Fe3+  Fe81  1  0.87342679  0.87410309  0.38122760  1
  Fe3+  Fe82  1  0.62650702  0.37458630  0.87702605  1
  Fe3+  Fe83  1  0.62613291  0.62449189  0.87471524  1
  Fe3+  Fe84  1  0.37350236  0.37346819  0.13239631  1
  Fe3+  Fe85  1  0.37328479  0.87638977  0.13277104  1
  Fe3+  Fe86  1  0.37551804  0.87482293  0.63721765  1
  Fe3+  Fe87  1  0.37221422  0.12476073  0.13586300  1
  Fe3+  Fe88  1  0.87546691  0.62499870  0.63360012  1
  Fe3+  Fe89  1  0.12518925  0.12506644  0.14230499  1
  Fe3+  Fe90  1  0.87645881  0.37388695  0.13337039  1
  Fe3+  Fe91  1  0.12529605  0.12552683  0.63643010  1
  Fe3+  Fe92  1  0.37375059  0.62530036  0.13192469  1
  Fe3+  Fe93  1  0.12510246  0.37314779  0.13838175  1
  Fe3+  Fe94  1  0.87437946  0.87487617  0.63524383  1
  Fe3+  Fe95  1  0.87669751  0.87648932  0.13936478  1
  Cu2+  Cu96  1  0.12443885  0.87526952  0.87021225  1
  Cu2+  Cu97  1  0.12441148  0.37461557  0.86282143  1
  Cu2+  Cu98  1  0.62568513  0.87516501  0.87222084  1
  Cu2+  Cu99  1  0.37754729  0.37600149  0.37218617  1
  Cu2+  Cu100  1  0.87510419  0.87483847  0.86106071  1
  Cu2+  Cu101  1  0.12584269  0.87421869  0.37592340  1
  Cu2+  Cu102  1  0.87316638  0.12540853  0.37516476  1
  Cu2+  Cu103  1  0.12411459  0.62537876  0.87006154  1
  Cu2+  Cu104  1  0.62677406  0.12605899  0.87035097  1
  Cu2+  Cu105  1  0.12479380  0.37603262  0.37465866  1
  Cu2+  Cu106  1  0.37439487  0.12472148  0.86585464  1
  Cu2+  Cu107  1  0.12365571  0.12488785  0.85574532  1
  Cu2+  Cu108  1  0.62513782  0.12396583  0.14248993  1
  Cu2+  Cu109  1  0.87616607  0.62567137  0.15094444  1
  Cu2+  Cu110  1  0.87723959  0.12466108  0.15115311  1
  Cu2+  Cu111  1  0.37461630  0.12439979  0.65004714  1
  Cu2+  Cu112  1  0.12453480  0.87704709  0.14348917  1
  Cu2+  Cu113  1  0.12546674  0.62437680  0.14401827  1
  Cu2+  Cu114  1  0.62451888  0.62575487  0.14955008  1
  Cu2+  Cu115  1  0.62481303  0.87584378  0.65263205  1
  Cu2+  Cu116  1  0.62545383  0.37380917  0.14607951  1
  Cu2+  Cu117  1  0.62557374  0.62404675  0.65433074  1
  Cu2+  Cu118  1  0.37445170  0.62556184  0.65566478  1
  Cu2+  Cu119  1  0.12552306  0.37408317  0.64332580  1
  Cu2+  Cu120  1  0.87488844  0.37565947  0.65187315  1
  Cu2+  Cu121  1  0.12526175  0.87558965  0.64210445  1
  Cu2+  Cu122  1  0.62446229  0.37412049  0.65550319  1
  Cu2+  Cu123  1  0.62474369  0.12576327  0.65560122  1
  Cu2+  Cu124  1  0.37518482  0.37498740  0.64691236  1
  Cu2+  Cu125  1  0.12447121  0.62463513  0.65179415  1
  Cu2+  Cu126  1  0.87586089  0.12480840  0.64190287  1
  Cu2+  Cu127  1  0.62600942  0.87641720  0.14128701  1
  O2-  O128  1  0.12459688  0.12478082  0.02178168  1
  O2-  O129  1  0.12564902  0.12635662  0.50939509  1
  O2-  O130  1  0.12501735  0.37157675  0.01796695  1
  O2-  O131  1  0.12548593  0.37491636  0.50854442  1
  O2-  O132  1  0.12367497  0.62519634  0.00622678  1
  O2-  O133  1  0.12661519  0.62345531  0.49746684  1
  O2-  O134  1  0.12338374  0.87666569  0.00767691  1
  O2-  O135  1  0.12748664  0.87420213  0.50854818  1
  O2-  O136  1  0.37009007  0.12448637  0.01608857  1
  O2-  O137  1  0.37977360  0.12463747  0.49966888  1
  O2-  O138  1  0.37254195  0.37323151  0.00658006  1
  O2-  O139  1  0.37781372  0.37632859  0.50770914  1
  O2-  O140  1  0.37432852  0.62552159  0.00552937  1
  O2-  O141  1  0.37722196  0.62472696  0.49564395  1
  O2-  O142  1  0.37330135  0.87629319  0.00622755  1
  O2-  O143  1  0.37776140  0.87327164  0.50750059  1
  O2-  O144  1  0.62650282  0.12456118  0.00646530  1
  O2-  O145  1  0.62308434  0.12685137  0.49603045  1
  O2-  O146  1  0.62749858  0.37559158  -0.00273582  1
  O2-  O147  1  0.62364186  0.37532735  0.49464574  1
  O2-  O148  1  0.62755376  0.62480522  -0.00474973  1
  O2-  O149  1  0.62288681  0.62359400  0.49409755  1
  O2-  O150  1  0.62634531  0.87534011  0.00617601  1
  O2-  O151  1  0.62118131  0.87369207  0.49746545  1
  O2-  O152  1  0.87644302  0.12463936  -0.00437556  1
  O2-  O153  1  0.87320024  0.12559912  0.50798352  1
  O2-  O154  1  0.87618760  0.37444893  0.00569179  1
  O2-  O155  1  0.87128481  0.37730299  0.49674893  1
  O2-  O156  1  0.87443294  0.62593269  -0.00486018  1
  O2-  O157  1  0.87384887  0.62377903  0.50589227  1
  O2-  O158  1  0.87720477  0.87584227  0.01899242  1
  O2-  O159  1  0.87235859  0.87357763  0.50818710  1
  O2-  O160  1  0.12506977  0.00208323  0.17300856  1
  O2-  O161  1  0.12555164  0.00243693  0.66342519  1
  O2-  O162  1  0.12504008  0.25050750  0.17323516  1
  O2-  O163  1  0.12560451  0.24754929  0.66544146  1
  O2-  O164  1  0.12504559  0.49756215  0.16342156  1
  O2-  O165  1  0.12480446  0.50077194  0.66585801  1
  O2-  O166  1  0.12529966  0.74987933  0.16381176  1
  O2-  O167  1  0.12548603  0.74895948  0.66511971  1
  O2-  O168  1  0.37356293  -0.00082646  0.16820370  1
  O2-  O169  1  0.37586752  -0.00207253  0.66444023  1
  O2-  O170  1  0.37423243  0.25113626  0.16546810  1
  O2-  O171  1  0.37518236  0.24863500  0.66724047  1
  O2-  O172  1  0.37578190  0.49906940  0.15777478  1
  O2-  O173  1  0.37497813  0.50198387  0.66847860  1
  O2-  O174  1  0.37454674  0.75043263  0.16010311  1
  O2-  O175  1  0.37566286  0.75113820  0.66511061  1
  O2-  O176  1  0.62527604  0.00031556  0.16647018  1
  O2-  O177  1  0.62437918  0.00111898  0.66560471  1
  O2-  O178  1  0.62527848  0.25000954  0.16255606  1
  O2-  O179  1  0.62479643  0.24998751  0.66553468  1
  O2-  O180  1  0.62456026  0.50014493  0.15929895  1
  O2-  O181  1  0.62465886  0.49924742  0.66397011  1
  O2-  O182  1  0.62501415  0.74962456  0.16294307  1
  O2-  O183  1  0.62483010  0.74948394  0.66378676  1
  O2-  O184  1  0.87662129  0.00058068  0.17087701  1
  O2-  O185  1  0.87431745  -0.00319905  0.66306071  1
  O2-  O186  1  0.87592251  0.25115452  0.16205985  1
  O2-  O187  1  0.87509613  0.25168134  0.66527057  1
  O2-  O188  1  0.87540743  0.49881705  0.15979689  1
  O2-  O189  1  0.87499994  0.50192558  0.66348383  1
  O2-  O190  1  0.87565923  0.75014751  0.16810405  1
  O2-  O191  1  0.87337156  0.74958670  0.66100686  1
  O2-  O192  1  0.00128079  0.12580933  0.17297503  1
  O2-  O193  1  0.00259313  0.12518722  0.66303434  1
  O2-  O194  1  -0.00093296  0.37494172  0.16693921  1
  O2-  O195  1  -0.00119588  0.37527323  0.66573943  1
  O2-  O196  1  -0.00020935  0.62465105  0.16884772  1
  O2-  O197  1  -0.00195020  0.62545894  0.66091798  1
  O2-  O198  1  -0.00111778  0.87545341  0.17263949  1
  O2-  O199  1  -0.00280435  0.87397010  0.66229010  1
  O2-  O200  1  0.24998940  0.12535272  0.17506420  1
  O2-  O201  1  0.24880479  0.12435619  0.66385451  1
  O2-  O202  1  0.25123620  0.37518521  0.16939112  1
  O2-  O203  1  0.25074526  0.37540599  0.66733482  1
  O2-  O204  1  0.25350191  0.62450003  0.16440227  1
  O2-  O205  1  0.24919588  0.62536672  0.66680281  1
  O2-  O206  1  0.25230533  0.87526126  0.16657240  1
  O2-  O207  1  0.25311761  0.87466028  0.66503559  1
  O2-  O208  1  0.49674550  0.12454642  0.16142904  1
  O2-  O209  1  0.50014804  0.12504929  0.66769331  1
  O2-  O210  1  0.49797653  0.37418938  0.15767151  1
  O2-  O211  1  0.50074931  0.37499811  0.66895922  1
  O2-  O212  1  0.49758515  0.62586992  0.15761240  1
  O2-  O213  1  0.50081273  0.62495989  0.66707459  1
  O2-  O214  1  0.49658923  0.87519562  0.15991802  1
  O2-  O215  1  0.49920897  0.87446934  0.66633618  1
  O2-  O216  1  0.75245605  0.12466330  0.16268127  1
  O2-  O217  1  0.74894818  0.12562960  0.66335664  1
  O2-  O218  1  0.75248404  0.37530602  0.15966053  1
  O2-  O219  1  0.74952625  0.37539014  0.66352814  1
  O2-  O220  1  0.74969150  0.62529644  0.16334755  1
  O2-  O221  1  0.75155680  0.62404048  0.65922213  1
  O2-  O222  1  0.75255589  0.87512363  0.16733321  1
  O2-  O223  1  0.75024828  0.87476423  0.66234619  1
  O2-  O224  1  0.12596294  0.00283878  0.35514816  1
  O2-  O225  1  0.12482708  0.00098787  0.84659749  1
  O2-  O226  1  0.12536705  0.24777038  0.35293715  1
  O2-  O227  1  0.12436925  0.24965847  0.84923990  1
  O2-  O228  1  0.12492797  0.50216156  0.34388048  1
  O2-  O229  1  0.12470674  0.49890096  0.84964857  1
  O2-  O230  1  0.12503995  0.74739103  0.34624080  1
  O2-  O231  1  0.12477340  0.75043877  0.84817522  1
  O2-  O232  1  0.37497042  -0.00177203  0.35068717  1
  O2-  O233  1  0.37410883  -0.00123369  0.84992558  1
  O2-  O234  1  0.37597097  0.24790606  0.34732763  1
  O2-  O235  1  0.37420234  0.25157306  0.85131543  1
  O2-  O236  1  0.37608972  0.50245240  0.34108308  1
  O2-  O237  1  0.37466166  0.49980749  0.85256064  1
  O2-  O238  1  0.37608048  0.75110614  0.34456896  1
  O2-  O239  1  0.37530386  0.74977497  0.85015658  1
  O2-  O240  1  0.62424379  -0.00048254  0.34663042  1
  O2-  O241  1  0.62558853  0.00082900  0.84977251  1
  O2-  O242  1  0.62476061  0.24978340  0.34302477  1
  O2-  O243  1  0.62520612  0.25218734  0.84781999  1
  O2-  O244  1  0.62515299  0.50047712  0.34091467  1
  O2-  O245  1  0.62508288  0.49946226  0.84492046  1
  O2-  O246  1  0.62436929  0.75011401  0.34401467  1
  O2-  O247  1  0.62458539  0.74788394  0.84663493  1
  O2-  O248  1  0.87407961  -0.00354874  0.35373143  1
  O2-  O249  1  0.87583605  -0.00038955  0.84659922  1
  O2-  O250  1  0.87365313  0.25224489  0.34591426  1
  O2-  O251  1  0.87631833  0.25173314  0.84858795  1
  O2-  O252  1  0.87357095  0.50228148  0.34327527  1
  O2-  O253  1  0.87526336  0.49851722  0.84731842  1
  O2-  O254  1  0.87405964  0.74912525  0.35193627  1
  O2-  O255  1  0.87481668  0.75030080  0.84471395  1
  O2-  O256  1  0.00220929  0.12533699  0.35550460  1
  O2-  O257  1  -0.00081649  0.12480010  0.84520367  1
  O2-  O258  1  -0.00275493  0.37624210  0.34905364  1
  O2-  O259  1  -0.00125576  0.37510053  0.85033388  1
  O2-  O260  1  -0.00172414  0.62485698  0.35151294  1
  O2-  O261  1  -0.00199971  0.62497685  0.84402606  1
  O2-  O262  1  -0.00284804  0.87388230  0.35549233  1
  O2-  O263  1  -0.00077406  0.87522779  0.84578144  1
  O2-  O264  1  0.25035495  0.12496555  0.35440365  1
  O2-  O265  1  0.24812839  0.12471729  0.84823687  1
  O2-  O266  1  0.25084766  0.37602452  0.35195776  1
  O2-  O267  1  0.25109438  0.37508272  0.85159513  1
  O2-  O268  1  0.25079039  0.62557104  0.34507172  1
  O2-  O269  1  0.25266668  0.62519672  0.85097270  1
  O2-  O270  1  0.25373888  0.87401240  0.35030238  1
  O2-  O271  1  0.25251082  0.87506686  0.84920603  1
  O2-  O272  1  0.50030634  0.12409846  0.34056574  1
  O2-  O273  1  0.49947444  0.12512103  0.85154274  1
  O2-  O274  1  0.50266348  0.37554944  0.33949014  1
  O2-  O275  1  0.49880237  0.37534978  0.85209612  1
  O2-  O276  1  0.50057741  0.62552657  0.33872902  1
  O2-  O277  1  0.49873099  0.62470041  0.85005270  1
  O2-  O278  1  0.49916151  0.87459499  0.34231968  1
  O2-  O279  1  0.49691068  0.87505359  0.85084087  1
  O2-  O280  1  0.74701089  0.12460793  0.34523469  1
  O2-  O281  1  0.75282403  0.12538249  0.84488001  1
  O2-  O282  1  0.74889244  0.37610044  0.34091302  1
  O2-  O283  1  0.75196479  0.37532513  0.84666214  1
  O2-  O284  1  0.75041174  0.62545433  0.34682961  1
  O2-  O285  1  0.75042579  0.62478313  0.84107101  1
  O2-  O286  1  0.74958283  0.87355725  0.34917331  1
  O2-  O287  1  0.75122087  0.87487687  0.84631472  1
