# generated using pymatgen
data_BaYFeCuO5
_symmetry_space_group_name_H-M   'P 1'
_cell_length_a   15.66151362
_cell_length_b   15.66632127
_cell_length_c   15.47002823
_cell_angle_alpha   89.99894805
_cell_angle_beta   90.00115206
_cell_angle_gamma   89.99880074
_symmetry_Int_Tables_number   1
_chemical_formula_structural   BaYFeCuO5
_chemical_formula_sum   'Ba32 Y32 Fe32 Cu32 O160'
_cell_volume   3795.69988672
_cell_formula_units_Z   32
loop_
 _symmetry_equiv_pos_site_id
 _symmetry_equiv_pos_as_xyz
  1  'x, y, z'
loop_
 _atom_type_symbol
 _atom_type_oxidation_number
  Ba2+  2.0
  Y3+  3.0
  Fe3+  3.0
  Cu2+  2.0
  O2-  -2.0
loop_
 _atom_site_type_symbol
 _atom_site_label
 _atom_site_symmetry_multiplicity
 _atom_site_fract_x
 _atom_site_fract_y
 _atom_site_fract_z
 _atom_site_occupancy
  Ba2+  Ba0  1  -0.00160460  -0.00372870  -0.00025794  1
  Ba2+  Ba1  1  0.00371673  0.00872783  0.51069335  1
  Ba2+  Ba2  1  0.00007885  0.23972503  0.00766491  1
  Ba2+  Ba3  1  -0.00034100  0.24502485  0.50584787  1
  Ba2+  Ba4  1  0.00442095  0.50530938  0.01296401  1
  Ba2+  Ba5  1  -0.00743867  0.49706989  0.50618919  1
  Ba2+  Ba6  1  0.00153886  0.75881698  0.00640615  1
  Ba2+  Ba7  1  -0.00243265  0.74797105  0.51068487  1
  Ba2+  Ba8  1  0.24643310  -0.00626785  -0.00445199  1
  Ba2+  Ba9  1  0.25130966  0.00069834  0.51695284  1
  Ba2+  Ba10  1  0.24954987  0.24852636  -0.00226998  1
  Ba2+  Ba11  1  0.24837783  0.24638551  0.51181518  1
  Ba2+  Ba12  1  0.24982614  0.50157432  0.00733303  1
  Ba2+  Ba13  1  0.25845404  0.49789435  0.50643804  1
  Ba2+  Ba14  1  0.24748511  0.75728076  0.00774613  1
  Ba2+  Ba15  1  0.25992259  0.75428381  0.51007203  1
  Ba2+  Ba16  1  0.50019097  0.00013898  0.00680396  1
  Ba2+  Ba17  1  0.49825056  -0.00131445  0.52233263  1
  Ba2+  Ba18  1  0.50670288  0.24942393  0.00641956  1
  Ba2+  Ba19  1  0.50108798  0.25011399  0.52675723  1
  Ba2+  Ba20  1  0.50319624  0.49600268  0.01093360  1
  Ba2+  Ba21  1  0.50012818  0.50155849  0.52155378  1
  Ba2+  Ba22  1  0.49709567  0.75330114  0.01176515  1
  Ba2+  Ba23  1  0.49656018  0.75021107  0.51601087  1
  Ba2+  Ba24  1  0.75516441  0.00319989  0.01321484  1
  Ba2+  Ba25  1  0.74667146  0.00738977  0.51668636  1
  Ba2+  Ba26  1  0.74466919  0.24309681  0.01411156  1
  Ba2+  Ba27  1  0.75096024  0.24912249  0.52056858  1
  Ba2+  Ba28  1  0.74212675  0.50024078  0.01625454  1
  Ba2+  Ba29  1  0.74904949  0.50019052  0.52048964  1
  Ba2+  Ba30  1  0.75417127  0.75457806  0.01142947  1
  Ba2+  Ba31  1  0.74537131  0.74412894  0.51654965  1
  Y3+  Y32  1  -0.00203000  0.00205727  0.26095525  1
  Y3+  Y33  1  0.00147647  -0.00009017  0.75492234  1
  Y3+  Y34  1  0.00042243  0.24706523  0.26225613  1
  Y3+  Y35  1  -0.00018693  0.24692871  0.75378779  1
  Y3+  Y36  1  0.00082941  0.50086079  0.26040469  1
  Y3+  Y37  1  -0.00193778  0.50101963  0.75501983  1
  Y3+  Y38  1  -0.00141272  0.74951290  0.25928384  1
  Y3+  Y39  1  -0.00100302  0.75269209  0.75597800  1
  Y3+  Y40  1  0.25138381  -0.00168165  0.26168995  1
  Y3+  Y41  1  0.24932943  -0.00172861  0.75525312  1
  Y3+  Y42  1  0.24769433  0.24915907  0.26118766  1
  Y3+  Y43  1  0.25048702  0.24854829  0.75627645  1
  Y3+  Y44  1  0.25035350  0.50122673  0.25989593  1
  Y3+  Y45  1  0.25299043  0.49977592  0.75648959  1
  Y3+  Y46  1  0.25340179  0.75070322  0.26059148  1
  Y3+  Y47  1  0.25204488  0.75376466  0.75488157  1
  Y3+  Y48  1  0.49868334  -0.00164661  0.25453894  1
  Y3+  Y49  1  0.49964769  -0.00081902  0.75939227  1
  Y3+  Y50  1  0.50236668  0.24858893  0.25136671  1
  Y3+  Y51  1  0.49992123  0.24976540  0.76049964  1
  Y3+  Y52  1  0.50072891  0.50137480  0.25528232  1
  Y3+  Y53  1  0.49838679  0.49950706  0.75654301  1
  Y3+  Y54  1  0.49724832  0.75113763  0.25787280  1
  Y3+  Y55  1  0.49820972  0.75169491  0.75535706  1
  Y3+  Y56  1  0.75195983  0.00161134  0.25553238  1
  Y3+  Y57  1  0.74961532  0.00101742  0.75819840  1
  Y3+  Y58  1  0.74968940  0.24651572  0.25462104  1
  Y3+  Y59  1  0.74950240  0.24822580  0.75590567  1
  Y3+  Y60  1  0.74851764  0.50121911  0.25625996  1
  Y3+  Y61  1  0.75020934  0.50055515  0.75413659  1
  Y3+  Y62  1  0.75083931  0.75028921  0.25697758  1
  Y3+  Y63  1  0.75045519  0.75061720  0.75589714  1
  Fe3+  Fe64  1  0.87247601  0.37437378  0.37501090  1
  Fe3+  Fe65  1  0.37737345  0.12526009  0.37754731  1
  Fe3+  Fe66  1  0.37781325  0.37351221  0.37642851  1
  Fe3+  Fe67  1  0.87508821  0.37507280  0.88016057  1
  Fe3+  Fe68  1  0.62419028  0.62486555  0.37551684  1
  Fe3+  Fe69  1  0.87486879  0.12483723  0.87469927  1
  Fe3+  Fe70  1  0.62366631  0.12512648  0.37573875  1
  Fe3+  Fe71  1  0.62441155  0.37395148  0.37597629  1
  Fe3+  Fe72  1  0.12586114  0.62504875  0.38051839  1
  Fe3+  Fe73  1  0.87316964  0.87544596  0.38092959  1
  Fe3+  Fe74  1  0.62590441  0.87519129  0.87830857  1
  Fe3+  Fe75  1  0.62449737  0.87594080  0.37760614  1
  Fe3+  Fe76  1  0.12503892  0.62636950  0.87620707  1
  Fe3+  Fe77  1  0.12533797  0.87535459  0.38132595  1
  Fe3+  Fe78  1  0.37473267  0.12433886  0.87802186  1
  Fe3+  Fe79  1  0.12395683  0.37515811  0.87932178  1
  Fe3+  Fe80  1  0.62610218  0.37519721  0.87481226  1
  Fe3+  Fe81  1  0.62488445  0.62565560  0.87697275  1
  Fe3+  Fe82  1  0.37514615  0.62564574  0.87902186  1
  Fe3+  Fe83  1  0.87481098  0.62537665  0.87914586  1
  Fe3+  Fe84  1  0.12572914  0.12322349  0.13845945  1
  Fe3+  Fe85  1  0.62552275  0.87506658  0.13485261  1
  Fe3+  Fe86  1  0.37293647  0.12400977  0.13333273  1
  Fe3+  Fe87  1  0.37416868  0.62547078  0.13500416  1
  Fe3+  Fe88  1  0.12497157  0.37454950  0.13605042  1
  Fe3+  Fe89  1  0.87547784  0.37382939  0.13341840  1
  Fe3+  Fe90  1  0.12616942  0.62518545  0.63499862  1
  Fe3+  Fe91  1  0.37407911  0.37361116  0.13486039  1
  Fe3+  Fe92  1  0.12464916  0.87568513  0.14233410  1
  Fe3+  Fe93  1  0.87583433  0.62553248  0.13521025  1
  Fe3+  Fe94  1  0.87434984  0.87620732  0.63520839  1
  Fe3+  Fe95  1  0.12480765  0.37549908  0.63729403  1
  Cu2+  Cu96  1  0.12530324  0.37509413  0.36751604  1
  Cu2+  Cu97  1  0.87409556  0.87514935  0.87107204  1
  Cu2+  Cu98  1  0.87286458  0.12510713  0.37373378  1
  Cu2+  Cu99  1  0.87280062  0.62469244  0.37330024  1
  Cu2+  Cu100  1  0.37481134  0.37533916  0.86783125  1
  Cu2+  Cu101  1  0.12639146  0.12433000  0.37405107  1
  Cu2+  Cu102  1  0.12467475  0.12450862  0.86205009  1
  Cu2+  Cu103  1  0.37714754  0.87612438  0.37359905  1
  Cu2+  Cu104  1  0.62576735  0.12449380  0.87248605  1
  Cu2+  Cu105  1  0.37731342  0.62450779  0.37291694  1
  Cu2+  Cu106  1  0.12453673  0.87442701  0.85754687  1
  Cu2+  Cu107  1  0.37549311  0.87424298  0.87321446  1
  Cu2+  Cu108  1  0.62527078  0.87535979  0.65111518  1
  Cu2+  Cu109  1  0.62443571  0.62670510  0.14672854  1
  Cu2+  Cu110  1  0.37423274  0.62514198  0.64320820  1
  Cu2+  Cu111  1  0.87694159  0.87583755  0.14297387  1
  Cu2+  Cu112  1  0.12466773  0.87462114  0.64576849  1
  Cu2+  Cu113  1  0.37456277  0.37413135  0.65348729  1
  Cu2+  Cu114  1  0.62496335  0.37489153  0.65325005  1
  Cu2+  Cu115  1  0.87695169  0.12505889  0.15138085  1
  Cu2+  Cu116  1  0.62402137  0.62532771  0.65360669  1
  Cu2+  Cu117  1  0.87552600  0.62543871  0.64117402  1
  Cu2+  Cu118  1  0.37518451  0.12514155  0.65430098  1
  Cu2+  Cu119  1  0.12559684  0.62576182  0.15221463  1
  Cu2+  Cu120  1  0.12575039  0.12527386  0.64371520  1
  Cu2+  Cu121  1  0.87550610  0.37430400  0.65210250  1
  Cu2+  Cu122  1  0.62545864  0.37464160  0.14863669  1
  Cu2+  Cu123  1  0.87523840  0.12467456  0.64234961  1
  Cu2+  Cu124  1  0.62413184  0.12491463  0.65581555  1
  Cu2+  Cu125  1  0.62451766  0.12293066  0.13940551  1
  Cu2+  Cu126  1  0.37317214  0.87608092  0.14059599  1
  Cu2+  Cu127  1  0.37544230  0.87599663  0.64427600  1
  O2-  O128  1  0.12543910  0.12297628  0.01809389  1
  O2-  O129  1  0.12677570  0.12639909  0.50899713  1
  O2-  O130  1  0.12442565  0.37488762  0.00815886  1
  O2-  O131  1  0.12478043  0.37612718  0.51698527  1
  O2-  O132  1  0.12440516  0.62647552  -0.00344388  1
  O2-  O133  1  0.12640128  0.62335596  0.50777695  1
  O2-  O134  1  0.12391010  0.87617552  0.02105653  1
  O2-  O135  1  0.12528712  0.87439985  0.50138300  1
  O2-  O136  1  0.37216032  0.12437464  0.00639154  1
  O2-  O137  1  0.37879500  0.12703166  0.49780085  1
  O2-  O138  1  0.37161925  0.37528958  0.01466800  1
  O2-  O139  1  0.37919940  0.37347368  0.49686329  1
  O2-  O140  1  0.37350894  0.62552297  0.00655632  1
  O2-  O141  1  0.37665231  0.62342075  0.50741533  1
  O2-  O142  1  0.37328022  0.87438967  0.00686632  1
  O2-  O143  1  0.37745363  0.87671348  0.50855795  1
  O2-  O144  1  0.62518028  0.12367862  0.00583025  1
  O2-  O145  1  0.62237582  0.12661410  0.49569157  1
  O2-  O146  1  0.62665055  0.37580255  -0.00422226  1
  O2-  O147  1  0.62452820  0.37433113  0.49556282  1
  O2-  O148  1  0.62482548  0.62481930  -0.00305652  1
  O2-  O149  1  0.62412417  0.62357020  0.49600188  1
  O2-  O150  1  0.62652060  0.87466709  0.00614168  1
  O2-  O151  1  0.62462350  0.87572466  0.49769131  1
  O2-  O152  1  0.87606979  0.12471190  -0.00409244  1
  O2-  O153  1  0.87308930  0.12604948  0.50717194  1
  O2-  O154  1  0.87594588  0.37465362  0.00590554  1
  O2-  O155  1  0.87169542  0.37535099  0.49570256  1
  O2-  O156  1  0.87662708  0.62570283  0.00647720  1
  O2-  O157  1  0.87308651  0.62407634  0.50657149  1
  O2-  O158  1  0.87608553  0.87477872  0.00702480  1
  O2-  O159  1  0.87241091  0.87514308  0.50749537  1
  O2-  O160  1  0.12503614  0.00052017  0.17218080  1
  O2-  O161  1  0.12539667  -0.00110324  0.66500585  1
  O2-  O162  1  0.12440360  0.25101334  0.16512286  1
  O2-  O163  1  0.12542192  0.25222415  0.66903909  1
  O2-  O164  1  0.12529282  0.49871325  0.16213051  1
  O2-  O165  1  0.12502662  0.50097540  0.66824064  1
  O2-  O166  1  0.12469283  0.74980176  0.16878482  1
  O2-  O167  1  0.12482628  0.74829844  0.66237151  1
  O2-  O168  1  0.37344451  0.00297409  0.16422390  1
  O2-  O169  1  0.37546109  0.00155391  0.66733210  1
  O2-  O170  1  0.37401425  0.24879273  0.16134911  1
  O2-  O171  1  0.37476285  0.24970801  0.66789974  1
  O2-  O172  1  0.37442074  0.50036911  0.16228552  1
  O2-  O173  1  0.37474447  0.49848092  0.66692961  1
  O2-  O174  1  0.37424123  0.74752849  0.16437783  1
  O2-  O175  1  0.37520600  0.75063802  0.66583843  1
  O2-  O176  1  0.62552846  -0.00314184  0.16297722  1
  O2-  O177  1  0.62449026  0.00069339  0.66659696  1
  O2-  O178  1  0.62535300  0.25005165  0.16028101  1
  O2-  O179  1  0.62488790  0.25010935  0.66597371  1
  O2-  O180  1  0.62520259  0.50054949  0.16048882  1
  O2-  O181  1  0.62494024  0.49988141  0.66431122  1
  O2-  O182  1  0.62532266  0.75205176  0.16264401  1
  O2-  O183  1  0.62486877  0.74979984  0.66546317  1
  O2-  O184  1  0.87624899  0.00189661  0.16691227  1
  O2-  O185  1  0.87418264  -0.00239357  0.66367776  1
  O2-  O186  1  0.87656971  0.25167980  0.16025168  1
  O2-  O187  1  0.87505607  0.25067810  0.66645891  1
  O2-  O188  1  0.87518396  0.49971819  0.15773462  1
  O2-  O189  1  0.87529480  0.49883470  0.66755422  1
  O2-  O190  1  0.87598815  0.74677672  0.16469140  1
  O2-  O191  1  0.87462382  0.75336097  0.66479131  1
  O2-  O192  1  0.00153398  0.12579693  0.16925165  1
  O2-  O193  1  0.00025796  0.12500222  0.66515687  1
  O2-  O194  1  0.00023996  0.37652476  0.16298020  1
  O2-  O195  1  0.00055642  0.37598044  0.66872343  1
  O2-  O196  1  -0.00146167  0.62348294  0.16682009  1
  O2-  O197  1  0.00341791  0.62481840  0.66407604  1
  O2-  O198  1  0.00169048  0.87437865  0.17224372  1
  O2-  O199  1  -0.00211651  0.87470193  0.66280657  1
  O2-  O200  1  0.25014321  0.12622104  0.16797028  1
  O2-  O201  1  0.25165314  0.12538964  0.66713572  1
  O2-  O202  1  0.24856645  0.37532520  0.16668904  1
  O2-  O203  1  0.24946798  0.37539392  0.66832381  1
  O2-  O204  1  0.25183629  0.62415902  0.16574086  1
  O2-  O205  1  0.24741071  0.62449554  0.66642266  1
  O2-  O206  1  0.24790299  0.87431733  0.17040308  1
  O2-  O207  1  0.24933339  0.87519467  0.66546684  1
  O2-  O208  1  0.49640093  0.12469713  0.15743897  1
  O2-  O209  1  0.49992657  0.12535335  0.66910963  1
  O2-  O210  1  0.49943895  0.37481394  0.15904753  1
  O2-  O211  1  0.49955676  0.37480252  0.66624364  1
  O2-  O212  1  0.49781511  0.62496885  0.15850102  1
  O2-  O213  1  0.50053702  0.62487798  0.66730389  1
  O2-  O214  1  0.50174463  0.87486784  0.15924665  1
  O2-  O215  1  0.50168275  0.87555514  0.66817697  1
  O2-  O216  1  0.75232135  0.12454569  0.16116403  1
  O2-  O217  1  0.74811912  0.12501525  0.66427637  1
  O2-  O218  1  0.75200152  0.37513016  0.15832988  1
  O2-  O219  1  0.75039254  0.37542560  0.66413946  1
  O2-  O220  1  0.75181587  0.62520753  0.15939300  1
  O2-  O221  1  0.74845956  0.62512052  0.66544010  1
  O2-  O222  1  0.74893084  0.87478520  0.16191161  1
  O2-  O223  1  0.75079881  0.87489051  0.66384689  1
  O2-  O224  1  0.12490363  -0.00216575  0.35096378  1
  O2-  O225  1  0.12426774  -0.00112987  0.84961202  1
  O2-  O226  1  0.12527862  0.25047082  0.34868777  1
  O2-  O227  1  0.12432539  0.25224398  0.85303010  1
  O2-  O228  1  0.12514417  0.50194125  0.34803919  1
  O2-  O229  1  0.12411568  0.49964351  0.85068393  1
  O2-  O230  1  0.12469329  0.74915720  0.35103159  1
  O2-  O231  1  0.12441518  0.74927377  0.84567889  1
  O2-  O232  1  0.37629694  0.00190138  0.34623894  1
  O2-  O233  1  0.37433130  0.00181895  0.85119680  1
  O2-  O234  1  0.37559245  0.25006161  0.34140185  1
  O2-  O235  1  0.37394571  0.24846168  0.85213410  1
  O2-  O236  1  0.37543545  0.49726551  0.34439873  1
  O2-  O237  1  0.37443382  0.50227941  0.85100129  1
  O2-  O238  1  0.37613782  0.75020038  0.34925701  1
  O2-  O239  1  0.37486300  0.74710980  0.84930442  1
  O2-  O240  1  0.62488631  0.00014907  0.34387587  1
  O2-  O241  1  0.62544485  -0.00246682  0.85056435  1
  O2-  O242  1  0.62486008  0.24975979  0.34125508  1
  O2-  O243  1  0.62542229  0.25178320  0.84864482  1
  O2-  O244  1  0.62478633  0.49922789  0.34286803  1
  O2-  O245  1  0.62554196  0.50067293  0.84611702  1
  O2-  O246  1  0.62532246  0.75069651  0.34514869  1
  O2-  O247  1  0.62560398  0.75011980  0.84860682  1
  O2-  O248  1  0.87427504  -0.00313860  0.35047311  1
  O2-  O249  1  0.87563029  0.00142028  0.84640288  1
  O2-  O250  1  0.87432498  0.25180639  0.34359736  1
  O2-  O251  1  0.87632886  0.25184364  0.84935980  1
  O2-  O252  1  0.87467936  0.49767951  0.34136472  1
  O2-  O253  1  0.87572410  0.50020184  0.85190733  1
  O2-  O254  1  0.87417522  0.75321643  0.34878305  1
  O2-  O255  1  0.87501052  0.74694217  0.84936701  1
  O2-  O256  1  -0.00018349  0.12551481  0.35277460  1
  O2-  O257  1  0.00008710  0.12532462  0.84763846  1
  O2-  O258  1  -0.00056555  0.37545200  0.34814998  1
  O2-  O259  1  -0.00055511  0.37637950  0.85228191  1
  O2-  O260  1  0.00267899  0.62429656  0.35201599  1
  O2-  O261  1  -0.00124376  0.62486006  0.84754672  1
  O2-  O262  1  -0.00140403  0.87390512  0.35354403  1
  O2-  O263  1  0.00079572  0.87403750  0.84726816  1
  O2-  O264  1  0.25270736  0.12560631  0.34891719  1
  O2-  O265  1  0.25014108  0.12528346  0.85155280  1
  O2-  O266  1  0.25121065  0.37514841  0.34975090  1
  O2-  O267  1  0.24734114  0.37598223  0.85243403  1
  O2-  O268  1  0.24797048  0.62436856  0.35067794  1
  O2-  O269  1  0.25067923  0.62441563  0.84946390  1
  O2-  O270  1  0.24918890  0.87416516  0.35130980  1
  O2-  O271  1  0.24855714  0.87407698  0.84976100  1
  O2-  O272  1  0.50058616  0.12510183  0.33813093  1
  O2-  O273  1  0.49748925  0.12511974  0.85316541  1
  O2-  O274  1  0.50115266  0.37449602  0.33912406  1
  O2-  O275  1  0.50080226  0.37576458  0.84992723  1
  O2-  O276  1  0.50259807  0.62503150  0.34050565  1
  O2-  O277  1  0.49916493  0.62479884  0.85030008  1
  O2-  O278  1  0.50222105  0.87514843  0.34206388  1
  O2-  O279  1  0.50309270  0.87429544  0.85178955  1
  O2-  O280  1  0.74716495  0.12463396  0.34393218  1
  O2-  O281  1  0.75208178  0.12564259  0.84612481  1
  O2-  O282  1  0.74827059  0.37503415  0.33992438  1
  O2-  O283  1  0.75235404  0.37585703  0.84743206  1
  O2-  O284  1  0.74690113  0.62516711  0.34172916  1
  O2-  O285  1  0.75116461  0.62474495  0.84864138  1
  O2-  O286  1  0.75013666  0.87490653  0.34511356  1
  O2-  O287  1  0.74745810  0.87404262  0.84760435  1
