# generated using pymatgen
data_BaYFeCuO5
_symmetry_space_group_name_H-M   'P 1'
_cell_length_a   15.66608760
_cell_length_b   15.66222243
_cell_length_c   15.47107749
_cell_angle_alpha   89.99652108
_cell_angle_beta   90.00131362
_cell_angle_gamma   89.99685714
_symmetry_Int_Tables_number   1
_chemical_formula_structural   BaYFeCuO5
_chemical_formula_sum   'Ba32 Y32 Fe32 Cu32 O160'
_cell_volume   3796.07249697
_cell_formula_units_Z   32
loop_
 _symmetry_equiv_pos_site_id
 _symmetry_equiv_pos_as_xyz
  1  'x, y, z'
loop_
 _atom_type_symbol
 _atom_type_oxidation_number
  Ba2+  2.0
  Y3+  3.0
  Fe3+  3.0
  Cu2+  2.0
  O2-  -2.0
loop_
 _atom_site_type_symbol
 _atom_site_label
 _atom_site_symmetry_multiplicity
 _atom_site_fract_x
 _atom_site_fract_y
 _atom_site_fract_z
 _atom_site_occupancy
  Ba2+  Ba0  1  -0.00068752  0.01106965  0.01862756  1
  Ba2+  Ba1  1  -0.00454958  -0.00595013  0.51156208  1
  Ba2+  Ba2  1  -0.00200462  0.25515120  0.01791112  1
  Ba2+  Ba3  1  -0.00719065  0.24256263  0.50679593  1
  Ba2+  Ba4  1  -0.00534156  0.48959025  0.01031487  1
  Ba2+  Ba5  1  -0.00287914  0.51183635  0.51116458  1
  Ba2+  Ba6  1  -0.00574633  0.74422544  0.01118857  1
  Ba2+  Ba7  1  -0.00118329  0.75104456  0.51741996  1
  Ba2+  Ba8  1  0.25542683  0.00545720  0.01164084  1
  Ba2+  Ba9  1  0.25178525  -0.00730634  0.50742422  1
  Ba2+  Ba10  1  0.24249791  0.24894485  0.00862438  1
  Ba2+  Ba11  1  0.26158779  0.25108433  0.50235156  1
  Ba2+  Ba12  1  0.24749330  0.49530236  0.00154784  1
  Ba2+  Ba13  1  0.25310056  0.49854963  0.51218964  1
  Ba2+  Ba14  1  0.25952852  0.74997786  0.00578723  1
  Ba2+  Ba15  1  0.24348963  0.75565856  0.51700244  1
  Ba2+  Ba16  1  0.50111604  -0.00012916  0.00721146  1
  Ba2+  Ba17  1  0.50329793  0.00277659  0.51163675  1
  Ba2+  Ba18  1  0.50446333  0.24509989  -0.00157187  1
  Ba2+  Ba19  1  0.50378749  0.25090778  0.50293751  1
  Ba2+  Ba20  1  0.50637912  0.50288659  0.01322756  1
  Ba2+  Ba21  1  0.50417812  0.49139981  0.51108084  1
  Ba2+  Ba22  1  0.50244357  0.75161374  0.01636593  1
  Ba2+  Ba23  1  0.50467402  0.75511416  0.52146706  1
  Ba2+  Ba24  1  0.74498251  0.00556851  0.01137187  1
  Ba2+  Ba25  1  0.74960435  0.00320522  0.51547813  1
  Ba2+  Ba26  1  0.75360137  0.25372223  0.01430505  1
  Ba2+  Ba27  1  0.74271826  0.24464819  0.50702825  1
  Ba2+  Ba28  1  0.75185184  0.49676404  0.02305772  1
  Ba2+  Ba29  1  0.74531260  0.50410104  0.51097742  1
  Ba2+  Ba30  1  0.74401972  0.74537985  0.02028844  1
  Ba2+  Ba31  1  0.75236093  0.74895722  0.51911037  1
  Y3+  Y32  1  0.00017421  0.00186133  0.26077134  1
  Y3+  Y33  1  -0.00151942  -0.00016889  0.75289112  1
  Y3+  Y34  1  -0.00152920  0.25010108  0.25672078  1
  Y3+  Y35  1  -0.00182814  0.25210820  0.75877068  1
  Y3+  Y36  1  -0.00237295  0.49944740  0.25580573  1
  Y3+  Y37  1  -0.00077250  0.49912158  0.75823120  1
  Y3+  Y38  1  -0.00130461  0.74893227  0.25855846  1
  Y3+  Y39  1  -0.00059469  0.74928417  0.75433393  1
  Y3+  Y40  1  0.24978479  -0.00011615  0.25920483  1
  Y3+  Y41  1  0.25002345  -0.00106843  0.75588974  1
  Y3+  Y42  1  0.25054151  0.25097580  0.25898217  1
  Y3+  Y43  1  0.25104625  0.25161775  0.75872192  1
  Y3+  Y44  1  0.25029929  0.49712468  0.25781261  1
  Y3+  Y45  1  0.25051755  0.49873999  0.75766040  1
  Y3+  Y46  1  0.25005665  0.75201613  0.25663959  1
  Y3+  Y47  1  0.24950688  0.75035834  0.75607713  1
  Y3+  Y48  1  0.50033126  0.00103119  0.25940256  1
  Y3+  Y49  1  0.50176857  0.00201326  0.75639262  1
  Y3+  Y50  1  0.50134360  0.25054650  0.26481118  1
  Y3+  Y51  1  0.50191064  0.24975178  0.75307017  1
  Y3+  Y52  1  0.50188384  0.49698658  0.26075042  1
  Y3+  Y53  1  0.50036949  0.49828808  0.75374277  1
  Y3+  Y54  1  0.50106001  0.75146223  0.25391240  1
  Y3+  Y55  1  0.50038961  0.75005769  0.75703515  1
  Y3+  Y56  1  0.74998091  0.00331071  0.25988724  1
  Y3+  Y57  1  0.74958619  0.00234668  0.75314558  1
  Y3+  Y58  1  0.74978592  0.25034878  0.26201677  1
  Y3+  Y59  1  0.74922357  0.24929560  0.75384937  1
  Y3+  Y60  1  0.75022383  0.49899979  0.25958454  1
  Y3+  Y61  1  0.74982763  0.49897792  0.75321551  1
  Y3+  Y62  1  0.75040366  0.74747472  0.25613062  1
  Y3+  Y63  1  0.75019767  0.74936686  0.75296305  1
  Fe3+  Fe64  1  0.37578158  0.62578755  0.38052245  1
  Fe3+  Fe65  1  0.37585991  0.87567263  0.87541497  1
  Fe3+  Fe66  1  0.37580876  0.87362515  0.37652695  1
  Fe3+  Fe67  1  0.12358700  0.87584913  0.88025595  1
  Fe3+  Fe68  1  0.87272015  0.62397051  0.87658187  1
  Fe3+  Fe69  1  0.62518697  0.62443541  0.87439407  1
  Fe3+  Fe70  1  0.62454617  0.62651671  0.37697987  1
  Fe3+  Fe71  1  0.87427446  0.87403107  0.37536277  1
  Fe3+  Fe72  1  0.62606016  0.87455267  0.37588480  1
  Fe3+  Fe73  1  0.12415715  0.12515974  0.87537604  1
  Fe3+  Fe74  1  0.37651514  0.37453902  0.87937252  1
  Fe3+  Fe75  1  0.62674702  0.87522316  0.87543736  1
  Fe3+  Fe76  1  0.87430426  0.87550142  0.87950371  1
  Fe3+  Fe77  1  0.12527824  0.62592781  0.37639152  1
  Fe3+  Fe78  1  0.87443704  0.12599478  0.87586791  1
  Fe3+  Fe79  1  0.12476956  0.62472297  0.87895483  1
  Fe3+  Fe80  1  0.12554407  0.12434390  0.38015615  1
  Fe3+  Fe81  1  0.12402713  0.37548186  0.38073300  1
  Fe3+  Fe82  1  0.62708470  0.37504007  0.87570444  1
  Fe3+  Fe83  1  0.87486454  0.37578133  0.38050616  1
  Fe3+  Fe84  1  0.37505917  0.62376084  0.13743904  1
  Fe3+  Fe85  1  0.12540935  0.62378669  0.13376841  1
  Fe3+  Fe86  1  0.12512341  0.87525493  0.13328133  1
  Fe3+  Fe87  1  0.87465340  0.37493206  0.63387260  1
  Fe3+  Fe88  1  0.12541576  0.12537340  0.63396681  1
  Fe3+  Fe89  1  0.12478118  0.37450398  0.63414023  1
  Fe3+  Fe90  1  0.37525576  0.62518639  0.63538119  1
  Fe3+  Fe91  1  0.37663453  0.37369382  0.13581668  1
  Fe3+  Fe92  1  0.62457735  0.12660325  0.14089540  1
  Fe3+  Fe93  1  0.87405212  0.87618582  0.13412512  1
  Fe3+  Fe94  1  0.37594709  0.12629763  0.13998175  1
  Fe3+  Fe95  1  0.37458721  0.12490826  0.63826415  1
  Cu2+  Cu96  1  0.62586786  0.12519205  0.86090412  1
  Cu2+  Cu97  1  0.37601662  0.62459416  0.86327909  1
  Cu2+  Cu98  1  0.12375085  0.37442629  0.87197558  1
  Cu2+  Cu99  1  0.62612994  0.37545153  0.37350787  1
  Cu2+  Cu100  1  0.37512392  0.12510849  0.86303914  1
  Cu2+  Cu101  1  0.37506223  0.37630191  0.37371989  1
  Cu2+  Cu102  1  0.62496186  0.12358411  0.37335892  1
  Cu2+  Cu103  1  0.12421284  0.87381559  0.37130728  1
  Cu2+  Cu104  1  0.87462802  0.62566879  0.37225358  1
  Cu2+  Cu105  1  0.37481166  0.12401585  0.36663701  1
  Cu2+  Cu106  1  0.87337227  0.37505461  0.86984682  1
  Cu2+  Cu107  1  0.87480578  0.12435594  0.37343490  1
  Cu2+  Cu108  1  0.62424763  0.62381743  0.15383773  1
  Cu2+  Cu109  1  0.87400572  0.37447353  0.14772341  1
  Cu2+  Cu110  1  0.87429331  0.87506210  0.65174279  1
  Cu2+  Cu111  1  0.87508488  0.62473498  0.15064671  1
  Cu2+  Cu112  1  0.87520778  0.12575150  0.64081498  1
  Cu2+  Cu113  1  0.62455207  0.12525201  0.64246512  1
  Cu2+  Cu114  1  0.12545484  0.12531004  0.15562540  1
  Cu2+  Cu115  1  0.62560997  0.87670769  0.15079820  1
  Cu2+  Cu116  1  0.37488683  0.37407054  0.64279402  1
  Cu2+  Cu117  1  0.37522371  0.87630291  0.15073451  1
  Cu2+  Cu118  1  0.62417509  0.37358947  0.15382920  1
  Cu2+  Cu119  1  0.12555906  0.62413346  0.65277656  1
  Cu2+  Cu120  1  0.12571534  0.37514619  0.14331439  1
  Cu2+  Cu121  1  0.87488610  0.62415451  0.64186941  1
  Cu2+  Cu122  1  0.37538563  0.87547628  0.65206202  1
  Cu2+  Cu123  1  0.87444047  0.12529399  0.15398820  1
  Cu2+  Cu124  1  0.62525598  0.37412076  0.64105572  1
  Cu2+  Cu125  1  0.62537396  0.87559602  0.65127236  1
  Cu2+  Cu126  1  0.62411777  0.62486017  0.64828764  1
  Cu2+  Cu127  1  0.12438234  0.87577222  0.64274922  1
  O2-  O128  1  0.12408804  0.12506161  -0.00413067  1
  O2-  O129  1  0.12664632  0.12365215  0.50718083  1
  O2-  O130  1  0.12520755  0.37424145  0.00764638  1
  O2-  O131  1  0.12459254  0.37595350  0.50725304  1
  O2-  O132  1  0.12536419  0.62339298  0.00650487  1
  O2-  O133  1  0.12572253  0.62743766  0.49675995  1
  O2-  O134  1  0.12496685  0.87696125  0.00588662  1
  O2-  O135  1  0.12402975  0.87415547  0.50642966  1
  O2-  O136  1  0.37662801  0.12642920  0.01957718  1
  O2-  O137  1  0.37416508  0.12328730  0.51770420  1
  O2-  O138  1  0.37678581  0.37422497  0.00793292  1
  O2-  O139  1  0.37382145  0.37649154  0.50805454  1
  O2-  O140  1  0.37569394  0.62326685  0.01705677  1
  O2-  O141  1  0.37518999  0.62672754  0.50655337  1
  O2-  O142  1  0.37596064  0.87535962  -0.00399423  1
  O2-  O143  1  0.37530310  0.87201663  0.49671056  1
  O2-  O144  1  0.62392190  0.12588168  0.02004942  1
  O2-  O145  1  0.62363543  0.12293846  0.50783128  1
  O2-  O146  1  0.62614955  0.37541177  -0.00385171  1
  O2-  O147  1  0.62594306  0.37499723  0.50705418  1
  O2-  O148  1  0.62520229  0.62457275  -0.00501335  1
  O2-  O149  1  0.62350156  0.62843574  0.49720829  1
  O2-  O150  1  0.62589319  0.87478293  -0.00425249  1
  O2-  O151  1  0.62640782  0.87363284  0.49607114  1
  O2-  O152  1  0.87485653  0.12595676  -0.00359844  1
  O2-  O153  1  0.87554213  0.12312137  0.50671668  1
  O2-  O154  1  0.87324959  0.37445650  0.00785868  1
  O2-  O155  1  0.87597873  0.37612245  0.50717975  1
  O2-  O156  1  0.87236069  0.62407368  -0.00299260  1
  O2-  O157  1  0.87522367  0.62691719  0.50702635  1
  O2-  O158  1  0.87433818  0.87614911  0.00529640  1
  O2-  O159  1  0.87420006  0.87322316  0.49596637  1
  O2-  O160  1  0.12475246  -0.00180782  0.16413286  1
  O2-  O161  1  0.12500586  0.00294326  0.66400739  1
  O2-  O162  1  0.12525902  0.24899047  0.17044590  1
  O2-  O163  1  0.12499694  0.25036070  0.66097160  1
  O2-  O164  1  0.12620222  0.50318000  0.16572383  1
  O2-  O165  1  0.12549114  0.49796689  0.66277673  1
  O2-  O166  1  0.12509809  0.74989512  0.15680657  1
  O2-  O167  1  0.12514494  0.74868743  0.66812113  1
  O2-  O168  1  0.37395164  0.00080917  0.16620969  1
  O2-  O169  1  0.37409098  0.00002318  0.66638593  1
  O2-  O170  1  0.37495630  0.25107694  0.16948978  1
  O2-  O171  1  0.37343935  0.24808088  0.66869419  1
  O2-  O172  1  0.37495348  0.49837760  0.16650968  1
  O2-  O173  1  0.37426298  0.50267899  0.66371332  1
  O2-  O174  1  0.37519358  0.75018313  0.16225573  1
  O2-  O175  1  0.37415268  0.74913110  0.66270708  1
  O2-  O176  1  0.62549482  0.00158681  0.16644877  1
  O2-  O177  1  0.62501919  -0.00106888  0.66542536  1
  O2-  O178  1  0.62476720  0.24946713  0.17116928  1
  O2-  O179  1  0.62495581  0.24968973  0.66526407  1
  O2-  O180  1  0.62428428  0.49854817  0.16545268  1
  O2-  O181  1  0.62387876  0.50095522  0.66239768  1
  O2-  O182  1  0.62412109  0.75059575  0.15959345  1
  O2-  O183  1  0.62487625  0.75041623  0.66326244  1
  O2-  O184  1  0.87581185  -0.00126097  0.16264175  1
  O2-  O185  1  0.87533597  -0.00098013  0.66482436  1
  O2-  O186  1  0.87513886  0.24861880  0.16940375  1
  O2-  O187  1  0.87638530  0.25328239  0.66308757  1
  O2-  O188  1  0.87471762  0.50133762  0.16745700  1
  O2-  O189  1  0.87615747  0.49693921  0.66284869  1
  O2-  O190  1  0.87564974  0.75148256  0.15910804  1
  O2-  O191  1  0.87549220  0.75071086  0.66594434  1
  O2-  O192  1  0.00001875  0.12519449  0.16529276  1
  O2-  O193  1  0.00300177  0.12516327  0.66102535  1
  O2-  O194  1  -0.00042011  0.37506678  0.16711152  1
  O2-  O195  1  0.00078558  0.37542088  0.66300605  1
  O2-  O196  1  0.00217694  0.62501806  0.16170491  1
  O2-  O197  1  0.00170991  0.62476275  0.66663876  1
  O2-  O198  1  0.00031578  0.87479098  0.15903574  1
  O2-  O199  1  -0.00179208  0.87468425  0.66727443  1
  O2-  O200  1  0.25082933  0.12537409  0.16767900  1
  O2-  O201  1  0.24835277  0.12511491  0.66680276  1
  O2-  O202  1  0.25388799  0.37461628  0.16553250  1
  O2-  O203  1  0.24660956  0.37550225  0.66675581  1
  O2-  O204  1  0.24936505  0.62573451  0.16573635  1
  O2-  O205  1  0.25172074  0.62501307  0.66543176  1
  O2-  O206  1  0.24748081  0.87482639  0.16247232  1
  O2-  O207  1  0.25091379  0.87463743  0.66703716  1
  O2-  O208  1  0.49980188  0.12507977  0.17131734  1
  O2-  O209  1  0.49811469  0.12442299  0.66739713  1
  O2-  O210  1  0.49840589  0.37498785  0.16595322  1
  O2-  O211  1  0.49993762  0.37465141  0.66563300  1
  O2-  O212  1  0.49916022  0.62433526  0.16645424  1
  O2-  O213  1  0.49815500  0.62589999  0.66268068  1
  O2-  O214  1  0.50065473  0.87606872  0.16300920  1
  O2-  O215  1  0.50042156  0.87494272  0.66366726  1
  O2-  O216  1  0.74963554  0.12562865  0.16673122  1
  O2-  O217  1  0.75031475  0.12510135  0.66293890  1
  O2-  O218  1  0.74834300  0.37451385  0.16729136  1
  O2-  O219  1  0.75252633  0.37526916  0.66081378  1
  O2-  O220  1  0.74894977  0.62471790  0.16360651  1
  O2-  O221  1  0.74810441  0.62485410  0.66161386  1
  O2-  O222  1  0.75196935  0.87503839  0.16005096  1
  O2-  O223  1  0.75003325  0.87483971  0.66362967  1
  O2-  O224  1  0.12542024  0.00246930  0.34924457  1
  O2-  O225  1  0.12415038  -0.00162325  0.84669038  1
  O2-  O226  1  0.12558771  0.25050310  0.35530187  1
  O2-  O227  1  0.12503401  0.24795295  0.84379816  1
  O2-  O228  1  0.12506490  0.49893063  0.34878775  1
  O2-  O229  1  0.12565108  0.50317585  0.84799152  1
  O2-  O230  1  0.12566062  0.74771008  0.33978571  1
  O2-  O231  1  0.12489273  0.75052434  0.85332840  1
  O2-  O232  1  0.37423545  -0.00144746  0.34866760  1
  O2-  O233  1  0.37405928  -0.00039553  0.84827445  1
  O2-  O234  1  0.37385189  0.24893377  0.35270674  1
  O2-  O235  1  0.37510447  0.25121059  0.85200576  1
  O2-  O236  1  0.37454965  0.50371341  0.34952070  1
  O2-  O237  1  0.37467468  0.49771463  0.84846782  1
  O2-  O238  1  0.37445685  0.74843808  0.34385587  1
  O2-  O239  1  0.37426489  0.75137004  0.84610371  1
  O2-  O240  1  0.62471419  -0.00234504  0.34717386  1
  O2-  O241  1  0.62583451  0.00021367  0.84874504  1
  O2-  O242  1  0.62506582  0.24958060  0.35359366  1
  O2-  O243  1  0.62465087  0.24974974  0.84777904  1
  O2-  O244  1  0.62422818  0.50235961  0.34890431  1
  O2-  O245  1  0.62423390  0.49988596  0.84337539  1
  O2-  O246  1  0.62493049  0.75036291  0.34104895  1
  O2-  O247  1  0.62513630  0.75028077  0.84446926  1
  O2-  O248  1  0.87579744  -0.00183679  0.34576057  1
  O2-  O249  1  0.87576817  -0.00123349  0.84800311  1
  O2-  O250  1  0.87609915  0.25284746  0.35344921  1
  O2-  O251  1  0.87513611  0.24855506  0.84520257  1
  O2-  O252  1  0.87643887  0.49754115  0.35098454  1
  O2-  O253  1  0.87510867  0.50199162  0.84445738  1
  O2-  O254  1  0.87489104  0.75124715  0.34181710  1
  O2-  O255  1  0.87549681  0.75103669  0.84916764  1
  O2-  O256  1  0.00336338  0.12538721  0.35028258  1
  O2-  O257  1  -0.00044117  0.12439331  0.84232314  1
  O2-  O258  1  0.00067437  0.37494449  0.35101537  1
  O2-  O259  1  -0.00075219  0.37561115  0.84670105  1
  O2-  O260  1  0.00182886  0.62488672  0.34533084  1
  O2-  O261  1  0.00052285  0.62576191  0.85010750  1
  O2-  O262  1  -0.00165975  0.87448518  0.34306655  1
  O2-  O263  1  -0.00032951  0.87438106  0.85124813  1
  O2-  O264  1  0.24854558  0.12511480  0.35112346  1
  O2-  O265  1  0.24914590  0.12447643  0.84855921  1
  O2-  O266  1  0.24639787  0.37575914  0.34982628  1
  O2-  O267  1  0.25296049  0.37522138  0.85126294  1
  O2-  O268  1  0.25149000  0.62468024  0.34771845  1
  O2-  O269  1  0.24888045  0.62541988  0.85141597  1
  O2-  O270  1  0.25184519  0.87439201  0.34603900  1
  O2-  O271  1  0.24786336  0.87476544  0.84996483  1
  O2-  O272  1  0.49830592  0.12444975  0.35202497  1
  O2-  O273  1  0.50021229  0.12458039  0.85106277  1
  O2-  O274  1  0.50018495  0.37534157  0.35029088  1
  O2-  O275  1  0.49980350  0.37459041  0.84852913  1
  O2-  O276  1  0.49862056  0.62591491  0.34807065  1
  O2-  O277  1  0.50080838  0.62503729  0.84542847  1
  O2-  O278  1  0.50014113  0.87398484  0.34507371  1
  O2-  O279  1  0.50092017  0.87567384  0.84599639  1
  O2-  O280  1  0.74991821  0.12462072  0.34944153  1
  O2-  O281  1  0.75103137  0.12448656  0.84559676  1
  O2-  O282  1  0.75301261  0.37577516  0.35103073  1
  O2-  O283  1  0.74813883  0.37477171  0.84220452  1
  O2-  O284  1  0.74808069  0.62513614  0.34710602  1
  O2-  O285  1  0.74946190  0.62549065  0.84208330  1
  O2-  O286  1  0.74981246  0.87465489  0.34186214  1
  O2-  O287  1  0.75184272  0.87524338  0.84644943  1
