# generated using pymatgen
data_BaYFeCuO5
_symmetry_space_group_name_H-M   'P 1'
_cell_length_a   15.67212612
_cell_length_b   15.67262582
_cell_length_c   15.49124490
_cell_angle_alpha   89.99573905
_cell_angle_beta   89.99695532
_cell_angle_gamma   89.99745090
_symmetry_Int_Tables_number   1
_chemical_formula_structural   BaYFeCuO5
_chemical_formula_sum   'Ba32 Y32 Fe32 Cu32 O160'
_cell_volume   3805.01173690
_cell_formula_units_Z   32
loop_
 _symmetry_equiv_pos_site_id
 _symmetry_equiv_pos_as_xyz
  1  'x, y, z'
loop_
 _atom_type_symbol
 _atom_type_oxidation_number
  Ba2+  2.0
  Y3+  3.0
  Fe3+  3.0
  Cu2+  2.0
  O2-  -2.0
loop_
 _atom_site_type_symbol
 _atom_site_label
 _atom_site_symmetry_multiplicity
 _atom_site_fract_x
 _atom_site_fract_y
 _atom_site_fract_z
 _atom_site_occupancy
  Ba2+  Ba0  1  0.01022131  0.00078707  0.01875741  1
  Ba2+  Ba1  1  0.00455249  0.00050083  0.51451964  1
  Ba2+  Ba2  1  0.00523927  0.25351238  0.02316386  1
  Ba2+  Ba3  1  0.00427433  0.25004284  0.51374644  1
  Ba2+  Ba4  1  -0.00218731  0.49524493  0.01179923  1
  Ba2+  Ba5  1  0.00112136  0.49789538  0.52021920  1
  Ba2+  Ba6  1  0.00058667  0.75006349  0.00602763  1
  Ba2+  Ba7  1  0.00210644  0.75133096  0.52091001  1
  Ba2+  Ba8  1  0.25389978  0.00308949  0.01416469  1
  Ba2+  Ba9  1  0.24435073  0.00042994  0.50631981  1
  Ba2+  Ba10  1  0.24863651  0.24198299  0.01862177  1
  Ba2+  Ba11  1  0.24499051  0.24950785  0.50550608  1
  Ba2+  Ba12  1  0.24901052  0.49890477  0.00659200  1
  Ba2+  Ba13  1  0.24866803  0.49808401  0.52177698  1
  Ba2+  Ba14  1  0.25510343  0.75603269  0.00037835  1
  Ba2+  Ba15  1  0.24756101  0.75137847  0.52045748  1
  Ba2+  Ba16  1  0.49745663  -0.00050424  -0.00492974  1
  Ba2+  Ba17  1  0.49798672  0.00703529  0.50602539  1
  Ba2+  Ba18  1  0.49628811  0.23795381  0.00255726  1
  Ba2+  Ba19  1  0.50199080  0.24924061  0.51213100  1
  Ba2+  Ba20  1  0.49488880  0.50444674  0.00198207  1
  Ba2+  Ba21  1  0.50186757  0.50035874  0.52223562  1
  Ba2+  Ba22  1  0.49747551  0.75891067  -0.00396850  1
  Ba2+  Ba23  1  0.49760287  0.74286153  0.51690537  1
  Ba2+  Ba24  1  0.73889720  -0.00214466  0.00271905  1
  Ba2+  Ba25  1  0.75244272  0.00642445  0.51745565  1
  Ba2+  Ba26  1  0.75032200  0.24879473  0.00704253  1
  Ba2+  Ba27  1  0.74895569  0.25018232  0.52159589  1
  Ba2+  Ba28  1  0.75851609  0.49991737  0.00605045  1
  Ba2+  Ba29  1  0.74861798  0.50082492  0.52189619  1
  Ba2+  Ba30  1  0.74641066  0.75408230  0.00250972  1
  Ba2+  Ba31  1  0.75219086  0.74272638  0.51803010  1
  Y3+  Y32  1  0.00403371  -0.00024707  0.26099022  1
  Y3+  Y33  1  0.00079969  0.00036848  0.75134374  1
  Y3+  Y34  1  0.00412562  0.25140281  0.26048632  1
  Y3+  Y35  1  0.00106558  0.24960814  0.75064330  1
  Y3+  Y36  1  0.00105029  0.49666289  0.25662917  1
  Y3+  Y37  1  -0.00035181  0.50010477  0.75548679  1
  Y3+  Y38  1  0.00201173  0.75209647  0.25782958  1
  Y3+  Y39  1  -0.00037378  0.75021849  0.75548199  1
  Y3+  Y40  1  0.24867928  0.00203904  0.26114926  1
  Y3+  Y41  1  0.25077567  -0.00006960  0.75426387  1
  Y3+  Y42  1  0.24866201  0.24716457  0.26061340  1
  Y3+  Y43  1  0.24949588  0.24921963  0.75373386  1
  Y3+  Y44  1  0.24829500  0.49752388  0.25738135  1
  Y3+  Y45  1  0.25029797  0.49963578  0.75615858  1
  Y3+  Y46  1  0.24869810  0.75303409  0.25913159  1
  Y3+  Y47  1  0.25150485  0.75109445  0.75511334  1
  Y3+  Y48  1  0.50003626  0.00166440  0.25947828  1
  Y3+  Y49  1  0.49935033  0.00059590  0.75766830  1
  Y3+  Y50  1  0.49869475  0.24643178  0.25986936  1
  Y3+  Y51  1  0.49989140  0.24732583  0.75681204  1
  Y3+  Y52  1  0.50139074  0.50135426  0.25818769  1
  Y3+  Y53  1  0.49872166  0.50085381  0.75653726  1
  Y3+  Y54  1  0.50256854  0.75084924  0.25951799  1
  Y3+  Y55  1  0.49818780  0.75110075  0.75697763  1
  Y3+  Y56  1  0.74747050  -0.00061064  0.25838563  1
  Y3+  Y57  1  0.74850080  0.00075728  0.75718143  1
  Y3+  Y58  1  0.74967016  0.24959618  0.25698165  1
  Y3+  Y59  1  0.74926373  0.24806903  0.75592402  1
  Y3+  Y60  1  0.74986046  0.50081807  0.25654634  1
  Y3+  Y61  1  0.75113656  0.50091805  0.75690853  1
  Y3+  Y62  1  0.74719942  0.75034739  0.25750979  1
  Y3+  Y63  1  0.75044399  0.75000905  0.75797358  1
  Fe3+  Fe64  1  0.37377707  0.37307147  0.87919533  1
  Fe3+  Fe65  1  0.62559402  0.87481052  0.38267451  1
  Fe3+  Fe66  1  0.87718804  0.12470812  0.87966002  1
  Fe3+  Fe67  1  0.12484726  0.37310640  0.87607120  1
  Fe3+  Fe68  1  0.87625681  0.87648167  0.87870752  1
  Fe3+  Fe69  1  0.37483958  0.87451755  0.38072429  1
  Fe3+  Fe70  1  0.62558841  0.37545614  0.37648238  1
  Fe3+  Fe71  1  0.12537003  0.87670661  0.87548136  1
  Fe3+  Fe72  1  0.37436321  0.62404901  0.37783818  1
  Fe3+  Fe73  1  0.87493116  0.87438861  0.37855919  1
  Fe3+  Fe74  1  0.62494902  0.62507856  0.87804045  1
  Fe3+  Fe75  1  0.12489749  0.62448952  0.37725273  1
  Fe3+  Fe76  1  0.12488121  0.12539903  0.87487283  1
  Fe3+  Fe77  1  0.37528528  0.37581595  0.37742256  1
  Fe3+  Fe78  1  0.87440254  0.37543482  0.37737092  1
  Fe3+  Fe79  1  0.87647924  0.37326624  0.87537402  1
  Fe3+  Fe80  1  0.87486034  0.12562377  0.37642873  1
  Fe3+  Fe81  1  0.87571475  0.62468800  0.37619370  1
  Fe3+  Fe82  1  0.62457506  0.37428036  0.87931982  1
  Fe3+  Fe83  1  0.12499773  0.62487965  0.87782529  1
  Fe3+  Fe84  1  0.37437621  0.12491520  0.63747987  1
  Fe3+  Fe85  1  0.12599958  0.62575834  0.13313580  1
  Fe3+  Fe86  1  0.62443189  0.87515247  0.63650824  1
  Fe3+  Fe87  1  0.37573218  0.37398498  0.13429820  1
  Fe3+  Fe88  1  0.87516468  0.12446825  0.13429089  1
  Fe3+  Fe89  1  0.37493999  0.62653280  0.13579456  1
  Fe3+  Fe90  1  0.62412913  0.62602120  0.13279867  1
  Fe3+  Fe91  1  0.87484840  0.87585502  0.13376269  1
  Fe3+  Fe92  1  0.87523159  0.62586000  0.13520045  1
  Fe3+  Fe93  1  0.37602140  0.87606446  0.14061559  1
  Fe3+  Fe94  1  0.62394370  0.37489860  0.13223766  1
  Fe3+  Fe95  1  0.62388964  0.12391769  0.13779395  1
  Cu2+  Cu96  1  0.62556975  0.62413924  0.37519806  1
  Cu2+  Cu97  1  0.87588271  0.62517099  0.86530276  1
  Cu2+  Cu98  1  0.62662447  0.12610153  0.37488283  1
  Cu2+  Cu99  1  0.12396822  0.12507183  0.37262380  1
  Cu2+  Cu100  1  0.12459962  0.87387143  0.37420477  1
  Cu2+  Cu101  1  0.62541249  0.12540856  0.86254925  1
  Cu2+  Cu102  1  0.37409778  0.62466513  0.86368616  1
  Cu2+  Cu103  1  0.37356595  0.87619655  0.85870060  1
  Cu2+  Cu104  1  0.62469896  0.87520455  0.86942112  1
  Cu2+  Cu105  1  0.12526079  0.37630195  0.37338565  1
  Cu2+  Cu106  1  0.37265226  0.12511569  0.87078643  1
  Cu2+  Cu107  1  0.37479861  0.12530365  0.36673715  1
  Cu2+  Cu108  1  0.62354615  0.87536683  0.14183359  1
  Cu2+  Cu109  1  0.12661167  0.37558386  0.15076996  1
  Cu2+  Cu110  1  0.12506473  0.62496438  0.65348494  1
  Cu2+  Cu111  1  0.12536911  0.87534432  0.64261999  1
  Cu2+  Cu112  1  0.62479383  0.62545120  0.64607496  1
  Cu2+  Cu113  1  0.87397785  0.87537253  0.64990979  1
  Cu2+  Cu114  1  0.87490029  0.12514119  0.65102620  1
  Cu2+  Cu115  1  0.12493854  0.12483090  0.15528364  1
  Cu2+  Cu116  1  0.37566351  0.12401612  0.14481288  1
  Cu2+  Cu117  1  0.62397961  0.12451297  0.64320464  1
  Cu2+  Cu118  1  0.87451336  0.37474053  0.65080346  1
  Cu2+  Cu119  1  0.12543657  0.37472491  0.64195125  1
  Cu2+  Cu120  1  0.37454288  0.62493864  0.65409105  1
  Cu2+  Cu121  1  0.87423365  0.37434218  0.15018586  1
  Cu2+  Cu122  1  0.12578626  0.12492527  0.64135462  1
  Cu2+  Cu123  1  0.87538867  0.62493600  0.65470238  1
  Cu2+  Cu124  1  0.62460702  0.37488874  0.65601170  1
  Cu2+  Cu125  1  0.37521767  0.37399600  0.65140960  1
  Cu2+  Cu126  1  0.12611272  0.87441228  0.15028292  1
  Cu2+  Cu127  1  0.37564429  0.87592743  0.64630108  1
  O2-  O128  1  0.12397881  0.12585233  -0.00460964  1
  O2-  O129  1  0.12395028  0.12513711  0.50668069  1
  O2-  O130  1  0.12471585  0.37344169  -0.00415251  1
  O2-  O131  1  0.12517469  0.37738843  0.50665205  1
  O2-  O132  1  0.12558356  0.62540067  0.00560390  1
  O2-  O133  1  0.12434536  0.62418303  0.49747057  1
  O2-  O134  1  0.12519346  0.87590439  -0.00435458  1
  O2-  O135  1  0.12410433  0.87277161  0.50740219  1
  O2-  O136  1  0.37389291  0.12401720  0.00848595  1
  O2-  O137  1  0.37491350  0.12690151  0.51711069  1
  O2-  O138  1  0.37434706  0.37318925  0.00653305  1
  O2-  O139  1  0.37663619  0.37777923  0.49739112  1
  O2-  O140  1  0.37498982  0.62765615  0.01574303  1
  O2-  O141  1  0.37417872  0.62192110  0.49777995  1
  O2-  O142  1  0.37531599  0.87633122  0.01986940  1
  O2-  O143  1  0.37546349  0.87226525  0.50089547  1
  O2-  O144  1  0.62359029  0.12357302  0.01719330  1
  O2-  O145  1  0.62633659  0.12609100  0.50775304  1
  O2-  O146  1  0.62411807  0.37436697  0.00567746  1
  O2-  O147  1  0.62600103  0.37665563  0.49660420  1
  O2-  O148  1  0.62441575  0.62581641  0.00614311  1
  O2-  O149  1  0.62548344  0.62368489  0.50779062  1
  O2-  O150  1  0.62353558  0.87495998  0.00634195  1
  O2-  O151  1  0.62672015  0.87368124  0.50877703  1
  O2-  O152  1  0.87697150  0.12433876  0.00597385  1
  O2-  O153  1  0.87382448  0.12657173  0.49664687  1
  O2-  O154  1  0.87705711  0.37285473  -0.00430613  1
  O2-  O155  1  0.87222050  0.37611819  0.49706620  1
  O2-  O156  1  0.87547200  0.62556453  0.01496699  1
  O2-  O157  1  0.87576063  0.62400808  0.49636389  1
  O2-  O158  1  0.87632679  0.87662786  0.00614343  1
  O2-  O159  1  0.87340803  0.87301839  0.49814347  1
  O2-  O160  1  0.12408734  -0.00030474  0.16562992  1
  O2-  O161  1  0.12463625  0.00018757  0.66328458  1
  O2-  O162  1  0.12619511  0.25060761  0.16539656  1
  O2-  O163  1  0.12494017  0.24978743  0.66251311  1
  O2-  O164  1  0.12449796  0.50190762  0.15907390  1
  O2-  O165  1  0.12524447  0.50118571  0.66804648  1
  O2-  O166  1  0.12592292  0.74798034  0.16224429  1
  O2-  O167  1  0.12440505  0.74874534  0.66742075  1
  O2-  O168  1  0.37485089  -0.00122395  0.17118954  1
  O2-  O169  1  0.37554825  0.00074680  0.66531755  1
  O2-  O170  1  0.37488316  0.25250480  0.16402764  1
  O2-  O171  1  0.37602577  0.24954206  0.66720276  1
  O2-  O172  1  0.37664235  0.49932823  0.15882959  1
  O2-  O173  1  0.37520149  0.49936197  0.66764268  1
  O2-  O174  1  0.37454337  0.74974206  0.16891516  1
  O2-  O175  1  0.37530891  0.75005427  0.66486133  1
  O2-  O176  1  0.62535320  0.00176821  0.17062382  1
  O2-  O177  1  0.62563479  -0.00269211  0.66411075  1
  O2-  O178  1  0.62607553  0.25101829  0.16273796  1
  O2-  O179  1  0.62492597  0.25088368  0.66698376  1
  O2-  O180  1  0.62378665  0.50067255  0.15739538  1
  O2-  O181  1  0.62488776  0.49932792  0.66964250  1
  O2-  O182  1  0.62567747  0.74675872  0.16504279  1
  O2-  O183  1  0.62542508  0.75241490  0.66578487  1
  O2-  O184  1  0.87664988  0.00009027  0.16204734  1
  O2-  O185  1  0.87384278  0.00062828  0.66613320  1
  O2-  O186  1  0.87327188  0.24844672  0.16011807  1
  O2-  O187  1  0.87372806  0.24992695  0.66513914  1
  O2-  O188  1  0.87556934  0.50059934  0.16172342  1
  O2-  O189  1  0.87449714  0.49990210  0.66602474  1
  O2-  O190  1  0.87469625  0.75112100  0.16249839  1
  O2-  O191  1  0.87457167  0.74964299  0.66778862  1
  O2-  O192  1  -0.00110737  0.12590074  0.16185934  1
  O2-  O193  1  -0.00135556  0.12480127  0.66271750  1
  O2-  O194  1  0.00068928  0.37431471  0.16270334  1
  O2-  O195  1  -0.00155011  0.37541490  0.66261750  1
  O2-  O196  1  0.00129824  0.62592060  0.16016086  1
  O2-  O197  1  -0.00023233  0.62488770  0.66544447  1
  O2-  O198  1  -0.00092639  0.87410953  0.16105302  1
  O2-  O199  1  -0.00195744  0.87476852  0.66476813  1
  O2-  O200  1  0.24841577  0.12446569  0.16602711  1
  O2-  O201  1  0.25172823  0.12525545  0.66614372  1
  O2-  O202  1  0.25230177  0.37658270  0.16165451  1
  O2-  O203  1  0.25127119  0.37560052  0.66699565  1
  O2-  O204  1  0.24953150  0.62372454  0.16288700  1
  O2-  O205  1  0.25010336  0.62475238  0.66609279  1
  O2-  O206  1  0.25029888  0.87532477  0.16737109  1
  O2-  O207  1  0.25126050  0.87428274  0.66487164  1
  O2-  O208  1  0.50186185  0.12561848  0.17031784  1
  O2-  O209  1  0.49803189  0.12509004  0.66772401  1
  O2-  O210  1  0.50073179  0.37507945  0.16159134  1
  O2-  O211  1  0.50029810  0.37565703  0.66903483  1
  O2-  O212  1  0.50082962  0.62519237  0.16497496  1
  O2-  O213  1  0.49853745  0.62476588  0.66823598  1
  O2-  O214  1  0.49849451  0.87436884  0.17196165  1
  O2-  O215  1  0.50177464  0.87439136  0.66469035  1
  O2-  O216  1  0.75121190  0.12398371  0.16159332  1
  O2-  O217  1  0.75067848  0.12509523  0.66772806  1
  O2-  O218  1  0.74693200  0.37653058  0.15891548  1
  O2-  O219  1  0.74968504  0.37510760  0.66789831  1
  O2-  O220  1  0.74882188  0.62422804  0.16163476  1
  O2-  O221  1  0.75132731  0.62513520  0.66867496  1
  O2-  O222  1  0.75282714  0.87549104  0.16225295  1
  O2-  O223  1  0.74840589  0.87453597  0.66638217  1
  O2-  O224  1  0.12468746  -0.00004983  0.35089464  1
  O2-  O225  1  0.12387699  0.00026628  0.84409958  1
  O2-  O226  1  0.12475881  0.25012442  0.35036451  1
  O2-  O227  1  0.12446608  0.25011563  0.84267186  1
  O2-  O228  1  0.12524097  0.50200932  0.34138178  1
  O2-  O229  1  0.12495747  0.50010251  0.85105856  1
  O2-  O230  1  0.12446571  0.74769095  0.34426583  1
  O2-  O231  1  0.12498709  0.74963954  0.85053913  1
  O2-  O232  1  0.37540931  0.00000604  0.35300355  1
  O2-  O233  1  0.37474258  -0.00032500  0.84767115  1
  O2-  O234  1  0.37565003  0.25010318  0.34768017  1
  O2-  O235  1  0.37505235  0.25253270  0.84918642  1
  O2-  O236  1  0.37487556  0.50011120  0.33979677  1
  O2-  O237  1  0.37490846  0.49722768  0.85273350  1
  O2-  O238  1  0.37579828  0.74980429  0.34695678  1
  O2-  O239  1  0.37453650  0.75051740  0.84987072  1
  O2-  O240  1  0.62622487  -0.00320715  0.35299749  1
  O2-  O241  1  0.62509985  0.00147848  0.84751441  1
  O2-  O242  1  0.62491161  0.25242750  0.34409785  1
  O2-  O243  1  0.62519161  0.25181406  0.85153343  1
  O2-  O244  1  0.62575454  0.49752141  0.33989924  1
  O2-  O245  1  0.62463549  0.49952781  0.85361387  1
  O2-  O246  1  0.62537033  0.75359143  0.34896425  1
  O2-  O247  1  0.62486730  0.74712866  0.84956357  1
  O2-  O248  1  0.87422369  -0.00076033  0.34503941  1
  O2-  O249  1  0.87529390  0.00065703  0.85069921  1
  O2-  O250  1  0.87501240  0.25085653  0.34297233  1
  O2-  O251  1  0.87437214  0.24833333  0.84784208  1
  O2-  O252  1  0.87446724  0.49990422  0.34215161  1
  O2-  O253  1  0.87523334  0.49865547  0.84957870  1
  O2-  O254  1  0.87519894  0.75007389  0.34280714  1
  O2-  O255  1  0.87528819  0.75204214  0.85293911  1
  O2-  O256  1  -0.00244799  0.12481202  0.34432444  1
  O2-  O257  1  -0.00099169  0.12520137  0.84503329  1
  O2-  O258  1  -0.00204445  0.37577376  0.34634894  1
  O2-  O259  1  0.00037340  0.37464315  0.84350231  1
  O2-  O260  1  -0.00022312  0.62461114  0.34112360  1
  O2-  O261  1  0.00240591  0.62530108  0.84966651  1
  O2-  O262  1  -0.00213908  0.87485554  0.34456270  1
  O2-  O263  1  -0.00060154  0.87494118  0.84741665  1
  O2-  O264  1  0.25102784  0.12542610  0.35030849  1
  O2-  O265  1  0.24736004  0.12517617  0.84621463  1
  O2-  O266  1  0.25236567  0.37476669  0.34514337  1
  O2-  O267  1  0.25015311  0.37527505  0.84937156  1
  O2-  O268  1  0.25021023  0.62494123  0.34335221  1
  O2-  O269  1  0.24787207  0.62473601  0.85075786  1
  O2-  O270  1  0.25210690  0.87461026  0.34905162  1
  O2-  O271  1  0.24901425  0.87488548  0.84737573  1
  O2-  O272  1  0.49888571  0.12506617  0.35239521  1
  O2-  O273  1  0.50054878  0.12531530  0.85093228  1
  O2-  O274  1  0.49989547  0.37553589  0.34339777  1
  O2-  O275  1  0.50009680  0.37523395  0.85423761  1
  O2-  O276  1  0.49805830  0.62444529  0.34637669  1
  O2-  O277  1  0.50109511  0.62438405  0.85244888  1
  O2-  O278  1  0.50111256  0.87528258  0.35264580  1
  O2-  O279  1  0.49768809  0.87501639  0.84885124  1
  O2-  O280  1  0.75250144  0.12525777  0.34176114  1
  O2-  O281  1  0.75234912  0.12477960  0.85282400  1
  O2-  O282  1  0.75041557  0.37491872  0.34105958  1
  O2-  O283  1  0.74894252  0.37512729  0.85170436  1
  O2-  O284  1  0.75244975  0.62570587  0.34332314  1
  O2-  O285  1  0.74846239  0.62468448  0.85246565  1
  O2-  O286  1  0.74926036  0.87425975  0.34539842  1
  O2-  O287  1  0.75329639  0.87551314  0.85098660  1
