# generated using pymatgen
data_BaYFeCuO5
_symmetry_space_group_name_H-M   'P 1'
_cell_length_a   15.67116579
_cell_length_b   15.67327458
_cell_length_c   15.49224267
_cell_angle_alpha   89.99950247
_cell_angle_beta   89.99610071
_cell_angle_gamma   90.00579592
_symmetry_Int_Tables_number   1
_chemical_formula_structural   BaYFeCuO5
_chemical_formula_sum   'Ba32 Y32 Fe32 Cu32 O160'
_cell_volume   3805.18113525
_cell_formula_units_Z   32
loop_
 _symmetry_equiv_pos_site_id
 _symmetry_equiv_pos_as_xyz
  1  'x, y, z'
loop_
 _atom_type_symbol
 _atom_type_oxidation_number
  Ba2+  2.0
  Y3+  3.0
  Fe3+  3.0
  Cu2+  2.0
  O2-  -2.0
loop_
 _atom_site_type_symbol
 _atom_site_label
 _atom_site_symmetry_multiplicity
 _atom_site_fract_x
 _atom_site_fract_y
 _atom_site_fract_z
 _atom_site_occupancy
  Ba2+  Ba0  1  0.00592619  0.00357433  0.01659660  1
  Ba2+  Ba1  1  -0.00235759  0.00192858  0.51254599  1
  Ba2+  Ba2  1  -0.00016672  0.25526329  0.01829889  1
  Ba2+  Ba3  1  0.00284403  0.24214146  0.49627124  1
  Ba2+  Ba4  1  -0.00081550  0.49433579  -0.00418275  1
  Ba2+  Ba5  1  0.00850919  0.50051621  0.50730480  1
  Ba2+  Ba6  1  0.00420327  0.74664883  -0.00328552  1
  Ba2+  Ba7  1  0.00383591  0.75688284  0.52307919  1
  Ba2+  Ba8  1  0.24461776  0.00387467  0.01678365  1
  Ba2+  Ba9  1  0.25209767  -0.00150322  0.51207138  1
  Ba2+  Ba10  1  0.24821877  0.25200108  0.02265464  1
  Ba2+  Ba11  1  0.25138173  0.24980507  0.50046289  1
  Ba2+  Ba12  1  0.24275789  0.49234303  0.00677009  1
  Ba2+  Ba13  1  0.24960485  0.49265014  0.50602063  1
  Ba2+  Ba14  1  0.23974163  0.75151712  0.00224936  1
  Ba2+  Ba15  1  0.24817852  0.75721286  0.51751159  1
  Ba2+  Ba16  1  0.50304594  0.00655710  0.01023109  1
  Ba2+  Ba17  1  0.49872022  -0.00166251  0.52134976  1
  Ba2+  Ba18  1  0.50211573  0.25311346  0.01196147  1
  Ba2+  Ba19  1  0.49299903  0.24578243  0.51654740  1
  Ba2+  Ba20  1  0.50651771  0.49265840  0.01792279  1
  Ba2+  Ba21  1  0.49591788  0.49725253  0.51076052  1
  Ba2+  Ba22  1  0.50869493  0.74931550  0.01676741  1
  Ba2+  Ba23  1  0.50146410  0.75765374  0.51645580  1
  Ba2+  Ba24  1  0.74662076  0.00554504  0.01072156  1
  Ba2+  Ba25  1  0.75173198  0.00062042  0.52188799  1
  Ba2+  Ba26  1  0.75058435  0.25620501  0.00627141  1
  Ba2+  Ba27  1  0.75211068  0.23732805  0.51175342  1
  Ba2+  Ba28  1  0.75127746  0.49318153  0.00673897  1
  Ba2+  Ba29  1  0.74562593  0.50528800  0.51169639  1
  Ba2+  Ba30  1  0.74729395  0.74397889  0.01120958  1
  Ba2+  Ba31  1  0.74564149  0.75705562  0.52285713  1
  Y3+  Y32  1  0.00030946  0.00332342  0.25640080  1
  Y3+  Y33  1  0.00032194  -0.00040980  0.75774950  1
  Y3+  Y34  1  0.00017876  0.24892716  0.25715601  1
  Y3+  Y35  1  -0.00124062  0.25096563  0.75957098  1
  Y3+  Y36  1  0.00093370  0.49649680  0.25729841  1
  Y3+  Y37  1  0.00128907  0.49938208  0.76028998  1
  Y3+  Y38  1  0.00107348  0.75211318  0.25408361  1
  Y3+  Y39  1  0.00270141  0.75000347  0.76005355  1
  Y3+  Y40  1  0.24912563  0.00069281  0.25603602  1
  Y3+  Y41  1  0.25024608  -0.00169094  0.75761715  1
  Y3+  Y42  1  0.24893191  0.25142118  0.25860257  1
  Y3+  Y43  1  0.25125776  0.25153540  0.75602856  1
  Y3+  Y44  1  0.25034772  0.49574552  0.25904511  1
  Y3+  Y45  1  0.24803888  0.49906476  0.75694390  1
  Y3+  Y46  1  0.25055892  0.75262715  0.25611535  1
  Y3+  Y47  1  0.24761016  0.75141476  0.75805319  1
  Y3+  Y48  1  0.49853466  -0.00072156  0.25518355  1
  Y3+  Y49  1  0.49933906  0.00148222  0.75610486  1
  Y3+  Y50  1  0.49746413  0.25211529  0.25669454  1
  Y3+  Y51  1  0.50065193  0.24981022  0.75719136  1
  Y3+  Y52  1  0.49960879  0.49716797  0.25810038  1
  Y3+  Y53  1  0.49995530  0.49773349  0.75543776  1
  Y3+  Y54  1  0.50000745  0.75118636  0.25674852  1
  Y3+  Y55  1  0.49932027  0.75084235  0.75501892  1
  Y3+  Y56  1  0.75207373  0.00227750  0.25576910  1
  Y3+  Y57  1  0.75030853  0.00270707  0.75630685  1
  Y3+  Y58  1  0.75351411  0.24997030  0.25600660  1
  Y3+  Y59  1  0.74943948  0.24928527  0.75946915  1
  Y3+  Y60  1  0.74880777  0.49795340  0.25552321  1
  Y3+  Y61  1  0.75044136  0.49806941  0.75965168  1
  Y3+  Y62  1  0.74861896  0.75031590  0.25382113  1
  Y3+  Y63  1  0.75048536  0.74950408  0.75813062  1
  Fe3+  Fe64  1  0.87452196  0.87480880  0.37568684  1
  Fe3+  Fe65  1  0.62496987  0.87566850  0.87635125  1
  Fe3+  Fe66  1  0.12565459  0.12666880  0.87740427  1
  Fe3+  Fe67  1  0.62386880  0.62351057  0.87474917  1
  Fe3+  Fe68  1  0.12475518  0.87585198  0.37497776  1
  Fe3+  Fe69  1  0.62507903  0.37321568  0.38091969  1
  Fe3+  Fe70  1  0.37452124  0.12584601  0.87798257  1
  Fe3+  Fe71  1  0.62536956  0.87664405  0.37426219  1
  Fe3+  Fe72  1  0.87545139  0.12539399  0.87873528  1
  Fe3+  Fe73  1  0.37555533  0.12319221  0.37504792  1
  Fe3+  Fe74  1  0.37442061  0.62660547  0.37956434  1
  Fe3+  Fe75  1  0.37535998  0.87502944  0.88024851  1
  Fe3+  Fe76  1  0.37507958  0.37487534  0.87712705  1
  Fe3+  Fe77  1  0.87525146  0.62705032  0.38135406  1
  Fe3+  Fe78  1  0.12519050  0.62690034  0.37867029  1
  Fe3+  Fe79  1  0.62457891  0.12389417  0.37718518  1
  Fe3+  Fe80  1  0.37531766  0.62426346  0.88019515  1
  Fe3+  Fe81  1  0.87474358  0.87551737  0.87927618  1
  Fe3+  Fe82  1  0.87447281  0.37527061  0.38147310  1
  Fe3+  Fe83  1  0.62487650  0.62630633  0.37724323  1
  Fe3+  Fe84  1  0.62543186  0.37397773  0.63480948  1
  Fe3+  Fe85  1  0.12544284  0.12539065  0.63757660  1
  Fe3+  Fe86  1  0.12436048  0.37360157  0.63760498  1
  Fe3+  Fe87  1  0.87576497  0.37394254  0.63429139  1
  Fe3+  Fe88  1  0.37427071  0.62378112  0.13377955  1
  Fe3+  Fe89  1  0.87604195  0.62321003  0.13687688  1
  Fe3+  Fe90  1  0.87583264  0.62475233  0.63630660  1
  Fe3+  Fe91  1  0.12461807  0.62368844  0.13781224  1
  Fe3+  Fe92  1  0.87526563  0.87501142  0.13244214  1
  Fe3+  Fe93  1  0.62521712  0.12686616  0.13858394  1
  Fe3+  Fe94  1  0.37386517  0.62488468  0.63547569  1
  Fe3+  Fe95  1  0.37487721  0.87506613  0.13307102  1
  Cu2+  Cu96  1  0.87437350  0.12334655  0.37248944  1
  Cu2+  Cu97  1  0.12424101  0.37470360  0.36447663  1
  Cu2+  Cu98  1  0.12608503  0.62388989  0.86217314  1
  Cu2+  Cu99  1  0.87493000  0.37405949  0.87052628  1
  Cu2+  Cu100  1  0.37581481  0.37451362  0.37366958  1
  Cu2+  Cu101  1  0.12576308  0.37248258  0.87171238  1
  Cu2+  Cu102  1  0.87453256  0.62478999  0.86317212  1
  Cu2+  Cu103  1  0.62457426  0.12519509  0.86237098  1
  Cu2+  Cu104  1  0.12504469  0.87746811  0.87328146  1
  Cu2+  Cu105  1  0.37534645  0.87518695  0.37164348  1
  Cu2+  Cu106  1  0.12551157  0.12388841  0.36228342  1
  Cu2+  Cu107  1  0.62411811  0.37463458  0.87069796  1
  Cu2+  Cu108  1  0.62604887  0.37361051  0.14539732  1
  Cu2+  Cu109  1  0.37455222  0.37548102  0.15126009  1
  Cu2+  Cu110  1  0.37494865  0.12571408  0.14879709  1
  Cu2+  Cu111  1  0.87527736  0.12574840  0.14641646  1
  Cu2+  Cu112  1  0.12512047  0.12610064  0.15298803  1
  Cu2+  Cu113  1  0.12471227  0.87611567  0.65555587  1
  Cu2+  Cu114  1  0.87543022  0.87495133  0.65569622  1
  Cu2+  Cu115  1  0.12514563  0.62452400  0.65044057  1
  Cu2+  Cu116  1  0.37433834  0.87513653  0.64287944  1
  Cu2+  Cu117  1  0.12447704  0.87428251  0.13994557  1
  Cu2+  Cu118  1  0.87550240  0.37563651  0.14518202  1
  Cu2+  Cu119  1  0.62465163  0.62442418  0.65030228  1
  Cu2+  Cu120  1  0.62527624  0.87597253  0.65667275  1
  Cu2+  Cu121  1  0.37357264  0.12510653  0.65200432  1
  Cu2+  Cu122  1  0.12415271  0.37591647  0.14513169  1
  Cu2+  Cu123  1  0.62562145  0.87613105  0.14769448  1
  Cu2+  Cu124  1  0.62477245  0.62372908  0.15220414  1
  Cu2+  Cu125  1  0.37386025  0.37463345  0.64125936  1
  Cu2+  Cu126  1  0.87690030  0.12579824  0.64407038  1
  Cu2+  Cu127  1  0.62464452  0.12561047  0.65172881  1
  O2-  O128  1  0.12580347  0.12733031  -0.00201083  1
  O2-  O129  1  0.12571786  0.12391448  0.51716580  1
  O2-  O130  1  0.12482066  0.37402394  0.00859926  1
  O2-  O131  1  0.12398534  0.37366461  0.51713628  1
  O2-  O132  1  0.12391117  0.62271439  0.01746544  1
  O2-  O133  1  0.12516199  0.62939536  0.49851347  1
  O2-  O134  1  0.12444515  0.87503226  0.00644619  1
  O2-  O135  1  0.12409532  0.87570384  0.49530043  1
  O2-  O136  1  0.37436128  0.12630657  -0.00227041  1
  O2-  O137  1  0.37581037  0.12175926  0.49584500  1
  O2-  O138  1  0.37559221  0.37572684  -0.00262779  1
  O2-  O139  1  0.37531398  0.37538213  0.50693076  1
  O2-  O140  1  0.37552029  0.62356478  0.00667175  1
  O2-  O141  1  0.37419296  0.62738551  0.50677058  1
  O2-  O142  1  0.37583936  0.87425550  0.00607635  1
  O2-  O143  1  0.37524695  0.87483915  0.50686118  1
  O2-  O144  1  0.62533668  0.12781827  0.01772833  1
  O2-  O145  1  0.62365530  0.12118197  0.49749746  1
  O2-  O146  1  0.62512388  0.37470175  0.00692159  1
  O2-  O147  1  0.62548798  0.37383483  0.50702714  1
  O2-  O148  1  0.62393016  0.62322071  -0.00489864  1
  O2-  O149  1  0.62545731  0.62920069  0.49691516  1
  O2-  O150  1  0.62529517  0.87453449  -0.00367111  1
  O2-  O151  1  0.62599951  0.87639137  0.49453520  1
  O2-  O152  1  0.87550476  0.12504474  -0.00116404  1
  O2-  O153  1  0.87526281  0.12287704  0.50703127  1
  O2-  O154  1  0.87509008  0.37577011  0.00763451  1
  O2-  O155  1  0.87494928  0.37470372  0.50821568  1
  O2-  O156  1  0.87611817  0.62285610  0.01705872  1
  O2-  O157  1  0.87491095  0.62879948  0.50748720  1
  O2-  O158  1  0.87453977  0.87446331  0.00546350  1
  O2-  O159  1  0.87409933  0.87412662  0.49571871  1
  O2-  O160  1  0.12484287  0.00172208  0.16119527  1
  O2-  O161  1  0.12513702  0.00029496  0.66635177  1
  O2-  O162  1  0.12506938  0.24929965  0.16752943  1
  O2-  O163  1  0.12503127  0.25014204  0.66746829  1
  O2-  O164  1  0.12566752  0.50197689  0.17145341  1
  O2-  O165  1  0.12396339  0.49881156  0.66548656  1
  O2-  O166  1  0.12568122  0.74752502  0.16481651  1
  O2-  O167  1  0.12485851  0.75086840  0.66574479  1
  O2-  O168  1  0.37541867  -0.00180900  0.15868909  1
  O2-  O169  1  0.37498844  0.00126946  0.66720524  1
  O2-  O170  1  0.37454029  0.25110458  0.16575585  1
  O2-  O171  1  0.37441498  0.24877209  0.66305090  1
  O2-  O172  1  0.37565619  0.50171296  0.16704011  1
  O2-  O173  1  0.37526403  0.50279803  0.66326682  1
  O2-  O174  1  0.37590820  0.74945814  0.16112451  1
  O2-  O175  1  0.37461111  0.74713022  0.66673673  1
  O2-  O176  1  0.62516574  0.00133944  0.16211979  1
  O2-  O177  1  0.62473631  0.00079759  0.66560085  1
  O2-  O178  1  0.62510742  0.24843746  0.17139611  1
  O2-  O179  1  0.62584703  0.25149420  0.66234649  1
  O2-  O180  1  0.62444753  0.49998731  0.17019468  1
  O2-  O181  1  0.62463004  0.49769654  0.66022573  1
  O2-  O182  1  0.62476986  0.75015648  0.16010102  1
  O2-  O183  1  0.62538476  0.75024970  0.66471819  1
  O2-  O184  1  0.87492128  -0.00143498  0.15941634  1
  O2-  O185  1  0.87535519  -0.00126635  0.66637195  1
  O2-  O186  1  0.87566742  0.24928119  0.16752926  1
  O2-  O187  1  0.87430263  0.25321535  0.66396674  1
  O2-  O188  1  0.87471988  0.50200827  0.17376898  1
  O2-  O189  1  0.87507608  0.49973713  0.66016583  1
  O2-  O190  1  0.87414459  0.75020186  0.16280798  1
  O2-  O191  1  0.87463454  0.74855985  0.66555863  1
  O2-  O192  1  0.00020945  0.12572856  0.16532921  1
  O2-  O193  1  0.00207536  0.12472559  0.66747881  1
  O2-  O194  1  -0.00015620  0.37511276  0.16941656  1
  O2-  O195  1  -0.00134099  0.37556466  0.66667361  1
  O2-  O196  1  0.00005425  0.62502761  0.17164883  1
  O2-  O197  1  -0.00175637  0.62549092  0.66403345  1
  O2-  O198  1  -0.00337026  0.87446914  0.16272238  1
  O2-  O199  1  0.00009892  0.87430325  0.66661231  1
  O2-  O200  1  0.25035105  0.12500786  0.16420644  1
  O2-  O201  1  0.24960586  0.12423723  0.66554137  1
  O2-  O202  1  0.25082011  0.37580449  0.16606688  1
  O2-  O203  1  0.24781525  0.37609604  0.66626913  1
  O2-  O204  1  0.25188894  0.62493707  0.16515630  1
  O2-  O205  1  0.25096896  0.62534073  0.66558355  1
  O2-  O206  1  0.25318557  0.87453371  0.16260894  1
  O2-  O207  1  0.24836329  0.87447711  0.66736195  1
  O2-  O208  1  0.49980080  0.12561985  0.16374900  1
  O2-  O209  1  0.49868422  0.12533726  0.66401866  1
  O2-  O210  1  0.49897271  0.37531286  0.16507755  1
  O2-  O211  1  0.50254364  0.37440267  0.66155681  1
  O2-  O212  1  0.49842647  0.62460769  0.16212108  1
  O2-  O213  1  0.49856842  0.62558011  0.66149674  1
  O2-  O214  1  0.49835117  0.87443620  0.16113141  1
  O2-  O215  1  0.50150828  0.87455510  0.66568768  1
  O2-  O216  1  0.75010580  0.12539051  0.16571793  1
  O2-  O217  1  0.74981666  0.12481329  0.66495662  1
  O2-  O218  1  0.75070244  0.37521616  0.16785943  1
  O2-  O219  1  0.75040088  0.37619295  0.66227049  1
  O2-  O220  1  0.74992512  0.62460810  0.16598973  1
  O2-  O221  1  0.75168515  0.62455187  0.66208639  1
  O2-  O222  1  0.75207006  0.87441326  0.15998294  1
  O2-  O223  1  0.74987631  0.87506354  0.66538435  1
  O2-  O224  1  0.12469949  -0.00097016  0.34386363  1
  O2-  O225  1  0.12548321  0.00309086  0.84730265  1
  O2-  O226  1  0.12447615  0.24975182  0.35207539  1
  O2-  O227  1  0.12518616  0.24794088  0.84472877  1
  O2-  O228  1  0.12526924  0.50128886  0.35249747  1
  O2-  O229  1  0.12574315  0.49996807  0.84875631  1
  O2-  O230  1  0.12477057  0.75011447  0.34266711  1
  O2-  O231  1  0.12522583  0.74903776  0.85064348  1
  O2-  O232  1  0.37492905  0.00130925  0.34137376  1
  O2-  O233  1  0.37566281  -0.00103826  0.85037344  1
  O2-  O234  1  0.37499623  0.24788374  0.34902004  1
  O2-  O235  1  0.37621160  0.25001881  0.84481910  1
  O2-  O236  1  0.37509470  0.50325262  0.35228941  1
  O2-  O237  1  0.37470549  0.50151479  0.84655787  1
  O2-  O238  1  0.37565935  0.74714927  0.34512690  1
  O2-  O239  1  0.37557773  0.74957348  0.85193844  1
  O2-  O240  1  0.62522463  0.00012031  0.34121369  1
  O2-  O241  1  0.62487146  -0.00077096  0.84892866  1
  O2-  O242  1  0.62582210  0.25079216  0.35238024  1
  O2-  O243  1  0.62439458  0.24862839  0.84616593  1
  O2-  O244  1  0.62539720  0.49917941  0.35338526  1
  O2-  O245  1  0.62461444  0.50157772  0.84261398  1
  O2-  O246  1  0.62526782  0.74997011  0.34203397  1
  O2-  O247  1  0.62427241  0.74999913  0.84641114  1
  O2-  O248  1  0.87511169  -0.00258160  0.34255834  1
  O2-  O249  1  0.87414680  -0.00063061  0.84918023  1
  O2-  O250  1  0.87482756  0.25326791  0.35219340  1
  O2-  O251  1  0.87408565  0.24769188  0.84595717  1
  O2-  O252  1  0.87444637  0.50087461  0.35747360  1
  O2-  O253  1  0.87475837  0.50107161  0.84532302  1
  O2-  O254  1  0.87465907  0.74875131  0.34356329  1
  O2-  O255  1  0.87481278  0.75124214  0.85103190  1
  O2-  O256  1  0.00140615  0.12444289  0.34975430  1
  O2-  O257  1  -0.00034834  0.12465603  0.84692258  1
  O2-  O258  1  -0.00200718  0.37625326  0.35311410  1
  O2-  O259  1  0.00003017  0.37527177  0.84860614  1
  O2-  O260  1  -0.00135776  0.62489281  0.35177412  1
  O2-  O261  1  0.00068095  0.62460371  0.84930770  1
  O2-  O262  1  -0.00021227  0.87435439  0.34371253  1
  O2-  O263  1  -0.00314955  0.87459993  0.85047075  1
  O2-  O264  1  0.25015213  0.12456692  0.34778359  1
  O2-  O265  1  0.25100761  0.12505853  0.84520495  1
  O2-  O266  1  0.24843611  0.37506473  0.35028185  1
  O2-  O267  1  0.25235315  0.37549235  0.84670423  1
  O2-  O268  1  0.25055653  0.62577031  0.34802711  1
  O2-  O269  1  0.25240761  0.62554450  0.85084459  1
  O2-  O270  1  0.24807429  0.87441904  0.34530339  1
  O2-  O271  1  0.25366882  0.87412533  0.85049338  1
  O2-  O272  1  0.50070897  0.12492060  0.34327432  1
  O2-  O273  1  0.49935291  0.12452118  0.84789227  1
  O2-  O274  1  0.50370566  0.37561429  0.34867982  1
  O2-  O275  1  0.49766014  0.37584291  0.84395452  1
  O2-  O276  1  0.49963876  0.62499819  0.34670995  1
  O2-  O277  1  0.49810293  0.62486670  0.84463215  1
  O2-  O278  1  0.50234007  0.87439338  0.34357317  1
  O2-  O279  1  0.49872093  0.87459584  0.84785470  1
  O2-  O280  1  0.74795876  0.12494318  0.34661216  1
  O2-  O281  1  0.75002326  0.12478146  0.84879365  1
  O2-  O282  1  0.74993691  0.37615429  0.35148796  1
  O2-  O283  1  0.74981780  0.37498028  0.84690075  1
  O2-  O284  1  0.75115945  0.62471187  0.34862949  1
  O2-  O285  1  0.74861871  0.62511015  0.84553239  1
  O2-  O286  1  0.74989590  0.87424958  0.34126380  1
  O2-  O287  1  0.75089965  0.87426414  0.84838491  1
