# generated using pymatgen
data_BaYFeCuO5
_symmetry_space_group_name_H-M   'P 1'
_cell_length_a   15.66283018
_cell_length_b   15.66566882
_cell_length_c   15.46983573
_cell_angle_alpha   89.99799750
_cell_angle_beta   90.00218696
_cell_angle_gamma   89.99858264
_symmetry_Int_Tables_number   1
_chemical_formula_structural   BaYFeCuO5
_chemical_formula_sum   'Ba32 Y32 Fe32 Cu32 O160'
_cell_volume   3795.81363789
_cell_formula_units_Z   32
loop_
 _symmetry_equiv_pos_site_id
 _symmetry_equiv_pos_as_xyz
  1  'x, y, z'
loop_
 _atom_type_symbol
 _atom_type_oxidation_number
  Ba2+  2.0
  Y3+  3.0
  Fe3+  3.0
  Cu2+  2.0
  O2-  -2.0
loop_
 _atom_site_type_symbol
 _atom_site_label
 _atom_site_symmetry_multiplicity
 _atom_site_fract_x
 _atom_site_fract_y
 _atom_site_fract_z
 _atom_site_occupancy
  Ba2+  Ba0  1  -0.00450211  0.00440954  0.00118449  1
  Ba2+  Ba1  1  -0.00224714  -0.00774033  0.51638856  1
  Ba2+  Ba2  1  -0.00912019  0.25391677  0.00213909  1
  Ba2+  Ba3  1  -0.00633833  0.25825426  0.51534187  1
  Ba2+  Ba4  1  -0.00358966  0.50519137  0.00670509  1
  Ba2+  Ba5  1  -0.00149482  0.49987554  0.52339293  1
  Ba2+  Ba6  1  0.00083292  0.73885434  0.00654374  1
  Ba2+  Ba7  1  0.00136002  0.74932250  0.52299514  1
  Ba2+  Ba8  1  0.25568754  0.00498233  0.01298899  1
  Ba2+  Ba9  1  0.25028597  -0.00830435  0.50722167  1
  Ba2+  Ba10  1  0.26031975  0.25386565  0.01190684  1
  Ba2+  Ba11  1  0.25609020  0.25793619  0.50594422  1
  Ba2+  Ba12  1  0.25430951  0.50501304  0.00720212  1
  Ba2+  Ba13  1  0.25153539  0.49919674  0.51249508  1
  Ba2+  Ba14  1  0.25015343  0.73831000  0.00714003  1
  Ba2+  Ba15  1  0.24634850  0.74994611  0.51264960  1
  Ba2+  Ba16  1  0.50458720  0.00494249  0.02397066  1
  Ba2+  Ba17  1  0.50084287  0.00017982  0.50494616  1
  Ba2+  Ba18  1  0.49601918  0.24792151  0.01907481  1
  Ba2+  Ba19  1  0.49926168  0.25405643  0.51120497  1
  Ba2+  Ba20  1  0.48885244  0.49862321  0.00716044  1
  Ba2+  Ba21  1  0.49834535  0.49799224  0.51223751  1
  Ba2+  Ba22  1  0.49744719  0.74766973  0.01171022  1
  Ba2+  Ba23  1  0.50013594  0.74794673  0.50545097  1
  Ba2+  Ba24  1  0.74378932  0.00477520  0.01260623  1
  Ba2+  Ba25  1  0.75067196  0.00013605  0.51637150  1
  Ba2+  Ba26  1  0.75428383  0.24866202  0.00534062  1
  Ba2+  Ba27  1  0.75106554  0.25358630  0.52074509  1
  Ba2+  Ba28  1  0.76049881  0.49882720  0.00665583  1
  Ba2+  Ba29  1  0.75167631  0.49895192  0.52265769  1
  Ba2+  Ba30  1  0.75160429  0.74789278  0.01086737  1
  Ba2+  Ba31  1  0.75158330  0.74739873  0.51833162  1
  Y3+  Y32  1  0.00166052  -0.00139801  0.25936992  1
  Y3+  Y33  1  -0.00077019  0.00005609  0.75488668  1
  Y3+  Y34  1  -0.00166227  0.25345195  0.25783527  1
  Y3+  Y35  1  -0.00332158  0.25238660  0.75712422  1
  Y3+  Y36  1  -0.00178805  0.50025362  0.25252034  1
  Y3+  Y37  1  -0.00096702  0.50063223  0.76148368  1
  Y3+  Y38  1  0.00140017  0.74708069  0.25455487  1
  Y3+  Y39  1  0.00125880  0.74697472  0.75944509  1
  Y3+  Y40  1  0.24985180  0.00000599  0.26096187  1
  Y3+  Y41  1  0.24911499  -0.00223425  0.75458268  1
  Y3+  Y42  1  0.25358934  0.25163075  0.25915892  1
  Y3+  Y43  1  0.25164834  0.25416405  0.75586475  1
  Y3+  Y44  1  0.25237572  0.50078458  0.25516231  1
  Y3+  Y45  1  0.25066945  0.50001075  0.76067647  1
  Y3+  Y46  1  0.24904342  0.74661005  0.25668614  1
  Y3+  Y47  1  0.24837955  0.74802385  0.75883109  1
  Y3+  Y48  1  0.50124479  0.00066480  0.25987142  1
  Y3+  Y49  1  0.50041269  0.00028827  0.75283052  1
  Y3+  Y50  1  0.49685828  0.25076510  0.25970276  1
  Y3+  Y51  1  0.49981228  0.25299880  0.75414976  1
  Y3+  Y52  1  0.49570822  0.49938707  0.25680233  1
  Y3+  Y53  1  0.49775984  0.49853912  0.75843765  1
  Y3+  Y54  1  0.50041632  0.74913342  0.25641642  1
  Y3+  Y55  1  0.49852995  0.74848521  0.75817749  1
  Y3+  Y56  1  0.74755225  -0.00126564  0.25747883  1
  Y3+  Y57  1  0.75103749  0.00263288  0.75546285  1
  Y3+  Y58  1  0.75164989  0.25260184  0.25661181  1
  Y3+  Y59  1  0.75160347  0.25112161  0.75654199  1
  Y3+  Y60  1  0.75398935  0.49872895  0.25381444  1
  Y3+  Y61  1  0.75215930  0.49903626  0.75959473  1
  Y3+  Y62  1  0.74946866  0.74934992  0.25481795  1
  Y3+  Y63  1  0.75137820  0.74766438  0.75877372  1
  Fe3+  Fe64  1  0.87543128  0.62389594  0.37654920  1
  Fe3+  Fe65  1  0.37575437  0.87619528  0.88009300  1
  Fe3+  Fe66  1  0.62400835  0.37428272  0.87963947  1
  Fe3+  Fe67  1  0.62369488  0.12555469  0.87445173  1
  Fe3+  Fe68  1  0.12404228  0.37711957  0.37656089  1
  Fe3+  Fe69  1  0.12416211  0.62388360  0.37676332  1
  Fe3+  Fe70  1  0.37626652  0.12487673  0.87517185  1
  Fe3+  Fe71  1  0.12581292  0.12617079  0.87924747  1
  Fe3+  Fe72  1  0.12571511  0.37486364  0.87968595  1
  Fe3+  Fe73  1  0.62634700  0.12629501  0.37737922  1
  Fe3+  Fe74  1  0.87500657  0.87281578  0.37565411  1
  Fe3+  Fe75  1  0.62411178  0.87615615  0.87821678  1
  Fe3+  Fe76  1  0.87506595  0.12553170  0.37868941  1
  Fe3+  Fe77  1  0.62615825  0.62362743  0.37547931  1
  Fe3+  Fe78  1  0.87418271  0.87551115  0.87908519  1
  Fe3+  Fe79  1  0.12442659  0.12594514  0.38080096  1
  Fe3+  Fe80  1  0.37483051  0.87304139  0.37542498  1
  Fe3+  Fe81  1  0.62630907  0.37656302  0.37575146  1
  Fe3+  Fe82  1  0.12549598  0.87552699  0.88065175  1
  Fe3+  Fe83  1  0.62430995  0.62422511  0.87973321  1
  Fe3+  Fe84  1  0.37474275  0.87466241  0.13563184  1
  Fe3+  Fe85  1  0.12524914  0.87516349  0.13296961  1
  Fe3+  Fe86  1  0.37443333  0.12471271  0.63496170  1
  Fe3+  Fe87  1  0.87518736  0.12459984  0.13827421  1
  Fe3+  Fe88  1  0.37483423  0.62538787  0.63961115  1
  Fe3+  Fe89  1  0.12524036  0.37511687  0.13351989  1
  Fe3+  Fe90  1  0.62481895  0.62319684  0.13363700  1
  Fe3+  Fe91  1  0.62501307  0.37463441  0.13338324  1
  Fe3+  Fe92  1  0.87531196  0.87546578  0.13331436  1
  Fe3+  Fe93  1  0.12509277  0.12676811  0.63486488  1
  Fe3+  Fe94  1  0.62455540  0.87381315  0.63748073  1
  Fe3+  Fe95  1  0.12481226  0.12627466  0.13476680  1
  Cu2+  Cu96  1  0.37568046  0.37381804  0.87223660  1
  Cu2+  Cu97  1  0.37485059  0.62495815  0.36365566  1
  Cu2+  Cu98  1  0.62608143  0.87368839  0.36399534  1
  Cu2+  Cu99  1  0.87478416  0.37670951  0.37234514  1
  Cu2+  Cu100  1  0.12547632  0.62412495  0.87222326  1
  Cu2+  Cu101  1  0.37525117  0.37652287  0.37192449  1
  Cu2+  Cu102  1  0.12374960  0.87267617  0.37217952  1
  Cu2+  Cu103  1  0.87454694  0.12431520  0.86175604  1
  Cu2+  Cu104  1  0.87442879  0.37497460  0.87188953  1
  Cu2+  Cu105  1  0.87427290  0.62574644  0.87188093  1
  Cu2+  Cu106  1  0.37557170  0.62542299  0.87201406  1
  Cu2+  Cu107  1  0.37485113  0.12469446  0.36774118  1
  Cu2+  Cu108  1  0.37478276  0.37624207  0.64326501  1
  Cu2+  Cu109  1  0.62449891  0.62460610  0.65490481  1
  Cu2+  Cu110  1  0.62486144  0.87463194  0.14867111  1
  Cu2+  Cu111  1  0.62478172  0.37604166  0.65280933  1
  Cu2+  Cu112  1  0.37529844  0.62529879  0.14316740  1
  Cu2+  Cu113  1  0.87554490  0.37420071  0.14034731  1
  Cu2+  Cu114  1  0.87490219  0.37620855  0.64613384  1
  Cu2+  Cu115  1  0.12497244  0.87426854  0.64369013  1
  Cu2+  Cu116  1  0.37495607  0.87396306  0.65165301  1
  Cu2+  Cu117  1  0.87476434  0.62556971  0.14042634  1
  Cu2+  Cu118  1  0.62560145  0.12673544  0.15453112  1
  Cu2+  Cu119  1  0.12510195  0.37553005  0.65317139  1
  Cu2+  Cu120  1  0.12545977  0.62366173  0.65444326  1
  Cu2+  Cu121  1  0.87442227  0.87393014  0.65638302  1
  Cu2+  Cu122  1  0.87516772  0.62478124  0.65506798  1
  Cu2+  Cu123  1  0.87553807  0.12544600  0.64875992  1
  Cu2+  Cu124  1  0.12535025  0.62394672  0.14096239  1
  Cu2+  Cu125  1  0.37476759  0.37527968  0.14310005  1
  Cu2+  Cu126  1  0.62477330  0.12570604  0.64692458  1
  Cu2+  Cu127  1  0.37454293  0.12409829  0.15584996  1
  O2-  O128  1  0.12561152  0.12522101  0.00705725  1
  O2-  O129  1  0.12429350  0.12580157  0.50755416  1
  O2-  O130  1  0.12590753  0.37266031  0.00652469  1
  O2-  O131  1  0.12356782  0.37713211  0.49694426  1
  O2-  O132  1  0.12562236  0.62420953  0.00631528  1
  O2-  O133  1  0.12312196  0.62430701  0.49709991  1
  O2-  O134  1  0.12634604  0.87778022  0.00668006  1
  O2-  O135  1  0.12326972  0.87379640  0.50716184  1
  O2-  O136  1  0.37739713  0.12371026  -0.00428917  1
  O2-  O137  1  0.37302905  0.12381007  0.51467464  1
  O2-  O138  1  0.37576309  0.37285620  0.00783626  1
  O2-  O139  1  0.37555764  0.37681383  0.50754148  1
  O2-  O140  1  0.37648087  0.62616606  0.00742640  1
  O2-  O141  1  0.37497290  0.62599861  0.51883609  1
  O2-  O142  1  0.37576323  0.87744121  0.00712834  1
  O2-  O143  1  0.37526933  0.87274838  0.49657499  1
  O2-  O144  1  0.62255638  0.12499482  -0.00524469  1
  O2-  O145  1  0.62746236  0.12593711  0.49765880  1
  O2-  O146  1  0.62389947  0.37257027  0.00601945  1
  O2-  O147  1  0.62654072  0.37685063  0.49636575  1
  O2-  O148  1  0.62421321  0.62455862  0.00626201  1
  O2-  O149  1  0.62712716  0.62406603  0.49559327  1
  O2-  O150  1  0.62291670  0.87858042  -0.00211453  1
  O2-  O151  1  0.62603440  0.87284394  0.51669263  1
  O2-  O152  1  0.87501828  0.12360694  0.01728710  1
  O2-  O153  1  0.87517092  0.12469862  0.49903514  1
  O2-  O154  1  0.87453962  0.37289680  0.00616696  1
  O2-  O155  1  0.87442307  0.37717475  0.50776109  1
  O2-  O156  1  0.87347452  0.62675233  0.00583253  1
  O2-  O157  1  0.87524156  0.62530271  0.49675612  1
  O2-  O158  1  0.87427220  0.87739589  0.00612114  1
  O2-  O159  1  0.87464688  0.87225715  0.49598263  1
  O2-  O160  1  0.12563905  0.00025743  0.16403829  1
  O2-  O161  1  0.12466802  0.00325533  0.66478329  1
  O2-  O162  1  0.12508247  0.24934806  0.16334184  1
  O2-  O163  1  0.12454731  0.24914775  0.66457630  1
  O2-  O164  1  0.12508443  0.49684704  0.15996128  1
  O2-  O165  1  0.12502636  0.49943512  0.66789930  1
  O2-  O166  1  0.12540162  0.75330601  0.16010922  1
  O2-  O167  1  0.12480781  0.74813079  0.66827264  1
  O2-  O168  1  0.37449166  -0.00160593  0.16375289  1
  O2-  O169  1  0.37371463  -0.00008983  0.66503682  1
  O2-  O170  1  0.37452756  0.24794918  0.16620254  1
  O2-  O171  1  0.37462810  0.24891420  0.66407662  1
  O2-  O172  1  0.37505622  0.50046873  0.16430443  1
  O2-  O173  1  0.37470908  0.50190818  0.66897516  1
  O2-  O174  1  0.37485862  0.75305278  0.16184944  1
  O2-  O175  1  0.37460340  0.74935273  0.67023199  1
  O2-  O176  1  0.62479064  0.00115935  0.16513250  1
  O2-  O177  1  0.62575553  -0.00070697  0.66356486  1
  O2-  O178  1  0.62516321  0.25161986  0.16229078  1
  O2-  O179  1  0.62467645  0.25075381  0.66369471  1
  O2-  O180  1  0.62521408  0.49894534  0.15781678  1
  O2-  O181  1  0.62516438  0.50062033  0.66898083  1
  O2-  O182  1  0.62496880  0.74811834  0.15985738  1
  O2-  O183  1  0.62524790  0.74996940  0.66973740  1
  O2-  O184  1  0.87563778  -0.00137055  0.16571766  1
  O2-  O185  1  0.87526315  -0.00049093  0.66440383  1
  O2-  O186  1  0.87587948  0.24736427  0.16691275  1
  O2-  O187  1  0.87519553  0.25020044  0.66568599  1
  O2-  O188  1  0.87524221  0.49983816  0.16084500  1
  O2-  O189  1  0.87482436  0.50151217  0.66864397  1
  O2-  O190  1  0.87520651  0.75408456  0.16025527  1
  O2-  O191  1  0.87503882  0.74901211  0.66788325  1
  O2-  O192  1  0.00169393  0.12361938  0.16451298  1
  O2-  O193  1  0.00186726  0.12516819  0.66615437  1
  O2-  O194  1  0.00257705  0.37332957  0.16170901  1
  O2-  O195  1  0.00069702  0.37524132  0.66807655  1
  O2-  O196  1  -0.00010055  0.62556229  0.16161700  1
  O2-  O197  1  0.00057704  0.62485149  0.66661145  1
  O2-  O198  1  0.00082892  0.87686492  0.15880003  1
  O2-  O199  1  -0.00174681  0.87495629  0.66978323  1
  O2-  O200  1  0.24754894  0.12420375  0.16397495  1
  O2-  O201  1  0.24864393  0.12527689  0.66726438  1
  O2-  O202  1  0.24762913  0.37341597  0.16434721  1
  O2-  O203  1  0.24903588  0.37516339  0.66737123  1
  O2-  O204  1  0.25003017  0.62530735  0.16558657  1
  O2-  O205  1  0.25012328  0.62524653  0.66747930  1
  O2-  O206  1  0.24960173  0.87674114  0.16159174  1
  O2-  O207  1  0.25095506  0.87478463  0.66813144  1
  O2-  O208  1  0.50029848  0.12480116  0.16574836  1
  O2-  O209  1  0.49899027  0.12426851  0.66167714  1
  O2-  O210  1  0.50234901  0.37425093  0.16401245  1
  O2-  O211  1  0.50110349  0.37607523  0.66507477  1
  O2-  O212  1  0.50327021  0.62511269  0.16422127  1
  O2-  O213  1  0.49944434  0.62534900  0.66750487  1
  O2-  O214  1  0.49838917  0.87552799  0.16320264  1
  O2-  O215  1  0.50061216  0.87452142  0.66607899  1
  O2-  O216  1  0.75075894  0.12413568  0.16366323  1
  O2-  O217  1  0.75022811  0.12540820  0.66456332  1
  O2-  O218  1  0.74808931  0.37425761  0.16048848  1
  O2-  O219  1  0.74877067  0.37554850  0.66779397  1
  O2-  O220  1  0.74714986  0.62507885  0.16073255  1
  O2-  O221  1  0.74965039  0.62532330  0.66644163  1
  O2-  O222  1  0.75140554  0.87610171  0.15944898  1
  O2-  O223  1  0.74938684  0.87429652  0.66811389  1
  O2-  O224  1  0.12470028  0.00306177  0.34932775  1
  O2-  O225  1  0.12440217  0.00046264  0.85001183  1
  O2-  O226  1  0.12492383  0.24932824  0.34775013  1
  O2-  O227  1  0.12543750  0.24935043  0.84980240  1
  O2-  O228  1  0.12555214  0.50067369  0.34127522  1
  O2-  O229  1  0.12518556  0.49674383  0.85208376  1
  O2-  O230  1  0.12498689  0.74642229  0.34231995  1
  O2-  O231  1  0.12541662  0.75386112  0.85218765  1
  O2-  O232  1  0.37484456  -0.00142285  0.34744727  1
  O2-  O233  1  0.37449035  -0.00087107  0.84629075  1
  O2-  O234  1  0.37475227  0.24939249  0.35016545  1
  O2-  O235  1  0.37432832  0.24742282  0.84555662  1
  O2-  O236  1  0.37490166  0.50156898  0.34732330  1
  O2-  O237  1  0.37557219  0.49956334  0.85163609  1
  O2-  O238  1  0.37546543  0.75005766  0.34415812  1
  O2-  O239  1  0.37474191  0.75422120  0.85295483  1
  O2-  O240  1  0.62550543  0.00033084  0.34929382  1
  O2-  O241  1  0.62475001  0.00028723  0.84362620  1
  O2-  O242  1  0.62509798  0.25062107  0.34437256  1
  O2-  O243  1  0.62486665  0.25047393  0.84698444  1
  O2-  O244  1  0.62488272  0.50032271  0.33973043  1
  O2-  O245  1  0.62430585  0.49946330  0.85418151  1
  O2-  O246  1  0.62515299  0.74835618  0.34362693  1
  O2-  O247  1  0.62453346  0.75007642  0.85227284  1
  O2-  O248  1  0.87560487  0.00005821  0.34653171  1
  O2-  O249  1  0.87576879  -0.00197609  0.84867108  1
  O2-  O250  1  0.87557249  0.24878966  0.34808685  1
  O2-  O251  1  0.87469586  0.24827566  0.84929972  1
  O2-  O252  1  0.87510513  0.50187868  0.34268251  1
  O2-  O253  1  0.87458367  0.50013364  0.85147751  1
  O2-  O254  1  0.87486329  0.74852929  0.34110559  1
  O2-  O255  1  0.87485508  0.75402231  0.85135306  1
  O2-  O256  1  0.00080054  0.12510385  0.34655952  1
  O2-  O257  1  0.00194992  0.12471559  0.85238163  1
  O2-  O258  1  0.00170795  0.37512387  0.34379136  1
  O2-  O259  1  0.00242461  0.37330429  0.85184583  1
  O2-  O260  1  -0.00034221  0.62450489  0.34232950  1
  O2-  O261  1  0.00008102  0.62560829  0.85059953  1
  O2-  O262  1  -0.00234097  0.87447565  0.34144988  1
  O2-  O263  1  0.00046669  0.87660902  0.85520707  1
  O2-  O264  1  0.24786122  0.12500895  0.34967153  1
  O2-  O265  1  0.24891671  0.12366902  0.85012106  1
  O2-  O266  1  0.24848073  0.37462557  0.34759760  1
  O2-  O267  1  0.24819551  0.37368350  0.85094813  1
  O2-  O268  1  0.25015538  0.62493878  0.34878407  1
  O2-  O269  1  0.25059460  0.62540242  0.85015828  1
  O2-  O270  1  0.25107845  0.87490010  0.34553732  1
  O2-  O271  1  0.24982530  0.87731697  0.85271073  1
  O2-  O272  1  0.50123427  0.12440912  0.34977035  1
  O2-  O273  1  0.49986510  0.12450783  0.84121143  1
  O2-  O274  1  0.50150801  0.37556657  0.34714640  1
  O2-  O275  1  0.50244877  0.37413398  0.84834162  1
  O2-  O276  1  0.49999845  0.62537126  0.34775037  1
  O2-  O277  1  0.50283581  0.62570272  0.84988306  1
  O2-  O278  1  0.49988015  0.87439983  0.34738478  1
  O2-  O279  1  0.49908783  0.87575148  0.84756797  1
  O2-  O280  1  0.75066306  0.12472017  0.34406695  1
  O2-  O281  1  0.74897473  0.12438007  0.84834408  1
  O2-  O282  1  0.74871591  0.37557193  0.34239082  1
  O2-  O283  1  0.74670670  0.37446669  0.85144419  1
  O2-  O284  1  0.75068602  0.62507270  0.34150557  1
  O2-  O285  1  0.74624795  0.62550147  0.85057834  1
  O2-  O286  1  0.75137465  0.87419373  0.34279831  1
  O2-  O287  1  0.75016836  0.87590872  0.85093137  1
