# generated using pymatgen
data_BaYFeCuO5
_symmetry_space_group_name_H-M   'P 1'
_cell_length_a   15.67645361
_cell_length_b   15.67619383
_cell_length_c   15.50074521
_cell_angle_alpha   90.00450547
_cell_angle_beta   90.00456039
_cell_angle_gamma   89.99624933
_symmetry_Int_Tables_number   1
_chemical_formula_structural   BaYFeCuO5
_chemical_formula_sum   'Ba32 Y32 Fe32 Cu32 O160'
_cell_volume   3809.26354354
_cell_formula_units_Z   32
loop_
 _symmetry_equiv_pos_site_id
 _symmetry_equiv_pos_as_xyz
  1  'x, y, z'
loop_
 _atom_type_symbol
 _atom_type_oxidation_number
  Ba2+  2.0
  Y3+  3.0
  Fe3+  3.0
  Cu2+  2.0
  O2-  -2.0
loop_
 _atom_site_type_symbol
 _atom_site_label
 _atom_site_symmetry_multiplicity
 _atom_site_fract_x
 _atom_site_fract_y
 _atom_site_fract_z
 _atom_site_occupancy
  Ba2+  Ba0  1  -0.00106819  0.00004187  0.02396075  1
  Ba2+  Ba1  1  0.01099974  0.00084517  0.50195113  1
  Ba2+  Ba2  1  0.00423659  0.24455481  0.01122573  1
  Ba2+  Ba3  1  0.01114545  0.24881559  0.51185891  1
  Ba2+  Ba4  1  0.00838454  0.50466618  0.00936669  1
  Ba2+  Ba5  1  0.00432259  0.50402770  0.52365324  1
  Ba2+  Ba6  1  0.00216063  0.75005604  0.02172599  1
  Ba2+  Ba7  1  0.00367902  0.74471711  0.51193465  1
  Ba2+  Ba8  1  0.24870022  -0.00140402  0.02674997  1
  Ba2+  Ba9  1  0.25026686  0.00126439  0.50119529  1
  Ba2+  Ba10  1  0.24257363  0.24756110  0.01613732  1
  Ba2+  Ba11  1  0.24668142  0.24318628  0.51700111  1
  Ba2+  Ba12  1  0.24431798  0.50742033  0.00662448  1
  Ba2+  Ba13  1  0.24695930  0.50421526  0.51520581  1
  Ba2+  Ba14  1  0.24987071  0.74731708  0.01575485  1
  Ba2+  Ba15  1  0.25249030  0.75107042  0.49341938  1
  Ba2+  Ba16  1  0.49812521  -0.00751978  0.01630199  1
  Ba2+  Ba17  1  0.50023405  -0.00320834  0.51284285  1
  Ba2+  Ba18  1  0.49918357  0.24908484  0.00602676  1
  Ba2+  Ba19  1  0.50245124  0.24535265  0.52472044  1
  Ba2+  Ba20  1  0.49952569  0.50897563  0.00713286  1
  Ba2+  Ba21  1  0.50210230  0.50529881  0.50003721  1
  Ba2+  Ba22  1  0.49915730  0.75089517  0.01660005  1
  Ba2+  Ba23  1  0.50058414  0.75225804  0.49076610  1
  Ba2+  Ba24  1  0.75500085  -0.00593738  0.01182263  1
  Ba2+  Ba25  1  0.73903370  -0.00320493  0.51193155  1
  Ba2+  Ba26  1  0.75490027  0.24515973  0.00145080  1
  Ba2+  Ba27  1  0.74049924  0.25085988  0.51984938  1
  Ba2+  Ba28  1  0.74783745  0.50660387  0.01180018  1
  Ba2+  Ba29  1  0.74533850  0.50498629  0.51294288  1
  Ba2+  Ba30  1  0.74916271  0.75309755  0.02184786  1
  Ba2+  Ba31  1  0.74251649  0.74818069  0.50583358  1
  Y3+  Y32  1  0.00121106  0.00127521  0.25934024  1
  Y3+  Y33  1  -0.00039862  0.00149862  0.75461891  1
  Y3+  Y34  1  0.00171791  0.24886737  0.25536272  1
  Y3+  Y35  1  0.00208029  0.24962470  0.75894809  1
  Y3+  Y36  1  0.00149603  0.50049736  0.25163072  1
  Y3+  Y37  1  0.00359426  0.50066209  0.76049291  1
  Y3+  Y38  1  0.00092473  0.75035469  0.25642914  1
  Y3+  Y39  1  0.00133520  0.74791871  0.75653738  1
  Y3+  Y40  1  0.24924952  -0.00076915  0.26059619  1
  Y3+  Y41  1  0.24979446  0.00143754  0.75240975  1
  Y3+  Y42  1  0.24779274  0.24885846  0.25579873  1
  Y3+  Y43  1  0.24728910  0.24989214  0.75708056  1
  Y3+  Y44  1  0.24954827  0.50159197  0.25222203  1
  Y3+  Y45  1  0.24762512  0.50153918  0.76334549  1
  Y3+  Y46  1  0.25144919  0.75003491  0.25446588  1
  Y3+  Y47  1  0.25000754  0.74734608  0.76163747  1
  Y3+  Y48  1  0.49946813  -0.00453692  0.25708602  1
  Y3+  Y49  1  0.50194693  -0.00219262  0.75731000  1
  Y3+  Y50  1  0.49813922  0.24974571  0.25335224  1
  Y3+  Y51  1  0.50115360  0.24992883  0.75988517  1
  Y3+  Y52  1  0.49889892  0.50402707  0.25507794  1
  Y3+  Y53  1  0.49929245  0.50009993  0.76179482  1
  Y3+  Y54  1  0.49991503  0.75057627  0.25524635  1
  Y3+  Y55  1  0.50005481  0.75219861  0.76208112  1
  Y3+  Y56  1  0.74991478  -0.00203431  0.25594731  1
  Y3+  Y57  1  0.74826832  -0.00195500  0.75821684  1
  Y3+  Y58  1  0.75263393  0.24908349  0.25427017  1
  Y3+  Y59  1  0.75010221  0.24948474  0.76057032  1
  Y3+  Y60  1  0.74986175  0.50241612  0.25639069  1
  Y3+  Y61  1  0.74916390  0.49990213  0.75803002  1
  Y3+  Y62  1  0.74741953  0.75085892  0.25783134  1
  Y3+  Y63  1  0.74828099  0.75231373  0.75609177  1
  Fe3+  Fe64  1  0.87669338  0.87481924  0.87546916  1
  Fe3+  Fe65  1  0.37340055  0.12314709  0.87782980  1
  Fe3+  Fe66  1  0.62429049  0.12576178  0.37369087  1
  Fe3+  Fe67  1  0.87561328  0.62362610  0.37662156  1
  Fe3+  Fe68  1  0.62578285  0.62713250  0.87824445  1
  Fe3+  Fe69  1  0.12550660  0.37613761  0.37648272  1
  Fe3+  Fe70  1  0.62501676  0.12287041  0.87937477  1
  Fe3+  Fe71  1  0.87440115  0.12614653  0.38092321  1
  Fe3+  Fe72  1  0.62442153  0.37406779  0.37566218  1
  Fe3+  Fe73  1  0.87506363  0.62721161  0.87708397  1
  Fe3+  Fe74  1  0.37638197  0.12621303  0.37575226  1
  Fe3+  Fe75  1  0.87559384  0.37534134  0.38076658  1
  Fe3+  Fe76  1  0.12494212  0.62357760  0.37389355  1
  Fe3+  Fe77  1  0.37442264  0.37499395  0.37994002  1
  Fe3+  Fe78  1  0.12490746  0.12219665  0.87579869  1
  Fe3+  Fe79  1  0.12463316  0.87610070  0.87761270  1
  Fe3+  Fe80  1  0.87508331  0.87468297  0.37953781  1
  Fe3+  Fe81  1  0.87609876  0.37554779  0.87906975  1
  Fe3+  Fe82  1  0.37369092  0.37460337  0.88003928  1
  Fe3+  Fe83  1  0.37321165  0.87579600  0.87879311  1
  Fe3+  Fe84  1  0.62235266  0.62594813  0.63955185  1
  Fe3+  Fe85  1  0.87523242  0.37549560  0.63559622  1
  Fe3+  Fe86  1  0.62544130  0.37543067  0.13399844  1
  Fe3+  Fe87  1  0.87467806  0.12437704  0.63373036  1
  Fe3+  Fe88  1  0.12670473  0.87344861  0.63539679  1
  Fe3+  Fe89  1  0.37479499  0.37595312  0.63616749  1
  Fe3+  Fe90  1  0.37506775  0.87354359  0.63672077  1
  Fe3+  Fe91  1  0.87501413  0.87373166  0.63200414  1
  Fe3+  Fe92  1  0.62518048  0.12436577  0.13393827  1
  Fe3+  Fe93  1  0.37417988  0.37546884  0.13375078  1
  Fe3+  Fe94  1  0.87565886  0.37554943  0.13339920  1
  Fe3+  Fe95  1  0.37542834  0.62654004  0.63900534  1
  Cu2+  Cu96  1  0.37433494  0.62418438  0.36080168  1
  Cu2+  Cu97  1  0.87643169  0.12282575  0.87212398  1
  Cu2+  Cu98  1  0.62548623  0.37525418  0.86867571  1
  Cu2+  Cu99  1  0.12455770  0.87386387  0.36288393  1
  Cu2+  Cu100  1  0.37474170  0.62614711  0.87561682  1
  Cu2+  Cu101  1  0.12561166  0.12639628  0.37113382  1
  Cu2+  Cu102  1  0.37510677  0.87525160  0.36192392  1
  Cu2+  Cu103  1  0.12496791  0.37401545  0.87420234  1
  Cu2+  Cu104  1  0.12402052  0.62728815  0.87241707  1
  Cu2+  Cu105  1  0.62535798  0.87489259  0.87521289  1
  Cu2+  Cu106  1  0.62551387  0.87576626  0.37107806  1
  Cu2+  Cu107  1  0.62507111  0.62454230  0.35969409  1
  Cu2+  Cu108  1  0.37536852  0.12497550  0.14871441  1
  Cu2+  Cu109  1  0.87423563  0.62498551  0.65070523  1
  Cu2+  Cu110  1  0.87491613  0.62523790  0.14994353  1
  Cu2+  Cu111  1  0.62492310  0.87501473  0.14267812  1
  Cu2+  Cu112  1  0.12515144  0.62595500  0.14323080  1
  Cu2+  Cu113  1  0.62562822  0.12439047  0.65735996  1
  Cu2+  Cu114  1  0.37555867  0.12466774  0.65179489  1
  Cu2+  Cu115  1  0.62516557  0.62525074  0.15157641  1
  Cu2+  Cu116  1  0.87456442  0.12501112  0.14144921  1
  Cu2+  Cu117  1  0.62356294  0.87316010  0.64213607  1
  Cu2+  Cu118  1  0.62410712  0.37636818  0.65505134  1
  Cu2+  Cu119  1  0.87549874  0.87479061  0.15669689  1
  Cu2+  Cu120  1  0.12569605  0.37548287  0.65285820  1
  Cu2+  Cu121  1  0.12474438  0.12377272  0.64181819  1
  Cu2+  Cu122  1  0.12672055  0.62580968  0.65458517  1
  Cu2+  Cu123  1  0.12483960  0.37515302  0.13978293  1
  Cu2+  Cu124  1  0.12502857  0.12435112  0.15543274  1
  Cu2+  Cu125  1  0.12497737  0.87532191  0.15531959  1
  Cu2+  Cu126  1  0.37436076  0.87501683  0.15286056  1
  Cu2+  Cu127  1  0.37490417  0.62514365  0.14189989  1
  O2-  O128  1  0.12469761  0.12077698  -0.00381941  1
  O2-  O129  1  0.12608528  0.12548257  0.50628768  1
  O2-  O130  1  0.12404049  0.37342671  0.00678344  1
  O2-  O131  1  0.12624994  0.37719129  0.49638868  1
  O2-  O132  1  0.12382952  0.62804490  0.00744934  1
  O2-  O133  1  0.12516876  0.62250737  0.49443744  1
  O2-  O134  1  0.12318377  0.87791884  -0.00244313  1
  O2-  O135  1  0.12731422  0.87238121  0.51502872  1
  O2-  O136  1  0.37242705  0.12325326  -0.00267130  1
  O2-  O137  1  0.37855301  0.12758063  0.49563976  1
  O2-  O138  1  0.37400227  0.37469355  0.00693677  1
  O2-  O139  1  0.37583841  0.37450446  0.50687786  1
  O2-  O140  1  0.37490854  0.62530402  0.00883734  1
  O2-  O141  1  0.37589882  0.62552343  0.51914400  1
  O2-  O142  1  0.37231219  0.87701942  -0.00088352  1
  O2-  O143  1  0.37553016  0.87297681  0.51661602  1
  O2-  O144  1  0.62605095  0.12326372  0.00636338  1
  O2-  O145  1  0.62354088  0.12759428  0.49368354  1
  O2-  O146  1  0.62677888  0.37536613  0.01467980  1
  O2-  O147  1  0.62281519  0.37355297  0.49544101  1
  O2-  O148  1  0.62738800  0.62726056  -0.00115645  1
  O2-  O149  1  0.62176595  0.62468419  0.51872240  1
  O2-  O150  1  0.62566991  0.87530427  0.00867260  1
  O2-  O151  1  0.62402194  0.87403117  0.50635827  1
  O2-  O152  1  0.87555695  0.12328018  0.00673220  1
  O2-  O153  1  0.87265837  0.12766085  0.50688641  1
  O2-  O154  1  0.87536414  0.37529397  0.00635421  1
  O2-  O155  1  0.87486436  0.37562268  0.50659903  1
  O2-  O156  1  0.87430996  0.62850946  -0.00322824  1
  O2-  O157  1  0.87622914  0.62065506  0.49609016  1
  O2-  O158  1  0.87768678  0.87448443  -0.00440827  1
  O2-  O159  1  0.87434073  0.87391632  0.50572466  1
  O2-  O160  1  0.12446422  0.00006226  0.16843248  1
  O2-  O161  1  0.12370018  -0.00267815  0.66190556  1
  O2-  O162  1  0.12437643  0.24817080  0.16331980  1
  O2-  O163  1  0.12523963  0.25071039  0.66558904  1
  O2-  O164  1  0.12507549  0.50047638  0.16220145  1
  O2-  O165  1  0.12511264  0.50067931  0.66722418  1
  O2-  O166  1  0.12434416  0.75177297  0.16636130  1
  O2-  O167  1  0.12542818  0.75026842  0.66630601  1
  O2-  O168  1  0.37567768  0.00020171  0.16617572  1
  O2-  O169  1  0.37642535  0.00007735  0.66193022  1
  O2-  O170  1  0.37541161  0.25161310  0.16155647  1
  O2-  O171  1  0.37493420  0.25127157  0.66438596  1
  O2-  O172  1  0.37562858  0.49693115  0.16529369  1
  O2-  O173  1  0.37536476  0.49904878  0.66721994  1
  O2-  O174  1  0.37503064  0.75128596  0.16539895  1
  O2-  O175  1  0.37435129  0.74980652  0.67123482  1
  O2-  O176  1  0.62478448  0.00257681  0.16409573  1
  O2-  O177  1  0.62479298  0.00028397  0.66400922  1
  O2-  O178  1  0.62552658  0.24971703  0.16117420  1
  O2-  O179  1  0.62638214  0.25047127  0.66711214  1
  O2-  O180  1  0.62536358  0.49928746  0.16486973  1
  O2-  O181  1  0.62378148  0.50099589  0.66796419  1
  O2-  O182  1  0.62552669  0.74891746  0.16625686  1
  O2-  O183  1  0.62506804  0.74817134  0.66821750  1
  O2-  O184  1  0.87495111  -0.00123346  0.16967733  1
  O2-  O185  1  0.87501431  -0.00037911  0.65788102  1
  O2-  O186  1  0.87458910  0.25329276  0.16407629  1
  O2-  O187  1  0.87301224  0.25047892  0.66377731  1
  O2-  O188  1  0.87396655  0.49860665  0.16134242  1
  O2-  O189  1  0.87551933  0.49805578  0.66515369  1
  O2-  O190  1  0.87508147  0.75022761  0.16698013  1
  O2-  O191  1  0.87458271  0.75074338  0.65906057  1
  O2-  O192  1  0.00103680  0.12490966  0.16804486  1
  O2-  O193  1  -0.00398488  0.12647976  0.66158650  1
  O2-  O194  1  -0.00288967  0.37502489  0.16478696  1
  O2-  O195  1  -0.00106495  0.37426193  0.66230846  1
  O2-  O196  1  -0.00123954  0.62491897  0.16393950  1
  O2-  O197  1  0.00082945  0.62469747  0.66186446  1
  O2-  O198  1  -0.00006211  0.87575384  0.16734793  1
  O2-  O199  1  -0.00116610  0.87338130  0.66003360  1
  O2-  O200  1  0.24987431  0.12538042  0.16466658  1
  O2-  O201  1  0.25097278  0.12509594  0.66275847  1
  O2-  O202  1  0.25246913  0.37404415  0.16397262  1
  O2-  O203  1  0.25165835  0.37546190  0.66318059  1
  O2-  O204  1  0.24971522  0.62514514  0.16450979  1
  O2-  O205  1  0.25129681  0.62322199  0.66950314  1
  O2-  O206  1  0.24982459  0.87584735  0.16577637  1
  O2-  O207  1  0.25056909  0.87560124  0.66727175  1
  O2-  O208  1  0.50210227  0.12683174  0.15854922  1
  O2-  O209  1  0.50134046  0.12666087  0.66811023  1
  O2-  O210  1  0.49951427  0.37436089  0.16259743  1
  O2-  O211  1  0.49791115  0.37364761  0.66774415  1
  O2-  O212  1  0.50119881  0.62486805  0.16435590  1
  O2-  O213  1  0.49885705  0.62434800  0.67361399  1
  O2-  O214  1  0.49849519  0.87470446  0.16403497  1
  O2-  O215  1  0.49787900  0.87490840  0.66976984  1
  O2-  O216  1  0.74672321  0.12547985  0.16472013  1
  O2-  O217  1  0.75208538  0.12484000  0.66480860  1
  O2-  O218  1  0.75091050  0.37542435  0.16570319  1
  O2-  O219  1  0.75121370  0.37581082  0.66303424  1
  O2-  O220  1  0.75015769  0.62482802  0.16557055  1
  O2-  O221  1  0.74864051  0.62334438  0.66417393  1
  O2-  O222  1  0.75146289  0.87517418  0.16635391  1
  O2-  O223  1  0.75264335  0.87518155  0.66255645  1
  O2-  O224  1  0.12455004  -0.00117037  0.35238702  1
  O2-  O225  1  0.12503172  -0.00014791  0.83993486  1
  O2-  O226  1  0.12478362  0.25327140  0.34508268  1
  O2-  O227  1  0.12425106  0.24695083  0.84820549  1
  O2-  O228  1  0.12499662  0.49935478  0.34130489  1
  O2-  O229  1  0.12493280  0.50062964  0.85194669  1
  O2-  O230  1  0.12472699  0.74838634  0.34853833  1
  O2-  O231  1  0.12391212  0.75252224  0.84690259  1
  O2-  O232  1  0.37562785  0.00068799  0.34975551  1
  O2-  O233  1  0.37458447  0.00042041  0.84235142  1
  O2-  O234  1  0.37545369  0.25212918  0.34411113  1
  O2-  O235  1  0.37614787  0.24979502  0.84884018  1
  O2-  O236  1  0.37600926  0.49794750  0.34987007  1
  O2-  O237  1  0.37474671  0.49738772  0.85146718  1
  O2-  O238  1  0.37478087  0.74972532  0.35007091  1
  O2-  O239  1  0.37459194  0.75223317  0.85009360  1
  O2-  O240  1  0.62598051  0.00262090  0.34621481  1
  O2-  O241  1  0.62542779  0.00199826  0.84807123  1
  O2-  O242  1  0.62555608  0.25032124  0.33957927  1
  O2-  O243  1  0.62499256  0.24794204  0.85221839  1
  O2-  O244  1  0.62486040  0.49878192  0.34703045  1
  O2-  O245  1  0.62606596  0.50123501  0.84994298  1
  O2-  O246  1  0.62557085  0.74857980  0.35041002  1
  O2-  O247  1  0.62545471  0.74912057  0.84742143  1
  O2-  O248  1  0.87494976  0.00093084  0.35468890  1
  O2-  O249  1  0.87484115  -0.00225748  0.84062168  1
  O2-  O250  1  0.87468310  0.25098513  0.34857681  1
  O2-  O251  1  0.87511563  0.25228905  0.85001775  1
  O2-  O252  1  0.87463169  0.49793691  0.34447079  1
  O2-  O253  1  0.87419069  0.49965102  0.84966995  1
  O2-  O254  1  0.87494014  0.74994793  0.35120085  1
  O2-  O255  1  0.87554451  0.75055626  0.84065555  1
  O2-  O256  1  -0.00337446  0.12637995  0.35199763  1
  O2-  O257  1  0.00199648  0.12442791  0.84276387  1
  O2-  O258  1  -0.00136528  0.37488129  0.34844764  1
  O2-  O259  1  -0.00272283  0.37533882  0.84683864  1
  O2-  O260  1  -0.00003772  0.62388976  0.34397604  1
  O2-  O261  1  -0.00226376  0.62451229  0.84492595  1
  O2-  O262  1  -0.00237747  0.87511733  0.35117048  1
  O2-  O263  1  0.00055784  0.87578518  0.84033145  1
  O2-  O264  1  0.25247864  0.12601895  0.34757105  1
  O2-  O265  1  0.24985753  0.12561913  0.84334668  1
  O2-  O266  1  0.25149138  0.37562490  0.34742324  1
  O2-  O267  1  0.25264916  0.37346962  0.84778610  1
  O2-  O268  1  0.24952016  0.62395020  0.34666762  1
  O2-  O269  1  0.24965875  0.62521258  0.85184282  1
  O2-  O270  1  0.24996040  0.87486747  0.35023146  1
  O2-  O271  1  0.24936720  0.87548202  0.84555778  1
  O2-  O272  1  0.50004500  0.12609724  0.33969866  1
  O2-  O273  1  0.50055808  0.12520666  0.85184434  1
  O2-  O274  1  0.49863352  0.37519402  0.34568876  1
  O2-  O275  1  0.49795266  0.37438436  0.85270530  1
  O2-  O276  1  0.49946386  0.62399770  0.34908365  1
  O2-  O277  1  0.50175846  0.62415449  0.85239037  1
  O2-  O278  1  0.49946620  0.87481541  0.34726297  1
  O2-  O279  1  0.49784149  0.87626574  0.85097795  1
  O2-  O280  1  0.75173876  0.12640238  0.34643165  1
  O2-  O281  1  0.74742765  0.12538637  0.84950522  1
  O2-  O282  1  0.75136734  0.37453721  0.34868214  1
  O2-  O283  1  0.75244809  0.37401644  0.84819007  1
  O2-  O284  1  0.75094536  0.62373305  0.34881721  1
  O2-  O285  1  0.75050561  0.62515272  0.84434714  1
  O2-  O286  1  0.75334712  0.87551813  0.34934954  1
  O2-  O287  1  0.75195855  0.87528224  0.84566149  1
