# generated using pymatgen
data_BaYFeCuO5
_symmetry_space_group_name_H-M   'P 1'
_cell_length_a   15.66293591
_cell_length_b   15.66424230
_cell_length_c   15.47120101
_cell_angle_alpha   90.00572423
_cell_angle_beta   90.00856051
_cell_angle_gamma   90.00725122
_symmetry_Int_Tables_number   1
_chemical_formula_structural   BaYFeCuO5
_chemical_formula_sum   'Ba32 Y32 Fe32 Cu32 O160'
_cell_volume   3795.82849173
_cell_formula_units_Z   32
loop_
 _symmetry_equiv_pos_site_id
 _symmetry_equiv_pos_as_xyz
  1  'x, y, z'
loop_
 _atom_type_symbol
 _atom_type_oxidation_number
  Ba2+  2.0
  Y3+  3.0
  Fe3+  3.0
  Cu2+  2.0
  O2-  -2.0
loop_
 _atom_site_type_symbol
 _atom_site_label
 _atom_site_symmetry_multiplicity
 _atom_site_fract_x
 _atom_site_fract_y
 _atom_site_fract_z
 _atom_site_occupancy
  Ba2+  Ba0  1  0.00535951  -0.00406093  0.01224132  1
  Ba2+  Ba1  1  -0.00382981  -0.00674969  0.51732352  1
  Ba2+  Ba2  1  0.00753708  0.25042449  0.00758559  1
  Ba2+  Ba3  1  0.00155806  0.25222983  0.51090301  1
  Ba2+  Ba4  1  -0.00388401  0.49742221  0.01274693  1
  Ba2+  Ba5  1  0.00599241  0.50480342  0.51023669  1
  Ba2+  Ba6  1  -0.00533039  0.75473288  0.01642303  1
  Ba2+  Ba7  1  0.00158266  0.74979035  0.51589904  1
  Ba2+  Ba8  1  0.24929358  -0.00086024  0.01916547  1
  Ba2+  Ba9  1  0.24773732  -0.00166172  0.50153036  1
  Ba2+  Ba10  1  0.24428890  0.24349211  0.01732772  1
  Ba2+  Ba11  1  0.25231533  0.25625834  0.50665384  1
  Ba2+  Ba12  1  0.25051170  0.50134623  0.00699309  1
  Ba2+  Ba13  1  0.24176747  0.49679758  0.51043275  1
  Ba2+  Ba14  1  0.25599116  0.75687481  0.00725311  1
  Ba2+  Ba15  1  0.23802423  0.74980077  0.50612104  1
  Ba2+  Ba16  1  0.49173042  -0.00663133  0.00750016  1
  Ba2+  Ba17  1  0.50601949  0.00415070  0.51283993  1
  Ba2+  Ba18  1  0.50083444  0.25241471  0.01114834  1
  Ba2+  Ba19  1  0.50157761  0.25042785  0.51837559  1
  Ba2+  Ba20  1  0.50630495  0.50305352  0.00809227  1
  Ba2+  Ba21  1  0.50652022  0.49760502  0.51718502  1
  Ba2+  Ba22  1  0.49686696  0.75171049  -0.00077376  1
  Ba2+  Ba23  1  0.51161212  0.74779995  0.51047688  1
  Ba2+  Ba24  1  0.75255355  -0.01112670  0.00161227  1
  Ba2+  Ba25  1  0.75037650  -0.00069110  0.52810610  1
  Ba2+  Ba26  1  0.74912492  0.26098081  0.00133723  1
  Ba2+  Ba27  1  0.74553685  0.24499472  0.52425957  1
  Ba2+  Ba28  1  0.74816985  0.50071442  0.01205542  1
  Ba2+  Ba29  1  0.74511422  0.50708559  0.51576296  1
  Ba2+  Ba30  1  0.75240311  0.74928148  0.01203295  1
  Ba2+  Ba31  1  0.75018607  0.74935023  0.52195773  1
  Y3+  Y32  1  0.00194576  -0.00222861  0.25560082  1
  Y3+  Y33  1  -0.00003650  -0.00154216  0.75875519  1
  Y3+  Y34  1  0.00308294  0.25010964  0.25745047  1
  Y3+  Y35  1  0.00074828  0.24987351  0.75737099  1
  Y3+  Y36  1  0.00166827  0.50009883  0.26061901  1
  Y3+  Y37  1  0.00117836  0.50093648  0.75299735  1
  Y3+  Y38  1  0.00047551  0.75148113  0.25880708  1
  Y3+  Y39  1  0.00008982  0.75093436  0.75405323  1
  Y3+  Y40  1  0.24978091  -0.00041809  0.25691004  1
  Y3+  Y41  1  0.24849769  -0.00097704  0.75894737  1
  Y3+  Y42  1  0.24874518  0.24805423  0.25844568  1
  Y3+  Y43  1  0.24827821  0.25084805  0.75641172  1
  Y3+  Y44  1  0.24699921  0.49987865  0.26134202  1
  Y3+  Y45  1  0.24946468  0.49983167  0.75349834  1
  Y3+  Y46  1  0.24788153  0.75218214  0.26008428  1
  Y3+  Y47  1  0.24975233  0.75024810  0.75569305  1
  Y3+  Y48  1  0.49631378  0.00057560  0.25593725  1
  Y3+  Y49  1  0.50034004  -0.00248806  0.75984915  1
  Y3+  Y50  1  0.49867191  0.24904612  0.25501146  1
  Y3+  Y51  1  0.50111789  0.25251025  0.75903009  1
  Y3+  Y52  1  0.50350660  0.50121607  0.25720292  1
  Y3+  Y53  1  0.50084170  0.49959246  0.75784220  1
  Y3+  Y54  1  0.50141239  0.74895614  0.25775083  1
  Y3+  Y55  1  0.49964625  0.75054871  0.75755592  1
  Y3+  Y56  1  0.75150596  -0.00178521  0.25174967  1
  Y3+  Y57  1  0.75126889  -0.00298560  0.76076918  1
  Y3+  Y58  1  0.74893786  0.25149008  0.25303970  1
  Y3+  Y59  1  0.74950910  0.25166125  0.76054853  1
  Y3+  Y60  1  0.74795825  0.50214910  0.25505996  1
  Y3+  Y61  1  0.74882737  0.50031548  0.75778807  1
  Y3+  Y62  1  0.75056003  0.74770186  0.25453049  1
  Y3+  Y63  1  0.75068944  0.75126616  0.75826256  1
  Fe3+  Fe64  1  0.37638062  0.87502933  0.38094843  1
  Fe3+  Fe65  1  0.87652608  0.12527706  0.87931931  1
  Fe3+  Fe66  1  0.87655186  0.62470326  0.87566917  1
  Fe3+  Fe67  1  0.37420798  0.37545264  0.87944079  1
  Fe3+  Fe68  1  0.37662618  0.37493215  0.37673298  1
  Fe3+  Fe69  1  0.12514618  0.87464063  0.87647371  1
  Fe3+  Fe70  1  0.87353610  0.37452495  0.38079241  1
  Fe3+  Fe71  1  0.12409270  0.12421417  0.37943687  1
  Fe3+  Fe72  1  0.12526716  0.62571760  0.87956988  1
  Fe3+  Fe73  1  0.62513503  0.62589589  0.87544948  1
  Fe3+  Fe74  1  0.87350489  0.87558223  0.37628568  1
  Fe3+  Fe75  1  0.37570371  0.62450446  0.38163821  1
  Fe3+  Fe76  1  0.62742576  0.87591664  0.37632233  1
  Fe3+  Fe77  1  0.12504978  0.37568686  0.87608795  1
  Fe3+  Fe78  1  0.62445898  0.12416100  0.87959224  1
  Fe3+  Fe79  1  0.62616901  0.37402009  0.37584986  1
  Fe3+  Fe80  1  0.87325021  0.12445393  0.37686898  1
  Fe3+  Fe81  1  0.62630953  0.12446979  0.37389873  1
  Fe3+  Fe82  1  0.87417841  0.62560081  0.37729089  1
  Fe3+  Fe83  1  0.37322256  0.12499464  0.87823337  1
  Fe3+  Fe84  1  0.37487781  0.62557903  0.13908423  1
  Fe3+  Fe85  1  0.12473717  0.12450761  0.63515950  1
  Fe3+  Fe86  1  0.37483449  0.12492199  0.63741260  1
  Fe3+  Fe87  1  0.87550764  0.12513156  0.13221024  1
  Fe3+  Fe88  1  0.62512361  0.12420402  0.13142345  1
  Fe3+  Fe89  1  0.62352451  0.87400870  0.13565938  1
  Fe3+  Fe90  1  0.87595573  0.37510095  0.13841176  1
  Fe3+  Fe91  1  0.37507018  0.87504106  0.63435361  1
  Fe3+  Fe92  1  0.37389493  0.37603969  0.13544561  1
  Fe3+  Fe93  1  0.12511534  0.62564544  0.13543709  1
  Fe3+  Fe94  1  0.87461710  0.37567540  0.63558868  1
  Fe3+  Fe95  1  0.37506470  0.62478662  0.63475571  1
  Cu2+  Cu96  1  0.37334363  0.87527513  0.86981608  1
  Cu2+  Cu97  1  0.87685946  0.87329408  0.87174206  1
  Cu2+  Cu98  1  0.37581456  0.12531884  0.36643907  1
  Cu2+  Cu99  1  0.62472326  0.87413570  0.86535744  1
  Cu2+  Cu100  1  0.37390721  0.62457772  0.86247356  1
  Cu2+  Cu101  1  0.12405181  0.62574654  0.37114506  1
  Cu2+  Cu102  1  0.62617806  0.62542527  0.37253911  1
  Cu2+  Cu103  1  0.12324048  0.87582795  0.37307612  1
  Cu2+  Cu104  1  0.62468354  0.37644882  0.87306986  1
  Cu2+  Cu105  1  0.12433999  0.37414223  0.37338908  1
  Cu2+  Cu106  1  0.12545159  0.12459730  0.87208270  1
  Cu2+  Cu107  1  0.87637116  0.37639372  0.86120652  1
  Cu2+  Cu108  1  0.62434803  0.37536210  0.14020683  1
  Cu2+  Cu109  1  0.87492107  0.87466530  0.65423428  1
  Cu2+  Cu110  1  0.87584340  0.62429937  0.15140567  1
  Cu2+  Cu111  1  0.12557857  0.37593460  0.15256071  1
  Cu2+  Cu112  1  0.87474782  0.87486168  0.14077138  1
  Cu2+  Cu113  1  0.62459521  0.12455353  0.65942259  1
  Cu2+  Cu114  1  0.12411308  0.12423354  0.14379873  1
  Cu2+  Cu115  1  0.62419380  0.87499768  0.65430401  1
  Cu2+  Cu116  1  0.62566573  0.37505977  0.65449259  1
  Cu2+  Cu117  1  0.37530376  0.87333445  0.14573090  1
  Cu2+  Cu118  1  0.62455350  0.62571664  0.14828105  1
  Cu2+  Cu119  1  0.12600861  0.87586092  0.64176528  1
  Cu2+  Cu120  1  0.12545323  0.87372505  0.15214748  1
  Cu2+  Cu121  1  0.37469184  0.12498883  0.14900089  1
  Cu2+  Cu122  1  0.12454120  0.37413428  0.64156240  1
  Cu2+  Cu123  1  0.87513738  0.12530027  0.65510751  1
  Cu2+  Cu124  1  0.37517438  0.37502644  0.65063777  1
  Cu2+  Cu125  1  0.87480702  0.62488298  0.64974359  1
  Cu2+  Cu126  1  0.12557334  0.62554775  0.64329533  1
  Cu2+  Cu127  1  0.62450430  0.62544226  0.64648317  1
  O2-  O128  1  0.12510375  0.12445753  0.00786510  1
  O2-  O129  1  0.12389372  0.12475768  0.50730809  1
  O2-  O130  1  0.12577388  0.37668593  -0.00351932  1
  O2-  O131  1  0.12390289  0.37302371  0.50692447  1
  O2-  O132  1  0.12536504  0.62544999  0.00662349  1
  O2-  O133  1  0.12455220  0.62499381  0.50719679  1
  O2-  O134  1  0.12606529  0.87351617  -0.00272834  1
  O2-  O135  1  0.12365043  0.87703879  0.50723012  1
  O2-  O136  1  0.37297886  0.12516159  -0.00140587  1
  O2-  O137  1  0.37705499  0.12540159  0.51708001  1
  O2-  O138  1  0.37327221  0.37618173  0.00669299  1
  O2-  O139  1  0.37881776  0.37408576  0.49717344  1
  O2-  O140  1  0.37452586  0.62543750  0.01882451  1
  O2-  O141  1  0.37557055  0.62382515  0.50816526  1
  O2-  O142  1  0.37402183  0.87445685  0.00841418  1
  O2-  O143  1  0.37692952  0.87604846  0.50782953  1
  O2-  O144  1  0.62413952  0.12440018  0.00537121  1
  O2-  O145  1  0.62719431  0.12473548  0.49405153  1
  O2-  O146  1  0.62389095  0.37610011  0.00594843  1
  O2-  O147  1  0.62625601  0.37210200  0.49601372  1
  O2-  O148  1  0.62510668  0.62597204  -0.00367164  1
  O2-  O149  1  0.62578687  0.62509982  0.50654894  1
  O2-  O150  1  0.62220123  0.87326799  0.01491911  1
  O2-  O151  1  0.62827239  0.87781504  0.49663950  1
  O2-  O152  1  0.87679055  0.12643411  0.00590979  1
  O2-  O153  1  0.87071297  0.12377866  0.49619883  1
  O2-  O154  1  0.87702565  0.37550619  0.01761812  1
  O2-  O155  1  0.87197542  0.37371907  0.50698709  1
  O2-  O156  1  0.87634512  0.62348884  -0.00411038  1
  O2-  O157  1  0.87394400  0.62630713  0.49775550  1
  O2-  O158  1  0.87621985  0.87426863  0.00609210  1
  O2-  O159  1  0.87123515  0.87653125  0.49645124  1
  O2-  O160  1  0.12534813  -0.00240960  0.16562622  1
  O2-  O161  1  0.12487511  0.00321802  0.66453147  1
  O2-  O162  1  0.12539317  0.25147028  0.16623092  1
  O2-  O163  1  0.12453494  0.24661179  0.66425540  1
  O2-  O164  1  0.12499026  0.50206687  0.16434145  1
  O2-  O165  1  0.12517536  0.49997995  0.66444396  1
  O2-  O166  1  0.12561056  0.74835590  0.16422416  1
  O2-  O167  1  0.12586181  0.75049143  0.66462058  1
  O2-  O168  1  0.37432271  0.00056911  0.16600110  1
  O2-  O169  1  0.37598418  -0.00067927  0.66512341  1
  O2-  O170  1  0.37392854  0.25194856  0.16116256  1
  O2-  O171  1  0.37549844  0.24975173  0.66738632  1
  O2-  O172  1  0.37406796  0.49948257  0.16650020  1
  O2-  O173  1  0.37546303  0.50056255  0.66346304  1
  O2-  O174  1  0.37431330  0.74758882  0.17218398  1
  O2-  O175  1  0.37542806  0.75029286  0.66183469  1
  O2-  O176  1  0.62489912  0.00134977  0.16121184  1
  O2-  O177  1  0.62443355  -0.00031779  0.66787159  1
  O2-  O178  1  0.62462946  0.24663161  0.16043924  1
  O2-  O179  1  0.62541932  0.24995326  0.66700327  1
  O2-  O180  1  0.62452417  0.50170039  0.16385396  1
  O2-  O181  1  0.62435942  0.49932393  0.66418549  1
  O2-  O182  1  0.62468096  0.74999407  0.16599675  1
  O2-  O183  1  0.62412835  0.75115273  0.66429692  1
  O2-  O184  1  0.87485445  0.00287543  0.16019611  1
  O2-  O185  1  0.87458305  0.00022724  0.66736494  1
  O2-  O186  1  0.87544707  0.24897115  0.16550409  1
  O2-  O187  1  0.87385506  0.25148914  0.66543360  1
  O2-  O188  1  0.87637865  0.49929360  0.16827087  1
  O2-  O189  1  0.87475785  0.49875022  0.66112088  1
  O2-  O190  1  0.87476102  0.74822979  0.16328920  1
  O2-  O191  1  0.87488839  0.74990006  0.66321777  1
  O2-  O192  1  -0.00291671  0.12546728  0.16494950  1
  O2-  O193  1  0.00102928  0.12514753  0.66280904  1
  O2-  O194  1  0.00057775  0.37476622  0.16817835  1
  O2-  O195  1  -0.00309408  0.37431647  0.66214762  1
  O2-  O196  1  0.00228226  0.62490082  0.16217925  1
  O2-  O197  1  -0.00109075  0.62528017  0.66492107  1
  O2-  O198  1  0.00100290  0.87464191  0.16437725  1
  O2-  O199  1  -0.00108905  0.87563640  0.66357111  1
  O2-  O200  1  0.25057808  0.12458236  0.16830687  1
  O2-  O201  1  0.24932907  0.12539002  0.66342667  1
  O2-  O202  1  0.25098949  0.37568603  0.16429674  1
  O2-  O203  1  0.25044530  0.37468196  0.66439439  1
  O2-  O204  1  0.24823776  0.62451415  0.16783022  1
  O2-  O205  1  0.25356617  0.62473736  0.66582029  1
  O2-  O206  1  0.24905881  0.87451814  0.16883691  1
  O2-  O207  1  0.25376694  0.87549531  0.66290067  1
  O2-  O208  1  0.50121545  0.12485953  0.16138365  1
  O2-  O209  1  0.49961131  0.12551899  0.66779265  1
  O2-  O210  1  0.49661577  0.37537562  0.16131953  1
  O2-  O211  1  0.50137210  0.37439757  0.66646699  1
  O2-  O212  1  0.49939634  0.62444651  0.16811987  1
  O2-  O213  1  0.49713193  0.62470856  0.66452793  1
  O2-  O214  1  0.50168567  0.87507033  0.16950902  1
  O2-  O215  1  0.49787586  0.87544942  0.66394989  1
  O2-  O216  1  0.75030492  0.12553648  0.15720830  1
  O2-  O217  1  0.74936775  0.12485231  0.66930902  1
  O2-  O218  1  0.75139768  0.37511162  0.16359243  1
  O2-  O219  1  0.75119330  0.37469820  0.66539892  1
  O2-  O220  1  0.75029678  0.62397104  0.15995310  1
  O2-  O221  1  0.75029486  0.62504665  0.66555684  1
  O2-  O222  1  0.74767287  0.87502899  0.16079919  1
  O2-  O223  1  0.74979319  0.87545777  0.66695708  1
  O2-  O224  1  0.12495740  0.00312025  0.34928393  1
  O2-  O225  1  0.12500319  -0.00152274  0.84693896  1
  O2-  O226  1  0.12472359  0.24622720  0.34983045  1
  O2-  O227  1  0.12484458  0.25211471  0.84680740  1
  O2-  O228  1  0.12480428  0.50013497  0.34878239  1
  O2-  O229  1  0.12612688  0.50147209  0.84752200  1
  O2-  O230  1  0.12459177  0.75057190  0.34809482  1
  O2-  O231  1  0.12585653  0.74827652  0.84737007  1
  O2-  O232  1  0.37550748  -0.00140350  0.35113350  1
  O2-  O233  1  0.37477388  0.00156358  0.84686795  1
  O2-  O234  1  0.37555355  0.25052667  0.34505108  1
  O2-  O235  1  0.37484841  0.25156818  0.84977804  1
  O2-  O236  1  0.37533170  0.50058635  0.34843467  1
  O2-  O237  1  0.37367693  0.49825176  0.84937824  1
  O2-  O238  1  0.37585575  0.75033376  0.35497346  1
  O2-  O239  1  0.37422225  0.74885765  0.84685519  1
  O2-  O240  1  0.62503293  -0.00003571  0.34096185  1
  O2-  O241  1  0.62515017  0.00110733  0.85204850  1
  O2-  O242  1  0.62530301  0.24983128  0.34098975  1
  O2-  O243  1  0.62516036  0.24715977  0.85115899  1
  O2-  O244  1  0.62549817  0.49759232  0.34676479  1
  O2-  O245  1  0.62439203  0.50268244  0.84623232  1
  O2-  O246  1  0.62468318  0.75263902  0.34743509  1
  O2-  O247  1  0.62388676  0.74925870  0.84662994  1
  O2-  O248  1  0.87432562  0.00045920  0.34115879  1
  O2-  O249  1  0.87518841  0.00214311  0.85184081  1
  O2-  O250  1  0.87443008  0.25053988  0.34732855  1
  O2-  O251  1  0.87509859  0.24959124  0.85073655  1
  O2-  O252  1  0.87463990  0.49826031  0.35099223  1
  O2-  O253  1  0.87626410  0.50099642  0.84388396  1
  O2-  O254  1  0.87472441  0.75070859  0.34515139  1
  O2-  O255  1  0.87636953  0.74740321  0.84557220  1
  O2-  O256  1  -0.00032692  0.12524660  0.34853236  1
  O2-  O257  1  -0.00226278  0.12599334  0.84748369  1
  O2-  O258  1  -0.00371633  0.37397475  0.35154635  1
  O2-  O259  1  0.00144815  0.37559376  0.84499423  1
  O2-  O260  1  -0.00259455  0.62459348  0.34533554  1
  O2-  O261  1  0.00261001  0.62406890  0.84737900  1
  O2-  O262  1  -0.00285211  0.87619826  0.34693883  1
  O2-  O263  1  0.00265664  0.87443950  0.84568567  1
  O2-  O264  1  0.24872048  0.12502317  0.35369086  1
  O2-  O265  1  0.25157557  0.12584544  0.84409633  1
  O2-  O266  1  0.25205334  0.37451242  0.34848400  1
  O2-  O267  1  0.25080598  0.37550887  0.84709472  1
  O2-  O268  1  0.25326659  0.62515777  0.35122549  1
  O2-  O269  1  0.24836028  0.62464130  0.85036752  1
  O2-  O270  1  0.25300534  0.87516541  0.35348110  1
  O2-  O271  1  0.24786065  0.87419660  0.84427700  1
  O2-  O272  1  0.50152161  0.12506950  0.34495224  1
  O2-  O273  1  0.50046968  0.12487980  0.85038213  1
  O2-  O274  1  0.50098444  0.37427649  0.34258743  1
  O2-  O275  1  0.49647477  0.37543093  0.85082591  1
  O2-  O276  1  0.49737276  0.62484437  0.35079198  1
  O2-  O277  1  0.49924319  0.62531050  0.84811391  1
  O2-  O278  1  0.49958020  0.87584117  0.35062310  1
  O2-  O279  1  0.49996483  0.87461992  0.84834515  1
  O2-  O280  1  0.74996406  0.12533354  0.33727623  1
  O2-  O281  1  0.75031428  0.12535857  0.85430677  1
  O2-  O282  1  0.75093836  0.37417253  0.34407761  1
  O2-  O283  1  0.75193790  0.37557417  0.84979074  1
  O2-  O284  1  0.75217622  0.62455514  0.34287132  1
  O2-  O285  1  0.75048505  0.62502612  0.84713709  1
  O2-  O286  1  0.75040458  0.87557855  0.33957003  1
  O2-  O287  1  0.74957037  0.87441318  0.85152211  1
