# generated using pymatgen
data_BaYFeCuO5
_symmetry_space_group_name_H-M   'P 1'
_cell_length_a   15.66623219
_cell_length_b   15.66773063
_cell_length_c   15.48373857
_cell_angle_alpha   89.99531437
_cell_angle_beta   90.00257035
_cell_angle_gamma   89.99886121
_symmetry_Int_Tables_number   1
_chemical_formula_structural   BaYFeCuO5
_chemical_formula_sum   'Ba32 Y32 Fe32 Cu32 O160'
_cell_volume   3800.55028734
_cell_formula_units_Z   32
loop_
 _symmetry_equiv_pos_site_id
 _symmetry_equiv_pos_as_xyz
  1  'x, y, z'
loop_
 _atom_type_symbol
 _atom_type_oxidation_number
  Ba2+  2.0
  Y3+  3.0
  Fe3+  3.0
  Cu2+  2.0
  O2-  -2.0
loop_
 _atom_site_type_symbol
 _atom_site_label
 _atom_site_symmetry_multiplicity
 _atom_site_fract_x
 _atom_site_fract_y
 _atom_site_fract_z
 _atom_site_occupancy
  Ba2+  Ba0  1  -0.00417308  -0.00552260  0.01160498  1
  Ba2+  Ba1  1  -0.00080232  -0.01009657  0.51867422  1
  Ba2+  Ba2  1  -0.01113065  0.24825310  0.01249521  1
  Ba2+  Ba3  1  0.00239419  0.26011500  0.51125662  1
  Ba2+  Ba4  1  -0.00618048  0.50646243  0.01657957  1
  Ba2+  Ba5  1  -0.00144673  0.49591265  0.50669508  1
  Ba2+  Ba6  1  -0.00011068  0.74991967  0.01628951  1
  Ba2+  Ba7  1  -0.00489122  0.75307373  0.51183769  1
  Ba2+  Ba8  1  0.25155873  -0.00769757  0.01599473  1
  Ba2+  Ba9  1  0.25578449  -0.00498671  0.51130079  1
  Ba2+  Ba10  1  0.25948713  0.25048134  0.01923525  1
  Ba2+  Ba11  1  0.25201019  0.25617919  0.50670043  1
  Ba2+  Ba12  1  0.25641437  0.50667493  0.01688702  1
  Ba2+  Ba13  1  0.25148635  0.49486962  0.50697384  1
  Ba2+  Ba14  1  0.25020218  0.74946705  0.01656218  1
  Ba2+  Ba15  1  0.25479055  0.75406771  0.51191635  1
  Ba2+  Ba16  1  0.49981145  -0.00065378  0.00722186  1
  Ba2+  Ba17  1  0.50128462  -0.00216500  0.51851853  1
  Ba2+  Ba18  1  0.50144351  0.25166848  0.00641104  1
  Ba2+  Ba19  1  0.49622634  0.24540124  0.51089264  1
  Ba2+  Ba20  1  0.50090512  0.50527703  0.00683186  1
  Ba2+  Ba21  1  0.49656943  0.50509566  0.51138376  1
  Ba2+  Ba22  1  0.49984646  0.74438629  0.00671823  1
  Ba2+  Ba23  1  0.50187488  0.75193033  0.51959103  1
  Ba2+  Ba24  1  0.75183460  0.00166087  0.00138917  1
  Ba2+  Ba25  1  0.74442073  -0.00616541  0.52353000  1
  Ba2+  Ba26  1  0.74995657  0.24856906  -0.00026187  1
  Ba2+  Ba27  1  0.74938507  0.24971142  0.51631046  1
  Ba2+  Ba28  1  0.74893373  0.50501354  0.00648386  1
  Ba2+  Ba29  1  0.75316630  0.50558892  0.51126338  1
  Ba2+  Ba30  1  0.75014129  0.74479464  0.00669443  1
  Ba2+  Ba31  1  0.74817441  0.75134323  0.51938137  1
  Y3+  Y32  1  -0.00109300  -0.00110767  0.25261379  1
  Y3+  Y33  1  0.00051578  -0.00182183  0.76127862  1
  Y3+  Y34  1  -0.00077561  0.25071578  0.25734741  1
  Y3+  Y35  1  -0.00045535  0.25132321  0.75660968  1
  Y3+  Y36  1  -0.00122980  0.50173158  0.25817802  1
  Y3+  Y37  1  -0.00007388  0.49929915  0.75635365  1
  Y3+  Y38  1  -0.00109105  0.74889197  0.25392135  1
  Y3+  Y39  1  0.00058120  0.75127847  0.76003600  1
  Y3+  Y40  1  0.25157181  -0.00087367  0.25476275  1
  Y3+  Y41  1  0.24812722  -0.00330208  0.75853165  1
  Y3+  Y42  1  0.25114719  0.25001796  0.25988220  1
  Y3+  Y43  1  0.24861825  0.25257587  0.75443720  1
  Y3+  Y44  1  0.25089923  0.50192553  0.25845198  1
  Y3+  Y45  1  0.25002582  0.49953753  0.75621632  1
  Y3+  Y46  1  0.25097142  0.74914650  0.25396159  1
  Y3+  Y47  1  0.24966301  0.75101425  0.76008695  1
  Y3+  Y48  1  0.49775464  0.00051652  0.25563986  1
  Y3+  Y49  1  0.50286105  -0.00115519  0.75913543  1
  Y3+  Y50  1  0.49763117  0.24894152  0.25682632  1
  Y3+  Y51  1  0.50217655  0.25042803  0.75725535  1
  Y3+  Y52  1  0.49882778  0.50311204  0.25421685  1
  Y3+  Y53  1  0.50102867  0.50210607  0.76054911  1
  Y3+  Y54  1  0.49896483  0.74758609  0.25280518  1
  Y3+  Y55  1  0.50206009  0.74880922  0.76195272  1
  Y3+  Y56  1  0.75172136  -0.00005433  0.25313621  1
  Y3+  Y57  1  0.74829186  0.00021961  0.76099617  1
  Y3+  Y58  1  0.75231971  0.24950516  0.25491638  1
  Y3+  Y59  1  0.74933667  0.24919123  0.75894391  1
  Y3+  Y60  1  0.75150763  0.50305236  0.25424341  1
  Y3+  Y61  1  0.74882202  0.50189199  0.76028611  1
  Y3+  Y62  1  0.75127473  0.74734379  0.25310725  1
  Y3+  Y63  1  0.74766371  0.74887998  0.76178522  1
  Fe3+  Fe64  1  0.37686189  0.87411421  0.37447897  1
  Fe3+  Fe65  1  0.12541194  0.12556283  0.88068475  1
  Fe3+  Fe66  1  0.12502351  0.62448948  0.87796186  1
  Fe3+  Fe67  1  0.87509784  0.12326066  0.38119974  1
  Fe3+  Fe68  1  0.87489832  0.87366540  0.87627254  1
  Fe3+  Fe69  1  0.37663172  0.37585958  0.37542914  1
  Fe3+  Fe70  1  0.62501530  0.62635200  0.37690292  1
  Fe3+  Fe71  1  0.37402287  0.12514508  0.87629158  1
  Fe3+  Fe72  1  0.12473684  0.87482111  0.37527582  1
  Fe3+  Fe73  1  0.62547827  0.12374549  0.37858488  1
  Fe3+  Fe74  1  0.12507609  0.62592092  0.37949303  1
  Fe3+  Fe75  1  0.87331658  0.87445320  0.37500324  1
  Fe3+  Fe76  1  0.87355641  0.37536454  0.37614320  1
  Fe3+  Fe77  1  0.12522223  0.37518087  0.88185052  1
  Fe3+  Fe78  1  0.62502909  0.37535344  0.38001674  1
  Fe3+  Fe79  1  0.87505825  0.37617372  0.87609105  1
  Fe3+  Fe80  1  0.62530255  0.87459294  0.37439538  1
  Fe3+  Fe81  1  0.37495459  0.87412059  0.87701212  1
  Fe3+  Fe82  1  0.37481432  0.37563977  0.87618351  1
  Fe3+  Fe83  1  0.12470054  0.12380930  0.38006122  1
  Fe3+  Fe84  1  0.62503896  0.12523526  0.13700716  1
  Fe3+  Fe85  1  0.62519892  0.87449169  0.13421099  1
  Fe3+  Fe86  1  0.87545003  0.12435577  0.63584359  1
  Fe3+  Fe87  1  0.37486600  0.62561991  0.63922429  1
  Fe3+  Fe88  1  0.12495874  0.12526795  0.13494817  1
  Fe3+  Fe89  1  0.12508531  0.12430976  0.63438270  1
  Fe3+  Fe90  1  0.62460769  0.37623013  0.63556404  1
  Fe3+  Fe91  1  0.12487848  0.37572173  0.13524068  1
  Fe3+  Fe92  1  0.87507392  0.62561629  0.63944771  1
  Fe3+  Fe93  1  0.62536780  0.37529578  0.13744971  1
  Fe3+  Fe94  1  0.12507002  0.62576534  0.63429572  1
  Fe3+  Fe95  1  0.37455761  0.12456243  0.63854690  1
  Cu2+  Cu96  1  0.87624742  0.12514726  0.87133921  1
  Cu2+  Cu97  1  0.37535880  0.62638427  0.36446380  1
  Cu2+  Cu98  1  0.62412066  0.12530176  0.86445139  1
  Cu2+  Cu99  1  0.12478599  0.37540805  0.37057988  1
  Cu2+  Cu100  1  0.87647528  0.62482215  0.87109066  1
  Cu2+  Cu101  1  0.12534538  0.87435238  0.87492478  1
  Cu2+  Cu102  1  0.37342613  0.62466207  0.87122544  1
  Cu2+  Cu103  1  0.62482794  0.37528410  0.86386252  1
  Cu2+  Cu104  1  0.37491341  0.12369535  0.36492577  1
  Cu2+  Cu105  1  0.87472331  0.62610529  0.36444782  1
  Cu2+  Cu106  1  0.62474852  0.87484966  0.86909769  1
  Cu2+  Cu107  1  0.62495920  0.62471999  0.87273052  1
  Cu2+  Cu108  1  0.37551339  0.87468064  0.65587123  1
  Cu2+  Cu109  1  0.87425206  0.12499975  0.14036075  1
  Cu2+  Cu110  1  0.12529110  0.87416925  0.65120531  1
  Cu2+  Cu111  1  0.62488203  0.62473436  0.65322139  1
  Cu2+  Cu112  1  0.37530709  0.12495309  0.14983442  1
  Cu2+  Cu113  1  0.37560951  0.37560979  0.15217898  1
  Cu2+  Cu114  1  0.37629484  0.87443910  0.14912704  1
  Cu2+  Cu115  1  0.37603195  0.37545661  0.65168356  1
  Cu2+  Cu116  1  0.87434511  0.87473270  0.65644546  1
  Cu2+  Cu117  1  0.87442613  0.37531872  0.15000946  1
  Cu2+  Cu118  1  0.62514622  0.12530914  0.65208658  1
  Cu2+  Cu119  1  0.87450137  0.62507431  0.14170456  1
  Cu2+  Cu120  1  0.12486443  0.62430341  0.15213547  1
  Cu2+  Cu121  1  0.12480871  0.87435712  0.14063761  1
  Cu2+  Cu122  1  0.12506364  0.37614740  0.64031068  1
  Cu2+  Cu123  1  0.62485412  0.87411297  0.65793445  1
  Cu2+  Cu124  1  0.87373982  0.87462232  0.14855181  1
  Cu2+  Cu125  1  0.87389203  0.37548705  0.65172160  1
  Cu2+  Cu126  1  0.37554768  0.62517105  0.14210986  1
  Cu2+  Cu127  1  0.62513470  0.62463616  0.14209318  1
  O2-  O128  1  0.12571719  0.12687123  0.00745464  1
  O2-  O129  1  0.12474556  0.12301706  0.50717267  1
  O2-  O130  1  0.12544018  0.37474300  0.00695191  1
  O2-  O131  1  0.12528879  0.37539817  0.50631579  1
  O2-  O132  1  0.12512756  0.62349669  -0.00170150  1
  O2-  O133  1  0.12503461  0.62629089  0.50702009  1
  O2-  O134  1  0.12524302  0.87496673  0.00787629  1
  O2-  O135  1  0.12514905  0.87539877  0.49550636  1
  O2-  O136  1  0.37418127  0.12570027  -0.00336351  1
  O2-  O137  1  0.37471436  0.12366155  0.51774785  1
  O2-  O138  1  0.37458390  0.37452715  -0.00356707  1
  O2-  O139  1  0.37694860  0.37498507  0.49626412  1
  O2-  O140  1  0.37423406  0.62488094  0.00675821  1
  O2-  O141  1  0.37556169  0.62675741  0.51846125  1
  O2-  O142  1  0.37486884  0.87514965  -0.00251664  1
  O2-  O143  1  0.37757290  0.87487102  0.49522450  1
  O2-  O144  1  0.62452691  0.12662110  0.01678320  1
  O2-  O145  1  0.62580501  0.12275998  0.49895021  1
  O2-  O146  1  0.62554318  0.37365636  0.01711523  1
  O2-  O147  1  0.62470466  0.37562848  0.50648810  1
  O2-  O148  1  0.62488492  0.62368343  0.00679098  1
  O2-  O149  1  0.62496962  0.62704893  0.49742136  1
  O2-  O150  1  0.62515434  0.87663641  0.01396096  1
  O2-  O151  1  0.62471316  0.87468902  0.49462632  1
  O2-  O152  1  0.87487840  0.12536443  0.00603208  1
  O2-  O153  1  0.87528327  0.12298732  0.50689640  1
  O2-  O154  1  0.87488632  0.37511458  -0.00342171  1
  O2-  O155  1  0.87336087  0.37467533  0.49677466  1
  O2-  O156  1  0.87602332  0.62500824  0.00652779  1
  O2-  O157  1  0.87442123  0.62664455  0.51845355  1
  O2-  O158  1  0.87483437  0.87450335  -0.00286260  1
  O2-  O159  1  0.87292344  0.87539444  0.49535278  1
  O2-  O160  1  0.12519090  0.00293225  0.16264553  1
  O2-  O161  1  0.12479524  0.00106254  0.66431060  1
  O2-  O162  1  0.12558068  0.25060791  0.16451944  1
  O2-  O163  1  0.12412903  0.24672497  0.66421406  1
  O2-  O164  1  0.12475446  0.49790327  0.16536925  1
  O2-  O165  1  0.12522875  0.50387709  0.66395817  1
  O2-  O166  1  0.12482050  0.74821961  0.16482344  1
  O2-  O167  1  0.12480652  0.74874634  0.66195292  1
  O2-  O168  1  0.37477317  -0.00011990  0.16277001  1
  O2-  O169  1  0.37437564  -0.00026670  0.66586174  1
  O2-  O170  1  0.37387561  0.25045100  0.16570360  1
  O2-  O171  1  0.37464369  0.24966780  0.66441241  1
  O2-  O172  1  0.37450160  0.49904853  0.16691440  1
  O2-  O173  1  0.37454625  0.50069444  0.66484030  1
  O2-  O174  1  0.37469781  0.75070904  0.16385924  1
  O2-  O175  1  0.37525919  0.75013328  0.66630589  1
  O2-  O176  1  0.62449127  0.00012712  0.16579075  1
  O2-  O177  1  0.62538330  -0.00045256  0.66533226  1
  O2-  O178  1  0.62488768  0.25002580  0.17122985  1
  O2-  O179  1  0.62503526  0.25212848  0.66241498  1
  O2-  O180  1  0.62494668  0.49838971  0.16851763  1
  O2-  O181  1  0.62520865  0.49859159  0.66304108  1
  O2-  O182  1  0.62536584  0.75137805  0.16322086  1
  O2-  O183  1  0.62469341  0.74962512  0.66599313  1
  O2-  O184  1  0.87552684  -0.00161142  0.16362033  1
  O2-  O185  1  0.87492700  0.00095289  0.66337829  1
  O2-  O186  1  0.87579287  0.25140147  0.16791443  1
  O2-  O187  1  0.87594216  0.24813843  0.66116454  1
  O2-  O188  1  0.87587322  0.49887318  0.16672545  1
  O2-  O189  1  0.87492996  0.50093077  0.66496423  1
  O2-  O190  1  0.87515895  0.75129096  0.16356489  1
  O2-  O191  1  0.87516397  0.75006162  0.66612282  1
  O2-  O192  1  0.00296301  0.12599815  0.16501358  1
  O2-  O193  1  0.00016296  0.12403322  0.66198111  1
  O2-  O194  1  0.00152260  0.37421069  0.16192075  1
  O2-  O195  1  -0.00198281  0.37508964  0.66525329  1
  O2-  O196  1  0.00095510  0.62442974  0.16678459  1
  O2-  O197  1  0.00129931  0.62541218  0.66366272  1
  O2-  O198  1  -0.00265736  0.87510556  0.16394149  1
  O2-  O199  1  -0.00007089  0.87570539  0.66395960  1
  O2-  O200  1  0.24866026  0.12582429  0.16411960  1
  O2-  O201  1  0.24817890  0.12479256  0.66456087  1
  O2-  O202  1  0.24861879  0.37494652  0.16258426  1
  O2-  O203  1  0.25169803  0.37468853  0.66449137  1
  O2-  O204  1  0.24886720  0.62432633  0.16692391  1
  O2-  O205  1  0.24874877  0.62591651  0.66390307  1
  O2-  O206  1  0.25230131  0.87507859  0.16476569  1
  O2-  O207  1  0.25000570  0.87513852  0.66381521  1
  O2-  O208  1  0.50036945  0.12580715  0.16570681  1
  O2-  O209  1  0.49947030  0.12485017  0.66587049  1
  O2-  O210  1  0.50027576  0.37410192  0.16603161  1
  O2-  O211  1  0.50186389  0.37507938  0.66296770  1
  O2-  O212  1  0.50032626  0.62454972  0.16394595  1
  O2-  O213  1  0.49989216  0.62472221  0.66702719  1
  O2-  O214  1  0.50061735  0.87555923  0.16312048  1
  O2-  O215  1  0.50065084  0.87537543  0.66609531  1
  O2-  O216  1  0.74808284  0.12537995  0.16773667  1
  O2-  O217  1  0.75203706  0.12532244  0.66335145  1
  O2-  O218  1  0.74977255  0.37466595  0.16746160  1
  O2-  O219  1  0.74816933  0.37452965  0.66259802  1
  O2-  O220  1  0.74992928  0.62428946  0.16406441  1
  O2-  O221  1  0.74993635  0.62512540  0.66677704  1
  O2-  O222  1  0.74983884  0.87581336  0.16360008  1
  O2-  O223  1  0.74926176  0.87481157  0.66583895  1
  O2-  O224  1  0.12474698  0.00063083  0.34570378  1
  O2-  O225  1  0.12516672  0.00319550  0.84991033  1
  O2-  O226  1  0.12445049  0.24657768  0.35003540  1
  O2-  O227  1  0.12518403  0.25136109  0.84915261  1
  O2-  O228  1  0.12493386  0.50329927  0.35041073  1
  O2-  O229  1  0.12491644  0.49726043  0.84720062  1
  O2-  O230  1  0.12461738  0.74956120  0.34776846  1
  O2-  O231  1  0.12522042  0.74817420  0.84596451  1
  O2-  O232  1  0.37424875  -0.00125724  0.34582470  1
  O2-  O233  1  0.37462396  0.00045998  0.84646688  1
  O2-  O234  1  0.37503923  0.24984861  0.34923091  1
  O2-  O235  1  0.37427819  0.25042684  0.84477540  1
  O2-  O236  1  0.37515178  0.50087670  0.34982993  1
  O2-  O237  1  0.37445423  0.49804182  0.84615264  1
  O2-  O238  1  0.37487372  0.75065287  0.34601833  1
  O2-  O239  1  0.37441084  0.75093322  0.84766827  1
  O2-  O240  1  0.62576669  0.00011270  0.34439152  1
  O2-  O241  1  0.62483847  0.00081267  0.85015169  1
  O2-  O242  1  0.62501591  0.25071575  0.35230158  1
  O2-  O243  1  0.62523777  0.24997280  0.84724357  1
  O2-  O244  1  0.62547565  0.49900727  0.35091816  1
  O2-  O245  1  0.62476892  0.49891070  0.84726989  1
  O2-  O246  1  0.62524465  0.75006515  0.34327967  1
  O2-  O247  1  0.62496192  0.75042346  0.85036161  1
  O2-  O248  1  0.87532334  0.00107929  0.34555779  1
  O2-  O249  1  0.87538542  -0.00182525  0.84686331  1
  O2-  O250  1  0.87558528  0.24774043  0.35016316  1
  O2-  O251  1  0.87533057  0.25244428  0.84469713  1
  O2-  O252  1  0.87460927  0.50036416  0.34998158  1
  O2-  O253  1  0.87571239  0.49830600  0.84589397  1
  O2-  O254  1  0.87553484  0.75067194  0.34635466  1
  O2-  O255  1  0.87534699  0.75091873  0.84702203  1
  O2-  O256  1  -0.00063402  0.12451328  0.35019477  1
  O2-  O257  1  0.00406431  0.12644992  0.84648606  1
  O2-  O258  1  -0.00271410  0.37468435  0.34566107  1
  O2-  O259  1  0.00211257  0.37423834  0.84794821  1
  O2-  O260  1  0.00124202  0.62526260  0.35158532  1
  O2-  O261  1  0.00245636  0.62387732  0.84449214  1
  O2-  O262  1  -0.00033004  0.87563716  0.34564224  1
  O2-  O263  1  -0.00098906  0.87541002  0.84744453  1
  O2-  O264  1  0.24794101  0.12464351  0.34990491  1
  O2-  O265  1  0.24852908  0.12616353  0.84625910  1
  O2-  O266  1  0.25238371  0.37470482  0.34630003  1
  O2-  O267  1  0.24818742  0.37449664  0.84678211  1
  O2-  O268  1  0.24865141  0.62567230  0.35152760  1
  O2-  O269  1  0.24759331  0.62355628  0.84463732  1
  O2-  O270  1  0.24983767  0.87524499  0.34650846  1
  O2-  O271  1  0.25148061  0.87561020  0.84685624  1
  O2-  O272  1  0.50106761  0.12477384  0.34812097  1
  O2-  O273  1  0.49864839  0.12605728  0.84840990  1
  O2-  O274  1  0.50177435  0.37481210  0.34766281  1
  O2-  O275  1  0.49972012  0.37415065  0.84714443  1
  O2-  O276  1  0.50091727  0.62488548  0.34639344  1
  O2-  O277  1  0.49945070  0.62434462  0.85044408  1
  O2-  O278  1  0.50069731  0.87533968  0.34273146  1
  O2-  O279  1  0.49959227  0.87550206  0.84932016  1
  O2-  O280  1  0.75195266  0.12546617  0.34910454  1
  O2-  O281  1  0.74853529  0.12564033  0.84858834  1
  O2-  O282  1  0.74866046  0.37396365  0.34856930  1
  O2-  O283  1  0.74982884  0.37452940  0.84724248  1
  O2-  O284  1  0.74934673  0.62502584  0.34668491  1
  O2-  O285  1  0.75038667  0.62418806  0.85015834  1
  O2-  O286  1  0.75007621  0.87527559  0.34276161  1
  O2-  O287  1  0.74986925  0.87556259  0.84935784  1
