# generated using pymatgen
data_BaYFeCuO5
_symmetry_space_group_name_H-M   'P 1'
_cell_length_a   15.66469358
_cell_length_b   15.66345462
_cell_length_c   15.46989014
_cell_angle_alpha   89.99860288
_cell_angle_beta   89.99494313
_cell_angle_gamma   90.00272626
_symmetry_Int_Tables_number   1
_chemical_formula_structural   BaYFeCuO5
_chemical_formula_sum   'Ba32 Y32 Fe32 Cu32 O160'
_cell_volume   3795.74199077
_cell_formula_units_Z   32
loop_
 _symmetry_equiv_pos_site_id
 _symmetry_equiv_pos_as_xyz
  1  'x, y, z'
loop_
 _atom_type_symbol
 _atom_type_oxidation_number
  Ba2+  2.0
  Y3+  3.0
  Fe3+  3.0
  Cu2+  2.0
  O2-  -2.0
loop_
 _atom_site_type_symbol
 _atom_site_label
 _atom_site_symmetry_multiplicity
 _atom_site_fract_x
 _atom_site_fract_y
 _atom_site_fract_z
 _atom_site_occupancy
  Ba2+  Ba0  1  -0.00039463  -0.00266523  0.01119573  1
  Ba2+  Ba1  1  0.00802131  0.00335851  0.51073233  1
  Ba2+  Ba2  1  0.00691098  0.24458453  0.01284135  1
  Ba2+  Ba3  1  -0.00096870  0.25025194  0.50680294  1
  Ba2+  Ba4  1  0.01053213  0.50059300  0.01800315  1
  Ba2+  Ba5  1  -0.00130127  0.49996103  0.50653768  1
  Ba2+  Ba6  1  0.00291961  0.75747263  0.01718587  1
  Ba2+  Ba7  1  0.00767103  0.74609818  0.51046284  1
  Ba2+  Ba8  1  0.24793796  0.00000341  0.01805651  1
  Ba2+  Ba9  1  0.24598374  -0.00173792  0.51424883  1
  Ba2+  Ba10  1  0.24861119  0.24946085  0.01916680  1
  Ba2+  Ba11  1  0.24378658  0.24401757  0.50647385  1
  Ba2+  Ba12  1  0.24604944  0.49525750  0.02467725  1
  Ba2+  Ba13  1  0.24624851  0.50865613  0.50277275  1
  Ba2+  Ba14  1  0.24469576  0.75502006  0.02387004  1
  Ba2+  Ba15  1  0.24832094  0.74872052  0.51081782  1
  Ba2+  Ba16  1  0.49647634  -0.00474627  0.00561172  1
  Ba2+  Ba17  1  0.49541268  -0.00564790  0.52269362  1
  Ba2+  Ba18  1  0.49552005  0.25407878  0.00637976  1
  Ba2+  Ba19  1  0.50128595  0.25091449  0.51718450  1
  Ba2+  Ba20  1  0.49950173  0.48982119  0.01163894  1
  Ba2+  Ba21  1  0.50254061  0.50790036  0.50460946  1
  Ba2+  Ba22  1  0.50045715  0.76031875  0.01084974  1
  Ba2+  Ba23  1  0.49648191  0.74801382  0.51260870  1
  Ba2+  Ba24  1  0.75551498  -0.00697406  0.00131472  1
  Ba2+  Ba25  1  0.74989443  -0.00020104  0.51841296  1
  Ba2+  Ba26  1  0.74890613  0.25019282  0.00151747  1
  Ba2+  Ba27  1  0.75666077  0.25684899  0.51729812  1
  Ba2+  Ba28  1  0.74454971  0.49476827  0.00702193  1
  Ba2+  Ba29  1  0.75314094  0.49708062  0.51494310  1
  Ba2+  Ba30  1  0.75134099  0.76138252  0.00633347  1
  Ba2+  Ba31  1  0.74544532  0.74526503  0.51322476  1
  Y3+  Y32  1  0.00223315  -0.00085481  0.25920617  1
  Y3+  Y33  1  0.00006284  0.00064496  0.75476794  1
  Y3+  Y34  1  0.00179620  0.25022149  0.26217106  1
  Y3+  Y35  1  -0.00128654  0.24756695  0.75371148  1
  Y3+  Y36  1  0.00204974  0.49940760  0.26163765  1
  Y3+  Y37  1  -0.00049133  0.50126322  0.75327794  1
  Y3+  Y38  1  0.00210736  0.75169865  0.25921240  1
  Y3+  Y39  1  0.00110973  0.74993449  0.75418543  1
  Y3+  Y40  1  0.24655708  -0.00065026  0.26090234  1
  Y3+  Y41  1  0.24959049  0.00069166  0.75091483  1
  Y3+  Y42  1  0.24677562  0.25023017  0.26064307  1
  Y3+  Y43  1  0.25051271  0.24637860  0.75308829  1
  Y3+  Y44  1  0.24822466  0.50134089  0.26231876  1
  Y3+  Y45  1  0.25009074  0.50327776  0.75184277  1
  Y3+  Y46  1  0.24757388  0.74989434  0.26307005  1
  Y3+  Y47  1  0.24934061  0.74922694  0.74917952  1
  Y3+  Y48  1  0.50070277  -0.00221376  0.25371924  1
  Y3+  Y49  1  0.49828104  -0.00108262  0.75909105  1
  Y3+  Y50  1  0.50065212  0.25203200  0.25485849  1
  Y3+  Y51  1  0.49931153  0.25006261  0.75940050  1
  Y3+  Y52  1  0.49970862  0.50062916  0.25692497  1
  Y3+  Y53  1  0.50005701  0.49916506  0.75818926  1
  Y3+  Y54  1  0.49977331  0.74999682  0.25699742  1
  Y3+  Y55  1  0.49894102  0.75154814  0.75734690  1
  Y3+  Y56  1  0.75028020  -0.00215521  0.25336690  1
  Y3+  Y57  1  0.75231899  -0.00137968  0.76137013  1
  Y3+  Y58  1  0.75038885  0.25182031  0.25671712  1
  Y3+  Y59  1  0.75224772  0.25113597  0.75841113  1
  Y3+  Y60  1  0.74971705  0.49854741  0.25691065  1
  Y3+  Y61  1  0.75079552  0.49735943  0.75928011  1
  Y3+  Y62  1  0.74962027  0.75253309  0.25333590  1
  Y3+  Y63  1  0.75047958  0.75254667  0.76116141  1
  Fe3+  Fe64  1  0.87694627  0.62543824  0.88115399  1
  Fe3+  Fe65  1  0.37689808  0.12421887  0.37823322  1
  Fe3+  Fe66  1  0.12589779  0.87470833  0.87301594  1
  Fe3+  Fe67  1  0.37119835  0.37502514  0.87509651  1
  Fe3+  Fe68  1  0.37529165  0.87535591  0.37618110  1
  Fe3+  Fe69  1  0.87844608  0.37503972  0.88022031  1
  Fe3+  Fe70  1  0.37525238  0.37493118  0.37937382  1
  Fe3+  Fe71  1  0.62551043  0.37522270  0.37714253  1
  Fe3+  Fe72  1  0.62496357  0.87501578  0.37753271  1
  Fe3+  Fe73  1  0.87317874  0.12446626  0.37825910  1
  Fe3+  Fe74  1  0.37109099  0.87464339  0.87500261  1
  Fe3+  Fe75  1  0.87306237  0.62560023  0.37563438  1
  Fe3+  Fe76  1  0.62393489  0.62535332  0.88140621  1
  Fe3+  Fe77  1  0.37290256  0.62535557  0.88146516  1
  Fe3+  Fe78  1  0.12619546  0.37500980  0.87432306  1
  Fe3+  Fe79  1  0.87458105  0.87501056  0.38051326  1
  Fe3+  Fe80  1  0.62440664  0.12446090  0.87829372  1
  Fe3+  Fe81  1  0.12655057  0.62533404  0.87699262  1
  Fe3+  Fe82  1  0.62490805  0.12434633  0.38043123  1
  Fe3+  Fe83  1  0.12610957  0.12434078  0.87470405  1
  Fe3+  Fe84  1  0.87571451  0.12491794  0.13678141  1
  Fe3+  Fe85  1  0.37426870  0.62554559  0.13566106  1
  Fe3+  Fe86  1  0.87642472  0.37456583  0.13495489  1
  Fe3+  Fe87  1  0.62498744  0.62524500  0.13398480  1
  Fe3+  Fe88  1  0.62578190  0.12507458  0.63761354  1
  Fe3+  Fe89  1  0.37440021  0.12483113  0.13825376  1
  Fe3+  Fe90  1  0.62544473  0.62465076  0.64271367  1
  Fe3+  Fe91  1  0.62540607  0.12497682  0.13321569  1
  Fe3+  Fe92  1  0.87594872  0.62532446  0.13400741  1
  Fe3+  Fe93  1  0.87531173  0.87409131  0.63513203  1
  Fe3+  Fe94  1  0.12491111  0.37515794  0.63499909  1
  Fe3+  Fe95  1  0.37505943  0.37614142  0.63312695  1
  Cu2+  Cu96  1  0.87685550  0.12508623  0.86565695  1
  Cu2+  Cu97  1  0.62425975  0.37446217  0.87295499  1
  Cu2+  Cu98  1  0.62399550  0.87522090  0.87148376  1
  Cu2+  Cu99  1  0.37314051  0.12443629  0.86406643  1
  Cu2+  Cu100  1  0.12364931  0.62566867  0.37128611  1
  Cu2+  Cu101  1  0.62612208  0.62582642  0.35893741  1
  Cu2+  Cu102  1  0.87436336  0.37517072  0.37180629  1
  Cu2+  Cu103  1  0.37587447  0.62607230  0.37241599  1
  Cu2+  Cu104  1  0.12441771  0.87520144  0.37420005  1
  Cu2+  Cu105  1  0.12484946  0.37503435  0.36874469  1
  Cu2+  Cu106  1  0.12465555  0.12450185  0.37252309  1
  Cu2+  Cu107  1  0.87854934  0.87421100  0.86990463  1
  Cu2+  Cu108  1  0.62546058  0.37404615  0.14094933  1
  Cu2+  Cu109  1  0.37379975  0.37503633  0.15580668  1
  Cu2+  Cu110  1  0.12428533  0.62405260  0.64071502  1
  Cu2+  Cu111  1  0.37403694  0.87506590  0.15263575  1
  Cu2+  Cu112  1  0.12504866  0.87586709  0.15637901  1
  Cu2+  Cu113  1  0.87437693  0.12431828  0.64956780  1
  Cu2+  Cu114  1  0.37644510  0.62424985  0.64138548  1
  Cu2+  Cu115  1  0.62500771  0.87601431  0.13995589  1
  Cu2+  Cu116  1  0.12420016  0.37434673  0.15742289  1
  Cu2+  Cu117  1  0.37609282  0.12546167  0.64744875  1
  Cu2+  Cu118  1  0.62487665  0.37497545  0.65340073  1
  Cu2+  Cu119  1  0.12448569  0.12464862  0.15508022  1
  Cu2+  Cu120  1  0.62542828  0.87494534  0.65339382  1
  Cu2+  Cu121  1  0.87382653  0.62542297  0.65297988  1
  Cu2+  Cu122  1  0.12444841  0.12572533  0.64094149  1
  Cu2+  Cu123  1  0.87588860  0.87561096  0.14330215  1
  Cu2+  Cu124  1  0.87614212  0.37545662  0.64411916  1
  Cu2+  Cu125  1  0.12453265  0.87464853  0.64011003  1
  Cu2+  Cu126  1  0.37508561  0.87437239  0.65029762  1
  Cu2+  Cu127  1  0.12483128  0.62577498  0.15470722  1
  O2-  O128  1  0.12703125  0.12417199  -0.00462926  1
  O2-  O129  1  0.12464168  0.12571243  0.50679876  1
  O2-  O130  1  0.12715851  0.37432002  -0.00514336  1
  O2-  O131  1  0.12378120  0.37508336  0.51448438  1
  O2-  O132  1  0.12785530  0.62515673  -0.00292084  1
  O2-  O133  1  0.12364317  0.62421330  0.50639436  1
  O2-  O134  1  0.12649636  0.87591849  -0.00626189  1
  O2-  O135  1  0.12422151  0.87487795  0.50668017  1
  O2-  O136  1  0.37349151  0.12594113  0.01775751  1
  O2-  O137  1  0.37965664  0.12439894  0.49845657  1
  O2-  O138  1  0.36999127  0.37446993  -0.00437225  1
  O2-  O139  1  0.37711559  0.37560645  0.50593574  1
  O2-  O140  1  0.37176718  0.62469298  0.00727391  1
  O2-  O141  1  0.37764908  0.62510264  0.50622430  1
  O2-  O142  1  0.36978818  0.87490254  -0.00440739  1
  O2-  O143  1  0.37742814  0.87479579  0.49649783  1
  O2-  O144  1  0.62426018  0.12471028  0.00659068  1
  O2-  O145  1  0.62528472  0.12486269  0.50694897  1
  O2-  O146  1  0.62438669  0.37377116  0.00664951  1
  O2-  O147  1  0.62580663  0.37504305  0.49725414  1
  O2-  O148  1  0.62285666  0.62529727  0.00787188  1
  O2-  O149  1  0.62619872  0.62434110  0.52162334  1
  O2-  O150  1  0.62443098  0.87666021  0.00606922  1
  O2-  O151  1  0.62506399  0.87508211  0.49750939  1
  O2-  O152  1  0.87649854  0.12563688  0.01650326  1
  O2-  O153  1  0.87080027  0.12434680  0.49854388  1
  O2-  O154  1  0.87872807  0.37440401  0.00745599  1
  O2-  O155  1  0.87436832  0.37590452  0.50745686  1
  O2-  O156  1  0.87877963  0.62515074  0.00719613  1
  O2-  O157  1  0.87077358  0.62531349  0.49593105  1
  O2-  O158  1  0.87836753  0.87481238  0.00679151  1
  O2-  O159  1  0.87288265  0.87422568  0.50641802  1
  O2-  O160  1  0.12467904  -0.00015388  0.16567124  1
  O2-  O161  1  0.12473706  0.00029087  0.66206119  1
  O2-  O162  1  0.12486791  0.24991199  0.16646140  1
  O2-  O163  1  0.12556357  0.25190206  0.66543439  1
  O2-  O164  1  0.12471143  0.49981210  0.16493422  1
  O2-  O165  1  0.12472220  0.49818068  0.66602204  1
  O2-  O166  1  0.12483857  0.75100884  0.16502616  1
  O2-  O167  1  0.12444707  0.74926730  0.66258141  1
  O2-  O168  1  0.37509058  0.00024950  0.16449073  1
  O2-  O169  1  0.37679839  -0.00052589  0.66324372  1
  O2-  O170  1  0.37423469  0.24970734  0.16801333  1
  O2-  O171  1  0.37633680  0.25253065  0.66255233  1
  O2-  O172  1  0.37459239  0.50141705  0.16389910  1
  O2-  O173  1  0.37679273  0.49703531  0.66570751  1
  O2-  O174  1  0.37518049  0.74882355  0.16145653  1
  O2-  O175  1  0.37652154  0.75071899  0.66481844  1
  O2-  O176  1  0.62489740  0.00390287  0.16516308  1
  O2-  O177  1  0.62500465  0.00103787  0.66276264  1
  O2-  O178  1  0.62536268  0.24678156  0.16536810  1
  O2-  O179  1  0.62570763  0.24894819  0.66303404  1
  O2-  O180  1  0.62478609  0.50294202  0.16285528  1
  O2-  O181  1  0.62570760  0.49934360  0.66994985  1
  O2-  O182  1  0.62490826  0.74685403  0.16289166  1
  O2-  O183  1  0.62580792  0.75032784  0.66810115  1
  O2-  O184  1  0.87523150  0.00210990  0.16772145  1
  O2-  O185  1  0.87374610  -0.00196486  0.66269319  1
  O2-  O186  1  0.87548468  0.25111128  0.16535439  1
  O2-  O187  1  0.87363533  0.24850527  0.66652263  1
  O2-  O188  1  0.87580485  0.50012546  0.16046862  1
  O2-  O189  1  0.87362096  0.50164466  0.66840027  1
  O2-  O190  1  0.87498413  0.74717278  0.16349090  1
  O2-  O191  1  0.87302015  0.75126954  0.66381151  1
  O2-  O192  1  0.00018757  0.12551534  0.16641847  1
  O2-  O193  1  -0.00184028  0.12512470  0.66365524  1
  O2-  O194  1  -0.00142238  0.37505177  0.16441519  1
  O2-  O195  1  0.00153213  0.37498751  0.66664715  1
  O2-  O196  1  -0.00078996  0.62504060  0.16309826  1
  O2-  O197  1  -0.00237560  0.62503179  0.66452239  1
  O2-  O198  1  0.00157738  0.87507379  0.16728024  1
  O2-  O199  1  -0.00312883  0.87428445  0.66207965  1
  O2-  O200  1  0.24937056  0.12517752  0.16733876  1
  O2-  O201  1  0.25204249  0.12524621  0.66009863  1
  O2-  O202  1  0.24857895  0.37513262  0.16811431  1
  O2-  O203  1  0.25155232  0.37563192  0.65881439  1
  O2-  O204  1  0.25100463  0.62502145  0.16558291  1
  O2-  O205  1  0.25060884  0.62431741  0.66115447  1
  O2-  O206  1  0.24934751  0.87528644  0.16621243  1
  O2-  O207  1  0.25133800  0.87455335  0.65923188  1
  O2-  O208  1  0.50077599  0.12584392  0.16388765  1
  O2-  O209  1  0.50261345  0.12553123  0.66618714  1
  O2-  O210  1  0.49880170  0.37472280  0.16398158  1
  O2-  O211  1  0.49874623  0.37423398  0.66434452  1
  O2-  O212  1  0.49917801  0.62461727  0.16118152  1
  O2-  O213  1  0.50248904  0.62477235  0.67197428  1
  O2-  O214  1  0.49858155  0.87546035  0.16136782  1
  O2-  O215  1  0.50018969  0.87482473  0.66624905  1
  O2-  O216  1  0.74965945  0.12573091  0.16374670  1
  O2-  O217  1  0.74785959  0.12454401  0.66726067  1
  O2-  O218  1  0.75394914  0.37515449  0.16133391  1
  O2-  O219  1  0.74938326  0.37502557  0.66935238  1
  O2-  O220  1  0.75056807  0.62426482  0.15743046  1
  O2-  O221  1  0.74880347  0.62487645  0.67397905  1
  O2-  O222  1  0.75011744  0.87551980  0.16405369  1
  O2-  O223  1  0.75176599  0.87521765  0.66642679  1
  O2-  O224  1  0.12447477  0.00025553  0.34929018  1
  O2-  O225  1  0.12530682  -0.00007496  0.84300830  1
  O2-  O226  1  0.12464933  0.25056197  0.35089369  1
  O2-  O227  1  0.12494518  0.24996353  0.84538604  1
  O2-  O228  1  0.12463432  0.49938441  0.34968651  1
  O2-  O229  1  0.12578473  0.50055525  0.84555486  1
  O2-  O230  1  0.12382014  0.75021319  0.34902477  1
  O2-  O231  1  0.12512338  0.74897264  0.84341159  1
  O2-  O232  1  0.37663756  0.00015112  0.34457032  1
  O2-  O233  1  0.37399780  -0.00049732  0.84711990  1
  O2-  O234  1  0.37694265  0.25111076  0.35013645  1
  O2-  O235  1  0.37460021  0.25002311  0.84625676  1
  O2-  O236  1  0.37609095  0.49715783  0.34910452  1
  O2-  O237  1  0.37431820  0.50179977  0.84813221  1
  O2-  O238  1  0.37626165  0.75226429  0.34462032  1
  O2-  O239  1  0.37502280  0.74815701  0.84807122  1
  O2-  O240  1  0.62539258  0.00091971  0.34776970  1
  O2-  O241  1  0.62526337  0.00286363  0.84768613  1
  O2-  O242  1  0.62470710  0.24862310  0.34825841  1
  O2-  O243  1  0.62478929  0.24679730  0.84804253  1
  O2-  O244  1  0.62492606  0.50016263  0.34651489  1
  O2-  O245  1  0.62483615  0.50322138  0.85243314  1
  O2-  O246  1  0.62562987  0.75099659  0.34621142  1
  O2-  O247  1  0.62454865  0.74664979  0.85082568  1
  O2-  O248  1  0.87279679  -0.00147908  0.34909811  1
  O2-  O249  1  0.87585010  0.00060252  0.84739884  1
  O2-  O250  1  0.87330276  0.24813828  0.34738074  1
  O2-  O251  1  0.87623276  0.25223538  0.85080440  1
  O2-  O252  1  0.87356336  0.50145076  0.34443455  1
  O2-  O253  1  0.87528163  0.50017989  0.85268396  1
  O2-  O254  1  0.87336974  0.75223803  0.34671048  1
  O2-  O255  1  0.87574457  0.74634582  0.84810785  1
  O2-  O256  1  -0.00298258  0.12466146  0.34922800  1
  O2-  O257  1  0.00144631  0.12490012  0.84658554  1
  O2-  O258  1  0.00064540  0.37512469  0.34867989  1
  O2-  O259  1  0.00011919  0.37605191  0.84769560  1
  O2-  O260  1  -0.00302280  0.62542476  0.34658278  1
  O2-  O261  1  0.00008839  0.62408883  0.84784558  1
  O2-  O262  1  -0.00375068  0.87535061  0.35101612  1
  O2-  O263  1  0.00315993  0.87448079  0.84328286  1
  O2-  O264  1  0.25290803  0.12577086  0.34995710  1
  O2-  O265  1  0.24882776  0.12503411  0.84231776  1
  O2-  O266  1  0.25204005  0.37475090  0.35291588  1
  O2-  O267  1  0.24948461  0.37507730  0.83801247  1
  O2-  O268  1  0.24952753  0.62503638  0.34988030  1
  O2-  O269  1  0.25132392  0.62508042  0.84321898  1
  O2-  O270  1  0.25150246  0.87528881  0.34931086  1
  O2-  O271  1  0.24921587  0.87400864  0.83904176  1
  O2-  O272  1  0.50229431  0.12530136  0.34565083  1
  O2-  O273  1  0.50041578  0.12477673  0.85165617  1
  O2-  O274  1  0.49988557  0.37537627  0.34703596  1
  O2-  O275  1  0.49631803  0.37499470  0.84795919  1
  O2-  O276  1  0.50254151  0.62497234  0.34533712  1
  O2-  O277  1  0.49835648  0.62438880  0.85504517  1
  O2-  O278  1  0.50116796  0.87517025  0.34289499  1
  O2-  O279  1  0.49660205  0.87529228  0.84942424  1
  O2-  O280  1  0.74755910  0.12478541  0.34562741  1
  O2-  O281  1  0.74977631  0.12522477  0.85328345  1
  O2-  O282  1  0.74732152  0.37497515  0.34312440  1
  O2-  O283  1  0.75423820  0.37458688  0.85407759  1
  O2-  O284  1  0.75021057  0.62598871  0.34037156  1
  O2-  O285  1  0.75064231  0.62481550  0.85845755  1
  O2-  O286  1  0.75041539  0.87514764  0.34611935  1
  O2-  O287  1  0.75108885  0.87487660  0.85107020  1
