# generated using pymatgen
data_BaYFeCuO5
_symmetry_space_group_name_H-M   'P 1'
_cell_length_a   15.65505340
_cell_length_b   15.65868985
_cell_length_c   15.44741546
_cell_angle_alpha   89.99619258
_cell_angle_beta   90.00045430
_cell_angle_gamma   90.00190897
_symmetry_Int_Tables_number   1
_chemical_formula_structural   BaYFeCuO5
_chemical_formula_sum   'Ba32 Y32 Fe32 Cu32 O160'
_cell_volume   3786.74273759
_cell_formula_units_Z   32
loop_
 _symmetry_equiv_pos_site_id
 _symmetry_equiv_pos_as_xyz
  1  'x, y, z'
loop_
 _atom_type_symbol
 _atom_type_oxidation_number
  Ba2+  2.0
  Y3+  3.0
  Fe3+  3.0
  Cu2+  2.0
  O2-  -2.0
loop_
 _atom_site_type_symbol
 _atom_site_label
 _atom_site_symmetry_multiplicity
 _atom_site_fract_x
 _atom_site_fract_y
 _atom_site_fract_z
 _atom_site_occupancy
  Ba2+  Ba0  1  0.00869447  0.00850240  0.01511337  1
  Ba2+  Ba1  1  0.00370024  0.00446038  0.51110777  1
  Ba2+  Ba2  1  0.00601621  0.25130557  0.01212423  1
  Ba2+  Ba3  1  0.00720708  0.25059098  0.50562584  1
  Ba2+  Ba4  1  0.00285521  0.48662551  0.00733402  1
  Ba2+  Ba5  1  0.00477194  0.50270341  0.51339664  1
  Ba2+  Ba6  1  0.00823780  0.75515318  0.01168896  1
  Ba2+  Ba7  1  0.00095181  0.74277257  0.51641457  1
  Ba2+  Ba8  1  0.24728036  0.00371789  0.02319175  1
  Ba2+  Ba9  1  0.25001953  0.00792537  0.50547407  1
  Ba2+  Ba10  1  0.24588133  0.25179628  0.01262366  1
  Ba2+  Ba11  1  0.25357057  0.25334552  0.50232674  1
  Ba2+  Ba12  1  0.25421607  0.49226790  0.00705764  1
  Ba2+  Ba13  1  0.25062389  0.49336330  0.50733898  1
  Ba2+  Ba14  1  0.25538885  0.75197840  0.01765450  1
  Ba2+  Ba15  1  0.24563617  0.74530959  0.51224283  1
  Ba2+  Ba16  1  0.48912801  0.00062963  0.01736254  1
  Ba2+  Ba17  1  0.50099453  0.00811914  0.51549454  1
  Ba2+  Ba18  1  0.48756478  0.25173902  0.01233470  1
  Ba2+  Ba19  1  0.49647181  0.25403022  0.51179973  1
  Ba2+  Ba20  1  0.48688497  0.49947022  0.00678899  1
  Ba2+  Ba21  1  0.49915072  0.49317065  0.50597602  1
  Ba2+  Ba22  1  0.48805470  0.74728482  0.01067375  1
  Ba2+  Ba23  1  0.50501975  0.74523638  0.51371892  1
  Ba2+  Ba24  1  0.75499908  0.00590168  0.01019620  1
  Ba2+  Ba25  1  0.74518710  0.00414821  0.52250323  1
  Ba2+  Ba26  1  0.76173173  0.25148705  0.01170538  1
  Ba2+  Ba27  1  0.74272161  0.24981718  0.51725644  1
  Ba2+  Ba28  1  0.75593662  0.49254736  0.00713418  1
  Ba2+  Ba29  1  0.74522877  0.50234693  0.51347878  1
  Ba2+  Ba30  1  0.74929269  0.74995863  0.00628428  1
  Ba2+  Ba31  1  0.74867999  0.74239940  0.51795011  1
  Y3+  Y32  1  0.00272881  0.00314999  0.25645009  1
  Y3+  Y33  1  0.00232770  0.00203700  0.75606964  1
  Y3+  Y34  1  0.00310695  0.25144112  0.25581714  1
  Y3+  Y35  1  0.00303997  0.25209894  0.76005561  1
  Y3+  Y36  1  0.00025907  0.49620804  0.25920339  1
  Y3+  Y37  1  0.00196544  0.49701623  0.75765352  1
  Y3+  Y38  1  0.00006098  0.74886836  0.25837357  1
  Y3+  Y39  1  0.00177076  0.74816733  0.75436907  1
  Y3+  Y40  1  0.24966039  0.00391741  0.25932444  1
  Y3+  Y41  1  0.24854026  0.00281129  0.75369070  1
  Y3+  Y42  1  0.24945499  0.25143441  0.25927779  1
  Y3+  Y43  1  0.24961003  0.25279981  0.75740979  1
  Y3+  Y44  1  0.25204739  0.49652450  0.25796902  1
  Y3+  Y45  1  0.25015954  0.49578787  0.75888617  1
  Y3+  Y46  1  0.25221322  0.74892009  0.25680574  1
  Y3+  Y47  1  0.24945985  0.74792240  0.75681295  1
  Y3+  Y48  1  0.49612314  0.00165024  0.25885828  1
  Y3+  Y49  1  0.49922233  0.00193457  0.75310501  1
  Y3+  Y50  1  0.49593011  0.25278626  0.26128811  1
  Y3+  Y51  1  0.49709021  0.25194714  0.75370464  1
  Y3+  Y52  1  0.49568601  0.49827466  0.25861141  1
  Y3+  Y53  1  0.49713022  0.49708909  0.75790633  1
  Y3+  Y54  1  0.49637071  0.74794991  0.25610934  1
  Y3+  Y55  1  0.49913892  0.74848914  0.75824376  1
  Y3+  Y56  1  0.75106520  0.00126893  0.25466902  1
  Y3+  Y57  1  0.74936725  0.00175670  0.75648766  1
  Y3+  Y58  1  0.75130424  0.25285403  0.25683749  1
  Y3+  Y59  1  0.75006409  0.25159032  0.75714183  1
  Y3+  Y60  1  0.75116913  0.49797168  0.25914390  1
  Y3+  Y61  1  0.75042856  0.49808266  0.75695913  1
  Y3+  Y62  1  0.75149672  0.74813321  0.25718536  1
  Y3+  Y63  1  0.74955205  0.74810175  0.75578309  1
  Fe3+  Fe64  1  0.62523067  0.12593947  0.37370353  1
  Fe3+  Fe65  1  0.62395547  0.62390593  0.88018111  1
  Fe3+  Fe66  1  0.12647894  0.62435944  0.87999066  1
  Fe3+  Fe67  1  0.12557201  0.62411107  0.37469800  1
  Fe3+  Fe68  1  0.87646512  0.87550065  0.87826392  1
  Fe3+  Fe69  1  0.87470139  0.37516016  0.38089942  1
  Fe3+  Fe70  1  0.62445921  0.62432331  0.37325263  1
  Fe3+  Fe71  1  0.12455186  0.87472497  0.37772794  1
  Fe3+  Fe72  1  0.87697849  0.12561743  0.87549407  1
  Fe3+  Fe73  1  0.62371265  0.87610991  0.87925507  1
  Fe3+  Fe74  1  0.12670313  0.87635083  0.87583356  1
  Fe3+  Fe75  1  0.87426956  0.87517135  0.37980645  1
  Fe3+  Fe76  1  0.62344132  0.12565711  0.87973080  1
  Fe3+  Fe77  1  0.87422064  0.12525843  0.37762633  1
  Fe3+  Fe78  1  0.62560948  0.87520167  0.37580518  1
  Fe3+  Fe79  1  0.37300793  0.12468610  0.87532995  1
  Fe3+  Fe80  1  0.62411846  0.37365067  0.88064543  1
  Fe3+  Fe81  1  0.37556077  0.87434455  0.37989002  1
  Fe3+  Fe82  1  0.87683130  0.62470036  0.87983102  1
  Fe3+  Fe83  1  0.37330431  0.87650873  0.87432334  1
  Fe3+  Fe84  1  0.87643106  0.87576741  0.13372934  1
  Fe3+  Fe85  1  0.12556042  0.12708854  0.63793317  1
  Fe3+  Fe86  1  0.12589555  0.62329562  0.13485907  1
  Fe3+  Fe87  1  0.62414741  0.37498745  0.13456434  1
  Fe3+  Fe88  1  0.62437903  0.62373554  0.13291876  1
  Fe3+  Fe89  1  0.87591255  0.37425702  0.63622683  1
  Fe3+  Fe90  1  0.62397374  0.87493816  0.13266283  1
  Fe3+  Fe91  1  0.87633688  0.62413831  0.13362616  1
  Fe3+  Fe92  1  0.87536120  0.87539299  0.63558017  1
  Fe3+  Fe93  1  0.62409930  0.12648274  0.13320444  1
  Fe3+  Fe94  1  0.37480053  0.62312905  0.63738681  1
  Fe3+  Fe95  1  0.37447028  0.87475563  0.63343749  1
  Cu2+  Cu96  1  0.87504091  0.62428831  0.37423545  1
  Cu2+  Cu97  1  0.37536675  0.12555294  0.37371625  1
  Cu2+  Cu98  1  0.12613980  0.12507213  0.87130305  1
  Cu2+  Cu99  1  0.12458991  0.12557067  0.36413410  1
  Cu2+  Cu100  1  0.87546440  0.37411884  0.87141968  1
  Cu2+  Cu101  1  0.37347377  0.62513354  0.87196723  1
  Cu2+  Cu102  1  0.12485135  0.37521710  0.37358079  1
  Cu2+  Cu103  1  0.12575313  0.37414913  0.87241485  1
  Cu2+  Cu104  1  0.62529512  0.37480576  0.37182658  1
  Cu2+  Cu105  1  0.37478239  0.37344619  0.87158328  1
  Cu2+  Cu106  1  0.37460416  0.62516362  0.36804297  1
  Cu2+  Cu107  1  0.37468105  0.37532787  0.37072782  1
  Cu2+  Cu108  1  0.87582871  0.37503756  0.14384529  1
  Cu2+  Cu109  1  0.37513721  0.12632310  0.15458385  1
  Cu2+  Cu110  1  0.12543171  0.87465625  0.15341615  1
  Cu2+  Cu111  1  0.87590316  0.12634453  0.64909509  1
  Cu2+  Cu112  1  0.62450715  0.12656329  0.65559359  1
  Cu2+  Cu113  1  0.12636907  0.62341647  0.65437539  1
  Cu2+  Cu114  1  0.87522563  0.62290698  0.64291593  1
  Cu2+  Cu115  1  0.37411662  0.62341785  0.14298499  1
  Cu2+  Cu116  1  0.62402815  0.37563106  0.64312902  1
  Cu2+  Cu117  1  0.37399143  0.37528995  0.64466799  1
  Cu2+  Cu118  1  0.37456492  0.37454416  0.14472877  1
  Cu2+  Cu119  1  0.12540251  0.87508245  0.64542625  1
  Cu2+  Cu120  1  0.12562990  0.37468710  0.64192633  1
  Cu2+  Cu121  1  0.37476738  0.87576582  0.15522667  1
  Cu2+  Cu122  1  0.87544796  0.12563802  0.15117505  1
  Cu2+  Cu123  1  0.12600050  0.12701378  0.14486736  1
  Cu2+  Cu124  1  0.62441205  0.87444989  0.65174443  1
  Cu2+  Cu125  1  0.37378575  0.12661193  0.64050902  1
  Cu2+  Cu126  1  0.12592840  0.37566440  0.14555386  1
  Cu2+  Cu127  1  0.62347325  0.62328396  0.65728201  1
  O2-  O128  1  0.12653530  0.12497137  0.00916777  1
  O2-  O129  1  0.12443533  0.12554434  0.51642303  1
  O2-  O130  1  0.12607263  0.37454664  0.00820135  1
  O2-  O131  1  0.12400457  0.37536686  0.50753042  1
  O2-  O132  1  0.12586496  0.62517285  0.00698498  1
  O2-  O133  1  0.12407950  0.62617197  0.49573678  1
  O2-  O134  1  0.12739655  0.87641039  -0.00388368  1
  O2-  O135  1  0.12183690  0.87283798  0.49802755  1
  O2-  O136  1  0.37353223  0.12246392  -0.00384682  1
  O2-  O137  1  0.37604343  0.12448990  0.50661707  1
  O2-  O138  1  0.37482037  0.37326798  0.00784892  1
  O2-  O139  1  0.37549614  0.37585513  0.50788673  1
  O2-  O140  1  0.37318406  0.62615102  0.00762806  1
  O2-  O141  1  0.37623242  0.62579372  0.51632620  1
  O2-  O142  1  0.37280100  0.87751411  -0.00516143  1
  O2-  O143  1  0.37737491  0.87322731  0.50621703  1
  O2-  O144  1  0.62346058  0.12500319  0.00552439  1
  O2-  O145  1  0.62677371  0.12394698  0.49429829  1
  O2-  O146  1  0.62424177  0.37343734  0.00743398  1
  O2-  O147  1  0.62587058  0.37521354  0.50760303  1
  O2-  O148  1  0.62400440  0.62529233  0.00626391  1
  O2-  O149  1  0.62604263  0.62597819  0.49413742  1
  O2-  O150  1  0.62316189  0.87591286  0.00538575  1
  O2-  O151  1  0.62770424  0.87458205  0.49554006  1
  O2-  O152  1  0.87691295  0.12346232  -0.00343763  1
  O2-  O153  1  0.87170861  0.12258783  0.49766798  1
  O2-  O154  1  0.87510727  0.37450628  0.00760008  1
  O2-  O155  1  0.87380826  0.37536961  0.50811996  1
  O2-  O156  1  0.87710068  0.62613869  0.00660860  1
  O2-  O157  1  0.87371135  0.62508463  0.50735524  1
  O2-  O158  1  0.87694980  0.87564869  0.00550900  1
  O2-  O159  1  0.87262912  0.87503301  0.50610404  1
  O2-  O160  1  0.12520098  -0.00106178  0.16618484  1
  O2-  O161  1  0.12441248  0.00083526  0.66360976  1
  O2-  O162  1  0.12508055  0.25147470  0.16678738  1
  O2-  O163  1  0.12424747  0.24905317  0.66810159  1
  O2-  O164  1  0.12377744  0.50266838  0.16441306  1
  O2-  O165  1  0.12494063  0.50024864  0.66797093  1
  O2-  O166  1  0.12414817  0.74856284  0.16056507  1
  O2-  O167  1  0.12444793  0.74945925  0.66542218  1
  O2-  O168  1  0.37538880  0.00065663  0.16559604  1
  O2-  O169  1  0.37566587  -0.00270163  0.65989339  1
  O2-  O170  1  0.37629166  0.24933965  0.16656118  1
  O2-  O171  1  0.37498598  0.25127084  0.66441718  1
  O2-  O172  1  0.37520225  0.49915614  0.16617418  1
  O2-  O173  1  0.37484109  0.50086857  0.66873791  1
  O2-  O174  1  0.37547182  0.75116381  0.16409648  1
  O2-  O175  1  0.37573053  0.75045221  0.66506597  1
  O2-  O176  1  0.62594825  -0.00035993  0.15773045  1
  O2-  O177  1  0.62550945  0.00100656  0.66525637  1
  O2-  O178  1  0.62554814  0.24982152  0.16067310  1
  O2-  O179  1  0.62533565  0.24946096  0.66776393  1
  O2-  O180  1  0.62685447  0.50037549  0.16001187  1
  O2-  O181  1  0.62515822  0.50044771  0.67134465  1
  O2-  O182  1  0.62585386  0.75039795  0.15733326  1
  O2-  O183  1  0.62537346  0.74873665  0.66731970  1
  O2-  O184  1  0.87455546  -0.00165720  0.16226120  1
  O2-  O185  1  0.87402421  -0.00131621  0.66274649  1
  O2-  O186  1  0.87426135  0.24893142  0.16681940  1
  O2-  O187  1  0.87437276  0.25150974  0.66293274  1
  O2-  O188  1  0.87440213  0.50406069  0.16526729  1
  O2-  O189  1  0.87461597  0.49666939  0.66771549  1
  O2-  O190  1  0.87474773  0.75005929  0.16152055  1
  O2-  O191  1  0.87434672  0.75230649  0.66582294  1
  O2-  O192  1  -0.00107233  0.12484123  0.16619844  1
  O2-  O193  1  0.00087078  0.12418448  0.66563180  1
  O2-  O194  1  0.00018798  0.37541775  0.16711101  1
  O2-  O195  1  -0.00206269  0.37534662  0.66438657  1
  O2-  O196  1  -0.00020600  0.62703304  0.16029115  1
  O2-  O197  1  0.00230165  0.62475624  0.66688153  1
  O2-  O198  1  -0.00193404  0.87473155  0.16287507  1
  O2-  O199  1  -0.00187967  0.87473934  0.66313920  1
  O2-  O200  1  0.25206283  0.12526418  0.16843497  1
  O2-  O201  1  0.24822308  0.12483752  0.66501200  1
  O2-  O202  1  0.25018228  0.37503524  0.16754769  1
  O2-  O203  1  0.25021557  0.37547282  0.66538729  1
  O2-  O204  1  0.24725359  0.62599927  0.16482883  1
  O2-  O205  1  0.25084485  0.62574355  0.66548019  1
  O2-  O206  1  0.25029586  0.87470041  0.16768784  1
  O2-  O207  1  0.25188148  0.87373269  0.65856741  1
  O2-  O208  1  0.50178209  0.12382061  0.16194516  1
  O2-  O209  1  0.50068143  0.12524940  0.66508158  1
  O2-  O210  1  0.50327237  0.37528580  0.16512666  1
  O2-  O211  1  0.49863713  0.37554123  0.66632177  1
  O2-  O212  1  0.50303705  0.62536981  0.16283294  1
  O2-  O213  1  0.49894520  0.62539566  0.66820314  1
  O2-  O214  1  0.50210473  0.87538006  0.16305670  1
  O2-  O215  1  0.49855720  0.87414338  0.66325707  1
  O2-  O216  1  0.74811210  0.12402148  0.15823677  1
  O2-  O217  1  0.74980377  0.12494022  0.66712838  1
  O2-  O218  1  0.74701333  0.37519786  0.16308299  1
  O2-  O219  1  0.75271739  0.37503024  0.66629175  1
  O2-  O220  1  0.75029734  0.62710944  0.15711863  1
  O2-  O221  1  0.74776197  0.62457883  0.66923369  1
  O2-  O222  1  0.75020831  0.87463432  0.15707458  1
  O2-  O223  1  0.75119432  0.87476666  0.66763971  1
  O2-  O224  1  0.12418793  -0.00079937  0.34922310  1
  O2-  O225  1  0.12431272  -0.00164090  0.84462263  1
  O2-  O226  1  0.12445391  0.24903897  0.35032307  1
  O2-  O227  1  0.12489994  0.24988084  0.85040191  1
  O2-  O228  1  0.12479479  0.50105454  0.34640487  1
  O2-  O229  1  0.12406901  0.50225413  0.85218767  1
  O2-  O230  1  0.12483841  0.75093108  0.34268296  1
  O2-  O231  1  0.12436270  0.74945880  0.84901301  1
  O2-  O232  1  0.37549180  -0.00331922  0.35038558  1
  O2-  O233  1  0.37584600  -0.00012468  0.84028350  1
  O2-  O234  1  0.37486827  0.25103237  0.35038729  1
  O2-  O235  1  0.37643681  0.24759240  0.84674733  1
  O2-  O236  1  0.37522164  0.50061842  0.34967069  1
  O2-  O237  1  0.37525245  0.49947964  0.85186002  1
  O2-  O238  1  0.37546633  0.75206826  0.34814585  1
  O2-  O239  1  0.37564645  0.75265585  0.84669209  1
  O2-  O240  1  0.62557205  -0.00076097  0.34011037  1
  O2-  O241  1  0.62592334  -0.00012054  0.85019690  1
  O2-  O242  1  0.62605730  0.24868192  0.34437669  1
  O2-  O243  1  0.62533435  0.24896738  0.85188113  1
  O2-  O244  1  0.62481684  0.50114441  0.34401250  1
  O2-  O245  1  0.62606913  0.49986851  0.85568847  1
  O2-  O246  1  0.62519139  0.75108726  0.33983698  1
  O2-  O247  1  0.62598212  0.75080739  0.85252047  1
  O2-  O248  1  0.87436820  -0.00144861  0.34630723  1
  O2-  O249  1  0.87443014  -0.00160153  0.84636727  1
  O2-  O250  1  0.87416312  0.25079292  0.35072752  1
  O2-  O251  1  0.87365174  0.24797751  0.84570566  1
  O2-  O252  1  0.87456715  0.49698700  0.34941221  1
  O2-  O253  1  0.87474635  0.50352423  0.85193855  1
  O2-  O254  1  0.87434346  0.75397507  0.34627813  1
  O2-  O255  1  0.87416157  0.75019799  0.85124395  1
  O2-  O256  1  -0.00119285  0.12423116  0.34933324  1
  O2-  O257  1  -0.00050839  0.12396769  0.84721586  1
  O2-  O258  1  -0.00305583  0.37463619  0.35101005  1
  O2-  O259  1  0.00007378  0.37516876  0.84817417  1
  O2-  O260  1  0.00220116  0.62587393  0.34354276  1
  O2-  O261  1  0.00027568  0.62695106  0.85157532  1
  O2-  O262  1  -0.00170277  0.87518958  0.34740802  1
  O2-  O263  1  -0.00099993  0.87387989  0.84732811  1
  O2-  O264  1  0.24830981  0.12435702  0.35235825  1
  O2-  O265  1  0.25107384  0.12391122  0.84501455  1
  O2-  O266  1  0.25055965  0.37551785  0.35128525  1
  O2-  O267  1  0.25031596  0.37466533  0.84878892  1
  O2-  O268  1  0.24972924  0.62603844  0.34812380  1
  O2-  O269  1  0.24701778  0.62598012  0.84825384  1
  O2-  O270  1  0.25083308  0.87459100  0.35263566  1
  O2-  O271  1  0.24975624  0.87495039  0.84019724  1
  O2-  O272  1  0.50186736  0.12446504  0.34467436  1
  O2-  O273  1  0.50126988  0.12342812  0.84825609  1
  O2-  O274  1  0.49898481  0.37540617  0.34904970  1
  O2-  O275  1  0.50320127  0.37468468  0.84999220  1
  O2-  O276  1  0.49992020  0.62606558  0.34598475  1
  O2-  O277  1  0.50279884  0.62590851  0.85126483  1
  O2-  O278  1  0.49965917  0.87458432  0.34704646  1
  O2-  O279  1  0.50154787  0.87551055  0.84740408  1
  O2-  O280  1  0.75069122  0.12420297  0.33943709  1
  O2-  O281  1  0.74832807  0.12351019  0.85100566  1
  O2-  O282  1  0.75294240  0.37514188  0.34686856  1
  O2-  O283  1  0.74662236  0.37503218  0.85074382  1
  O2-  O284  1  0.74787819  0.62561362  0.34068416  1
  O2-  O285  1  0.75010311  0.62658128  0.85406499  1
  O2-  O286  1  0.75089005  0.87516960  0.34099352  1
  O2-  O287  1  0.74997322  0.87482847  0.85402857  1
