# generated using pymatgen
data_BaYFeCuO5
_symmetry_space_group_name_H-M   'P 1'
_cell_length_a   15.67535426
_cell_length_b   15.67124804
_cell_length_c   15.48819700
_cell_angle_alpha   90.00787397
_cell_angle_beta   89.99507673
_cell_angle_gamma   90.00600557
_symmetry_Int_Tables_number   1
_chemical_formula_structural   BaYFeCuO5
_chemical_formula_sum   'Ba32 Y32 Fe32 Cu32 O160'
_cell_volume   3804.71214653
_cell_formula_units_Z   32
loop_
 _symmetry_equiv_pos_site_id
 _symmetry_equiv_pos_as_xyz
  1  'x, y, z'
loop_
 _atom_type_symbol
 _atom_type_oxidation_number
  Ba2+  2.0
  Y3+  3.0
  Fe3+  3.0
  Cu2+  2.0
  O2-  -2.0
loop_
 _atom_site_type_symbol
 _atom_site_label
 _atom_site_symmetry_multiplicity
 _atom_site_fract_x
 _atom_site_fract_y
 _atom_site_fract_z
 _atom_site_occupancy
  Ba2+  Ba0  1  -0.00692862  0.00594713  0.00673530  1
  Ba2+  Ba1  1  0.00572659  -0.00044325  0.50602183  1
  Ba2+  Ba2  1  -0.00351455  0.25639068  0.01175366  1
  Ba2+  Ba3  1  -0.00249510  0.24225574  0.51771436  1
  Ba2+  Ba4  1  0.00184611  0.49878705  0.02343572  1
  Ba2+  Ba5  1  -0.00549489  0.50317059  0.51147846  1
  Ba2+  Ba6  1  -0.00056741  0.73987953  0.01949343  1
  Ba2+  Ba7  1  0.00285811  0.75488259  0.50162071  1
  Ba2+  Ba8  1  0.25409130  -0.00658146  0.01237507  1
  Ba2+  Ba9  1  0.24886867  -0.00281937  0.51221160  1
  Ba2+  Ba10  1  0.24180173  0.25818033  0.00649810  1
  Ba2+  Ba11  1  0.25314676  0.24168223  0.51840776  1
  Ba2+  Ba12  1  0.24455048  0.50587482  0.01289906  1
  Ba2+  Ba13  1  0.25459348  0.50425892  0.50047917  1
  Ba2+  Ba14  1  0.25627664  0.74231330  0.01733345  1
  Ba2+  Ba15  1  0.25104425  0.75670888  0.49836250  1
  Ba2+  Ba16  1  0.50283625  -0.01242808  0.01099005  1
  Ba2+  Ba17  1  0.49892973  -0.00343464  0.51771450  1
  Ba2+  Ba18  1  0.50045242  0.25068045  0.00583273  1
  Ba2+  Ba19  1  0.50089417  0.24867972  0.52906735  1
  Ba2+  Ba20  1  0.49712267  0.51221887  0.01187391  1
  Ba2+  Ba21  1  0.50154713  0.49979680  0.50686680  1
  Ba2+  Ba22  1  0.49972231  0.74918881  0.01844851  1
  Ba2+  Ba23  1  0.49943784  0.75552752  0.49748133  1
  Ba2+  Ba24  1  0.74981668  -0.00208460  0.00626024  1
  Ba2+  Ba25  1  0.74631141  -0.00085630  0.51319230  1
  Ba2+  Ba26  1  0.76151853  0.24861429  0.00957094  1
  Ba2+  Ba27  1  0.74848289  0.24887397  0.52729682  1
  Ba2+  Ba28  1  0.75631690  0.50594184  0.02221605  1
  Ba2+  Ba29  1  0.74904923  0.49856619  0.51596699  1
  Ba2+  Ba30  1  0.74333981  0.74807914  0.01700188  1
  Ba2+  Ba31  1  0.74672962  0.75400135  0.50128051  1
  Y3+  Y32  1  0.00023820  0.00067295  0.26017827  1
  Y3+  Y33  1  0.00045800  0.00135166  0.75564714  1
  Y3+  Y34  1  0.00045285  0.24910304  0.25511889  1
  Y3+  Y35  1  -0.00003218  0.24809752  0.75887946  1
  Y3+  Y36  1  0.00163860  0.50000141  0.25868566  1
  Y3+  Y37  1  -0.00008503  0.49910868  0.75443357  1
  Y3+  Y38  1  0.00178444  0.75021954  0.26198414  1
  Y3+  Y39  1  0.00001489  0.75026953  0.75333845  1
  Y3+  Y40  1  0.24924069  -0.00191926  0.26224732  1
  Y3+  Y41  1  0.24950657  -0.00182986  0.75295371  1
  Y3+  Y42  1  0.24642061  0.25010062  0.25681093  1
  Y3+  Y43  1  0.24753108  0.25055933  0.75787897  1
  Y3+  Y44  1  0.24936749  0.50257969  0.25708645  1
  Y3+  Y45  1  0.25048227  0.50025393  0.75940750  1
  Y3+  Y46  1  0.25223567  0.74926582  0.26131009  1
  Y3+  Y47  1  0.25134906  0.75097460  0.75524025  1
  Y3+  Y48  1  0.50079270  -0.00585012  0.25786836  1
  Y3+  Y49  1  0.50100907  -0.00438805  0.75620237  1
  Y3+  Y50  1  0.50026596  0.24985863  0.25204569  1
  Y3+  Y51  1  0.49936100  0.25061147  0.75949043  1
  Y3+  Y52  1  0.49981963  0.50549639  0.25815362  1
  Y3+  Y53  1  0.49820615  0.50153012  0.75757897  1
  Y3+  Y54  1  0.49974634  0.75087689  0.25905547  1
  Y3+  Y55  1  0.49998002  0.75219840  0.75762315  1
  Y3+  Y56  1  0.74956285  -0.00237825  0.25621350  1
  Y3+  Y57  1  0.74881019  -0.00116745  0.75922509  1
  Y3+  Y58  1  0.75319837  0.24860376  0.25151683  1
  Y3+  Y59  1  0.75265367  0.24846626  0.75916152  1
  Y3+  Y60  1  0.74991806  0.50232518  0.25861188  1
  Y3+  Y61  1  0.75149900  0.50033023  0.75272323  1
  Y3+  Y62  1  0.74619567  0.75161766  0.25910936  1
  Y3+  Y63  1  0.74819223  0.75190341  0.75617258  1
  Fe3+  Fe64  1  0.12506841  0.12431029  0.87990160  1
  Fe3+  Fe65  1  0.62496073  0.12437899  0.87907128  1
  Fe3+  Fe66  1  0.62664170  0.37735008  0.87986501  1
  Fe3+  Fe67  1  0.37412205  0.37695450  0.87999123  1
  Fe3+  Fe68  1  0.37691494  0.12566479  0.37423601  1
  Fe3+  Fe69  1  0.87342468  0.12522805  0.37600575  1
  Fe3+  Fe70  1  0.62550249  0.62542559  0.87669595  1
  Fe3+  Fe71  1  0.12427316  0.87339306  0.88143274  1
  Fe3+  Fe72  1  0.12469776  0.37368642  0.38036925  1
  Fe3+  Fe73  1  0.87387314  0.37310669  0.37685124  1
  Fe3+  Fe74  1  0.37645215  0.37276470  0.37528382  1
  Fe3+  Fe75  1  0.87539234  0.87310744  0.88085392  1
  Fe3+  Fe76  1  0.12419789  0.62508965  0.87577904  1
  Fe3+  Fe77  1  0.87529772  0.62512417  0.87495915  1
  Fe3+  Fe78  1  0.62532569  0.37256628  0.37390973  1
  Fe3+  Fe79  1  0.87596319  0.37732626  0.87502182  1
  Fe3+  Fe80  1  0.37451214  0.87300198  0.87705245  1
  Fe3+  Fe81  1  0.87405675  0.62537294  0.37703049  1
  Fe3+  Fe82  1  0.62448520  0.12627832  0.37407911  1
  Fe3+  Fe83  1  0.37431307  0.12375169  0.87989931  1
  Fe3+  Fe84  1  0.37445489  0.37614940  0.13392184  1
  Fe3+  Fe85  1  0.62582974  0.37631244  0.13191678  1
  Fe3+  Fe86  1  0.37517164  0.62599942  0.63670368  1
  Fe3+  Fe87  1  0.87544218  0.87416417  0.13656251  1
  Fe3+  Fe88  1  0.87488338  0.87516568  0.63777557  1
  Fe3+  Fe89  1  0.37460563  0.12422069  0.13230683  1
  Fe3+  Fe90  1  0.12517556  0.87427273  0.13568753  1
  Fe3+  Fe91  1  0.12551044  0.37522996  0.63434881  1
  Fe3+  Fe92  1  0.12498575  0.12418112  0.13451387  1
  Fe3+  Fe93  1  0.62545272  0.12404861  0.13195562  1
  Fe3+  Fe94  1  0.62436678  0.62647393  0.63593872  1
  Fe3+  Fe95  1  0.12558573  0.62585972  0.63438670  1
  Cu2+  Cu96  1  0.87441830  0.87615313  0.36290337  1
  Cu2+  Cu97  1  0.62518153  0.62477074  0.36611844  1
  Cu2+  Cu98  1  0.87523899  0.12449934  0.87264991  1
  Cu2+  Cu99  1  0.12524500  0.12621071  0.37249414  1
  Cu2+  Cu100  1  0.37554695  0.62480421  0.36543490  1
  Cu2+  Cu101  1  0.62513163  0.87343002  0.87432212  1
  Cu2+  Cu102  1  0.12494358  0.62420627  0.36793042  1
  Cu2+  Cu103  1  0.12523393  0.87607881  0.37101391  1
  Cu2+  Cu104  1  0.12332381  0.37677390  0.87231749  1
  Cu2+  Cu105  1  0.62495971  0.87685143  0.37210554  1
  Cu2+  Cu106  1  0.37551076  0.87649012  0.37137349  1
  Cu2+  Cu107  1  0.37473177  0.62594667  0.87253446  1
  Cu2+  Cu108  1  0.62516447  0.62513179  0.15389349  1
  Cu2+  Cu109  1  0.37403510  0.37613611  0.65290610  1
  Cu2+  Cu110  1  0.12538700  0.37563553  0.14297927  1
  Cu2+  Cu111  1  0.12516442  0.62611811  0.15700473  1
  Cu2+  Cu112  1  0.62495392  0.87415867  0.64294740  1
  Cu2+  Cu113  1  0.87454979  0.62663630  0.64557992  1
  Cu2+  Cu114  1  0.87509216  0.37595149  0.15253770  1
  Cu2+  Cu115  1  0.87579035  0.12352952  0.14015890  1
  Cu2+  Cu116  1  0.37530535  0.12445156  0.65808509  1
  Cu2+  Cu117  1  0.62508610  0.87448189  0.14243025  1
  Cu2+  Cu118  1  0.37496149  0.87379763  0.64220037  1
  Cu2+  Cu119  1  0.62474190  0.12442719  0.65831002  1
  Cu2+  Cu120  1  0.12497905  0.12419175  0.64332111  1
  Cu2+  Cu121  1  0.12485085  0.87443364  0.64345346  1
  Cu2+  Cu122  1  0.87458059  0.12336550  0.65432098  1
  Cu2+  Cu123  1  0.87590588  0.37425618  0.65001270  1
  Cu2+  Cu124  1  0.87521883  0.62656698  0.15726772  1
  Cu2+  Cu125  1  0.37500353  0.62525428  0.14549801  1
  Cu2+  Cu126  1  0.62456334  0.37557647  0.65670708  1
  Cu2+  Cu127  1  0.37413053  0.87489191  0.15320246  1
  O2-  O128  1  0.12512180  0.12427823  0.00710277  1
  O2-  O129  1  0.12575812  0.12626993  0.50749362  1
  O2-  O130  1  0.12373281  0.37719613  0.00750059  1
  O2-  O131  1  0.12644522  0.37297036  0.50710745  1
  O2-  O132  1  0.12253469  0.62480403  -0.00375837  1
  O2-  O133  1  0.12636088  0.62442153  0.51434981  1
  O2-  O134  1  0.12453724  0.87288608  0.00755578  1
  O2-  O135  1  0.12475602  0.87602627  0.50703749  1
  O2-  O136  1  0.37338385  0.12348604  0.00555099  1
  O2-  O137  1  0.37904557  0.12786574  0.49402792  1
  O2-  O138  1  0.37340937  0.37771310  0.00670825  1
  O2-  O139  1  0.37817569  0.37078282  0.49504778  1
  O2-  O140  1  0.37458013  0.62503385  0.00939582  1
  O2-  O141  1  0.37627899  0.62393946  0.51637300  1
  O2-  O142  1  0.37376418  0.87251133  -0.00217066  1
  O2-  O143  1  0.37518434  0.87679938  0.50694060  1
  O2-  O144  1  0.62527780  0.12398256  0.00524901  1
  O2-  O145  1  0.62361296  0.12888566  0.49387780  1
  O2-  O146  1  0.62734949  0.37890932  0.00501792  1
  O2-  O147  1  0.62403638  0.37016075  0.49364523  1
  O2-  O148  1  0.62704604  0.62358720  -0.00266136  1
  O2-  O149  1  0.62410588  0.62476780  0.51557328  1
  O2-  O150  1  0.62589351  0.87307072  0.00819635  1
  O2-  O151  1  0.62528241  0.87678323  0.50726717  1
  O2-  O152  1  0.87565823  0.12483935  0.00638275  1
  O2-  O153  1  0.87137714  0.12657463  0.49604500  1
  O2-  O154  1  0.87609282  0.37972365  -0.00448884  1
  O2-  O155  1  0.87171080  0.37160616  0.49642532  1
  O2-  O156  1  0.87674557  0.62367782  -0.00532856  1
  O2-  O157  1  0.87284439  0.62429205  0.49744958  1
  O2-  O158  1  0.87609760  0.87187059  0.00819262  1
  O2-  O159  1  0.87462000  0.87685385  0.51739523  1
  O2-  O160  1  0.12533598  -0.00060305  0.16129510  1
  O2-  O161  1  0.12506317  -0.00037651  0.66879261  1
  O2-  O162  1  0.12556487  0.24685494  0.16110852  1
  O2-  O163  1  0.12535188  0.25284597  0.66634593  1
  O2-  O164  1  0.12490377  0.50208323  0.16786099  1
  O2-  O165  1  0.12457286  0.49904901  0.66216351  1
  O2-  O166  1  0.12533418  0.75169288  0.16468292  1
  O2-  O167  1  0.12494711  0.74797450  0.66699631  1
  O2-  O168  1  0.37569065  0.00200787  0.16039559  1
  O2-  O169  1  0.37538791  0.00067673  0.66708108  1
  O2-  O170  1  0.37450271  0.24980457  0.15455273  1
  O2-  O171  1  0.37468645  0.25034314  0.67022826  1
  O2-  O172  1  0.37612085  0.49695003  0.16511528  1
  O2-  O173  1  0.37496578  0.50109709  0.66709370  1
  O2-  O174  1  0.37421502  0.75132637  0.16768937  1
  O2-  O175  1  0.37465883  0.74790772  0.66716977  1
  O2-  O176  1  0.62368803  0.00288630  0.16179828  1
  O2-  O177  1  0.62468024  0.00080275  0.66770492  1
  O2-  O178  1  0.62550553  0.25067643  0.15334742  1
  O2-  O179  1  0.62437895  0.25043595  0.67093560  1
  O2-  O180  1  0.62483703  0.49816784  0.16430593  1
  O2-  O181  1  0.62450636  0.50052631  0.66385162  1
  O2-  O182  1  0.62494360  0.74868957  0.16693333  1
  O2-  O183  1  0.62540075  0.74840885  0.66707818  1
  O2-  O184  1  0.87618296  -0.00360186  0.16258596  1
  O2-  O185  1  0.87451642  -0.00055161  0.67122083  1
  O2-  O186  1  0.87570049  0.25087625  0.15870981  1
  O2-  O187  1  0.87504162  0.24859489  0.66665666  1
  O2-  O188  1  0.87521882  0.50149115  0.16591262  1
  O2-  O189  1  0.87518507  0.49986651  0.65913885  1
  O2-  O190  1  0.87591862  0.75173227  0.16506342  1
  O2-  O191  1  0.87462728  0.75111852  0.66771013  1
  O2-  O192  1  0.00343956  0.12428802  0.16389897  1
  O2-  O193  1  -0.00143188  0.12469972  0.66683866  1
  O2-  O194  1  -0.00132063  0.37540021  0.16792518  1
  O2-  O195  1  0.00177132  0.37444851  0.66003319  1
  O2-  O196  1  0.00011829  0.62568200  0.16629422  1
  O2-  O197  1  0.00033897  0.62520614  0.66152427  1
  O2-  O198  1  0.00119709  0.87434864  0.16305977  1
  O2-  O199  1  -0.00161985  0.87543366  0.66887475  1
  O2-  O200  1  0.25008438  0.12449187  0.16113500  1
  O2-  O201  1  0.25161729  0.12550071  0.66869228  1
  O2-  O202  1  0.25320199  0.37494246  0.16514774  1
  O2-  O203  1  0.24778802  0.37470607  0.66642109  1
  O2-  O204  1  0.24901220  0.62442561  0.16651747  1
  O2-  O205  1  0.24993517  0.62395197  0.66859561  1
  O2-  O206  1  0.24801176  0.87594259  0.16345145  1
  O2-  O207  1  0.24992525  0.87523141  0.66645407  1
  O2-  O208  1  0.49967135  0.12779412  0.15481889  1
  O2-  O209  1  0.49987439  0.12615439  0.67055881  1
  O2-  O210  1  0.50037406  0.37339018  0.15545884  1
  O2-  O211  1  0.49928548  0.37447212  0.67040893  1
  O2-  O212  1  0.50127550  0.62522749  0.16512521  1
  O2-  O213  1  0.49980110  0.62421842  0.66956912  1
  O2-  O214  1  0.49832512  0.87424668  0.16397247  1
  O2-  O215  1  0.50016274  0.87501120  0.66638393  1
  O2-  O216  1  0.74731468  0.12487466  0.15939995  1
  O2-  O217  1  0.74935077  0.12477671  0.66706842  1
  O2-  O218  1  0.74884419  0.37541122  0.15935251  1
  O2-  O219  1  0.75055667  0.37443104  0.66471980  1
  O2-  O220  1  0.75021486  0.62520909  0.16382072  1
  O2-  O221  1  0.74941862  0.62434688  0.66411621  1
  O2-  O222  1  0.75260323  0.87463062  0.16279082  1
  O2-  O223  1  0.75118073  0.87600771  0.66863891  1
  O2-  O224  1  0.12505052  0.00080203  0.34605263  1
  O2-  O225  1  0.12559173  -0.00095439  0.85387576  1
  O2-  O226  1  0.12447293  0.25364937  0.34433596  1
  O2-  O227  1  0.12533013  0.24709089  0.85144723  1
  O2-  O228  1  0.12595687  0.49684551  0.35165627  1
  O2-  O229  1  0.12475247  0.50227731  0.84317146  1
  O2-  O230  1  0.12487958  0.74912404  0.34964780  1
  O2-  O231  1  0.12400430  0.75149320  0.84789943  1
  O2-  O232  1  0.37535021  0.00231398  0.34324020  1
  O2-  O233  1  0.37418135  0.00058103  0.85057061  1
  O2-  O234  1  0.37553664  0.25040364  0.33527043  1
  O2-  O235  1  0.37510550  0.24991365  0.85550458  1
  O2-  O236  1  0.37532400  0.49872113  0.34838486  1
  O2-  O237  1  0.37506097  0.49779679  0.84949133  1
  O2-  O238  1  0.37501489  0.74883134  0.35186752  1
  O2-  O239  1  0.37415574  0.75144163  0.84647873  1
  O2-  O240  1  0.62538942  0.00252504  0.34404136  1
  O2-  O241  1  0.62433176  0.00216731  0.85188400  1
  O2-  O242  1  0.62505059  0.24979661  0.33346155  1
  O2-  O243  1  0.62408795  0.25116343  0.85542412  1
  O2-  O244  1  0.62487929  0.49855559  0.34791315  1
  O2-  O245  1  0.62519150  0.49878660  0.84519945  1
  O2-  O246  1  0.62508564  0.74959535  0.35153334  1
  O2-  O247  1  0.62541689  0.74799825  0.84722449  1
  O2-  O248  1  0.87426202  0.00071053  0.34513052  1
  O2-  O249  1  0.87533221  -0.00356667  0.85466325  1
  O2-  O250  1  0.87508113  0.24998045  0.33976793  1
  O2-  O251  1  0.87527590  0.25165378  0.84984651  1
  O2-  O252  1  0.87441309  0.49904340  0.34788424  1
  O2-  O253  1  0.87461330  0.50078411  0.84027748  1
  O2-  O254  1  0.87535424  0.75055131  0.34922993  1
  O2-  O255  1  0.87605585  0.75081435  0.84816926  1
  O2-  O256  1  -0.00245538  0.12503991  0.34704161  1
  O2-  O257  1  0.00345261  0.12381446  0.85015298  1
  O2-  O258  1  0.00030529  0.37505911  0.35103573  1
  O2-  O259  1  -0.00200498  0.37515142  0.84253239  1
  O2-  O260  1  -0.00104877  0.62452281  0.34953820  1
  O2-  O261  1  -0.00035886  0.62541937  0.84157756  1
  O2-  O262  1  -0.00103720  0.87601945  0.34751410  1
  O2-  O263  1  0.00068158  0.87543714  0.85223505  1
  O2-  O264  1  0.25218219  0.12658925  0.34446861  1
  O2-  O265  1  0.25008758  0.12532229  0.85242203  1
  O2-  O266  1  0.24965970  0.37418670  0.34887165  1
  O2-  O267  1  0.25258945  0.37442673  0.85071479  1
  O2-  O268  1  0.25029690  0.62411440  0.35037372  1
  O2-  O269  1  0.24820123  0.62520046  0.84889084  1
  O2-  O270  1  0.25045463  0.87541500  0.34790843  1
  O2-  O271  1  0.24784729  0.87525050  0.84915667  1
  O2-  O272  1  0.50063516  0.12583793  0.33614508  1
  O2-  O273  1  0.49901248  0.12636132  0.85452447  1
  O2-  O274  1  0.50048888  0.37476409  0.33793218  1
  O2-  O275  1  0.50029227  0.37471449  0.85536940  1
  O2-  O276  1  0.50035753  0.62448937  0.34937360  1
  O2-  O277  1  0.50150788  0.62385350  0.84991532  1
  O2-  O278  1  0.50007861  0.87531495  0.34776951  1
  O2-  O279  1  0.49803670  0.87524853  0.84865248  1
  O2-  O280  1  0.74973481  0.12550130  0.34000873  1
  O2-  O281  1  0.74686527  0.12549533  0.85068668  1
  O2-  O282  1  0.74998901  0.37425103  0.34063704  1
  O2-  O283  1  0.74914412  0.37475442  0.84765471  1
  O2-  O284  1  0.75043669  0.62544030  0.34672621  1
  O2-  O285  1  0.75047718  0.62492863  0.84419527  1
  O2-  O286  1  0.75066500  0.87556347  0.34646940  1
  O2-  O287  1  0.75306519  0.87453120  0.85171002  1
