# generated using pymatgen
data_BaYFeCuO5
_symmetry_space_group_name_H-M   'P 1'
_cell_length_a   15.68271778
_cell_length_b   15.67659852
_cell_length_c   15.51007015
_cell_angle_alpha   90.00795082
_cell_angle_beta   89.99297651
_cell_angle_gamma   90.00271365
_symmetry_Int_Tables_number   1
_chemical_formula_structural   BaYFeCuO5
_chemical_formula_sum   'Ba32 Y32 Fe32 Cu32 O160'
_cell_volume   3813.17658462
_cell_formula_units_Z   32
loop_
 _symmetry_equiv_pos_site_id
 _symmetry_equiv_pos_as_xyz
  1  'x, y, z'
loop_
 _atom_type_symbol
 _atom_type_oxidation_number
  Ba2+  2.0
  Y3+  3.0
  Fe3+  3.0
  Cu2+  2.0
  O2-  -2.0
loop_
 _atom_site_type_symbol
 _atom_site_label
 _atom_site_symmetry_multiplicity
 _atom_site_fract_x
 _atom_site_fract_y
 _atom_site_fract_z
 _atom_site_occupancy
  Ba2+  Ba0  1  -0.00344500  0.00702643  0.00142818  1
  Ba2+  Ba1  1  0.00310546  0.00762348  0.51132758  1
  Ba2+  Ba2  1  0.00017396  0.25133617  0.00712006  1
  Ba2+  Ba3  1  0.00070783  0.24515456  0.50691074  1
  Ba2+  Ba4  1  0.00318540  0.49183166  0.01857609  1
  Ba2+  Ba5  1  -0.00162831  0.50232193  0.50057310  1
  Ba2+  Ba6  1  -0.00255997  0.75217735  0.01136784  1
  Ba2+  Ba7  1  0.00133405  0.74418409  0.50445462  1
  Ba2+  Ba8  1  0.24679621  0.01255864  0.00230721  1
  Ba2+  Ba9  1  0.24334749  -0.00286447  0.51815612  1
  Ba2+  Ba10  1  0.24601586  0.25156594  0.01461631  1
  Ba2+  Ba11  1  0.24458011  0.25334275  0.51149184  1
  Ba2+  Ba12  1  0.25026673  0.49649150  0.02700613  1
  Ba2+  Ba13  1  0.25056726  0.49851617  0.50948166  1
  Ba2+  Ba14  1  0.24954042  0.73904791  0.01576787  1
  Ba2+  Ba15  1  0.25056015  0.75054528  0.51902950  1
  Ba2+  Ba16  1  0.50083418  0.01171373  -0.00341594  1
  Ba2+  Ba17  1  0.50389041  -0.00635648  0.52363668  1
  Ba2+  Ba18  1  0.49976516  0.25294032  0.00642039  1
  Ba2+  Ba19  1  0.49781687  0.25212264  0.51064187  1
  Ba2+  Ba20  1  0.49907320  0.49620041  0.02754541  1
  Ba2+  Ba21  1  0.49388174  0.50336262  0.51434789  1
  Ba2+  Ba22  1  0.50028135  0.73879735  0.01476978  1
  Ba2+  Ba23  1  0.49997691  0.75049334  0.52635529  1
  Ba2+  Ba24  1  0.75645811  0.00449107  -0.00294143  1
  Ba2+  Ba25  1  0.74888451  0.00476221  0.51844680  1
  Ba2+  Ba26  1  0.75346293  0.25252365  -0.00034398  1
  Ba2+  Ba27  1  0.75735000  0.24347922  0.50686256  1
  Ba2+  Ba28  1  0.74718584  0.49164105  0.01960062  1
  Ba2+  Ba29  1  0.75653729  0.50682735  0.50703749  1
  Ba2+  Ba30  1  0.75244478  0.75184823  0.01110985  1
  Ba2+  Ba31  1  0.74788067  0.74536650  0.51950269  1
  Y3+  Y32  1  0.00012782  0.00230337  0.25770716  1
  Y3+  Y33  1  0.00008058  0.00309798  0.75809199  1
  Y3+  Y34  1  -0.00022797  0.24836227  0.26000467  1
  Y3+  Y35  1  0.00045027  0.24839287  0.75713837  1
  Y3+  Y36  1  -0.00198619  0.49928707  0.25923143  1
  Y3+  Y37  1  -0.00131976  0.49823730  0.75595381  1
  Y3+  Y38  1  -0.00168696  0.74938551  0.25595885  1
  Y3+  Y39  1  -0.00178029  0.75069548  0.75869432  1
  Y3+  Y40  1  0.24701248  0.00287869  0.25709637  1
  Y3+  Y41  1  0.24679980  0.00246495  0.75789852  1
  Y3+  Y42  1  0.24746864  0.24983343  0.26086500  1
  Y3+  Y43  1  0.24722000  0.24932522  0.75472554  1
  Y3+  Y44  1  0.24990684  0.49900490  0.26031556  1
  Y3+  Y45  1  0.25057736  0.49723721  0.75017406  1
  Y3+  Y46  1  0.24847507  0.74806056  0.25492796  1
  Y3+  Y47  1  0.25011503  0.75082667  0.75757213  1
  Y3+  Y48  1  0.49976681  0.00026997  0.25609468  1
  Y3+  Y49  1  0.50141003  0.00208465  0.75839480  1
  Y3+  Y50  1  0.49867746  0.25240358  0.26067524  1
  Y3+  Y51  1  0.49948760  0.24973476  0.75501084  1
  Y3+  Y52  1  0.49937980  0.49801759  0.25963783  1
  Y3+  Y53  1  0.49832278  0.49973242  0.75062295  1
  Y3+  Y54  1  0.50049760  0.74837940  0.25247679  1
  Y3+  Y55  1  0.50022309  0.74933807  0.75757926  1
  Y3+  Y56  1  0.75311735  -0.00016457  0.25802455  1
  Y3+  Y57  1  0.75249148  0.00216168  0.75802922  1
  Y3+  Y58  1  0.75402780  0.25129685  0.25995054  1
  Y3+  Y59  1  0.75276403  0.24902342  0.75678058  1
  Y3+  Y60  1  0.75248427  0.49839352  0.25914627  1
  Y3+  Y61  1  0.75281621  0.50047723  0.75563447  1
  Y3+  Y62  1  0.75234399  0.74986676  0.25539407  1
  Y3+  Y63  1  0.75188005  0.74935682  0.75902959  1
  Fe3+  Fe64  1  0.87454356  0.87509875  0.38077235  1
  Fe3+  Fe65  1  0.12532021  0.87410607  0.37547690  1
  Fe3+  Fe66  1  0.37501683  0.62702930  0.37547380  1
  Fe3+  Fe67  1  0.62441260  0.12334522  0.37867322  1
  Fe3+  Fe68  1  0.37424748  0.37580300  0.87396411  1
  Fe3+  Fe69  1  0.12577091  0.37621137  0.87439004  1
  Fe3+  Fe70  1  0.37524329  0.87443600  0.37538396  1
  Fe3+  Fe71  1  0.37442084  0.12321222  0.38197925  1
  Fe3+  Fe72  1  0.12497101  0.87468176  0.87981228  1
  Fe3+  Fe73  1  0.62602249  0.37542598  0.38084943  1
  Fe3+  Fe74  1  0.62433801  0.37643290  0.87318006  1
  Fe3+  Fe75  1  0.87538225  0.62274503  0.88090248  1
  Fe3+  Fe76  1  0.62429025  0.62194129  0.87641600  1
  Fe3+  Fe77  1  0.37452337  0.62173476  0.87527789  1
  Fe3+  Fe78  1  0.12580852  0.62262888  0.87787762  1
  Fe3+  Fe79  1  0.62451369  0.87393994  0.37582878  1
  Fe3+  Fe80  1  0.12402895  0.37535521  0.37662595  1
  Fe3+  Fe81  1  0.62513550  0.87492226  0.87893785  1
  Fe3+  Fe82  1  0.37461196  0.87518561  0.87989414  1
  Fe3+  Fe83  1  0.62464649  0.62673552  0.37517192  1
  Fe3+  Fe84  1  0.87482693  0.62379850  0.13573048  1
  Fe3+  Fe85  1  0.62613244  0.12680302  0.13772331  1
  Fe3+  Fe86  1  0.62680076  0.37521573  0.63316764  1
  Fe3+  Fe87  1  0.37451053  0.12444440  0.63617825  1
  Fe3+  Fe88  1  0.37465378  0.87635211  0.13102056  1
  Fe3+  Fe89  1  0.87642914  0.87493677  0.63636697  1
  Fe3+  Fe90  1  0.62545939  0.87708489  0.13183654  1
  Fe3+  Fe91  1  0.37491499  0.12637054  0.13909111  1
  Fe3+  Fe92  1  0.87622417  0.37482488  0.63639664  1
  Fe3+  Fe93  1  0.87513568  0.12575995  0.13968498  1
  Fe3+  Fe94  1  0.12385104  0.62464626  0.63811657  1
  Fe3+  Fe95  1  0.12445325  0.87639350  0.13334258  1
  Cu2+  Cu96  1  0.12486036  0.12730538  0.87267065  1
  Cu2+  Cu97  1  0.37472865  0.37507771  0.37496889  1
  Cu2+  Cu98  1  0.87411702  0.62704927  0.37104006  1
  Cu2+  Cu99  1  0.87519246  0.37458070  0.36834090  1
  Cu2+  Cu100  1  0.12534734  0.12383463  0.37307599  1
  Cu2+  Cu101  1  0.62573548  0.12686999  0.86133519  1
  Cu2+  Cu102  1  0.37417272  0.12703849  0.85966438  1
  Cu2+  Cu103  1  0.87561497  0.37632246  0.87311603  1
  Cu2+  Cu104  1  0.87551580  0.87462707  0.87426537  1
  Cu2+  Cu105  1  0.87516019  0.12300769  0.37384661  1
  Cu2+  Cu106  1  0.12516440  0.62576850  0.36038732  1
  Cu2+  Cu107  1  0.87572830  0.12649467  0.86103544  1
  Cu2+  Cu108  1  0.87548505  0.37294584  0.14263508  1
  Cu2+  Cu109  1  0.87579752  0.12527534  0.64419239  1
  Cu2+  Cu110  1  0.37423963  0.37393686  0.63810446  1
  Cu2+  Cu111  1  0.62566148  0.62424140  0.65192510  1
  Cu2+  Cu112  1  0.87521084  0.87705247  0.14041907  1
  Cu2+  Cu113  1  0.37384311  0.62583376  0.65049560  1
  Cu2+  Cu114  1  0.62679360  0.87475219  0.65828992  1
  Cu2+  Cu115  1  0.12467866  0.37418197  0.15744165  1
  Cu2+  Cu116  1  0.62617315  0.62385499  0.14998808  1
  Cu2+  Cu117  1  0.37453553  0.87613052  0.65697088  1
  Cu2+  Cu118  1  0.12340132  0.37496553  0.64677028  1
  Cu2+  Cu119  1  0.62527604  0.37280079  0.15784088  1
  Cu2+  Cu120  1  0.12364864  0.62422986  0.15173984  1
  Cu2+  Cu121  1  0.12341405  0.87451855  0.65448519  1
  Cu2+  Cu122  1  0.12448765  0.12548673  0.64249020  1
  Cu2+  Cu123  1  0.12410833  0.12562422  0.14246597  1
  Cu2+  Cu124  1  0.37428468  0.37338023  0.15724471  1
  Cu2+  Cu125  1  0.87657387  0.62532757  0.64385664  1
  Cu2+  Cu126  1  0.62536985  0.12622286  0.65229375  1
  Cu2+  Cu127  1  0.37495443  0.62411469  0.15334347  1
  O2-  O128  1  0.12459526  0.12739502  0.00688748  1
  O2-  O129  1  0.12657119  0.12336387  0.50808075  1
  O2-  O130  1  0.12824727  0.37643493  -0.00554242  1
  O2-  O131  1  0.12369560  0.37641989  0.49722849  1
  O2-  O132  1  0.12705814  0.62057072  -0.00238859  1
  O2-  O133  1  0.12463446  0.62733265  0.51772297  1
  O2-  O134  1  0.12528737  0.87554313  0.00629432  1
  O2-  O135  1  0.12677752  0.87245834  0.49559286  1
  O2-  O136  1  0.37590614  0.12840033  0.01890308  1
  O2-  O137  1  0.37550850  0.12038890  0.50810550  1
  O2-  O138  1  0.37489110  0.37621299  -0.00631739  1
  O2-  O139  1  0.37567043  0.37506739  0.50596522  1
  O2-  O140  1  0.37537816  0.61963020  -0.00464748  1
  O2-  O141  1  0.37587224  0.63041017  0.49558040  1
  O2-  O142  1  0.37510152  0.87641850  0.00536599  1
  O2-  O143  1  0.37604840  0.87312156  0.49450815  1
  O2-  O144  1  0.62563419  0.12870402  0.01764403  1
  O2-  O145  1  0.62248867  0.12031931  0.49837504  1
  O2-  O146  1  0.62228822  0.37606315  -0.00680032  1
  O2-  O147  1  0.62671375  0.37549690  0.50661443  1
  O2-  O148  1  0.62285286  0.61890857  -0.00395742  1
  O2-  O149  1  0.62350081  0.62964786  0.49517109  1
  O2-  O150  1  0.62480804  0.87673822  0.00526705  1
  O2-  O151  1  0.62339516  0.87255623  0.49492077  1
  O2-  O152  1  0.87399640  0.12728942  0.01888137  1
  O2-  O153  1  0.87485375  0.12227741  0.50910155  1
  O2-  O154  1  0.87466520  0.37526783  0.00843384  1
  O2-  O155  1  0.87479915  0.37520059  0.51584335  1
  O2-  O156  1  0.87470287  0.62217778  0.00736325  1
  O2-  O157  1  0.87493674  0.62773293  0.50642719  1
  O2-  O158  1  0.87443185  0.87482698  0.00693214  1
  O2-  O159  1  0.87459169  0.87419883  0.50763476  1
  O2-  O160  1  0.12591389  -0.00249462  0.16392133  1
  O2-  O161  1  0.12449581  -0.00174068  0.66798460  1
  O2-  O162  1  0.12540742  0.25154690  0.16868181  1
  O2-  O163  1  0.12489236  0.25150581  0.66331652  1
  O2-  O164  1  0.12498689  0.49869025  0.16639415  1
  O2-  O165  1  0.12460970  0.50009079  0.66170105  1
  O2-  O166  1  0.12497578  0.75157158  0.15906060  1
  O2-  O167  1  0.12532473  0.74978658  0.67014074  1
  O2-  O168  1  0.37498758  -0.00098538  0.16470904  1
  O2-  O169  1  0.37578675  0.00112921  0.66786090  1
  O2-  O170  1  0.37472588  0.24935596  0.17245896  1
  O2-  O171  1  0.37518441  0.24670530  0.66137536  1
  O2-  O172  1  0.37509776  0.49866510  0.16718859  1
  O2-  O173  1  0.37472558  0.50118023  0.65700026  1
  O2-  O174  1  0.37564319  0.75177827  0.15641590  1
  O2-  O175  1  0.37482468  0.75146248  0.66887731  1
  O2-  O176  1  0.62380038  0.00006404  0.16354663  1
  O2-  O177  1  0.62528316  0.00016586  0.66801432  1
  O2-  O178  1  0.62426975  0.24896051  0.17272113  1
  O2-  O179  1  0.62532571  0.25226541  0.66091991  1
  O2-  O180  1  0.62517439  0.49804978  0.16711976  1
  O2-  O181  1  0.62551710  0.49901014  0.65737919  1
  O2-  O182  1  0.62451943  0.75200279  0.15578736  1
  O2-  O183  1  0.62552462  0.74894799  0.66913823  1
  O2-  O184  1  0.87492962  0.00234582  0.16852108  1
  O2-  O185  1  0.87490751  -0.00272082  0.66559858  1
  O2-  O186  1  0.87528633  0.24798450  0.17113104  1
  O2-  O187  1  0.87471513  0.25169319  0.66623869  1
  O2-  O188  1  0.87455242  0.50177836  0.16519242  1
  O2-  O189  1  0.87531708  0.49870445  0.66456355  1
  O2-  O190  1  0.87460526  0.74741695  0.16097118  1
  O2-  O191  1  0.87480593  0.75263333  0.66724341  1
  O2-  O192  1  -0.00108684  0.12479502  0.16822592  1
  O2-  O193  1  0.00029429  0.12463845  0.66698746  1
  O2-  O194  1  0.00212417  0.37514052  0.16555610  1
  O2-  O195  1  -0.00063709  0.37493211  0.66747910  1
  O2-  O196  1  -0.00202751  0.62487165  0.16345852  1
  O2-  O197  1  0.00172846  0.62613040  0.67081920  1
  O2-  O198  1  0.00299687  0.87468441  0.16503024  1
  O2-  O199  1  -0.00171533  0.87446480  0.66622102  1
  O2-  O200  1  0.25126001  0.12512844  0.16695673  1
  O2-  O201  1  0.25198096  0.12323229  0.66294741  1
  O2-  O202  1  0.24886846  0.37426836  0.16522550  1
  O2-  O203  1  0.24813860  0.37485218  0.65983656  1
  O2-  O204  1  0.24968957  0.62511591  0.16313990  1
  O2-  O205  1  0.24920740  0.62640966  0.66508684  1
  O2-  O206  1  0.25043755  0.87436931  0.15884609  1
  O2-  O207  1  0.24899331  0.87553466  0.66613571  1
  O2-  O208  1  0.50004380  0.12532570  0.16824818  1
  O2-  O209  1  0.49895782  0.12403308  0.66389485  1
  O2-  O210  1  0.49998495  0.37383322  0.16686427  1
  O2-  O211  1  0.50321762  0.37513319  0.65983013  1
  O2-  O212  1  0.50060216  0.62461726  0.16115012  1
  O2-  O213  1  0.49924550  0.62612721  0.66202202  1
  O2-  O214  1  0.49963917  0.87544405  0.15877427  1
  O2-  O215  1  0.50129546  0.87512555  0.66727696  1
  O2-  O216  1  0.74974108  0.12491316  0.17076028  1
  O2-  O217  1  0.74907412  0.12460113  0.66593038  1
  O2-  O218  1  0.74887953  0.37424256  0.16820507  1
  O2-  O219  1  0.74983983  0.37565332  0.66573917  1
  O2-  O220  1  0.75133191  0.62473148  0.16265172  1
  O2-  O221  1  0.74991532  0.62577059  0.66679828  1
  O2-  O222  1  0.74646264  0.87551505  0.16463427  1
  O2-  O223  1  0.75208854  0.87453026  0.66529435  1
  O2-  O224  1  0.12546491  -0.00238652  0.34576179  1
  O2-  O225  1  0.12554001  -0.00193167  0.85257537  1
  O2-  O226  1  0.12456208  0.25051839  0.35123333  1
  O2-  O227  1  0.12507135  0.25251844  0.84547070  1
  O2-  O228  1  0.12392375  0.50095291  0.34961319  1
  O2-  O229  1  0.12576489  0.50033506  0.84029975  1
  O2-  O230  1  0.12462247  0.75048054  0.34191200  1
  O2-  O231  1  0.12583118  0.75018243  0.85209069  1
  O2-  O232  1  0.37519961  0.00011384  0.34531879  1
  O2-  O233  1  0.37485669  -0.00074260  0.85297899  1
  O2-  O234  1  0.37584040  0.24623234  0.35558614  1
  O2-  O235  1  0.37557274  0.25133108  0.84379608  1
  O2-  O236  1  0.37547210  0.50264658  0.34989844  1
  O2-  O237  1  0.37495017  0.49967701  0.83730272  1
  O2-  O238  1  0.37517205  0.75046721  0.33764158  1
  O2-  O239  1  0.37574713  0.75103509  0.85198790  1
  O2-  O240  1  0.62420535  -0.00141206  0.34277474  1
  O2-  O241  1  0.62494221  0.00000439  0.85311486  1
  O2-  O242  1  0.62454074  0.25023768  0.35476949  1
  O2-  O243  1  0.62456975  0.25098231  0.84410071  1
  O2-  O244  1  0.62585461  0.49966268  0.35091259  1
  O2-  O245  1  0.62460869  0.50032894  0.83739855  1
  O2-  O246  1  0.62495553  0.75097258  0.33735327  1
  O2-  O247  1  0.62419565  0.75004202  0.85238583  1
  O2-  O248  1  0.87485281  -0.00399803  0.34929718  1
  O2-  O249  1  0.87514137  0.00265857  0.84984435  1
  O2-  O250  1  0.87476468  0.24969840  0.35311584  1
  O2-  O251  1  0.87511448  0.24897414  0.84911186  1
  O2-  O252  1  0.87460569  0.49963351  0.34971894  1
  O2-  O253  1  0.87491609  0.50363524  0.84569200  1
  O2-  O254  1  0.87475984  0.75420072  0.34462983  1
  O2-  O255  1  0.87466315  0.74557285  0.85064214  1
  O2-  O256  1  -0.00001939  0.12318490  0.35058574  1
  O2-  O257  1  -0.00167686  0.12519180  0.84987164  1
  O2-  O258  1  -0.00026164  0.37568366  0.34825845  1
  O2-  O259  1  0.00162020  0.37627513  0.84908744  1
  O2-  O260  1  0.00072143  0.62665523  0.34793932  1
  O2-  O261  1  -0.00013550  0.62549067  0.85202136  1
  O2-  O262  1  -0.00091144  0.87383242  0.34926279  1
  O2-  O263  1  0.00324040  0.87434472  0.85031970  1
  O2-  O264  1  0.25282009  0.12364545  0.34945065  1
  O2-  O265  1  0.25087022  0.12531043  0.84569023  1
  O2-  O266  1  0.24775127  0.37538772  0.34770380  1
  O2-  O267  1  0.25040364  0.37496696  0.84055166  1
  O2-  O268  1  0.25062556  0.62618601  0.34609467  1
  O2-  O269  1  0.25048565  0.62608597  0.84479561  1
  O2-  O270  1  0.25063151  0.87451605  0.34077220  1
  O2-  O271  1  0.25044605  0.87515459  0.85100394  1
  O2-  O272  1  0.49899040  0.12363063  0.34806969  1
  O2-  O273  1  0.49925144  0.12538913  0.84873002  1
  O2-  O274  1  0.50371176  0.37526985  0.35042039  1
  O2-  O275  1  0.49943093  0.37489631  0.84046524  1
  O2-  O276  1  0.50052826  0.62583421  0.34195292  1
  O2-  O277  1  0.49955278  0.62509069  0.84311162  1
  O2-  O278  1  0.49967882  0.87464703  0.33951411  1
  O2-  O279  1  0.49988429  0.87644278  0.85148031  1
  O2-  O280  1  0.74784656  0.12356451  0.35041234  1
  O2-  O281  1  0.75186642  0.12574715  0.84998404  1
  O2-  O282  1  0.74887498  0.37499964  0.35144458  1
  O2-  O283  1  0.74868864  0.37533420  0.84753360  1
  O2-  O284  1  0.74770659  0.62616788  0.34482332  1
  O2-  O285  1  0.75026025  0.62509008  0.84981813  1
  O2-  O286  1  0.75036647  0.87467666  0.34782952  1
  O2-  O287  1  0.74676676  0.87510067  0.84996779  1
