# generated using pymatgen
data_BaYFeCuO5
_symmetry_space_group_name_H-M   'P 1'
_cell_length_a   15.68199287
_cell_length_b   15.67292226
_cell_length_c   15.49832794
_cell_angle_alpha   89.99445962
_cell_angle_beta   89.99785100
_cell_angle_gamma   89.99478471
_symmetry_Int_Tables_number   1
_chemical_formula_structural   BaYFeCuO5
_chemical_formula_sum   'Ba32 Y32 Fe32 Cu32 O160'
_cell_volume   3809.22015554
_cell_formula_units_Z   32
loop_
 _symmetry_equiv_pos_site_id
 _symmetry_equiv_pos_as_xyz
  1  'x, y, z'
loop_
 _atom_type_symbol
 _atom_type_oxidation_number
  Ba2+  2.0
  Y3+  3.0
  Fe3+  3.0
  Cu2+  2.0
  O2-  -2.0
loop_
 _atom_site_type_symbol
 _atom_site_label
 _atom_site_symmetry_multiplicity
 _atom_site_fract_x
 _atom_site_fract_y
 _atom_site_fract_z
 _atom_site_occupancy
  Ba2+  Ba0  1  0.00334407  0.00825998  -0.00544938  1
  Ba2+  Ba1  1  -0.01184378  -0.00328244  0.50223472  1
  Ba2+  Ba2  1  -0.00199860  0.24744866  0.01281334  1
  Ba2+  Ba3  1  -0.00538659  0.25640536  0.51308963  1
  Ba2+  Ba4  1  -0.00295822  0.49267684  0.01111550  1
  Ba2+  Ba5  1  -0.00031638  0.50260214  0.52252090  1
  Ba2+  Ba6  1  0.00134963  0.75123567  -0.00312073  1
  Ba2+  Ba7  1  -0.00601821  0.74481594  0.51297688  1
  Ba2+  Ba8  1  0.25079267  0.00299954  0.00490007  1
  Ba2+  Ba9  1  0.26057084  0.00021767  0.51090799  1
  Ba2+  Ba10  1  0.25119200  0.24842278  0.02117817  1
  Ba2+  Ba11  1  0.25272394  0.24888223  0.51007558  1
  Ba2+  Ba12  1  0.24997611  0.48896301  0.01808904  1
  Ba2+  Ba13  1  0.24570126  0.50808729  0.51067052  1
  Ba2+  Ba14  1  0.25030575  0.76066240  0.00632956  1
  Ba2+  Ba15  1  0.25391098  0.74186423  0.51106292  1
  Ba2+  Ba16  1  0.49746555  0.00154812  0.02061307  1
  Ba2+  Ba17  1  0.50333338  0.00179150  0.51505182  1
  Ba2+  Ba18  1  0.49915307  0.24878333  0.02014864  1
  Ba2+  Ba19  1  0.50502605  0.24233998  0.50950082  1
  Ba2+  Ba20  1  0.49970164  0.48930308  0.01807326  1
  Ba2+  Ba21  1  0.50528130  0.50921521  0.50952835  1
  Ba2+  Ba22  1  0.49897688  0.76067760  0.01801125  1
  Ba2+  Ba23  1  0.50219221  0.74708674  0.51571912  1
  Ba2+  Ba24  1  0.74788760  0.00794717  0.00588280  1
  Ba2+  Ba25  1  0.74811853  -0.00065056  0.50652695  1
  Ba2+  Ba26  1  0.75207094  0.24763201  0.01245000  1
  Ba2+  Ba27  1  0.74709048  0.24837747  0.51185446  1
  Ba2+  Ba28  1  0.75316624  0.49348665  0.01090048  1
  Ba2+  Ba29  1  0.74911028  0.50155706  0.52287929  1
  Ba2+  Ba30  1  0.74879721  0.75156654  0.00677578  1
  Ba2+  Ba31  1  0.74954748  0.74977630  0.51873028  1
  Y3+  Y32  1  -0.00467552  0.00053449  0.26021643  1
  Y3+  Y33  1  -0.00080194  0.00041753  0.75802153  1
  Y3+  Y34  1  -0.00314416  0.24939221  0.25647936  1
  Y3+  Y35  1  -0.00056963  0.24973536  0.75812174  1
  Y3+  Y36  1  0.00062766  0.49942923  0.25667449  1
  Y3+  Y37  1  -0.00007195  0.50097031  0.75687865  1
  Y3+  Y38  1  -0.00073897  0.75033013  0.26142011  1
  Y3+  Y39  1  -0.00072386  0.74945602  0.75613526  1
  Y3+  Y40  1  0.25259627  0.00019200  0.26035001  1
  Y3+  Y41  1  0.25123067  0.00043104  0.75420272  1
  Y3+  Y42  1  0.25159429  0.25001058  0.26121673  1
  Y3+  Y43  1  0.25054792  0.24929625  0.75200213  1
  Y3+  Y44  1  0.24985417  0.50124920  0.26107950  1
  Y3+  Y45  1  0.24938028  0.50149336  0.75233433  1
  Y3+  Y46  1  0.24931635  0.74784519  0.26108124  1
  Y3+  Y47  1  0.25048772  0.74917499  0.75408230  1
  Y3+  Y48  1  0.50023582  0.00115466  0.26179513  1
  Y3+  Y49  1  0.50107990  0.00169205  0.75151111  1
  Y3+  Y50  1  0.49984736  0.24847999  0.26170023  1
  Y3+  Y51  1  0.50243294  0.24771038  0.75073607  1
  Y3+  Y52  1  0.50033302  0.50093950  0.26006725  1
  Y3+  Y53  1  0.50151811  0.50154291  0.75263220  1
  Y3+  Y54  1  0.50066758  0.74899626  0.25978160  1
  Y3+  Y55  1  0.50045127  0.74979572  0.75275471  1
  Y3+  Y56  1  0.75097665  0.00189684  0.25968769  1
  Y3+  Y57  1  0.74945907  0.00161014  0.75629421  1
  Y3+  Y58  1  0.75091032  0.24786799  0.25724289  1
  Y3+  Y59  1  0.74838724  0.24840789  0.75704637  1
  Y3+  Y60  1  0.74873960  0.49873639  0.25519754  1
  Y3+  Y61  1  0.75004088  0.50079378  0.75748538  1
  Y3+  Y62  1  0.74965346  0.75148513  0.25798668  1
  Y3+  Y63  1  0.75088092  0.74983320  0.75695088  1
  Fe3+  Fe64  1  0.37635796  0.12662526  0.87376420  1
  Fe3+  Fe65  1  0.87479100  0.37423385  0.87456276  1
  Fe3+  Fe66  1  0.62372347  0.62484377  0.88033973  1
  Fe3+  Fe67  1  0.87401246  0.37617437  0.37657619  1
  Fe3+  Fe68  1  0.37579281  0.37619735  0.38002378  1
  Fe3+  Fe69  1  0.37605684  0.87614364  0.87302550  1
  Fe3+  Fe70  1  0.62330964  0.37333275  0.87542243  1
  Fe3+  Fe71  1  0.62329490  0.87690044  0.87611870  1
  Fe3+  Fe72  1  0.12355779  0.37560656  0.37800850  1
  Fe3+  Fe73  1  0.12702769  0.37332836  0.87455962  1
  Fe3+  Fe74  1  0.37568480  0.62411219  0.88054148  1
  Fe3+  Fe75  1  0.62562459  0.87408513  0.37675788  1
  Fe3+  Fe76  1  0.12649151  0.62387100  0.87973146  1
  Fe3+  Fe77  1  0.12427513  0.87436610  0.38245424  1
  Fe3+  Fe78  1  0.87479025  0.87596938  0.87871932  1
  Fe3+  Fe79  1  0.12369635  0.12470431  0.38198558  1
  Fe3+  Fe80  1  0.37601068  0.87362373  0.37795528  1
  Fe3+  Fe81  1  0.62615061  0.37544970  0.37722239  1
  Fe3+  Fe82  1  0.87322726  0.62351925  0.37608498  1
  Fe3+  Fe83  1  0.37543726  0.37405333  0.87298573  1
  Fe3+  Fe84  1  0.37406758  0.62531403  0.13427336  1
  Fe3+  Fe85  1  0.12409290  0.87609636  0.13974921  1
  Fe3+  Fe86  1  0.87489956  0.12504825  0.63873450  1
  Fe3+  Fe87  1  0.37633775  0.37613432  0.63216489  1
  Fe3+  Fe88  1  0.12485185  0.12385492  0.14233842  1
  Fe3+  Fe89  1  0.12473958  0.62515357  0.13417549  1
  Fe3+  Fe90  1  0.62472173  0.12468558  0.14082358  1
  Fe3+  Fe91  1  0.62472778  0.62504420  0.13381637  1
  Fe3+  Fe92  1  0.87545950  0.87614728  0.13445206  1
  Fe3+  Fe93  1  0.87583554  0.62572188  0.13441394  1
  Fe3+  Fe94  1  0.12376452  0.12462509  0.63406672  1
  Fe3+  Fe95  1  0.12436259  0.87490292  0.63519500  1
  Cu2+  Cu96  1  0.87463934  0.12629069  0.36643326  1
  Cu2+  Cu97  1  0.87308798  0.87352373  0.37364402  1
  Cu2+  Cu98  1  0.12721873  0.12632973  0.85838584  1
  Cu2+  Cu99  1  0.12291706  0.62457504  0.37348452  1
  Cu2+  Cu100  1  0.12622062  0.87544695  0.85988658  1
  Cu2+  Cu101  1  0.62571929  0.12493698  0.37267443  1
  Cu2+  Cu102  1  0.62698708  0.62510716  0.37070005  1
  Cu2+  Cu103  1  0.37524767  0.12483025  0.37453324  1
  Cu2+  Cu104  1  0.87491371  0.62460972  0.86764992  1
  Cu2+  Cu105  1  0.37583001  0.62499959  0.37203961  1
  Cu2+  Cu106  1  0.87426305  0.12639292  0.87288154  1
  Cu2+  Cu107  1  0.62337883  0.12517926  0.86216695  1
  Cu2+  Cu108  1  0.12442961  0.62610659  0.64351943  1
  Cu2+  Cu109  1  0.87488020  0.87578079  0.64292866  1
  Cu2+  Cu110  1  0.87473283  0.62483713  0.65636961  1
  Cu2+  Cu111  1  0.12508920  0.37482396  0.64738561  1
  Cu2+  Cu112  1  0.12472741  0.37442457  0.15409397  1
  Cu2+  Cu113  1  0.62492683  0.37427189  0.15253505  1
  Cu2+  Cu114  1  0.37539405  0.87446836  0.64686760  1
  Cu2+  Cu115  1  0.37561057  0.62474169  0.64289706  1
  Cu2+  Cu116  1  0.62599379  0.87491387  0.65139766  1
  Cu2+  Cu117  1  0.37370749  0.87459681  0.15539397  1
  Cu2+  Cu118  1  0.87482010  0.37473895  0.15128973  1
  Cu2+  Cu119  1  0.62545860  0.87547790  0.15134466  1
  Cu2+  Cu120  1  0.87449847  0.37470007  0.65290763  1
  Cu2+  Cu121  1  0.62700147  0.12442580  0.64111249  1
  Cu2+  Cu122  1  0.37545328  0.12519083  0.63965281  1
  Cu2+  Cu123  1  0.37489671  0.37523927  0.15767389  1
  Cu2+  Cu124  1  0.37448660  0.12452994  0.15787485  1
  Cu2+  Cu125  1  0.87554371  0.12364915  0.14209399  1
  Cu2+  Cu126  1  0.62523469  0.37524243  0.64819508  1
  Cu2+  Cu127  1  0.62602947  0.62564619  0.64375298  1
  O2-  O128  1  0.12723142  0.12443375  0.02194066  1
  O2-  O129  1  0.12246404  0.12464215  0.50821106  1
  O2-  O130  1  0.12816099  0.37162182  -0.00539787  1
  O2-  O131  1  0.12202049  0.37758553  0.49781697  1
  O2-  O132  1  0.12710092  0.62444510  0.00731970  1
  O2-  O133  1  0.12265763  0.62553858  0.50739193  1
  O2-  O134  1  0.12528580  0.87818198  0.01971355  1
  O2-  O135  1  0.12365958  0.87337245  0.50876355  1
  O2-  O136  1  0.37512487  0.12695475  -0.00612777  1
  O2-  O137  1  0.37469879  0.12509435  0.50654833  1
  O2-  O138  1  0.37445374  0.37174318  -0.00686892  1
  O2-  O139  1  0.37621130  0.37750834  0.50545871  1
  O2-  O140  1  0.37442807  0.62431311  0.00653264  1
  O2-  O141  1  0.37572093  0.62465424  0.50662258  1
  O2-  O142  1  0.37475554  0.87774251  -0.00659998  1
  O2-  O143  1  0.37673247  0.87239682  0.49818649  1
  O2-  O144  1  0.62250744  0.12512033  0.01989050  1
  O2-  O145  1  0.62741619  0.12433261  0.50738428  1
  O2-  O146  1  0.62260823  0.37325007  -0.00449312  1
  O2-  O147  1  0.62713788  0.37693167  0.49715250  1
  O2-  O148  1  0.62190576  0.62451498  0.00627779  1
  O2-  O149  1  0.62793568  0.62571679  0.50635897  1
  O2-  O150  1  0.62169459  0.87735266  -0.00364502  1
  O2-  O151  1  0.62620706  0.87262571  0.49692381  1
  O2-  O152  1  0.87589480  0.12504089  0.00739975  1
  O2-  O153  1  0.87509482  0.12557520  0.51814465  1
  O2-  O154  1  0.87543078  0.37323793  -0.00470248  1
  O2-  O155  1  0.87424366  0.37809510  0.49639884  1
  O2-  O156  1  0.87747938  0.62643491  0.01450902  1
  O2-  O157  1  0.87283418  0.62292810  0.49629129  1
  O2-  O158  1  0.87696720  0.87635900  0.00723656  1
  O2-  O159  1  0.87355457  0.87346880  0.50870017  1
  O2-  O160  1  0.12533217  -0.00051876  0.17545405  1
  O2-  O161  1  0.12432097  0.00019952  0.66298060  1
  O2-  O162  1  0.12581430  0.24944878  0.16947118  1
  O2-  O163  1  0.12493297  0.24819075  0.65898708  1
  O2-  O164  1  0.12524794  0.50119698  0.15919602  1
  O2-  O165  1  0.12458623  0.49928856  0.66613845  1
  O2-  O166  1  0.12480993  0.74848908  0.16481758  1
  O2-  O167  1  0.12504341  0.75278927  0.66764411  1
  O2-  O168  1  0.37390343  -0.00086839  0.16650011  1
  O2-  O169  1  0.37523492  -0.00120067  0.66252315  1
  O2-  O170  1  0.37423137  0.25047565  0.16820186  1
  O2-  O171  1  0.37501513  0.25320161  0.65846588  1
  O2-  O172  1  0.37442284  0.50221479  0.16171043  1
  O2-  O173  1  0.37556696  0.49746376  0.66576912  1
  O2-  O174  1  0.37359253  0.74763168  0.16020262  1
  O2-  O175  1  0.37462951  0.75084863  0.66788153  1
  O2-  O176  1  0.62415264  0.00004474  0.16872016  1
  O2-  O177  1  0.62588505  -0.00217567  0.66374822  1
  O2-  O178  1  0.62357135  0.24950111  0.16795872  1
  O2-  O179  1  0.62596457  0.25137420  0.66236214  1
  O2-  O180  1  0.62432686  0.50151477  0.16024342  1
  O2-  O181  1  0.62543070  0.49931434  0.66664796  1
  O2-  O182  1  0.62449013  0.74833859  0.16026739  1
  O2-  O183  1  0.62636172  0.75177852  0.66767105  1
  O2-  O184  1  0.87494889  -0.00354533  0.16835055  1
  O2-  O185  1  0.87623010  0.00219532  0.66873458  1
  O2-  O186  1  0.87532874  0.25120763  0.16516981  1
  O2-  O187  1  0.87539150  0.24976381  0.66436790  1
  O2-  O188  1  0.87507119  0.50075790  0.16053886  1
  O2-  O189  1  0.87535239  0.49952569  0.66559988  1
  O2-  O190  1  0.87566113  0.75083583  0.16358207  1
  O2-  O191  1  0.87506517  0.74887972  0.66793127  1
  O2-  O192  1  0.00141341  0.12441025  0.16959223  1
  O2-  O193  1  0.00108687  0.12548749  0.66764940  1
  O2-  O194  1  -0.00001430  0.37475199  0.16303296  1
  O2-  O195  1  -0.00006134  0.37502551  0.66533509  1
  O2-  O196  1  0.00147263  0.62466933  0.16398402  1
  O2-  O197  1  -0.00146358  0.62553530  0.66803541  1
  O2-  O198  1  -0.00104402  0.87445502  0.16974659  1
  O2-  O199  1  0.00287060  0.87478001  0.66747986  1
  O2-  O200  1  0.25018536  0.12507793  0.17069092  1
  O2-  O201  1  0.24689128  0.12436712  0.66021267  1
  O2-  O202  1  0.25016651  0.37534129  0.16790111  1
  O2-  O203  1  0.25187015  0.37588927  0.65845573  1
  O2-  O204  1  0.24928454  0.62449382  0.16421011  1
  O2-  O205  1  0.25026620  0.62509187  0.66553422  1
  O2-  O206  1  0.24863948  0.87388465  0.16968391  1
  O2-  O207  1  0.24814651  0.87532229  0.66118637  1
  O2-  O208  1  0.49902719  0.12487793  0.16735906  1
  O2-  O209  1  0.50092744  0.12479236  0.66037354  1
  O2-  O210  1  0.49942106  0.37585907  0.16537622  1
  O2-  O211  1  0.49944930  0.37584584  0.65943026  1
  O2-  O212  1  0.49930995  0.62495205  0.16175436  1
  O2-  O213  1  0.50071550  0.62572108  0.66507597  1
  O2-  O214  1  0.49884525  0.87403686  0.16277816  1
  O2-  O215  1  0.50157983  0.87373255  0.66059412  1
  O2-  O216  1  0.74854314  0.12487427  0.16525885  1
  O2-  O217  1  0.75214889  0.12494059  0.66884606  1
  O2-  O218  1  0.74973169  0.37493484  0.16104228  1
  O2-  O219  1  0.74974989  0.37580168  0.66597330  1
  O2-  O220  1  0.74901675  0.62518574  0.15828119  1
  O2-  O221  1  0.75132335  0.62512555  0.66937590  1
  O2-  O222  1  0.75193107  0.87393179  0.15941331  1
  O2-  O223  1  0.74868107  0.87478735  0.66946386  1
  O2-  O224  1  0.12398574  -0.00044221  0.35665350  1
  O2-  O225  1  0.12687408  0.00114741  0.84804418  1
  O2-  O226  1  0.12496913  0.24923239  0.35182656  1
  O2-  O227  1  0.12631093  0.25082167  0.84139749  1
  O2-  O228  1  0.12457006  0.49756080  0.34246935  1
  O2-  O229  1  0.12664088  0.50069991  0.84883235  1
  O2-  O230  1  0.12435805  0.75323264  0.34798140  1
  O2-  O231  1  0.12589306  0.74774955  0.85286525  1
  O2-  O232  1  0.37439606  -0.00270831  0.34917921  1
  O2-  O233  1  0.37431634  0.00049964  0.84355629  1
  O2-  O234  1  0.37431685  0.25341364  0.35231483  1
  O2-  O235  1  0.37557004  0.25054734  0.83852068  1
  O2-  O236  1  0.37495546  0.49705995  0.34585043  1
  O2-  O237  1  0.37477843  0.50137905  0.84838406  1
  O2-  O238  1  0.37448854  0.75175400  0.34303461  1
  O2-  O239  1  0.37485372  0.74834061  0.85076423  1
  O2-  O240  1  0.62522321  -0.00147130  0.35002082  1
  O2-  O241  1  0.62513368  0.00002583  0.84623436  1
  O2-  O242  1  0.62517562  0.25164994  0.34919196  1
  O2-  O243  1  0.62351055  0.25006012  0.84490900  1
  O2-  O244  1  0.62498385  0.49798653  0.34301253  1
  O2-  O245  1  0.62446080  0.50124573  0.84916320  1
  O2-  O246  1  0.62551483  0.75138731  0.34290611  1
  O2-  O247  1  0.62424743  0.74923268  0.85068772  1
  O2-  O248  1  0.87487027  0.00170643  0.35234361  1
  O2-  O249  1  0.87524756  -0.00233113  0.85068616  1
  O2-  O250  1  0.87504277  0.25116492  0.34864162  1
  O2-  O251  1  0.87541816  0.25180701  0.84493088  1
  O2-  O252  1  0.87473319  0.49905689  0.34044115  1
  O2-  O253  1  0.87484747  0.49896782  0.84854888  1
  O2-  O254  1  0.87460068  0.74797260  0.34496035  1
  O2-  O255  1  0.87611331  0.75202007  0.85223972  1
  O2-  O256  1  0.00130184  0.12481881  0.35170523  1
  O2-  O257  1  0.00266012  0.12464881  0.85054604  1
  O2-  O258  1  -0.00080701  0.37440270  0.34484593  1
  O2-  O259  1  0.00126796  0.37551473  0.84728549  1
  O2-  O260  1  -0.00288252  0.62475322  0.34520891  1
  O2-  O261  1  0.00311723  0.62491419  0.85226477  1
  O2-  O262  1  0.00174785  0.87512520  0.35235982  1
  O2-  O263  1  -0.00013496  0.87570659  0.85204893  1
  O2-  O264  1  0.24627136  0.12452685  0.35331888  1
  O2-  O265  1  0.25187732  0.12555668  0.84255553  1
  O2-  O266  1  0.25047074  0.37548865  0.35182088  1
  O2-  O267  1  0.25098847  0.37545298  0.83966421  1
  O2-  O268  1  0.24931930  0.62476665  0.34911957  1
  O2-  O269  1  0.25099895  0.62536361  0.84941912  1
  O2-  O270  1  0.24852625  0.87462447  0.35210087  1
  O2-  O271  1  0.25123059  0.87440934  0.84456357  1
  O2-  O272  1  0.50004439  0.12531556  0.34977217  1
  O2-  O273  1  0.49906639  0.12481723  0.84192949  1
  O2-  O274  1  0.49945811  0.37555593  0.34905621  1
  O2-  O275  1  0.49976615  0.37629787  0.84051782  1
  O2-  O276  1  0.50078403  0.62465760  0.34673028  1
  O2-  O277  1  0.49942901  0.62468104  0.84855509  1
  O2-  O278  1  0.50035034  0.87395126  0.34537805  1
  O2-  O279  1  0.49958636  0.87472446  0.84163156  1
  O2-  O280  1  0.75158080  0.12520352  0.34782821  1
  O2-  O281  1  0.74750493  0.12544091  0.85164241  1
  O2-  O282  1  0.75030085  0.37486258  0.34276454  1
  O2-  O283  1  0.74872401  0.37504925  0.84768509  1
  O2-  O284  1  0.75195998  0.62442392  0.33954922  1
  O2-  O285  1  0.74723944  0.62571146  0.85379454  1
  O2-  O286  1  0.74857609  0.87519785  0.34289039  1
  O2-  O287  1  0.75032745  0.87441057  0.85253317  1
