# generated using pymatgen
data_BaYFeCuO5
_symmetry_space_group_name_H-M   'P 1'
_cell_length_a   15.67901393
_cell_length_b   15.68244105
_cell_length_c   15.52843197
_cell_angle_alpha   90.00771495
_cell_angle_beta   90.00149821
_cell_angle_gamma   89.98807674
_symmetry_Int_Tables_number   1
_chemical_formula_structural   BaYFeCuO5
_chemical_formula_sum   'Ba32 Y32 Fe32 Cu32 O160'
_cell_volume   3818.21166468
_cell_formula_units_Z   32
loop_
 _symmetry_equiv_pos_site_id
 _symmetry_equiv_pos_as_xyz
  1  'x, y, z'
loop_
 _atom_type_symbol
 _atom_type_oxidation_number
  Ba2+  2.0
  Y3+  3.0
  Fe3+  3.0
  Cu2+  2.0
  O2-  -2.0
loop_
 _atom_site_type_symbol
 _atom_site_label
 _atom_site_symmetry_multiplicity
 _atom_site_fract_x
 _atom_site_fract_y
 _atom_site_fract_z
 _atom_site_occupancy
  Ba2+  Ba0  1  -0.00604052  0.00570127  0.02394355  1
  Ba2+  Ba1  1  -0.00702294  -0.00145731  0.50653472  1
  Ba2+  Ba2  1  0.00142104  0.25094832  0.02263554  1
  Ba2+  Ba3  1  -0.00688640  0.25222991  0.50810407  1
  Ba2+  Ba4  1  0.00321465  0.49475134  0.01054934  1
  Ba2+  Ba5  1  0.00043516  0.50007900  0.50673818  1
  Ba2+  Ba6  1  -0.00465430  0.74586915  0.01191588  1
  Ba2+  Ba7  1  -0.00054223  0.74821148  0.50814168  1
  Ba2+  Ba8  1  0.25426177  0.00611580  0.02353105  1
  Ba2+  Ba9  1  0.25008558  -0.00035083  0.50705109  1
  Ba2+  Ba10  1  0.24958729  0.25416838  0.01558183  1
  Ba2+  Ba11  1  0.25364029  0.25587188  0.49077944  1
  Ba2+  Ba12  1  0.24883119  0.49272546  0.00587391  1
  Ba2+  Ba13  1  0.24822377  0.50000626  0.49245207  1
  Ba2+  Ba14  1  0.25386439  0.74528150  0.01194774  1
  Ba2+  Ba15  1  0.24657527  0.74392627  0.51389989  1
  Ba2+  Ba16  1  0.50586949  0.00213751  0.01583426  1
  Ba2+  Ba17  1  0.50454432  0.00331641  0.50230038  1
  Ba2+  Ba18  1  0.50022561  0.24830792  0.01698067  1
  Ba2+  Ba19  1  0.49568839  0.24863505  0.50053742  1
  Ba2+  Ba20  1  0.49383906  0.49300370  0.01523068  1
  Ba2+  Ba21  1  0.49529704  0.50431841  0.51503961  1
  Ba2+  Ba22  1  0.49850290  0.75803335  0.01646300  1
  Ba2+  Ba23  1  0.50427611  0.74473312  0.51466566  1
  Ba2+  Ba24  1  0.74494777  0.00214331  0.01574312  1
  Ba2+  Ba25  1  0.75269261  0.00094019  0.50074865  1
  Ba2+  Ba26  1  0.74849807  0.24658213  0.02124058  1
  Ba2+  Ba27  1  0.75503333  0.24436104  0.51604668  1
  Ba2+  Ba28  1  0.75529159  0.49422535  0.01973029  1
  Ba2+  Ba29  1  0.75472891  0.50547633  0.52306059  1
  Ba2+  Ba30  1  0.75157745  0.75786624  0.01611792  1
  Ba2+  Ba31  1  0.75055839  0.75071696  0.50579471  1
  Y3+  Y32  1  -0.00340042  0.00154610  0.26082958  1
  Y3+  Y33  1  -0.00054655  0.00061971  0.75317998  1
  Y3+  Y34  1  0.00001836  0.25060985  0.25887564  1
  Y3+  Y35  1  -0.00090595  0.25021062  0.75517019  1
  Y3+  Y36  1  0.00157381  0.49835309  0.25521985  1
  Y3+  Y37  1  0.00109189  0.49902064  0.75996214  1
  Y3+  Y38  1  -0.00228518  0.75002721  0.25620997  1
  Y3+  Y39  1  0.00166157  0.74946814  0.75860396  1
  Y3+  Y40  1  0.25193759  0.00207956  0.25924619  1
  Y3+  Y41  1  0.24886044  -0.00037089  0.75492078  1
  Y3+  Y42  1  0.25079530  0.25208459  0.25458315  1
  Y3+  Y43  1  0.24985226  0.25235724  0.76269025  1
  Y3+  Y44  1  0.25010510  0.49716549  0.25285756  1
  Y3+  Y45  1  0.24868583  0.49823657  0.76460324  1
  Y3+  Y46  1  0.25136147  0.74926964  0.25576158  1
  Y3+  Y47  1  0.24816779  0.74879606  0.75930885  1
  Y3+  Y48  1  0.50182508  0.00044449  0.25560713  1
  Y3+  Y49  1  0.50443733  0.00108980  0.76043781  1
  Y3+  Y50  1  0.49877249  0.25019790  0.25541959  1
  Y3+  Y51  1  0.50120042  0.24846908  0.75942851  1
  Y3+  Y52  1  0.49770442  0.49825462  0.25427013  1
  Y3+  Y53  1  0.49884718  0.49955485  0.75890062  1
  Y3+  Y54  1  0.50091965  0.75235962  0.25464968  1
  Y3+  Y55  1  0.50118166  0.74990111  0.75900984  1
  Y3+  Y56  1  0.74977528  -0.00026751  0.25698519  1
  Y3+  Y57  1  0.74777108  0.00213041  0.75797815  1
  Y3+  Y58  1  0.75018227  0.24833639  0.25700762  1
  Y3+  Y59  1  0.74976308  0.24640047  0.75475613  1
  Y3+  Y60  1  0.75108635  0.49935335  0.25337244  1
  Y3+  Y61  1  0.75107030  0.50046279  0.75650494  1
  Y3+  Y62  1  0.75038659  0.75359827  0.25509545  1
  Y3+  Y63  1  0.74883844  0.75040572  0.75900590  1
  Fe3+  Fe64  1  0.12468291  0.12580839  0.37870887  1
  Fe3+  Fe65  1  0.62541444  0.12603688  0.37608177  1
  Fe3+  Fe66  1  0.62543292  0.62441038  0.37403746  1
  Fe3+  Fe67  1  0.37480799  0.87691617  0.87671552  1
  Fe3+  Fe68  1  0.62609047  0.37409045  0.87700704  1
  Fe3+  Fe69  1  0.62550650  0.37688773  0.37958061  1
  Fe3+  Fe70  1  0.37512469  0.12454574  0.87795735  1
  Fe3+  Fe71  1  0.87512263  0.12509331  0.87626929  1
  Fe3+  Fe72  1  0.62540903  0.62466593  0.88116781  1
  Fe3+  Fe73  1  0.12445367  0.87675787  0.88142710  1
  Fe3+  Fe74  1  0.87499961  0.87683817  0.87805786  1
  Fe3+  Fe75  1  0.87446408  0.37253856  0.87564932  1
  Fe3+  Fe76  1  0.37605666  0.87408454  0.37931513  1
  Fe3+  Fe77  1  0.12393270  0.12436474  0.87759864  1
  Fe3+  Fe78  1  0.87338968  0.37599150  0.37586074  1
  Fe3+  Fe79  1  0.87488609  0.62480305  0.37337998  1
  Fe3+  Fe80  1  0.87479837  0.62450268  0.87806552  1
  Fe3+  Fe81  1  0.37553080  0.62561509  0.37373146  1
  Fe3+  Fe82  1  0.37551630  0.62484764  0.87851466  1
  Fe3+  Fe83  1  0.12501877  0.87361042  0.37661232  1
  Fe3+  Fe84  1  0.37517570  0.87419772  0.63414785  1
  Fe3+  Fe85  1  0.37314524  0.37561569  0.63883568  1
  Fe3+  Fe86  1  0.87467713  0.87413587  0.63819353  1
  Fe3+  Fe87  1  0.62477580  0.62472964  0.13350405  1
  Fe3+  Fe88  1  0.62514653  0.87559423  0.63768275  1
  Fe3+  Fe89  1  0.12513290  0.62460065  0.13702412  1
  Fe3+  Fe90  1  0.12544967  0.62289710  0.64069907  1
  Fe3+  Fe91  1  0.12484803  0.87591976  0.13563776  1
  Fe3+  Fe92  1  0.12590118  0.12623712  0.63246871  1
  Fe3+  Fe93  1  0.37489494  0.12610526  0.63613653  1
  Fe3+  Fe94  1  0.12602734  0.37483023  0.63743778  1
  Fe3+  Fe95  1  0.62467232  0.37450861  0.63353293  1
  Cu2+  Cu96  1  0.62587938  0.12556470  0.87342849  1
  Cu2+  Cu97  1  0.37633185  0.37322592  0.87416496  1
  Cu2+  Cu98  1  0.12418762  0.37547782  0.36245336  1
  Cu2+  Cu99  1  0.62550414  0.87517882  0.87446377  1
  Cu2+  Cu100  1  0.87444848  0.12580333  0.37219015  1
  Cu2+  Cu101  1  0.37616838  0.37631675  0.35966333  1
  Cu2+  Cu102  1  0.12318565  0.37277640  0.87429989  1
  Cu2+  Cu103  1  0.37538870  0.12498301  0.36270607  1
  Cu2+  Cu104  1  0.12439389  0.62530577  0.86966808  1
  Cu2+  Cu105  1  0.12484931  0.62523385  0.35834342  1
  Cu2+  Cu106  1  0.87470440  0.87435669  0.36170185  1
  Cu2+  Cu107  1  0.62482700  0.87447655  0.36301997  1
  Cu2+  Cu108  1  0.87470192  0.12548367  0.15625269  1
  Cu2+  Cu109  1  0.87511237  0.12339237  0.64049667  1
  Cu2+  Cu110  1  0.12518252  0.87458486  0.64846493  1
  Cu2+  Cu111  1  0.37499817  0.62486005  0.14792658  1
  Cu2+  Cu112  1  0.87537277  0.37534696  0.65028094  1
  Cu2+  Cu113  1  0.62505293  0.62498878  0.65372506  1
  Cu2+  Cu114  1  0.62533258  0.87594013  0.14330060  1
  Cu2+  Cu115  1  0.87522278  0.62468615  0.14795863  1
  Cu2+  Cu116  1  0.12486441  0.37431021  0.14384624  1
  Cu2+  Cu117  1  0.87574704  0.87596703  0.15181722  1
  Cu2+  Cu118  1  0.37435404  0.87599841  0.15292212  1
  Cu2+  Cu119  1  0.37467296  0.37427874  0.14264280  1
  Cu2+  Cu120  1  0.87547449  0.37405283  0.15303642  1
  Cu2+  Cu121  1  0.12498530  0.12471780  0.15583205  1
  Cu2+  Cu122  1  0.87621966  0.62598246  0.65477116  1
  Cu2+  Cu123  1  0.62482328  0.12543814  0.14442739  1
  Cu2+  Cu124  1  0.62392566  0.12480264  0.64812408  1
  Cu2+  Cu125  1  0.62507018  0.37483587  0.15189169  1
  Cu2+  Cu126  1  0.37358376  0.62416136  0.65477491  1
  Cu2+  Cu127  1  0.37540116  0.12519647  0.15386340  1
  O2-  O128  1  0.12322731  0.12248511  -0.00290510  1
  O2-  O129  1  0.12617794  0.12633002  0.50588184  1
  O2-  O130  1  0.12335563  0.37285296  0.00865855  1
  O2-  O131  1  0.12773642  0.37704848  0.51763362  1
  O2-  O132  1  0.12430522  0.62517710  0.01679327  1
  O2-  O133  1  0.12551231  0.62333529  0.52046019  1
  O2-  O134  1  0.12495529  0.87830458  0.00718369  1
  O2-  O135  1  0.12610151  0.87159284  0.49640095  1
  O2-  O136  1  0.37494152  0.12332171  -0.00212188  1
  O2-  O137  1  0.37420113  0.12683138  0.51615322  1
  O2-  O138  1  0.37576339  0.37271957  0.00793756  1
  O2-  O139  1  0.37241330  0.37739637  0.51890709  1
  O2-  O140  1  0.37699508  0.62664228  -0.00172617  1
  O2-  O141  1  0.37565678  0.62572070  0.49370210  1
  O2-  O142  1  0.37280295  0.87757980  -0.00352059  1
  O2-  O143  1  0.37568023  0.87230059  0.50640508  1
  O2-  O144  1  0.62545565  0.12590192  0.00865714  1
  O2-  O145  1  0.62443827  0.12598334  0.49661903  1
  O2-  O146  1  0.62645069  0.37418117  -0.00328580  1
  O2-  O147  1  0.62525422  0.37759913  0.50536450  1
  O2-  O148  1  0.62509311  0.62466801  0.00602486  1
  O2-  O149  1  0.62550739  0.62364239  0.49377688  1
  O2-  O150  1  0.62528513  0.87521917  0.00871996  1
  O2-  O151  1  0.62465423  0.87414507  0.51788280  1
  O2-  O152  1  0.87601886  0.12607579  -0.00420564  1
  O2-  O153  1  0.87572505  0.12419216  0.50598897  1
  O2-  O154  1  0.87446689  0.37156756  -0.00461710  1
  O2-  O155  1  0.87291826  0.37833457  0.49571211  1
  O2-  O156  1  0.87390200  0.62437579  -0.00217714  1
  O2-  O157  1  0.87441148  0.62511140  0.49330886  1
  O2-  O158  1  0.87656011  0.87755566  -0.00213063  1
  O2-  O159  1  0.87459897  0.87211983  0.51784516  1
  O2-  O160  1  0.12467120  -0.00121253  0.16694209  1
  O2-  O161  1  0.12684100  0.00160781  0.65908501  1
  O2-  O162  1  0.12512125  0.24806837  0.16771889  1
  O2-  O163  1  0.12481412  0.24941522  0.66418836  1
  O2-  O164  1  0.12458699  0.50134710  0.16539671  1
  O2-  O165  1  0.12474126  0.49878216  0.67251767  1
  O2-  O166  1  0.12580022  0.75191678  0.16143194  1
  O2-  O167  1  0.12551702  0.74877715  0.66912832  1
  O2-  O168  1  0.37478214  0.00048670  0.16913074  1
  O2-  O169  1  0.37326727  -0.00136845  0.65966144  1
  O2-  O170  1  0.37485244  0.24853365  0.16681238  1
  O2-  O171  1  0.37541235  0.25080350  0.66797310  1
  O2-  O172  1  0.37525483  0.50072186  0.16384818  1
  O2-  O173  1  0.37504766  0.49947268  0.66962902  1
  O2-  O174  1  0.37472433  0.75087788  0.16340152  1
  O2-  O175  1  0.37462415  0.75053238  0.66198809  1
  O2-  O176  1  0.62468175  0.00034909  0.16734219  1
  O2-  O177  1  0.62419050  -0.00068377  0.66662640  1
  O2-  O178  1  0.62525415  0.25163173  0.16769082  1
  O2-  O179  1  0.62442880  0.25167093  0.66020081  1
  O2-  O180  1  0.62458363  0.50125188  0.16151591  1
  O2-  O181  1  0.62550329  0.49910179  0.66392108  1
  O2-  O182  1  0.62528441  0.74740773  0.16258306  1
  O2-  O183  1  0.62397641  0.75001077  0.66763017  1
  O2-  O184  1  0.87637097  0.00099804  0.16726835  1
  O2-  O185  1  0.87517231  -0.00254966  0.66460815  1
  O2-  O186  1  0.87475141  0.24974458  0.16649579  1
  O2-  O187  1  0.87529808  0.25035772  0.66037285  1
  O2-  O188  1  0.87545535  0.49890803  0.16117172  1
  O2-  O189  1  0.87479668  0.50121102  0.66490449  1
  O2-  O190  1  0.87459410  0.75042697  0.16250924  1
  O2-  O191  1  0.87597278  0.75058553  0.66895678  1
  O2-  O192  1  -0.00042073  0.12535410  0.16789215  1
  O2-  O193  1  0.00366487  0.12399207  0.66029063  1
  O2-  O194  1  -0.00108773  0.37372212  0.16672530  1
  O2-  O195  1  0.00046387  0.37521362  0.66323172  1
  O2-  O196  1  0.00050437  0.62634853  0.16597526  1
  O2-  O197  1  0.00106700  0.62522920  0.66747371  1
  O2-  O198  1  0.00165534  0.87506278  0.16370998  1
  O2-  O199  1  0.00016304  0.87459876  0.66627410  1
  O2-  O200  1  0.25033682  0.12382286  0.16652046  1
  O2-  O201  1  0.24926426  0.12488027  0.66561896  1
  O2-  O202  1  0.24965571  0.37440562  0.16517162  1
  O2-  O203  1  0.24954846  0.37500219  0.67395661  1
  O2-  O204  1  0.24967879  0.62614545  0.16561732  1
  O2-  O205  1  0.24897899  0.62515241  0.67095404  1
  O2-  O206  1  0.24822347  0.87638945  0.16484548  1
  O2-  O207  1  0.25176571  0.87368828  0.66346120  1
  O2-  O208  1  0.49889361  0.12541273  0.16639209  1
  O2-  O209  1  0.49848392  0.12438037  0.66662774  1
  O2-  O210  1  0.50110928  0.37477616  0.16653839  1
  O2-  O211  1  0.50073780  0.37655879  0.66283578  1
  O2-  O212  1  0.50137708  0.62528916  0.16093679  1
  O2-  O213  1  0.49898963  0.62452540  0.66365558  1
  O2-  O214  1  0.49822438  0.87530591  0.16583962  1
  O2-  O215  1  0.49864129  0.87411890  0.66550908  1
  O2-  O216  1  0.75127936  0.12496502  0.16601091  1
  O2-  O217  1  0.74828768  0.12448968  0.66322443  1
  O2-  O218  1  0.75041312  0.37540746  0.16337770  1
  O2-  O219  1  0.74879597  0.37549360  0.65981708  1
  O2-  O220  1  0.74864784  0.62399199  0.15991394  1
  O2-  O221  1  0.75102677  0.62573455  0.66400323  1
  O2-  O222  1  0.75212564  0.87606284  0.16524011  1
  O2-  O223  1  0.74929848  0.87363897  0.66842957  1
  O2-  O224  1  0.12635385  0.00079063  0.35091313  1
  O2-  O225  1  0.12457325  -0.00133501  0.84216646  1
  O2-  O226  1  0.12502257  0.24892296  0.35178252  1
  O2-  O227  1  0.12437596  0.24699357  0.84490571  1
  O2-  O228  1  0.12541171  0.50036704  0.34833856  1
  O2-  O229  1  0.12422755  0.50032751  0.85364121  1
  O2-  O230  1  0.12496446  0.75075370  0.34307938  1
  O2-  O231  1  0.12519195  0.75291760  0.85290299  1
  O2-  O232  1  0.37434172  -0.00223629  0.35378568  1
  O2-  O233  1  0.37449384  0.00011185  0.84036703  1
  O2-  O234  1  0.37584938  0.25145714  0.35129350  1
  O2-  O235  1  0.37524774  0.24728645  0.84664749  1
  O2-  O236  1  0.37468068  0.50114272  0.34572720  1
  O2-  O237  1  0.37559160  0.50136206  0.85055873  1
  O2-  O238  1  0.37543953  0.75110620  0.34561975  1
  O2-  O239  1  0.37439303  0.75059590  0.84496336  1
  O2-  O240  1  0.62489001  -0.00006278  0.35039576  1
  O2-  O241  1  0.62531613  0.00006674  0.84922951  1
  O2-  O242  1  0.62403006  0.25254130  0.35047234  1
  O2-  O243  1  0.62600757  0.25138164  0.84316554  1
  O2-  O244  1  0.62514156  0.49927642  0.34387464  1
  O2-  O245  1  0.62536875  0.50158856  0.84755649  1
  O2-  O246  1  0.62473351  0.74957327  0.34552844  1
  O2-  O247  1  0.62489876  0.74630959  0.85019412  1
  O2-  O248  1  0.87464269  -0.00148414  0.35143663  1
  O2-  O249  1  0.87608415  0.00020147  0.84322006  1
  O2-  O250  1  0.87506619  0.25261514  0.34870294  1
  O2-  O251  1  0.87451193  0.24892121  0.84104570  1
  O2-  O252  1  0.87479793  0.50035162  0.34189311  1
  O2-  O253  1  0.87456868  0.49968617  0.84687736  1
  O2-  O254  1  0.87513807  0.74944858  0.34527512  1
  O2-  O255  1  0.87555839  0.75021813  0.84919563  1
  O2-  O256  1  0.00261236  0.12440012  0.35129513  1
  O2-  O257  1  -0.00028255  0.12428178  0.84109079  1
  O2-  O258  1  -0.00094505  0.37627967  0.34946130  1
  O2-  O259  1  -0.00274995  0.37416203  0.84454106  1
  O2-  O260  1  -0.00009698  0.62530833  0.34771511  1
  O2-  O261  1  -0.00075802  0.62542492  0.84911434  1
  O2-  O262  1  0.00082893  0.87531439  0.34734264  1
  O2-  O263  1  0.00135185  0.87506490  0.84817922  1
  O2-  O264  1  0.24891276  0.12545940  0.35101877  1
  O2-  O265  1  0.24937223  0.12337566  0.84547107  1
  O2-  O266  1  0.25017793  0.37533231  0.34917918  1
  O2-  O267  1  0.24970245  0.37399829  0.85442172  1
  O2-  O268  1  0.25030480  0.62592582  0.34753569  1
  O2-  O269  1  0.25020719  0.62598120  0.85221269  1
  O2-  O270  1  0.25167919  0.87455522  0.34828331  1
  O2-  O271  1  0.24811158  0.87567475  0.84677825  1
  O2-  O272  1  0.50063531  0.12487052  0.34876465  1
  O2-  O273  1  0.49899102  0.12450980  0.84792296  1
  O2-  O274  1  0.50204011  0.37647177  0.35086605  1
  O2-  O275  1  0.50265498  0.37507532  0.84424139  1
  O2-  O276  1  0.50037951  0.62519877  0.34224945  1
  O2-  O277  1  0.50120781  0.62502722  0.84690172  1
  O2-  O278  1  0.49801756  0.87495313  0.34980769  1
  O2-  O279  1  0.49829861  0.87446831  0.84702716  1
  O2-  O280  1  0.74795807  0.12552350  0.34727394  1
  O2-  O281  1  0.75200521  0.12452489  0.84542219  1
  O2-  O282  1  0.74825211  0.37594907  0.34537169  1
  O2-  O283  1  0.75038244  0.37547250  0.84106637  1
  O2-  O284  1  0.74984429  0.62574997  0.34102933  1
  O2-  O285  1  0.74926683  0.62476497  0.84674411  1
  O2-  O286  1  0.75006172  0.87404978  0.34961315  1
  O2-  O287  1  0.75217708  0.87445358  0.84808790  1
