# generated using pymatgen
data_BaYFeCuO5
_symmetry_space_group_name_H-M   'P 1'
_cell_length_a   15.66840981
_cell_length_b   15.66890592
_cell_length_c   15.47914280
_cell_angle_alpha   90.00346371
_cell_angle_beta   90.01215971
_cell_angle_gamma   89.99756279
_symmetry_Int_Tables_number   1
_chemical_formula_structural   BaYFeCuO5
_chemical_formula_sum   'Ba32 Y32 Fe32 Cu32 O160'
_cell_volume   3800.23532945
_cell_formula_units_Z   32
loop_
 _symmetry_equiv_pos_site_id
 _symmetry_equiv_pos_as_xyz
  1  'x, y, z'
loop_
 _atom_type_symbol
 _atom_type_oxidation_number
  Ba2+  2.0
  Y3+  3.0
  Fe3+  3.0
  Cu2+  2.0
  O2-  -2.0
loop_
 _atom_site_type_symbol
 _atom_site_label
 _atom_site_symmetry_multiplicity
 _atom_site_fract_x
 _atom_site_fract_y
 _atom_site_fract_z
 _atom_site_occupancy
  Ba2+  Ba0  1  0.00429243  0.00700384  0.01681153  1
  Ba2+  Ba1  1  -0.00851471  -0.00358481  0.51219264  1
  Ba2+  Ba2  1  0.00008617  0.24922720  0.02091950  1
  Ba2+  Ba3  1  -0.00867333  0.25371609  0.51149766  1
  Ba2+  Ba4  1  0.00264010  0.50005333  0.02134924  1
  Ba2+  Ba5  1  -0.00924378  0.49665515  0.51157894  1
  Ba2+  Ba6  1  0.00765596  0.74439826  0.01525770  1
  Ba2+  Ba7  1  -0.00925052  0.75308792  0.51202944  1
  Ba2+  Ba8  1  0.24935044  0.00019131  0.02663549  1
  Ba2+  Ba9  1  0.25076202  0.00227752  0.50980917  1
  Ba2+  Ba10  1  0.24893715  0.25022472  0.02644294  1
  Ba2+  Ba11  1  0.25071817  0.24784174  0.50996981  1
  Ba2+  Ba12  1  0.24694604  0.50177179  0.01019455  1
  Ba2+  Ba13  1  0.24833949  0.49936626  0.51627499  1
  Ba2+  Ba14  1  0.24780366  0.74735458  0.01065350  1
  Ba2+  Ba15  1  0.24801788  0.75068386  0.51662624  1
  Ba2+  Ba16  1  0.49396970  -0.00381913  0.02406664  1
  Ba2+  Ba17  1  0.49921230  0.00222333  0.50269249  1
  Ba2+  Ba18  1  0.49773921  0.25707227  0.01812970  1
  Ba2+  Ba19  1  0.49917949  0.24792604  0.50284802  1
  Ba2+  Ba20  1  0.50220617  0.49872933  -0.00103170  1
  Ba2+  Ba21  1  0.50211142  0.50002500  0.50746685  1
  Ba2+  Ba22  1  0.49783321  0.74905386  0.00571593  1
  Ba2+  Ba23  1  0.50246734  0.75010309  0.50728149  1
  Ba2+  Ba24  1  0.75373392  0.00375655  0.01115543  1
  Ba2+  Ba25  1  0.75868937  -0.00341012  0.50128677  1
  Ba2+  Ba26  1  0.75453200  0.25489217  0.01190308  1
  Ba2+  Ba27  1  0.75840617  0.25352812  0.50182616  1
  Ba2+  Ba28  1  0.74817168  0.49664285  0.01193687  1
  Ba2+  Ba29  1  0.75838328  0.49684653  0.50228579  1
  Ba2+  Ba30  1  0.74574169  0.74556375  0.01146088  1
  Ba2+  Ba31  1  0.75874507  0.75302286  0.50149799  1
  Y3+  Y32  1  -0.00214333  0.00128102  0.25774557  1
  Y3+  Y33  1  -0.00318005  0.00057887  0.75491280  1
  Y3+  Y34  1  -0.00342196  0.24998811  0.25759219  1
  Y3+  Y35  1  -0.00345723  0.24944916  0.75431751  1
  Y3+  Y36  1  -0.00264409  0.50061490  0.25759278  1
  Y3+  Y37  1  -0.00100740  0.50003630  0.75470909  1
  Y3+  Y38  1  -0.00129220  0.74768545  0.25730134  1
  Y3+  Y39  1  -0.00069392  0.75014426  0.75524822  1
  Y3+  Y40  1  0.25057687  0.00098801  0.25947171  1
  Y3+  Y41  1  0.24881029  0.00085589  0.75123653  1
  Y3+  Y42  1  0.25099309  0.24912169  0.25932731  1
  Y3+  Y43  1  0.24909001  0.24968195  0.75129618  1
  Y3+  Y44  1  0.24776043  0.49954333  0.25514069  1
  Y3+  Y45  1  0.24847385  0.50234077  0.75770333  1
  Y3+  Y46  1  0.24774441  0.74997509  0.25463263  1
  Y3+  Y47  1  0.24836622  0.74705753  0.75825184  1
  Y3+  Y48  1  0.50034120  -0.00054337  0.26033727  1
  Y3+  Y49  1  0.49935341  0.00217895  0.75433780  1
  Y3+  Y50  1  0.50075648  0.25090504  0.25867814  1
  Y3+  Y51  1  0.50095291  0.24994755  0.75721525  1
  Y3+  Y52  1  0.50279612  0.49637811  0.25757704  1
  Y3+  Y53  1  0.50099319  0.50103582  0.75909006  1
  Y3+  Y54  1  0.50232981  0.75275032  0.25811898  1
  Y3+  Y55  1  0.49944229  0.74709285  0.75774514  1
  Y3+  Y56  1  0.75212578  -0.00073420  0.25805165  1
  Y3+  Y57  1  0.75372774  0.00220201  0.75818224  1
  Y3+  Y58  1  0.75256008  0.25229155  0.25686376  1
  Y3+  Y59  1  0.75230277  0.24967911  0.75982773  1
  Y3+  Y60  1  0.75298160  0.49784200  0.25800898  1
  Y3+  Y61  1  0.75042640  0.49910196  0.75871614  1
  Y3+  Y62  1  0.75225903  0.75056011  0.25927221  1
  Y3+  Y63  1  0.75206879  0.74916534  0.75679183  1
  Fe3+  Fe64  1  0.37425196  0.62501328  0.37924143  1
  Fe3+  Fe65  1  0.62658447  0.62469160  0.38009065  1
  Fe3+  Fe66  1  0.37292893  0.37374681  0.87499966  1
  Fe3+  Fe67  1  0.87629574  0.87514200  0.88129239  1
  Fe3+  Fe68  1  0.12456226  0.37385759  0.87461069  1
  Fe3+  Fe69  1  0.37347379  0.87646498  0.87455101  1
  Fe3+  Fe70  1  0.62719461  0.12530123  0.37832218  1
  Fe3+  Fe71  1  0.62393034  0.12531458  0.88155155  1
  Fe3+  Fe72  1  0.12536675  0.87637754  0.87515751  1
  Fe3+  Fe73  1  0.12407031  0.62480611  0.37995861  1
  Fe3+  Fe74  1  0.37475214  0.37585910  0.37898754  1
  Fe3+  Fe75  1  0.62424573  0.87624965  0.87806412  1
  Fe3+  Fe76  1  0.12573864  0.12572343  0.87404720  1
  Fe3+  Fe77  1  0.87607429  0.62469751  0.87863424  1
  Fe3+  Fe78  1  0.12315133  0.12518635  0.37865998  1
  Fe3+  Fe79  1  0.12410615  0.37526404  0.37802265  1
  Fe3+  Fe80  1  0.87672448  0.37505412  0.87769187  1
  Fe3+  Fe81  1  0.37437018  0.87388817  0.37870053  1
  Fe3+  Fe82  1  0.12377097  0.87449717  0.37766044  1
  Fe3+  Fe83  1  0.37326366  0.12493561  0.87617633  1
  Fe3+  Fe84  1  0.62640239  0.37448438  0.63662455  1
  Fe3+  Fe85  1  0.62690393  0.12533831  0.63414977  1
  Fe3+  Fe86  1  0.62687167  0.62488198  0.63541304  1
  Fe3+  Fe87  1  0.62530979  0.12525228  0.13714022  1
  Fe3+  Fe88  1  0.37650924  0.62399266  0.13932433  1
  Fe3+  Fe89  1  0.62485175  0.62451845  0.14079892  1
  Fe3+  Fe90  1  0.12288910  0.62491612  0.63473645  1
  Fe3+  Fe91  1  0.62636823  0.87549365  0.63599428  1
  Fe3+  Fe92  1  0.37565426  0.37547827  0.63490010  1
  Fe3+  Fe93  1  0.37540542  0.87449126  0.63441439  1
  Fe3+  Fe94  1  0.87588797  0.87416765  0.13525878  1
  Fe3+  Fe95  1  0.12259640  0.12510366  0.63231904  1
  Cu2+  Cu96  1  0.62614860  0.87509968  0.36763662  1
  Cu2+  Cu97  1  0.62615560  0.62558391  0.86252000  1
  Cu2+  Cu98  1  0.87669189  0.87483053  0.36637725  1
  Cu2+  Cu99  1  0.62594294  0.37483885  0.36789444  1
  Cu2+  Cu100  1  0.62511718  0.37387403  0.87398394  1
  Cu2+  Cu101  1  0.87606945  0.62480372  0.37227931  1
  Cu2+  Cu102  1  0.87666300  0.12538424  0.87491113  1
  Cu2+  Cu103  1  0.37473077  0.12512225  0.37338601  1
  Cu2+  Cu104  1  0.12321946  0.62445360  0.87110770  1
  Cu2+  Cu105  1  0.37438114  0.62490468  0.86295528  1
  Cu2+  Cu106  1  0.87572479  0.12514553  0.37142689  1
  Cu2+  Cu107  1  0.87613850  0.37502141  0.36819260  1
  Cu2+  Cu108  1  0.87308233  0.62467136  0.64161316  1
  Cu2+  Cu109  1  0.37657461  0.12542831  0.63767016  1
  Cu2+  Cu110  1  0.87437823  0.62509404  0.14890609  1
  Cu2+  Cu111  1  0.37565572  0.62475969  0.64823176  1
  Cu2+  Cu112  1  0.87274588  0.12537099  0.64090899  1
  Cu2+  Cu113  1  0.87311164  0.87489515  0.64617926  1
  Cu2+  Cu114  1  0.62586690  0.87498538  0.15076633  1
  Cu2+  Cu115  1  0.12370785  0.37496539  0.64430120  1
  Cu2+  Cu116  1  0.87540477  0.37552418  0.15036508  1
  Cu2+  Cu117  1  0.37601059  0.12520085  0.15643216  1
  Cu2+  Cu118  1  0.37510667  0.37607716  0.15439056  1
  Cu2+  Cu119  1  0.87430085  0.12509348  0.14229288  1
  Cu2+  Cu120  1  0.12480709  0.37446111  0.15497546  1
  Cu2+  Cu121  1  0.12533344  0.62441569  0.14397709  1
  Cu2+  Cu122  1  0.87303797  0.37511073  0.64673263  1
  Cu2+  Cu123  1  0.62552048  0.37533522  0.14318094  1
  Cu2+  Cu124  1  0.12446061  0.87527683  0.15304500  1
  Cu2+  Cu125  1  0.12396342  0.87509134  0.64574238  1
  Cu2+  Cu126  1  0.37471666  0.87364951  0.15602276  1
  Cu2+  Cu127  1  0.12522970  0.12529531  0.15741250  1
  O2-  O128  1  0.12845274  0.12569267  -0.00557116  1
  O2-  O129  1  0.12285127  0.12494956  0.50474231  1
  O2-  O130  1  0.12642864  0.37274806  -0.00533967  1
  O2-  O131  1  0.12547494  0.37564313  0.49798966  1
  O2-  O132  1  0.12587752  0.62428396  0.00704017  1
  O2-  O133  1  0.12434992  0.62517342  0.50609885  1
  O2-  O134  1  0.12811796  0.87722782  -0.00473457  1
  O2-  O135  1  0.12427566  0.87399980  0.49741032  1
  O2-  O136  1  0.37257474  0.12433311  -0.00406663  1
  O2-  O137  1  0.37606235  0.12473920  0.50558604  1
  O2-  O138  1  0.37197014  0.37337815  -0.00471623  1
  O2-  O139  1  0.37578481  0.37621932  0.50636614  1
  O2-  O140  1  0.37674701  0.62373511  0.01910574  1
  O2-  O141  1  0.37326860  0.62595209  0.49907425  1
  O2-  O142  1  0.37296034  0.87737747  -0.00557297  1
  O2-  O143  1  0.37549958  0.87330834  0.50588772  1
  O2-  O144  1  0.62178254  0.12455227  0.00825036  1
  O2-  O145  1  0.62702129  0.12520064  0.50707221  1
  O2-  O146  1  0.62384072  0.37467283  0.00805326  1
  O2-  O147  1  0.62492138  0.37468383  0.51657560  1
  O2-  O148  1  0.62220469  0.62512746  0.02017819  1
  O2-  O149  1  0.62671358  0.62502678  0.50852246  1
  O2-  O150  1  0.62094851  0.87570131  -0.00194615  1
  O2-  O151  1  0.62665396  0.87508001  0.51572745  1
  O2-  O152  1  0.87628716  0.12480029  0.00810927  1
  O2-  O153  1  0.87423316  0.12483010  0.50694732  1
  O2-  O154  1  0.87828834  0.37582534  -0.00164456  1
  O2-  O155  1  0.87411704  0.37509049  0.50623422  1
  O2-  O156  1  0.87613478  0.62503498  -0.00086277  1
  O2-  O157  1  0.87432897  0.62521736  0.50696225  1
  O2-  O158  1  0.87658951  0.87456411  0.00719140  1
  O2-  O159  1  0.87451796  0.87493935  0.50741071  1
  O2-  O160  1  0.12599116  0.00052656  0.16656519  1
  O2-  O161  1  0.12421909  0.00145356  0.65859997  1
  O2-  O162  1  0.12604482  0.24978231  0.16695696  1
  O2-  O163  1  0.12458356  0.24864003  0.65801164  1
  O2-  O164  1  0.12541848  0.49826638  0.16690597  1
  O2-  O165  1  0.12469764  0.50149464  0.66186271  1
  O2-  O166  1  0.12512586  0.75102719  0.16570551  1
  O2-  O167  1  0.12507915  0.74847101  0.66295941  1
  O2-  O168  1  0.37541925  -0.00120415  0.16724586  1
  O2-  O169  1  0.37618565  -0.00283788  0.65953312  1
  O2-  O170  1  0.37577876  0.25093147  0.16679781  1
  O2-  O171  1  0.37568806  0.25313432  0.66001743  1
  O2-  O172  1  0.37551480  0.50037307  0.17016400  1
  O2-  O173  1  0.37547372  0.49819717  0.66267344  1
  O2-  O174  1  0.37578030  0.74915699  0.16747053  1
  O2-  O175  1  0.37504531  0.75163801  0.66369296  1
  O2-  O176  1  0.62431805  0.00107015  0.16511304  1
  O2-  O177  1  0.62429711  0.00113874  0.66379325  1
  O2-  O178  1  0.62418273  0.24760271  0.16528777  1
  O2-  O179  1  0.62468887  0.24934736  0.66502254  1
  O2-  O180  1  0.62545432  0.50121145  0.17034401  1
  O2-  O181  1  0.62437665  0.50065275  0.66468625  1
  O2-  O182  1  0.62508352  0.74987735  0.16868403  1
  O2-  O183  1  0.62433114  0.74906477  0.66430145  1
  O2-  O184  1  0.87509010  -0.00304256  0.16369282  1
  O2-  O185  1  0.87356986  -0.00010666  0.66650994  1
  O2-  O186  1  0.87475462  0.25118559  0.16494703  1
  O2-  O187  1  0.87315145  0.25095913  0.66480777  1
  O2-  O188  1  0.87490034  0.50007331  0.16522208  1
  O2-  O189  1  0.87378841  0.49905521  0.66446057  1
  O2-  O190  1  0.87541046  0.75166195  0.16409619  1
  O2-  O191  1  0.87378676  0.75020980  0.66700262  1
  O2-  O192  1  0.00113293  0.12495929  0.16458874  1
  O2-  O193  1  0.00104078  0.12491783  0.66153044  1
  O2-  O194  1  0.00014269  0.37482981  0.16363012  1
  O2-  O195  1  -0.00105352  0.37487927  0.66182818  1
  O2-  O196  1  -0.00120231  0.62467828  0.16513929  1
  O2-  O197  1  0.00122264  0.62540572  0.66124287  1
  O2-  O198  1  -0.00089720  0.87516420  0.16105774  1
  O2-  O199  1  -0.00000866  0.87492950  0.66486470  1
  O2-  O200  1  0.25111239  0.12510353  0.16811310  1
  O2-  O201  1  0.24696338  0.12482603  0.65702920  1
  O2-  O202  1  0.25001247  0.37476997  0.16693783  1
  O2-  O203  1  0.25155414  0.37521480  0.65773186  1
  O2-  O204  1  0.25214486  0.62486721  0.16780860  1
  O2-  O205  1  0.24808849  0.62484827  0.66090975  1
  O2-  O206  1  0.24934390  0.87479833  0.16704402  1
  O2-  O207  1  0.25151095  0.87528477  0.65690811  1
  O2-  O208  1  0.50135339  0.12433842  0.16705547  1
  O2-  O209  1  0.50379996  0.12536023  0.66380984  1
  O2-  O210  1  0.49896674  0.37452497  0.16949329  1
  O2-  O211  1  0.50013657  0.37529417  0.66477874  1
  O2-  O212  1  0.50035886  0.62524814  0.17495627  1
  O2-  O213  1  0.50231546  0.62493795  0.66307400  1
  O2-  O214  1  0.49990866  0.87530690  0.16865698  1
  O2-  O215  1  0.49989741  0.87451678  0.66245422  1
  O2-  O216  1  0.74721937  0.12446533  0.16421627  1
  O2-  O217  1  0.74663043  0.12501834  0.66959853  1
  O2-  O218  1  0.75185683  0.37513151  0.16479786  1
  O2-  O219  1  0.74792699  0.37475848  0.67051741  1
  O2-  O220  1  0.74951353  0.62577657  0.16737378  1
  O2-  O221  1  0.74690690  0.62503227  0.66778383  1
  O2-  O222  1  0.75246157  0.87456587  0.16225963  1
  O2-  O223  1  0.74703935  0.87542922  0.67278439  1
  O2-  O224  1  0.12523671  0.00059559  0.34992956  1
  O2-  O225  1  0.12542277  0.00019348  0.83990618  1
  O2-  O226  1  0.12583687  0.24947206  0.35025454  1
  O2-  O227  1  0.12540208  0.24983704  0.83880119  1
  O2-  O228  1  0.12561748  0.50125108  0.34969241  1
  O2-  O229  1  0.12516323  0.49790655  0.84454675  1
  O2-  O230  1  0.12569631  0.74844299  0.34858686  1
  O2-  O231  1  0.12486420  0.75225606  0.84627056  1
  O2-  O232  1  0.37521161  -0.00345617  0.35159190  1
  O2-  O233  1  0.37430833  0.00094504  0.83942165  1
  O2-  O234  1  0.37519437  0.25341607  0.35140279  1
  O2-  O235  1  0.37455046  0.24886301  0.84046204  1
  O2-  O236  1  0.37599784  0.49966560  0.35140741  1
  O2-  O237  1  0.37459127  0.49987594  0.84685078  1
  O2-  O238  1  0.37533182  0.75039895  0.34922550  1
  O2-  O239  1  0.37494759  0.75044183  0.84776462  1
  O2-  O240  1  0.62540299  0.00130516  0.35051051  1
  O2-  O241  1  0.62410379  0.00143269  0.84600522  1
  O2-  O242  1  0.62535561  0.24887593  0.35050817  1
  O2-  O243  1  0.62365302  0.24597438  0.84800489  1
  O2-  O244  1  0.62464512  0.50117268  0.35362332  1
  O2-  O245  1  0.62469929  0.50166818  0.84836609  1
  O2-  O246  1  0.62548603  0.74857837  0.35238690  1
  O2-  O247  1  0.62434306  0.75158899  0.84727495  1
  O2-  O248  1  0.87534815  -0.00044587  0.34707209  1
  O2-  O249  1  0.87500312  -0.00295981  0.84982413  1
  O2-  O250  1  0.87485260  0.25029522  0.34831437  1
  O2-  O251  1  0.87538979  0.25155889  0.84689739  1
  O2-  O252  1  0.87560343  0.49970688  0.34890505  1
  O2-  O253  1  0.87465584  0.49995143  0.84559794  1
  O2-  O254  1  0.87549386  0.75021931  0.34777713  1
  O2-  O255  1  0.87498470  0.75176336  0.84917901  1
  O2-  O256  1  0.00229617  0.12500107  0.34772117  1
  O2-  O257  1  0.00220796  0.12452589  0.84425006  1
  O2-  O258  1  0.00233719  0.37501888  0.34633560  1
  O2-  O259  1  0.00007892  0.37482296  0.84246880  1
  O2-  O260  1  0.00308063  0.62513503  0.34875941  1
  O2-  O261  1  -0.00272925  0.62564156  0.84308889  1
  O2-  O262  1  0.00234633  0.87454514  0.34382148  1
  O2-  O263  1  -0.00096069  0.87541396  0.84751265  1
  O2-  O264  1  0.24682242  0.12475375  0.35164876  1
  O2-  O265  1  0.25012347  0.12504069  0.83739443  1
  O2-  O266  1  0.25072959  0.37584439  0.34991477  1
  O2-  O267  1  0.24979729  0.37494158  0.83904324  1
  O2-  O268  1  0.24896402  0.62482038  0.34963546  1
  O2-  O269  1  0.25003356  0.62515371  0.84591930  1
  O2-  O270  1  0.25044391  0.87436466  0.34994797  1
  O2-  O271  1  0.25013295  0.87495657  0.83845429  1
  O2-  O272  1  0.50336759  0.12490900  0.35183685  1
  O2-  O273  1  0.49957224  0.12445608  0.84614452  1
  O2-  O274  1  0.49865418  0.37486871  0.35308419  1
  O2-  O275  1  0.49746603  0.37514603  0.84656956  1
  O2-  O276  1  0.50125823  0.62568097  0.35602645  1
  O2-  O277  1  0.50070067  0.62512316  0.84869604  1
  O2-  O278  1  0.49840246  0.87466439  0.35320114  1
  O2-  O279  1  0.49905369  0.87518697  0.84269342  1
  O2-  O280  1  0.74850336  0.12455328  0.34840474  1
  O2-  O281  1  0.74740405  0.12427966  0.85445242  1
  O2-  O282  1  0.74980845  0.37494420  0.34838159  1
  O2-  O283  1  0.75202219  0.37449671  0.85157458  1
  O2-  O284  1  0.74797907  0.62501398  0.35110635  1
  O2-  O285  1  0.75140060  0.62627593  0.85007697  1
  O2-  O286  1  0.75054850  0.87522587  0.34675200  1
  O2-  O287  1  0.75096373  0.87552753  0.85415940  1
