# generated using pymatgen
data_BaYFeCuO5
_symmetry_space_group_name_H-M   'P 1'
_cell_length_a   15.67288421
_cell_length_b   15.67172340
_cell_length_c   15.48997737
_cell_angle_alpha   89.99794889
_cell_angle_beta   89.99520904
_cell_angle_gamma   89.99638162
_symmetry_Int_Tables_number   1
_chemical_formula_structural   BaYFeCuO5
_chemical_formula_sum   'Ba32 Y32 Fe32 Cu32 O160'
_cell_volume   3804.66535652
_cell_formula_units_Z   32
loop_
 _symmetry_equiv_pos_site_id
 _symmetry_equiv_pos_as_xyz
  1  'x, y, z'
loop_
 _atom_type_symbol
 _atom_type_oxidation_number
  Ba2+  2.0
  Y3+  3.0
  Fe3+  3.0
  Cu2+  2.0
  O2-  -2.0
loop_
 _atom_site_type_symbol
 _atom_site_label
 _atom_site_symmetry_multiplicity
 _atom_site_fract_x
 _atom_site_fract_y
 _atom_site_fract_z
 _atom_site_occupancy
  Ba2+  Ba0  1  -0.01478849  -0.00004523  0.00636675  1
  Ba2+  Ba1  1  -0.00014838  -0.01302439  0.51214956  1
  Ba2+  Ba2  1  -0.01073368  0.25142579  0.00691041  1
  Ba2+  Ba3  1  -0.00239586  0.25508784  0.50160107  1
  Ba2+  Ba4  1  0.00025915  0.50292816  0.01092049  1
  Ba2+  Ba5  1  -0.00224890  0.50793518  0.51347289  1
  Ba2+  Ba6  1  -0.00563248  0.74591821  0.01038987  1
  Ba2+  Ba7  1  0.00008448  0.75020167  0.52427098  1
  Ba2+  Ba8  1  0.26058266  -0.00134091  0.00661399  1
  Ba2+  Ba9  1  0.25542267  -0.00878475  0.50670936  1
  Ba2+  Ba10  1  0.25086768  0.25010169  -0.00272850  1
  Ba2+  Ba11  1  0.25819964  0.25037974  0.50722294  1
  Ba2+  Ba12  1  0.24705571  0.50806739  0.00187003  1
  Ba2+  Ba13  1  0.25327811  0.50682860  0.52489052  1
  Ba2+  Ba14  1  0.25395237  0.74221317  0.00927328  1
  Ba2+  Ba15  1  0.25066007  0.75091124  0.52515041  1
  Ba2+  Ba16  1  0.50541426  -0.00136096  0.01976811  1
  Ba2+  Ba17  1  0.49521266  -0.00852163  0.50258967  1
  Ba2+  Ba18  1  0.50780966  0.24584785  0.01323643  1
  Ba2+  Ba19  1  0.49826495  0.25612228  0.50732947  1
  Ba2+  Ba20  1  0.50360582  0.50701715  0.01595468  1
  Ba2+  Ba21  1  0.49754848  0.49679285  0.51714869  1
  Ba2+  Ba22  1  0.50051088  0.74891141  0.02146214  1
  Ba2+  Ba23  1  0.49533522  0.75698788  0.51053676  1
  Ba2+  Ba24  1  0.75114986  -0.00009838  0.01928731  1
  Ba2+  Ba25  1  0.74985685  -0.01170090  0.50675825  1
  Ba2+  Ba26  1  0.75042087  0.24774923  0.02504676  1
  Ba2+  Ba27  1  0.74681311  0.25924569  0.50233920  1
  Ba2+  Ba28  1  0.74943817  0.50043316  0.02668098  1
  Ba2+  Ba29  1  0.75168182  0.49663917  0.50471056  1
  Ba2+  Ba30  1  0.75015065  0.75145749  0.02194726  1
  Ba2+  Ba31  1  0.75459525  0.75589396  0.51027520  1
  Y3+  Y32  1  -0.00302180  -0.00177900  0.25585202  1
  Y3+  Y33  1  -0.00412307  -0.00197516  0.76058795  1
  Y3+  Y34  1  -0.00290717  0.25012229  0.25639116  1
  Y3+  Y35  1  -0.00073240  0.24916253  0.76084367  1
  Y3+  Y36  1  -0.00068825  0.50115225  0.25460886  1
  Y3+  Y37  1  0.00194210  0.50240363  0.76029463  1
  Y3+  Y38  1  -0.00133991  0.75002530  0.25250149  1
  Y3+  Y39  1  -0.00142249  0.75062533  0.76040485  1
  Y3+  Y40  1  0.25227987  -0.00164466  0.25841819  1
  Y3+  Y41  1  0.25134537  -0.00182788  0.75772096  1
  Y3+  Y42  1  0.25098039  0.24934623  0.25860817  1
  Y3+  Y43  1  0.25048790  0.25085162  0.75913747  1
  Y3+  Y44  1  0.24961466  0.50386980  0.25069990  1
  Y3+  Y45  1  0.25009702  0.50321033  0.76329002  1
  Y3+  Y46  1  0.25168542  0.74919080  0.25115739  1
  Y3+  Y47  1  0.25048871  0.74808786  0.76123844  1
  Y3+  Y48  1  0.49973858  -0.00388330  0.26180829  1
  Y3+  Y49  1  0.50091579  -0.00191376  0.75410460  1
  Y3+  Y50  1  0.50213077  0.25037819  0.26032143  1
  Y3+  Y51  1  0.50086313  0.25093454  0.75526568  1
  Y3+  Y52  1  0.50184586  0.50141097  0.25644583  1
  Y3+  Y53  1  0.49921830  0.50052584  0.75611038  1
  Y3+  Y54  1  0.49945924  0.75185540  0.25780977  1
  Y3+  Y55  1  0.49915063  0.75054629  0.75416403  1
  Y3+  Y56  1  0.75076808  -0.00333293  0.25943858  1
  Y3+  Y57  1  0.75153276  -0.00308844  0.75630096  1
  Y3+  Y58  1  0.74958372  0.25162074  0.26036625  1
  Y3+  Y59  1  0.74906678  0.24967881  0.75426906  1
  Y3+  Y60  1  0.74961166  0.49851237  0.26033201  1
  Y3+  Y61  1  0.74854964  0.50007666  0.75110083  1
  Y3+  Y62  1  0.75028838  0.75274386  0.25909153  1
  Y3+  Y63  1  0.75134554  0.75309116  0.75307556  1
  Fe3+  Fe64  1  0.62664596  0.37579791  0.87660694  1
  Fe3+  Fe65  1  0.62564901  0.87396626  0.87645042  1
  Fe3+  Fe66  1  0.62424267  0.12402852  0.38006793  1
  Fe3+  Fe67  1  0.37341726  0.62567640  0.37566024  1
  Fe3+  Fe68  1  0.12425765  0.12380501  0.88042411  1
  Fe3+  Fe69  1  0.12598003  0.62648767  0.37565428  1
  Fe3+  Fe70  1  0.87552919  0.12396595  0.38086772  1
  Fe3+  Fe71  1  0.87650879  0.62638694  0.37550593  1
  Fe3+  Fe72  1  0.12506199  0.87164654  0.37480918  1
  Fe3+  Fe73  1  0.87134797  0.62468629  0.87532701  1
  Fe3+  Fe74  1  0.12438343  0.87499273  0.88077525  1
  Fe3+  Fe75  1  0.37728065  0.37537919  0.87963976  1
  Fe3+  Fe76  1  0.62412580  0.62590090  0.37914771  1
  Fe3+  Fe77  1  0.12556387  0.12376023  0.38133952  1
  Fe3+  Fe78  1  0.62608166  0.62585067  0.87448460  1
  Fe3+  Fe79  1  0.62589557  0.12412906  0.87453774  1
  Fe3+  Fe80  1  0.87203860  0.37588622  0.87637882  1
  Fe3+  Fe81  1  0.12612351  0.37786824  0.38047156  1
  Fe3+  Fe82  1  0.37347460  0.37822417  0.37485465  1
  Fe3+  Fe83  1  0.37807482  0.87463459  0.87729099  1
  Fe3+  Fe84  1  0.62516346  0.62601980  0.63207168  1
  Fe3+  Fe85  1  0.62523260  0.12423374  0.63180438  1
  Fe3+  Fe86  1  0.87539891  0.12502051  0.63339467  1
  Fe3+  Fe87  1  0.87632599  0.37535055  0.63686259  1
  Fe3+  Fe88  1  0.12510867  0.37354273  0.13574995  1
  Fe3+  Fe89  1  0.37483903  0.12448745  0.63786003  1
  Fe3+  Fe90  1  0.37557138  0.37493625  0.13376553  1
  Fe3+  Fe91  1  0.12544010  0.37510177  0.63657555  1
  Fe3+  Fe92  1  0.12440771  0.12452161  0.13514631  1
  Fe3+  Fe93  1  0.37595798  0.12576299  0.13968129  1
  Fe3+  Fe94  1  0.12513371  0.87589080  0.13249844  1
  Fe3+  Fe95  1  0.12472090  0.12396209  0.63531048  1
  Cu2+  Cu96  1  0.12347631  0.62628315  0.87292505  1
  Cu2+  Cu97  1  0.87228807  0.87415725  0.87320702  1
  Cu2+  Cu98  1  0.37740747  0.12458509  0.86344704  1
  Cu2+  Cu99  1  0.37815105  0.62576522  0.87234349  1
  Cu2+  Cu100  1  0.87749916  0.87348307  0.37052492  1
  Cu2+  Cu101  1  0.37471645  0.12477252  0.36577329  1
  Cu2+  Cu102  1  0.37248731  0.87216943  0.36977152  1
  Cu2+  Cu103  1  0.62491062  0.87332616  0.37282795  1
  Cu2+  Cu104  1  0.87675028  0.37597939  0.36340087  1
  Cu2+  Cu105  1  0.62336498  0.37683605  0.37286064  1
  Cu2+  Cu106  1  0.87069458  0.12549682  0.87190953  1
  Cu2+  Cu107  1  0.12422030  0.37474442  0.86724129  1
  Cu2+  Cu108  1  0.62512233  0.87502259  0.15491681  1
  Cu2+  Cu109  1  0.62445603  0.37464793  0.63943323  1
  Cu2+  Cu110  1  0.87566739  0.87510140  0.64376559  1
  Cu2+  Cu111  1  0.37506297  0.87552781  0.14958900  1
  Cu2+  Cu112  1  0.12415913  0.62521946  0.13860649  1
  Cu2+  Cu113  1  0.12511715  0.87535134  0.65711528  1
  Cu2+  Cu114  1  0.87434520  0.12476239  0.14694305  1
  Cu2+  Cu115  1  0.87408480  0.62453051  0.15273814  1
  Cu2+  Cu116  1  0.37362365  0.37484535  0.65549210  1
  Cu2+  Cu117  1  0.37556491  0.62539956  0.65420600  1
  Cu2+  Cu118  1  0.87469037  0.62474746  0.65058049  1
  Cu2+  Cu119  1  0.62505341  0.12408081  0.15937846  1
  Cu2+  Cu120  1  0.62465152  0.37489214  0.15365662  1
  Cu2+  Cu121  1  0.37440877  0.87532233  0.64507087  1
  Cu2+  Cu122  1  0.12487454  0.62534233  0.65648518  1
  Cu2+  Cu123  1  0.87488895  0.37526857  0.15441407  1
  Cu2+  Cu124  1  0.62444943  0.87539623  0.63963977  1
  Cu2+  Cu125  1  0.62598406  0.62580271  0.15640002  1
  Cu2+  Cu126  1  0.37599081  0.62452835  0.14030822  1
  Cu2+  Cu127  1  0.87495876  0.87488208  0.14211196  1
  O2-  O128  1  0.12432411  0.12529287  0.00864539  1
  O2-  O129  1  0.12568028  0.12388489  0.50841796  1
  O2-  O130  1  0.12430323  0.37098207  0.01587143  1
  O2-  O131  1  0.12677910  0.37760358  0.50823564  1
  O2-  O132  1  0.12299354  0.62466572  0.00597802  1
  O2-  O133  1  0.12655083  0.62662422  0.49566790  1
  O2-  O134  1  0.12507952  0.87784717  0.00638168  1
  O2-  O135  1  0.12583649  0.87110874  0.49523465  1
  O2-  O136  1  0.37722548  0.12660504  0.01933869  1
  O2-  O137  1  0.37230611  0.12504616  0.51758266  1
  O2-  O138  1  0.37721169  0.37346431  0.00680113  1
  O2-  O139  1  0.37169214  0.37875461  0.49536583  1
  O2-  O140  1  0.37818894  0.62415626  0.00599621  1
  O2-  O141  1  0.37204794  0.62468796  0.49567927  1
  O2-  O142  1  0.38042570  0.87660902  -0.00226977  1
  O2-  O143  1  0.37165146  0.87295863  0.50625967  1
  O2-  O144  1  0.62744079  0.12471608  -0.00495009  1
  O2-  O145  1  0.62287895  0.12507564  0.50617873  1
  O2-  O146  1  0.62740843  0.37470603  -0.00356325  1
  O2-  O147  1  0.62307120  0.37623691  0.50579019  1
  O2-  O148  1  0.62755776  0.62524378  -0.00545542  1
  O2-  O149  1  0.62372089  0.62486299  0.50501844  1
  O2-  O150  1  0.62477116  0.87466111  -0.00340139  1
  O2-  O151  1  0.62393146  0.87418054  0.50593308  1
  O2-  O152  1  0.87144995  0.12628755  0.00767141  1
  O2-  O153  1  0.87850740  0.12494763  0.50713549  1
  O2-  O154  1  0.87031668  0.37559757  -0.00333550  1
  O2-  O155  1  0.87895578  0.37545612  0.51619396  1
  O2-  O156  1  0.86997338  0.62267129  -0.00436068  1
  O2-  O157  1  0.87812025  0.62659981  0.49572544  1
  O2-  O158  1  0.87222197  0.87450006  0.00795627  1
  O2-  O159  1  0.87815344  0.87368177  0.50753908  1
  O2-  O160  1  0.12561778  0.00091263  0.16522051  1
  O2-  O161  1  0.12469610  0.00179795  0.66442139  1
  O2-  O162  1  0.12502764  0.24827062  0.17194280  1
  O2-  O163  1  0.12510748  0.24946612  0.66252812  1
  O2-  O164  1  0.12446551  0.49736492  0.16482233  1
  O2-  O165  1  0.12549652  0.49884541  0.66432151  1
  O2-  O166  1  0.12486451  0.75316006  0.15764742  1
  O2-  O167  1  0.12492289  0.74997932  0.66704511  1
  O2-  O168  1  0.37498699  0.00105777  0.16769037  1
  O2-  O169  1  0.37342972  0.00176056  0.66678809  1
  O2-  O170  1  0.37552929  0.25117061  0.16852313  1
  O2-  O171  1  0.37332483  0.24914912  0.66703405  1
  O2-  O172  1  0.37547784  0.49650347  0.16057818  1
  O2-  O173  1  0.37382711  0.49962892  0.66623245  1
  O2-  O174  1  0.37558093  0.75157109  0.16048725  1
  O2-  O175  1  0.37429940  0.74929989  0.66519738  1
  O2-  O176  1  0.62529185  -0.00065640  0.16745001  1
  O2-  O177  1  0.62591294  0.00340100  0.66282499  1
  O2-  O178  1  0.62494501  0.24976058  0.16807097  1
  O2-  O179  1  0.62434662  0.24664992  0.66232141  1
  O2-  O180  1  0.62546639  0.50022095  0.16496925  1
  O2-  O181  1  0.62419016  0.50284961  0.66117112  1
  O2-  O182  1  0.62531679  0.75045661  0.16434873  1
  O2-  O183  1  0.62449309  0.74750152  0.66088609  1
  O2-  O184  1  0.87456017  0.00014338  0.16829654  1
  O2-  O185  1  0.87615469  0.00376912  0.66488167  1
  O2-  O186  1  0.87462559  0.25058817  0.16932057  1
  O2-  O187  1  0.87728252  0.24882413  0.66461342  1
  O2-  O188  1  0.87466564  0.50038802  0.16473135  1
  O2-  O189  1  0.87618860  0.49941090  0.66319184  1
  O2-  O190  1  0.87480523  0.74794242  0.16138256  1
  O2-  O191  1  0.87631388  0.74845246  0.66462064  1
  O2-  O192  1  0.00290638  0.12529963  0.16606001  1
  O2-  O193  1  0.00058667  0.12530120  0.66497591  1
  O2-  O194  1  0.00030738  0.37341042  0.16623258  1
  O2-  O195  1  0.00218555  0.37440436  0.66608050  1
  O2-  O196  1  -0.00266269  0.62403336  0.16200243  1
  O2-  O197  1  -0.00004719  0.62470241  0.66596437  1
  O2-  O198  1  0.00278679  0.87666768  0.16192740  1
  O2-  O199  1  0.00124286  0.87588637  0.66931513  1
  O2-  O200  1  0.24893240  0.12578480  0.16533646  1
  O2-  O201  1  0.24804190  0.12555066  0.66928190  1
  O2-  O202  1  0.25137689  0.37303810  0.16359249  1
  O2-  O203  1  0.24735064  0.37425819  0.66781100  1
  O2-  O204  1  0.25019040  0.62450659  0.16036717  1
  O2-  O205  1  0.25058144  0.62498973  0.66874786  1
  O2-  O206  1  0.24866920  0.87696086  0.15974313  1
  O2-  O207  1  0.24873638  0.87531192  0.67004677  1
  O2-  O208  1  0.50009634  0.12511717  0.16839911  1
  O2-  O209  1  0.50039740  0.12540065  0.66256721  1
  O2-  O210  1  0.49895778  0.37420235  0.16195709  1
  O2-  O211  1  0.49788088  0.37435690  0.66359834  1
  O2-  O212  1  0.50210524  0.62480069  0.16636209  1
  O2-  O213  1  0.50073899  0.62418483  0.65992847  1
  O2-  O214  1  0.50032902  0.87577909  0.16657074  1
  O2-  O215  1  0.49935484  0.87605241  0.66177415  1
  O2-  O216  1  0.74827538  0.12517139  0.17218076  1
  O2-  O217  1  0.75113443  0.12667432  0.65436541  1
  O2-  O218  1  0.74974104  0.37429131  0.16813652  1
  O2-  O219  1  0.75229405  0.37421207  0.65976228  1
  O2-  O220  1  0.75048644  0.62466633  0.16861662  1
  O2-  O221  1  0.74894753  0.62463947  0.65600217  1
  O2-  O222  1  0.74902186  0.87519400  0.16816347  1
  O2-  O223  1  0.75037345  0.87514130  0.66056434  1
  O2-  O224  1  0.12491745  0.00116177  0.34998921  1
  O2-  O225  1  0.12509120  0.00010749  0.84942759  1
  O2-  O226  1  0.12649562  0.25001926  0.35748913  1
  O2-  O227  1  0.12584256  0.24709268  0.84807659  1
  O2-  O228  1  0.12532037  0.49975956  0.34691459  1
  O2-  O229  1  0.12480409  0.49943217  0.84909421  1
  O2-  O230  1  0.12489329  0.74890240  0.33833875  1
  O2-  O231  1  0.12492526  0.75370766  0.85092965  1
  O2-  O232  1  0.37356075  0.00023515  0.35118086  1
  O2-  O233  1  0.37561169  -0.00060738  0.84752571  1
  O2-  O234  1  0.37343720  0.25131146  0.35050965  1
  O2-  O235  1  0.37485932  0.25142662  0.85062322  1
  O2-  O236  1  0.37364343  0.50127003  0.34030965  1
  O2-  O237  1  0.37567328  0.49710099  0.85076834  1
  O2-  O238  1  0.37403382  0.74720886  0.34195093  1
  O2-  O239  1  0.37548744  0.75232967  0.84700317  1
  O2-  O240  1  0.62480382  0.00199128  0.35146316  1
  O2-  O241  1  0.62435206  -0.00098468  0.84385511  1
  O2-  O242  1  0.62466764  0.24748928  0.35219572  1
  O2-  O243  1  0.62462038  0.25101913  0.84358197  1
  O2-  O244  1  0.62464401  0.50363492  0.34842356  1
  O2-  O245  1  0.62475466  0.49947078  0.84235321  1
  O2-  O246  1  0.62491631  0.74690531  0.34770855  1
  O2-  O247  1  0.62540101  0.75031535  0.84182278  1
  O2-  O248  1  0.87692511  0.00266597  0.35116928  1
  O2-  O249  1  0.87386556  0.00011295  0.84875303  1
  O2-  O250  1  0.87602964  0.24842153  0.35345740  1
  O2-  O251  1  0.87439213  0.25195088  0.84549165  1
  O2-  O252  1  0.87645282  0.50096350  0.34774572  1
  O2-  O253  1  0.87430451  0.49957159  0.84261132  1
  O2-  O254  1  0.87602790  0.74818466  0.34280118  1
  O2-  O255  1  0.87361457  0.74834540  0.84689411  1
  O2-  O256  1  0.00100261  0.12661607  0.35083261  1
  O2-  O257  1  0.00231415  0.12520916  0.85052338  1
  O2-  O258  1  0.00394502  0.37366532  0.35018428  1
  O2-  O259  1  -0.00145792  0.37387528  0.84848027  1
  O2-  O260  1  0.00130972  0.62430081  0.34294456  1
  O2-  O261  1  -0.00323642  0.62484075  0.84892494  1
  O2-  O262  1  0.00241627  0.87552917  0.34307668  1
  O2-  O263  1  0.00131337  0.87625703  0.85317845  1
  O2-  O264  1  0.24773590  0.12519297  0.34891742  1
  O2-  O265  1  0.24927430  0.12480970  0.85447655  1
  O2-  O266  1  0.24812479  0.37473031  0.34487065  1
  O2-  O267  1  0.25191443  0.37405729  0.85319544  1
  O2-  O268  1  0.24923524  0.62470431  0.34011232  1
  O2-  O269  1  0.25055877  0.62502069  0.85322579  1
  O2-  O270  1  0.24713833  0.87505206  0.34171411  1
  O2-  O271  1  0.24984352  0.87671006  0.85340442  1
  O2-  O272  1  0.50077790  0.12514531  0.35217651  1
  O2-  O273  1  0.50168536  0.12598221  0.84389905  1
  O2-  O274  1  0.49669261  0.37551539  0.34528420  1
  O2-  O275  1  0.50013108  0.37455966  0.84691419  1
  O2-  O276  1  0.49988946  0.62480396  0.34918233  1
  O2-  O277  1  0.50306567  0.62470515  0.84217725  1
  O2-  O278  1  0.49869972  0.87401643  0.35085861  1
  O2-  O279  1  0.50107046  0.87495150  0.84192492  1
  O2-  O280  1  0.75082439  0.12525036  0.35696255  1
  O2-  O281  1  0.74631736  0.12510308  0.83621038  1
  O2-  O282  1  0.75151297  0.37534213  0.35290623  1
  O2-  O283  1  0.74905915  0.37510514  0.83860816  1
  O2-  O284  1  0.74956325  0.62446124  0.35208193  1
  O2-  O285  1  0.74901117  0.62436230  0.83651267  1
  O2-  O286  1  0.75166727  0.87481831  0.35221969  1
  O2-  O287  1  0.74783925  0.87507183  0.84228831  1
