# generated using pymatgen
data_BaYFeCuO5
_symmetry_space_group_name_H-M   'P 1'
_cell_length_a   15.67090028
_cell_length_b   15.67026120
_cell_length_c   15.47571133
_cell_angle_alpha   89.99719432
_cell_angle_beta   89.99426915
_cell_angle_gamma   89.99802022
_symmetry_Int_Tables_number   1
_chemical_formula_structural   BaYFeCuO5
_chemical_formula_sum   'Ba32 Y32 Fe32 Cu32 O160'
_cell_volume   3800.32553714
_cell_formula_units_Z   32
loop_
 _symmetry_equiv_pos_site_id
 _symmetry_equiv_pos_as_xyz
  1  'x, y, z'
loop_
 _atom_type_symbol
 _atom_type_oxidation_number
  Ba2+  2.0
  Y3+  3.0
  Fe3+  3.0
  Cu2+  2.0
  O2-  -2.0
loop_
 _atom_site_type_symbol
 _atom_site_label
 _atom_site_symmetry_multiplicity
 _atom_site_fract_x
 _atom_site_fract_y
 _atom_site_fract_z
 _atom_site_occupancy
  Ba2+  Ba0  1  0.00366909  -0.00206083  0.00983562  1
  Ba2+  Ba1  1  0.00133124  0.00200576  0.52337734  1
  Ba2+  Ba2  1  -0.01101962  0.25175698  0.01178746  1
  Ba2+  Ba3  1  0.00149223  0.24729553  0.49926062  1
  Ba2+  Ba4  1  -0.01266885  0.49905431  0.00736795  1
  Ba2+  Ba5  1  -0.00631853  0.49537691  0.49874446  1
  Ba2+  Ba6  1  0.00076154  0.75026635  0.00673656  1
  Ba2+  Ba7  1  -0.00586362  0.75470477  0.52557666  1
  Ba2+  Ba8  1  0.25242075  -0.00672707  0.00513157  1
  Ba2+  Ba9  1  0.24834043  0.00465598  0.51595467  1
  Ba2+  Ba10  1  0.26088798  0.24958569  0.01996375  1
  Ba2+  Ba11  1  0.24600181  0.24011542  0.50242062  1
  Ba2+  Ba12  1  0.26336959  0.50139746  0.01239406  1
  Ba2+  Ba13  1  0.24407317  0.49499005  0.50185752  1
  Ba2+  Ba14  1  0.25539294  0.75402273  0.00107751  1
  Ba2+  Ba15  1  0.24767662  0.76086080  0.51847888  1
  Ba2+  Ba16  1  0.49510385  0.00589341  0.01348991  1
  Ba2+  Ba17  1  0.49639169  0.00741169  0.51012089  1
  Ba2+  Ba18  1  0.50296798  0.25291641  0.02390254  1
  Ba2+  Ba19  1  0.50421995  0.24165173  0.50921026  1
  Ba2+  Ba20  1  0.50481752  0.50020969  0.01145559  1
  Ba2+  Ba21  1  0.51062390  0.49909467  0.51708925  1
  Ba2+  Ba22  1  0.49624194  0.74065993  0.00175225  1
  Ba2+  Ba23  1  0.50103709  0.75097452  0.51623649  1
  Ba2+  Ba24  1  0.74824647  0.01087584  0.01689105  1
  Ba2+  Ba25  1  0.75382938  0.00572749  0.51655554  1
  Ba2+  Ba26  1  0.74711948  0.25643051  0.01574179  1
  Ba2+  Ba27  1  0.74927711  0.24833928  0.51161379  1
  Ba2+  Ba28  1  0.74683710  0.49759801  0.00614378  1
  Ba2+  Ba29  1  0.75176501  0.50045201  0.52038139  1
  Ba2+  Ba30  1  0.74825855  0.73745816  0.00641699  1
  Ba2+  Ba31  1  0.75563708  0.74548157  0.52488905  1
  Y3+  Y32  1  0.00137793  0.00065836  0.25389724  1
  Y3+  Y33  1  0.00251659  -0.00013792  0.75904027  1
  Y3+  Y34  1  -0.00126994  0.25119603  0.25721001  1
  Y3+  Y35  1  -0.00061847  0.24878350  0.75853998  1
  Y3+  Y36  1  -0.00265777  0.49887637  0.25408499  1
  Y3+  Y37  1  -0.00374766  0.49956654  0.76267083  1
  Y3+  Y38  1  -0.00008462  0.75021247  0.25068277  1
  Y3+  Y39  1  -0.00061989  0.75081684  0.76323919  1
  Y3+  Y40  1  0.24966381  0.00134509  0.25855651  1
  Y3+  Y41  1  0.24989624  -0.00075227  0.75546498  1
  Y3+  Y42  1  0.25030070  0.24789117  0.26266314  1
  Y3+  Y43  1  0.25027253  0.24727706  0.75293872  1
  Y3+  Y44  1  0.25103553  0.50009513  0.25716284  1
  Y3+  Y45  1  0.25103039  0.50016145  0.75848482  1
  Y3+  Y46  1  0.24975851  0.75092098  0.25379875  1
  Y3+  Y47  1  0.25096297  0.75326631  0.76083244  1
  Y3+  Y48  1  0.50033948  0.00383532  0.26104603  1
  Y3+  Y49  1  0.49808194  0.00139113  0.75244195  1
  Y3+  Y50  1  0.50148526  0.24815365  0.26087721  1
  Y3+  Y51  1  0.50281886  0.24965283  0.75182185  1
  Y3+  Y52  1  0.50155250  0.50018077  0.25320653  1
  Y3+  Y53  1  0.50381214  0.50026486  0.76061396  1
  Y3+  Y54  1  0.50064184  0.74775445  0.25445101  1
  Y3+  Y55  1  0.49911987  0.74904421  0.75986699  1
  Y3+  Y56  1  0.74880988  0.00269629  0.25705639  1
  Y3+  Y57  1  0.74983925  0.00213905  0.75494506  1
  Y3+  Y58  1  0.74947939  0.25106959  0.25561534  1
  Y3+  Y59  1  0.74814580  0.25199231  0.75790398  1
  Y3+  Y60  1  0.75019166  0.49900322  0.25039128  1
  Y3+  Y61  1  0.74863569  0.49916833  0.76433380  1
  Y3+  Y62  1  0.74974288  0.74740652  0.25163585  1
  Y3+  Y63  1  0.74988034  0.74604488  0.76161626  1
  Fe3+  Fe64  1  0.12629269  0.37378916  0.88259299  1
  Fe3+  Fe65  1  0.87480918  0.87403987  0.37448815  1
  Fe3+  Fe66  1  0.87392012  0.12538143  0.87715501  1
  Fe3+  Fe67  1  0.37608197  0.12626846  0.87455094  1
  Fe3+  Fe68  1  0.62668947  0.62527305  0.37668479  1
  Fe3+  Fe69  1  0.12652216  0.12623027  0.88062091  1
  Fe3+  Fe70  1  0.37677735  0.37297562  0.87449595  1
  Fe3+  Fe71  1  0.37641179  0.37535073  0.37999056  1
  Fe3+  Fe72  1  0.87533074  0.12436262  0.37444946  1
  Fe3+  Fe73  1  0.12272417  0.87493343  0.37579502  1
  Fe3+  Fe74  1  0.62700093  0.37620937  0.37700292  1
  Fe3+  Fe75  1  0.37500418  0.87454064  0.37837715  1
  Fe3+  Fe76  1  0.62345499  0.12603102  0.87594915  1
  Fe3+  Fe77  1  0.37506122  0.62578655  0.38109718  1
  Fe3+  Fe78  1  0.12330192  0.62720333  0.37945746  1
  Fe3+  Fe79  1  0.62684405  0.87424093  0.38007081  1
  Fe3+  Fe80  1  0.12628250  0.62349800  0.88011557  1
  Fe3+  Fe81  1  0.62388596  0.87691296  0.87951362  1
  Fe3+  Fe82  1  0.87427249  0.62602083  0.37419188  1
  Fe3+  Fe83  1  0.87285685  0.87654237  0.87929981  1
  Fe3+  Fe84  1  0.12614982  0.62455126  0.13367725  1
  Fe3+  Fe85  1  0.12593044  0.37511045  0.13542572  1
  Fe3+  Fe86  1  0.87378552  0.87570620  0.13222417  1
  Fe3+  Fe87  1  0.62367454  0.87527329  0.13315239  1
  Fe3+  Fe88  1  0.12344959  0.62398856  0.63615225  1
  Fe3+  Fe89  1  0.37521278  0.37466011  0.63306395  1
  Fe3+  Fe90  1  0.87565262  0.37425069  0.64028115  1
  Fe3+  Fe91  1  0.62563545  0.87493950  0.63597509  1
  Fe3+  Fe92  1  0.37601139  0.87533983  0.13859554  1
  Fe3+  Fe93  1  0.37412132  0.62417388  0.63492617  1
  Fe3+  Fe94  1  0.12367105  0.37500982  0.63830296  1
  Fe3+  Fe95  1  0.12592978  0.12550148  0.13455845  1
  Cu2+  Cu96  1  0.62393079  0.62429069  0.87184936  1
  Cu2+  Cu97  1  0.37484545  0.62367436  0.86980197  1
  Cu2+  Cu98  1  0.12301593  0.12285707  0.37041482  1
  Cu2+  Cu99  1  0.62361876  0.37282914  0.87183087  1
  Cu2+  Cu100  1  0.37677343  0.87679191  0.86127565  1
  Cu2+  Cu101  1  0.12539237  0.87588524  0.87400782  1
  Cu2+  Cu102  1  0.12451860  0.37574840  0.36170970  1
  Cu2+  Cu103  1  0.87379422  0.37312442  0.87327645  1
  Cu2+  Cu104  1  0.87480991  0.62465711  0.87364992  1
  Cu2+  Cu105  1  0.62709020  0.12464880  0.37299044  1
  Cu2+  Cu106  1  0.37459386  0.12408210  0.37265058  1
  Cu2+  Cu107  1  0.87364363  0.37567492  0.36103949  1
  Cu2+  Cu108  1  0.87552662  0.12511358  0.14952397  1
  Cu2+  Cu109  1  0.62449462  0.62498813  0.14129362  1
  Cu2+  Cu110  1  0.37507791  0.37436188  0.15713592  1
  Cu2+  Cu111  1  0.12441404  0.87421064  0.65658463  1
  Cu2+  Cu112  1  0.62445238  0.37509355  0.14349781  1
  Cu2+  Cu113  1  0.37539318  0.87465777  0.65018194  1
  Cu2+  Cu114  1  0.62600819  0.12500787  0.64060491  1
  Cu2+  Cu115  1  0.87601511  0.62338705  0.65863520  1
  Cu2+  Cu116  1  0.12397965  0.12583471  0.64404961  1
  Cu2+  Cu117  1  0.62446014  0.12505746  0.15309781  1
  Cu2+  Cu118  1  0.62513417  0.62525015  0.65439224  1
  Cu2+  Cu119  1  0.62579987  0.37537813  0.65015440  1
  Cu2+  Cu120  1  0.87584077  0.12618238  0.65371059  1
  Cu2+  Cu121  1  0.87433798  0.87523296  0.65807531  1
  Cu2+  Cu122  1  0.87445568  0.37486137  0.14267790  1
  Cu2+  Cu123  1  0.37461805  0.12468987  0.15582976  1
  Cu2+  Cu124  1  0.37417792  0.12542464  0.64091965  1
  Cu2+  Cu125  1  0.87500982  0.62498803  0.13931470  1
  Cu2+  Cu126  1  0.12647669  0.87517736  0.13883004  1
  Cu2+  Cu127  1  0.37502274  0.62564279  0.14289394  1
  O2-  O128  1  0.12821260  0.12691843  0.00707583  1
  O2-  O129  1  0.12194563  0.12343726  0.50660615  1
  O2-  O130  1  0.12804669  0.37463022  0.00875473  1
  O2-  O131  1  0.12181826  0.37624517  0.51803889  1
  O2-  O132  1  0.12793562  0.62276786  0.00693508  1
  O2-  O133  1  0.12195504  0.62665626  0.50742234  1
  O2-  O134  1  0.12685638  0.87570458  0.00605066  1
  O2-  O135  1  0.12040186  0.87382896  0.49605573  1
  O2-  O136  1  0.37671062  0.12758913  -0.00538896  1
  O2-  O137  1  0.37330451  0.12478772  0.50629489  1
  O2-  O138  1  0.37690074  0.37274446  -0.00497075  1
  O2-  O139  1  0.37461661  0.37613101  0.50637789  1
  O2-  O140  1  0.37402899  0.62477570  0.00693018  1
  O2-  O141  1  0.37434418  0.62562646  0.50702248  1
  O2-  O142  1  0.37744131  0.87515811  0.01788418  1
  O2-  O143  1  0.37472456  0.87348290  0.49883958  1
  O2-  O144  1  0.62169438  0.12559473  -0.00384824  1
  O2-  O145  1  0.62779073  0.12327130  0.50626509  1
  O2-  O146  1  0.62250360  0.37379783  0.00762390  1
  O2-  O147  1  0.62888184  0.37770284  0.49754931  1
  O2-  O148  1  0.62306338  0.62473157  0.00589735  1
  O2-  O149  1  0.62798496  0.62657537  0.49683980  1
  O2-  O150  1  0.62271393  0.87693956  0.00635066  1
  O2-  O151  1  0.62802498  0.87354898  0.50660982  1
  O2-  O152  1  0.87340588  0.12468063  -0.00263044  1
  O2-  O153  1  0.87694799  0.12344135  0.49499936  1
  O2-  O154  1  0.87341987  0.37351392  0.00812503  1
  O2-  O155  1  0.87614743  0.37534125  0.51977802  1
  O2-  O156  1  0.87604906  0.62583249  0.00644363  1
  O2-  O157  1  0.87562692  0.62701752  0.49444035  1
  O2-  O158  1  0.87213735  0.87713477  0.00531826  1
  O2-  O159  1  0.87515850  0.87328279  0.49430059  1
  O2-  O160  1  0.12528060  0.00315910  0.16011149  1
  O2-  O161  1  0.12425360  -0.00196543  0.66686683  1
  O2-  O162  1  0.12638204  0.25035322  0.16301038  1
  O2-  O163  1  0.12477700  0.25267017  0.66910491  1
  O2-  O164  1  0.12626443  0.49937095  0.16482321  1
  O2-  O165  1  0.12512439  0.50101209  0.66753385  1
  O2-  O166  1  0.12606860  0.74756157  0.16108198  1
  O2-  O167  1  0.12474818  0.74793243  0.66568539  1
  O2-  O168  1  0.37591176  0.00019667  0.16526867  1
  O2-  O169  1  0.37447374  -0.00123341  0.66438104  1
  O2-  O170  1  0.37401316  0.24928960  0.16697472  1
  O2-  O171  1  0.37426029  0.25355772  0.66050639  1
  O2-  O172  1  0.37406339  0.49855647  0.16823339  1
  O2-  O173  1  0.37409397  0.50007650  0.66111872  1
  O2-  O174  1  0.37531468  0.75222460  0.16822225  1
  O2-  O175  1  0.37380665  0.74731901  0.66407247  1
  O2-  O176  1  0.62425203  -0.00076219  0.16285199  1
  O2-  O177  1  0.62564327  -0.00322618  0.66375264  1
  O2-  O178  1  0.62437955  0.24818052  0.16679155  1
  O2-  O179  1  0.62580518  0.25120601  0.66220910  1
  O2-  O180  1  0.62386166  0.50010920  0.16443662  1
  O2-  O181  1  0.62487340  0.50104757  0.66561178  1
  O2-  O182  1  0.62465882  0.75346461  0.16255354  1
  O2-  O183  1  0.62540298  0.75120720  0.66554587  1
  O2-  O184  1  0.87511424  -0.00139071  0.16055375  1
  O2-  O185  1  0.87537293  0.00075910  0.66445456  1
  O2-  O186  1  0.87544825  0.24839751  0.16598598  1
  O2-  O187  1  0.87571316  0.25065432  0.66666817  1
  O2-  O188  1  0.87599790  0.50019233  0.16466804  1
  O2-  O189  1  0.87547588  0.49898212  0.66906067  1
  O2-  O190  1  0.87413518  0.75348966  0.15933761  1
  O2-  O191  1  0.87561641  0.74871161  0.66759564  1
  O2-  O192  1  0.00242878  0.12572856  0.15909797  1
  O2-  O193  1  -0.00081765  0.12469225  0.67113928  1
  O2-  O194  1  0.00356378  0.37496479  0.16239670  1
  O2-  O195  1  0.00004674  0.37569591  0.67471279  1
  O2-  O196  1  0.00364755  0.62483412  0.16185209  1
  O2-  O197  1  0.00210722  0.62504842  0.66874700  1
  O2-  O198  1  -0.00260150  0.87472213  0.15738247  1
  O2-  O199  1  -0.00108473  0.87403653  0.66970844  1
  O2-  O200  1  0.24852662  0.12563078  0.16576979  1
  O2-  O201  1  0.24916352  0.12484104  0.66526167  1
  O2-  O202  1  0.24879145  0.37509256  0.16623269  1
  O2-  O203  1  0.25070065  0.37653537  0.66486688  1
  O2-  O204  1  0.24727347  0.62408107  0.16856385  1
  O2-  O205  1  0.24914851  0.62418581  0.66146569  1
  O2-  O206  1  0.25234283  0.87561593  0.16757879  1
  O2-  O207  1  0.24963726  0.87401551  0.66428824  1
  O2-  O208  1  0.49919045  0.12528576  0.16797536  1
  O2-  O209  1  0.49998511  0.12461657  0.66004583  1
  O2-  O210  1  0.49839120  0.37416737  0.16883010  1
  O2-  O211  1  0.49919117  0.37628676  0.65865972  1
  O2-  O212  1  0.50016447  0.62536613  0.16725090  1
  O2-  O213  1  0.49762062  0.62513541  0.66133230  1
  O2-  O214  1  0.50148267  0.87611994  0.16914608  1
  O2-  O215  1  0.50188074  0.87359370  0.66149270  1
  O2-  O216  1  0.75001423  0.12414510  0.16164450  1
  O2-  O217  1  0.75185299  0.12472428  0.66411847  1
  O2-  O218  1  0.74948202  0.37448511  0.16279188  1
  O2-  O219  1  0.75050245  0.37570115  0.66745271  1
  O2-  O220  1  0.74961348  0.62564618  0.16107621  1
  O2-  O221  1  0.75076113  0.62528275  0.66644259  1
  O2-  O222  1  0.74878641  0.87666525  0.16011122  1
  O2-  O223  1  0.74905243  0.87425006  0.66534862  1
  O2-  O224  1  0.12412183  -0.00328989  0.34175358  1
  O2-  O225  1  0.12576307  0.00391680  0.85131015  1
  O2-  O226  1  0.12438341  0.25134900  0.34858198  1
  O2-  O227  1  0.12549928  0.24965416  0.85121997  1
  O2-  O228  1  0.12505352  0.50323027  0.35111936  1
  O2-  O229  1  0.12659089  0.49879051  0.85114892  1
  O2-  O230  1  0.12437526  0.74875853  0.34336846  1
  O2-  O231  1  0.12562554  0.74717228  0.85147982  1
  O2-  O232  1  0.37507027  -0.00326474  0.34646702  1
  O2-  O233  1  0.37504251  0.00177328  0.84747830  1
  O2-  O234  1  0.37466279  0.25329598  0.35164593  1
  O2-  O235  1  0.37434851  0.24919112  0.84003212  1
  O2-  O236  1  0.37347757  0.50141986  0.35261296  1
  O2-  O237  1  0.37388994  0.49702101  0.84417360  1
  O2-  O238  1  0.37473717  0.74833436  0.34838538  1
  O2-  O239  1  0.37522567  0.75193130  0.84897965  1
  O2-  O240  1  0.62616227  -0.00400328  0.34779415  1
  O2-  O241  1  0.62453045  0.00004898  0.84646313  1
  O2-  O242  1  0.62509542  0.25252538  0.34938069  1
  O2-  O243  1  0.62420552  0.24741304  0.84398893  1
  O2-  O244  1  0.62467117  0.50122075  0.34520855  1
  O2-  O245  1  0.62395882  0.49887354  0.85059418  1
  O2-  O246  1  0.62500896  0.75031455  0.34474287  1
  O2-  O247  1  0.62428504  0.75362890  0.85065010  1
  O2-  O248  1  0.87440659  -0.00143106  0.34174934  1
  O2-  O249  1  0.87443624  -0.00013099  0.84732530  1
  O2-  O250  1  0.87595149  0.25098410  0.34920138  1
  O2-  O251  1  0.87575419  0.24738509  0.84700303  1
  O2-  O252  1  0.87608142  0.50086100  0.34734489  1
  O2-  O253  1  0.87511602  0.49899569  0.85171397  1
  O2-  O254  1  0.87533817  0.74965390  0.33879915  1
  O2-  O255  1  0.87433109  0.75337811  0.85167341  1
  O2-  O256  1  -0.00244839  0.12504994  0.34113217  1
  O2-  O257  1  0.00161660  0.12476557  0.85361764  1
  O2-  O258  1  -0.00027665  0.37630809  0.34707364  1
  O2-  O259  1  0.00362115  0.37484321  0.85607937  1
  O2-  O260  1  0.00079873  0.62493791  0.34490114  1
  O2-  O261  1  0.00352811  0.62430785  0.85261480  1
  O2-  O262  1  -0.00091026  0.87391847  0.33845092  1
  O2-  O263  1  -0.00341489  0.87553984  0.85379903  1
  O2-  O264  1  0.24917674  0.12460117  0.34955636  1
  O2-  O265  1  0.24957848  0.12555566  0.84749989  1
  O2-  O266  1  0.25169477  0.37655363  0.35166986  1
  O2-  O267  1  0.24883544  0.37427159  0.84702889  1
  O2-  O268  1  0.24954587  0.62531516  0.35343331  1
  O2-  O269  1  0.24764383  0.62463713  0.84606097  1
  O2-  O270  1  0.24921416  0.87324275  0.34826265  1
  O2-  O271  1  0.25243198  0.87545504  0.84916316  1
  O2-  O272  1  0.50054403  0.12424719  0.35228682  1
  O2-  O273  1  0.49968368  0.12435647  0.84061461  1
  O2-  O274  1  0.49956502  0.37690363  0.35136071  1
  O2-  O275  1  0.49847763  0.37394655  0.84133263  1
  O2-  O276  1  0.49887184  0.62567203  0.35037070  1
  O2-  O277  1  0.49927985  0.62530227  0.84583259  1
  O2-  O278  1  0.50169604  0.87336416  0.35211560  1
  O2-  O279  1  0.50184017  0.87593981  0.84645703  1
  O2-  O280  1  0.75264548  0.12496076  0.34427054  1
  O2-  O281  1  0.74913547  0.12408925  0.84594912  1
  O2-  O282  1  0.74936400  0.37604467  0.34433795  1
  O2-  O283  1  0.74917950  0.37353419  0.85066548  1
  O2-  O284  1  0.75022955  0.62578697  0.34168311  1
  O2-  O285  1  0.74945927  0.62519623  0.85072142  1
  O2-  O286  1  0.74931677  0.87366767  0.34325893  1
  O2-  O287  1  0.74886206  0.87614594  0.85007815  1
