# generated using pymatgen
data_BaYFeCuO5
_symmetry_space_group_name_H-M   'P 1'
_cell_length_a   15.66967527
_cell_length_b   15.67439124
_cell_length_c   15.49152999
_cell_angle_alpha   89.99955931
_cell_angle_beta   90.00237284
_cell_angle_gamma   90.00464730
_symmetry_Int_Tables_number   1
_chemical_formula_structural   BaYFeCuO5
_chemical_formula_sum   'Ba32 Y32 Fe32 Cu32 O160'
_cell_volume   3804.91526393
_cell_formula_units_Z   32
loop_
 _symmetry_equiv_pos_site_id
 _symmetry_equiv_pos_as_xyz
  1  'x, y, z'
loop_
 _atom_type_symbol
 _atom_type_oxidation_number
  Ba2+  2.0
  Y3+  3.0
  Fe3+  3.0
  Cu2+  2.0
  O2-  -2.0
loop_
 _atom_site_type_symbol
 _atom_site_label
 _atom_site_symmetry_multiplicity
 _atom_site_fract_x
 _atom_site_fract_y
 _atom_site_fract_z
 _atom_site_occupancy
  Ba2+  Ba0  1  -0.00029196  0.00140573  0.00660579  1
  Ba2+  Ba1  1  0.00113864  0.00838934  0.50626989  1
  Ba2+  Ba2  1  -0.00110639  0.25397614  0.01626127  1
  Ba2+  Ba3  1  0.00494337  0.24652106  0.51135381  1
  Ba2+  Ba4  1  -0.00096965  0.49398819  0.00630574  1
  Ba2+  Ba5  1  0.00953873  0.49908009  0.51836311  1
  Ba2+  Ba6  1  -0.00078541  0.74986014  -0.00598950  1
  Ba2+  Ba7  1  0.00463180  0.74587918  0.51097446  1
  Ba2+  Ba8  1  0.25280442  -0.00246599  0.00164078  1
  Ba2+  Ba9  1  0.25543339  0.00548898  0.51246311  1
  Ba2+  Ba10  1  0.24739465  0.25287959  0.01235920  1
  Ba2+  Ba11  1  0.25386518  0.25281317  0.51216207  1
  Ba2+  Ba12  1  0.24683402  0.49736824  0.01245947  1
  Ba2+  Ba13  1  0.25008710  0.49275817  0.51725062  1
  Ba2+  Ba14  1  0.25261471  0.75193633  0.00137474  1
  Ba2+  Ba15  1  0.25165378  0.74971984  0.51686115  1
  Ba2+  Ba16  1  0.49809850  -0.00196307  0.01123236  1
  Ba2+  Ba17  1  0.49502350  -0.00298839  0.52262157  1
  Ba2+  Ba18  1  0.50315082  0.25268597  0.01242934  1
  Ba2+  Ba19  1  0.49506819  0.25757633  0.51107061  1
  Ba2+  Ba20  1  0.50351636  0.49746806  0.01282272  1
  Ba2+  Ba21  1  0.50193763  0.49125724  0.51102549  1
  Ba2+  Ba22  1  0.49865883  0.75215651  0.01133313  1
  Ba2+  Ba23  1  0.50315392  0.75350430  0.52317521  1
  Ba2+  Ba24  1  0.74898804  0.00206394  0.01858110  1
  Ba2+  Ba25  1  0.74874589  0.00125714  0.51483016  1
  Ba2+  Ba26  1  0.75017384  0.25407088  0.01729527  1
  Ba2+  Ba27  1  0.74656677  0.25240543  0.51092360  1
  Ba2+  Ba28  1  0.75064352  0.49392352  0.00581330  1
  Ba2+  Ba29  1  0.73861214  0.49767188  0.51181837  1
  Ba2+  Ba30  1  0.74957483  0.74883426  0.00612637  1
  Ba2+  Ba31  1  0.74021938  0.74986009  0.51662854  1
  Y3+  Y32  1  0.00117247  0.00411207  0.25670229  1
  Y3+  Y33  1  -0.00046309  0.00047034  0.75812432  1
  Y3+  Y34  1  0.00098152  0.25023579  0.25353958  1
  Y3+  Y35  1  0.00017730  0.25210681  0.76003653  1
  Y3+  Y36  1  0.00110527  0.49793348  0.25323008  1
  Y3+  Y37  1  0.00032529  0.49740977  0.76130962  1
  Y3+  Y38  1  0.00129446  0.74816889  0.25830120  1
  Y3+  Y39  1  -0.00027590  0.74951074  0.75758973  1
  Y3+  Y40  1  0.24991780  0.00152603  0.25476966  1
  Y3+  Y41  1  0.25374911  -0.00047530  0.76077107  1
  Y3+  Y42  1  0.24910287  0.25156290  0.25624191  1
  Y3+  Y43  1  0.25191734  0.25172401  0.75848936  1
  Y3+  Y44  1  0.25028919  0.49732256  0.25535923  1
  Y3+  Y45  1  0.24983481  0.49795058  0.75836351  1
  Y3+  Y46  1  0.25130264  0.74963648  0.25420058  1
  Y3+  Y47  1  0.25205685  0.75012269  0.76025994  1
  Y3+  Y48  1  0.49985838  -0.00045850  0.25204279  1
  Y3+  Y49  1  0.49636780  -0.00009850  0.75995376  1
  Y3+  Y50  1  0.50085452  0.25420957  0.25760635  1
  Y3+  Y51  1  0.49878275  0.25209733  0.75688529  1
  Y3+  Y52  1  0.50096554  0.49619787  0.25745318  1
  Y3+  Y53  1  0.50124966  0.49735664  0.75664479  1
  Y3+  Y54  1  0.50023941  0.75030401  0.25189734  1
  Y3+  Y55  1  0.49887101  0.75034878  0.76010481  1
  Y3+  Y56  1  0.74869981  0.00161859  0.25595657  1
  Y3+  Y57  1  0.75021359  0.00093851  0.75579142  1
  Y3+  Y58  1  0.74856948  0.25249117  0.25566168  1
  Y3+  Y59  1  0.74939289  0.25302050  0.75808873  1
  Y3+  Y60  1  0.74755113  0.49741192  0.25522866  1
  Y3+  Y61  1  0.74876071  0.49709243  0.75928232  1
  Y3+  Y62  1  0.74733046  0.74921474  0.25568573  1
  Y3+  Y63  1  0.74964803  0.74913559  0.75777632  1
  Fe3+  Fe64  1  0.37551374  0.37540952  0.87775680  1
  Fe3+  Fe65  1  0.37557499  0.12548745  0.37602252  1
  Fe3+  Fe66  1  0.62440323  0.62400210  0.87637588  1
  Fe3+  Fe67  1  0.12616437  0.87608767  0.38107425  1
  Fe3+  Fe68  1  0.62460860  0.12594945  0.87625778  1
  Fe3+  Fe69  1  0.87458362  0.87448987  0.38130009  1
  Fe3+  Fe70  1  0.87425561  0.62386153  0.38200043  1
  Fe3+  Fe71  1  0.12499620  0.37429347  0.37590286  1
  Fe3+  Fe72  1  0.87432490  0.12621119  0.37698987  1
  Fe3+  Fe73  1  0.62302847  0.12515270  0.37894089  1
  Fe3+  Fe74  1  0.87539466  0.37598574  0.38034600  1
  Fe3+  Fe75  1  0.37579626  0.62437638  0.38061412  1
  Fe3+  Fe76  1  0.87371691  0.12578684  0.87642952  1
  Fe3+  Fe77  1  0.62301384  0.62529124  0.37635675  1
  Fe3+  Fe78  1  0.37565694  0.87446368  0.37656503  1
  Fe3+  Fe79  1  0.62352244  0.87579302  0.37573169  1
  Fe3+  Fe80  1  0.12565370  0.12567854  0.87793407  1
  Fe3+  Fe81  1  0.12670548  0.62423613  0.37748015  1
  Fe3+  Fe82  1  0.62594278  0.87622675  0.87565269  1
  Fe3+  Fe83  1  0.12568060  0.62396529  0.87607538  1
  Fe3+  Fe84  1  0.12617178  0.12546726  0.63982348  1
  Fe3+  Fe85  1  0.87531077  0.87541551  0.63447821  1
  Fe3+  Fe86  1  0.62383739  0.12570437  0.63504017  1
  Fe3+  Fe87  1  0.87447035  0.62372812  0.63544631  1
  Fe3+  Fe88  1  0.37475781  0.62397426  0.13631691  1
  Fe3+  Fe89  1  0.87552265  0.37442265  0.63494491  1
  Fe3+  Fe90  1  0.12585949  0.87567637  0.63625063  1
  Fe3+  Fe91  1  0.37475378  0.12624684  0.13602032  1
  Fe3+  Fe92  1  0.12440994  0.87433808  0.13787539  1
  Fe3+  Fe93  1  0.87531237  0.62481198  0.13768471  1
  Fe3+  Fe94  1  0.37578244  0.62370714  0.63647694  1
  Fe3+  Fe95  1  0.87608091  0.87433349  0.13960515  1
  Cu2+  Cu96  1  0.37638338  0.87447317  0.87290722  1
  Cu2+  Cu97  1  0.37574009  0.12642621  0.86774692  1
  Cu2+  Cu98  1  0.37584692  0.62332318  0.86512509  1
  Cu2+  Cu99  1  0.12587741  0.12555478  0.36314786  1
  Cu2+  Cu100  1  0.87395946  0.87596167  0.86067470  1
  Cu2+  Cu101  1  0.62476126  0.37410442  0.87147609  1
  Cu2+  Cu102  1  0.87450522  0.37380743  0.87165400  1
  Cu2+  Cu103  1  0.12530721  0.37400725  0.87292530  1
  Cu2+  Cu104  1  0.12473108  0.87537918  0.86094339  1
  Cu2+  Cu105  1  0.62519696  0.37463739  0.37226773  1
  Cu2+  Cu106  1  0.37418438  0.37531784  0.37158941  1
  Cu2+  Cu107  1  0.87429670  0.62418821  0.86170879  1
  Cu2+  Cu108  1  0.87462378  0.37554815  0.14397176  1
  Cu2+  Cu109  1  0.37482469  0.37516398  0.64361545  1
  Cu2+  Cu110  1  0.62436769  0.12587063  0.15125329  1
  Cu2+  Cu111  1  0.12482216  0.37521925  0.14148687  1
  Cu2+  Cu112  1  0.62527697  0.62436862  0.14833094  1
  Cu2+  Cu113  1  0.37423910  0.87429431  0.65415894  1
  Cu2+  Cu114  1  0.37394256  0.87519674  0.14042950  1
  Cu2+  Cu115  1  0.87473413  0.12536149  0.15167024  1
  Cu2+  Cu116  1  0.12555120  0.62504775  0.65291653  1
  Cu2+  Cu117  1  0.62493839  0.37407434  0.64332628  1
  Cu2+  Cu118  1  0.12546503  0.12468796  0.14717388  1
  Cu2+  Cu119  1  0.62526584  0.87611001  0.65376762  1
  Cu2+  Cu120  1  0.62470201  0.62433611  0.65265452  1
  Cu2+  Cu121  1  0.87527923  0.12579935  0.64911734  1
  Cu2+  Cu122  1  0.37503286  0.37496268  0.15002647  1
  Cu2+  Cu123  1  0.12478224  0.37424625  0.65375690  1
  Cu2+  Cu124  1  0.62576952  0.87488357  0.14797340  1
  Cu2+  Cu125  1  0.37497106  0.12569167  0.65289473  1
  Cu2+  Cu126  1  0.12456427  0.62546991  0.14791075  1
  Cu2+  Cu127  1  0.62500422  0.37545600  0.14258542  1
  O2-  O128  1  0.12428302  0.12422460  -0.00158786  1
  O2-  O129  1  0.12641339  0.12435279  0.51884371  1
  O2-  O130  1  0.12446936  0.37475543  0.00647223  1
  O2-  O131  1  0.12458518  0.37431080  0.49655797  1
  O2-  O132  1  0.12432575  0.62599825  -0.00335691  1
  O2-  O133  1  0.12728169  0.62492916  0.49761297  1
  O2-  O134  1  0.12182879  0.87428659  0.01784224  1
  O2-  O135  1  0.12696301  0.87597196  0.50848224  1
  O2-  O136  1  0.37477605  0.12515418  0.01525487  1
  O2-  O137  1  0.37632376  0.12444559  0.49654262  1
  O2-  O138  1  0.37569433  0.37569371  -0.00176150  1
  O2-  O139  1  0.37363158  0.37570585  0.50727157  1
  O2-  O140  1  0.37442448  0.62489131  0.01585197  1
  O2-  O141  1  0.37597791  0.62548395  0.50708790  1
  O2-  O142  1  0.37479565  0.87448186  0.00683785  1
  O2-  O143  1  0.37582980  0.87430314  0.49661486  1
  O2-  O144  1  0.62648780  0.12425261  -0.00381880  1
  O2-  O145  1  0.62251753  0.12414038  0.50604081  1
  O2-  O146  1  0.62528163  0.37474998  0.00724087  1
  O2-  O147  1  0.62561572  0.37353875  0.50764716  1
  O2-  O148  1  0.62567769  0.62565468  -0.00341689  1
  O2-  O149  1  0.62265689  0.62707842  0.49656638  1
  O2-  O150  1  0.62783717  0.87638127  -0.00405944  1
  O2-  O151  1  0.62291004  0.87589880  0.49585007  1
  O2-  O152  1  0.87314124  0.12436084  -0.00356630  1
  O2-  O153  1  0.87508962  0.12477866  0.49693430  1
  O2-  O154  1  0.87446165  0.37446736  0.00756260  1
  O2-  O155  1  0.87653923  0.37585928  0.50680729  1
  O2-  O156  1  0.87571482  0.62690940  0.01774841  1
  O2-  O157  1  0.87435969  0.62454408  0.50775936  1
  O2-  O158  1  0.87665634  0.87381407  0.01971003  1
  O2-  O159  1  0.87430619  0.87487442  0.50735072  1
  O2-  O160  1  0.12401427  -0.00075758  0.16814312  1
  O2-  O161  1  0.12441199  -0.00139789  0.66549499  1
  O2-  O162  1  0.12456574  0.24900193  0.16381693  1
  O2-  O163  1  0.12536319  0.24951470  0.66529080  1
  O2-  O164  1  0.12466580  0.50127322  0.16416428  1
  O2-  O165  1  0.12384818  0.49960231  0.66283013  1
  O2-  O166  1  0.12443364  0.75046456  0.17042125  1
  O2-  O167  1  0.12481976  0.75229337  0.66214424  1
  O2-  O168  1  0.37493104  0.00215032  0.16525099  1
  O2-  O169  1  0.37468897  -0.00083408  0.66497494  1
  O2-  O170  1  0.37511152  0.25033358  0.16535772  1
  O2-  O171  1  0.37428374  0.24972048  0.66431006  1
  O2-  O172  1  0.37503967  0.49982737  0.16767496  1
  O2-  O173  1  0.37529247  0.50231989  0.66284701  1
  O2-  O174  1  0.37484435  0.74810674  0.16688764  1
  O2-  O175  1  0.37453680  0.74821487  0.66371354  1
  O2-  O176  1  0.62574805  0.00030652  0.16435844  1
  O2-  O177  1  0.62502475  0.00184200  0.66103745  1
  O2-  O178  1  0.62530103  0.24958251  0.16681061  1
  O2-  O179  1  0.62563909  0.24685582  0.66295244  1
  O2-  O180  1  0.62495811  0.50067977  0.16635271  1
  O2-  O181  1  0.62525105  0.50040302  0.66432552  1
  O2-  O182  1  0.62576176  0.74989445  0.16328740  1
  O2-  O183  1  0.62636691  0.75074801  0.66328822  1
  O2-  O184  1  0.87496097  -0.00031536  0.16749740  1
  O2-  O185  1  0.87620212  -0.00174003  0.66107068  1
  O2-  O186  1  0.87428459  0.24861493  0.16633824  1
  O2-  O187  1  0.87507800  0.25195926  0.66039833  1
  O2-  O188  1  0.87486435  0.50213160  0.16945627  1
  O2-  O189  1  0.87628315  0.49972759  0.66123012  1
  O2-  O190  1  0.87501010  0.74984765  0.17347403  1
  O2-  O191  1  0.87468702  0.74992202  0.66104519  1
  O2-  O192  1  -0.00004877  0.12478770  0.16540525  1
  O2-  O193  1  0.00069814  0.12505407  0.66571850  1
  O2-  O194  1  -0.00040557  0.37500073  0.16590127  1
  O2-  O195  1  -0.00134603  0.37457387  0.66460866  1
  O2-  O196  1  -0.00042332  0.62563084  0.17065696  1
  O2-  O197  1  -0.00174533  0.62619476  0.66180968  1
  O2-  O198  1  -0.00018935  0.87507627  0.17587981  1
  O2-  O199  1  -0.00006586  0.87419029  0.66077144  1
  O2-  O200  1  0.25075007  0.12547349  0.16593154  1
  O2-  O201  1  0.25032890  0.12391264  0.66731216  1
  O2-  O202  1  0.25086626  0.37517594  0.16412691  1
  O2-  O203  1  0.24840263  0.37560585  0.66559675  1
  O2-  O204  1  0.25014419  0.62465262  0.16616978  1
  O2-  O205  1  0.25143179  0.62514307  0.66285425  1
  O2-  O206  1  0.24761856  0.87493767  0.16824679  1
  O2-  O207  1  0.24829005  0.87484824  0.66434114  1
  O2-  O208  1  0.49971878  0.12552203  0.16416929  1
  O2-  O209  1  0.50032398  0.12446632  0.66309464  1
  O2-  O210  1  0.49907376  0.37510276  0.16535751  1
  O2-  O211  1  0.50026322  0.37455598  0.66476674  1
  O2-  O212  1  0.50010854  0.62470585  0.16356797  1
  O2-  O213  1  0.49917329  0.62607017  0.66286217  1
  O2-  O214  1  0.50175847  0.87500527  0.16032451  1
  O2-  O215  1  0.49974503  0.87458876  0.66435127  1
  O2-  O216  1  0.74887363  0.12494713  0.16645255  1
  O2-  O217  1  0.74895980  0.12385122  0.65871142  1
  O2-  O218  1  0.74992983  0.37510790  0.16756313  1
  O2-  O219  1  0.75302070  0.37546735  0.66306038  1
  O2-  O220  1  0.75018739  0.62551398  0.16798432  1
  O2-  O221  1  0.75163265  0.62461311  0.66188508  1
  O2-  O222  1  0.75114869  0.87523294  0.16818097  1
  O2-  O223  1  0.75240244  0.87559997  0.66028968  1
  O2-  O224  1  0.12436463  -0.00159997  0.35186090  1
  O2-  O225  1  0.12491484  0.00031416  0.84758326  1
  O2-  O226  1  0.12404802  0.25048148  0.34693827  1
  O2-  O227  1  0.12487729  0.24769921  0.84648009  1
  O2-  O228  1  0.12435887  0.50034613  0.34567084  1
  O2-  O229  1  0.12505691  0.50117136  0.84632702  1
  O2-  O230  1  0.12440933  0.75105718  0.35168084  1
  O2-  O231  1  0.12392830  0.74988143  0.84605933  1
  O2-  O232  1  0.37474478  -0.00051743  0.34537234  1
  O2-  O233  1  0.37513484  0.00127474  0.85002485  1
  O2-  O234  1  0.37492501  0.24870309  0.34728490  1
  O2-  O235  1  0.37559583  0.25115980  0.84715393  1
  O2-  O236  1  0.37460675  0.50296748  0.35094830  1
  O2-  O237  1  0.37500033  0.49901343  0.84509469  1
  O2-  O238  1  0.37469671  0.74904422  0.34836035  1
  O2-  O239  1  0.37544623  0.74800518  0.84831137  1
  O2-  O240  1  0.62541264  0.00082756  0.34693337  1
  O2-  O241  1  0.62557317  0.00068627  0.84282396  1
  O2-  O242  1  0.62538736  0.24723992  0.35074521  1
  O2-  O243  1  0.62471701  0.24861496  0.84491508  1
  O2-  O244  1  0.62550213  0.50187371  0.34863136  1
  O2-  O245  1  0.62570362  0.50054955  0.84708554  1
  O2-  O246  1  0.62480481  0.75046850  0.34459295  1
  O2-  O247  1  0.62583764  0.75014600  0.84592947  1
  O2-  O248  1  0.87523764  -0.00142147  0.35003616  1
  O2-  O249  1  0.87459295  0.00132915  0.84425092  1
  O2-  O250  1  0.87492774  0.25148716  0.34992133  1
  O2-  O251  1  0.87487832  0.24764476  0.84301407  1
  O2-  O252  1  0.87520049  0.50071780  0.35234179  1
  O2-  O253  1  0.87449536  0.50031721  0.84607170  1
  O2-  O254  1  0.87564440  0.74980012  0.35475258  1
  O2-  O255  1  0.87533332  0.75070628  0.84661373  1
  O2-  O256  1  -0.00060265  0.12481750  0.34940390  1
  O2-  O257  1  -0.00017692  0.12367609  0.84658316  1
  O2-  O258  1  -0.00128995  0.37534713  0.34799478  1
  O2-  O259  1  -0.00036077  0.37505393  0.84883536  1
  O2-  O260  1  -0.00100088  0.62587717  0.35275516  1
  O2-  O261  1  -0.00010639  0.62551545  0.84594960  1
  O2-  O262  1  0.00001204  0.87463222  0.35841926  1
  O2-  O263  1  -0.00114784  0.87502966  0.84564502  1
  O2-  O264  1  0.25055802  0.12420647  0.34789776  1
  O2-  O265  1  0.25023076  0.12434041  0.84959902  1
  O2-  O266  1  0.24757948  0.37509880  0.34625357  1
  O2-  O267  1  0.25200917  0.37489096  0.84810350  1
  O2-  O268  1  0.25122850  0.62602080  0.34813232  1
  O2-  O269  1  0.24996234  0.62579000  0.84686885  1
  O2-  O270  1  0.24915592  0.87470297  0.34928884  1
  O2-  O271  1  0.24960575  0.87414475  0.84908207  1
  O2-  O272  1  0.50087683  0.12432733  0.34566189  1
  O2-  O273  1  0.50039671  0.12471053  0.84672351  1
  O2-  O274  1  0.50027186  0.37531598  0.34919223  1
  O2-  O275  1  0.49868064  0.37519417  0.84686338  1
  O2-  O276  1  0.49857179  0.62561075  0.34563576  1
  O2-  O277  1  0.50087783  0.62467035  0.84603860  1
  O2-  O278  1  0.49985525  0.87501996  0.34158635  1
  O2-  O279  1  0.50247218  0.87512862  0.84742468  1
  O2-  O280  1  0.74872340  0.12421768  0.35007965  1
  O2-  O281  1  0.74955507  0.12509812  0.84104109  1
  O2-  O282  1  0.75327403  0.37551263  0.35105537  1
  O2-  O283  1  0.74973286  0.37450159  0.84690433  1
  O2-  O284  1  0.75095719  0.62618893  0.35051605  1
  O2-  O285  1  0.74949446  0.62541602  0.84551128  1
  O2-  O286  1  0.75078431  0.87469706  0.35035322  1
  O2-  O287  1  0.74919051  0.87493754  0.84292023  1
