# generated using pymatgen
data_BaYFeCuO5
_symmetry_space_group_name_H-M   'P 1'
_cell_length_a   15.67164356
_cell_length_b   15.67284460
_cell_length_c   15.49049729
_cell_angle_alpha   89.99785329
_cell_angle_beta   89.98422099
_cell_angle_gamma   89.99865368
_symmetry_Int_Tables_number   1
_chemical_formula_structural   BaYFeCuO5
_chemical_formula_sum   'Ba32 Y32 Fe32 Cu32 O160'
_cell_volume   3804.76393262
_cell_formula_units_Z   32
loop_
 _symmetry_equiv_pos_site_id
 _symmetry_equiv_pos_as_xyz
  1  'x, y, z'
loop_
 _atom_type_symbol
 _atom_type_oxidation_number
  Ba2+  2.0
  Y3+  3.0
  Fe3+  3.0
  Cu2+  2.0
  O2-  -2.0
loop_
 _atom_site_type_symbol
 _atom_site_label
 _atom_site_symmetry_multiplicity
 _atom_site_fract_x
 _atom_site_fract_y
 _atom_site_fract_z
 _atom_site_occupancy
  Ba2+  Ba0  1  0.00545261  -0.00621655  0.02142619  1
  Ba2+  Ba1  1  0.01052477  0.00049411  0.51627940  1
  Ba2+  Ba2  1  0.00731803  0.25677002  0.01555919  1
  Ba2+  Ba3  1  0.00524882  0.25480561  0.49947780  1
  Ba2+  Ba4  1  0.00215642  0.50017802  0.02136317  1
  Ba2+  Ba5  1  0.00373572  0.49511208  0.49974279  1
  Ba2+  Ba6  1  -0.00034797  0.74879978  0.02590996  1
  Ba2+  Ba7  1  0.00980626  0.74920218  0.51450780  1
  Ba2+  Ba8  1  0.24965994  -0.00103813  0.01675809  1
  Ba2+  Ba9  1  0.25309261  0.00050568  0.52059659  1
  Ba2+  Ba10  1  0.25049742  0.25641737  0.00620929  1
  Ba2+  Ba11  1  0.24963277  0.24327863  0.50767202  1
  Ba2+  Ba12  1  0.25089544  0.49685411  0.01644157  1
  Ba2+  Ba13  1  0.25009595  0.50679298  0.50778040  1
  Ba2+  Ba14  1  0.25006529  0.74927870  0.02443489  1
  Ba2+  Ba15  1  0.25450601  0.74866770  0.51856799  1
  Ba2+  Ba16  1  0.49465074  -0.00583715  0.00064346  1
  Ba2+  Ba17  1  0.49364631  -0.00531440  0.51243134  1
  Ba2+  Ba18  1  0.49335983  0.25716445  -0.00234781  1
  Ba2+  Ba19  1  0.49594650  0.24806579  0.51353213  1
  Ba2+  Ba20  1  0.49966505  0.50137823  0.00564872  1
  Ba2+  Ba21  1  0.50213267  0.50883230  0.51173852  1
  Ba2+  Ba22  1  0.50151485  0.74591070  0.01239646  1
  Ba2+  Ba23  1  0.50013878  0.74788970  0.51206787  1
  Ba2+  Ba24  1  0.75048797  -0.01120335  0.00640677  1
  Ba2+  Ba25  1  0.74242453  -0.00661766  0.50741840  1
  Ba2+  Ba26  1  0.75003684  0.26054409  0.00717331  1
  Ba2+  Ba27  1  0.74991690  0.25942680  0.50712936  1
  Ba2+  Ba28  1  0.74739028  0.50548553  0.01325629  1
  Ba2+  Ba29  1  0.74222741  0.50008077  0.50832487  1
  Ba2+  Ba30  1  0.74694479  0.74529242  0.01294902  1
  Ba2+  Ba31  1  0.73765197  0.74895435  0.50660651  1
  Y3+  Y32  1  0.00102547  -0.00011530  0.25538832  1
  Y3+  Y33  1  0.00243289  0.00051806  0.75533371  1
  Y3+  Y34  1  0.00169997  0.25317836  0.25526915  1
  Y3+  Y35  1  0.00292720  0.25098314  0.75923886  1
  Y3+  Y36  1  0.00044315  0.49747068  0.25602134  1
  Y3+  Y37  1  0.00255356  0.49989413  0.75748840  1
  Y3+  Y38  1  -0.00055912  0.74887253  0.25673905  1
  Y3+  Y39  1  0.00235540  0.74873261  0.75258639  1
  Y3+  Y40  1  0.25153723  0.00103074  0.25584392  1
  Y3+  Y41  1  0.25193122  0.00192550  0.75547908  1
  Y3+  Y42  1  0.24971408  0.25154554  0.25509650  1
  Y3+  Y43  1  0.25223362  0.25053055  0.76054587  1
  Y3+  Y44  1  0.25171556  0.49929436  0.25553039  1
  Y3+  Y45  1  0.25115255  0.49934391  0.75903821  1
  Y3+  Y46  1  0.25308129  0.74782018  0.25639937  1
  Y3+  Y47  1  0.25115592  0.74834547  0.75156390  1
  Y3+  Y48  1  0.49850155  -0.00081503  0.26098669  1
  Y3+  Y49  1  0.49828703  -0.00104404  0.75547203  1
  Y3+  Y50  1  0.49588034  0.24995681  0.25949390  1
  Y3+  Y51  1  0.49736351  0.25148720  0.75929877  1
  Y3+  Y52  1  0.49803567  0.50390061  0.25745984  1
  Y3+  Y53  1  0.50152055  0.50168874  0.75815382  1
  Y3+  Y54  1  0.50042311  0.74686691  0.26081376  1
  Y3+  Y55  1  0.50200065  0.74836421  0.75483818  1
  Y3+  Y56  1  0.74883304  -0.00173424  0.25917248  1
  Y3+  Y57  1  0.74792360  -0.00208240  0.75667125  1
  Y3+  Y58  1  0.75126071  0.25153624  0.25776225  1
  Y3+  Y59  1  0.74855170  0.25158811  0.75852573  1
  Y3+  Y60  1  0.74922348  0.50183698  0.25793027  1
  Y3+  Y61  1  0.74554697  0.50200351  0.75825970  1
  Y3+  Y62  1  0.74645377  0.74801555  0.25901825  1
  Y3+  Y63  1  0.74439621  0.74903492  0.75623015  1
  Fe3+  Fe64  1  0.12552730  0.12421738  0.87809957  1
  Fe3+  Fe65  1  0.62476277  0.12460526  0.88074265  1
  Fe3+  Fe66  1  0.12658126  0.87497780  0.37513620  1
  Fe3+  Fe67  1  0.12563369  0.87327254  0.87425693  1
  Fe3+  Fe68  1  0.87499641  0.62465615  0.37957249  1
  Fe3+  Fe69  1  0.87544735  0.12488917  0.37989514  1
  Fe3+  Fe70  1  0.37410702  0.62594689  0.87638287  1
  Fe3+  Fe71  1  0.87585843  0.37733183  0.87770460  1
  Fe3+  Fe72  1  0.12606292  0.12460036  0.37450691  1
  Fe3+  Fe73  1  0.87579570  0.62617443  0.87537768  1
  Fe3+  Fe74  1  0.12512428  0.62589823  0.87728175  1
  Fe3+  Fe75  1  0.62388546  0.12531376  0.38109368  1
  Fe3+  Fe76  1  0.62295727  0.37526402  0.37730173  1
  Fe3+  Fe77  1  0.37398146  0.37563017  0.38081132  1
  Fe3+  Fe78  1  0.87638920  0.87285828  0.87408657  1
  Fe3+  Fe79  1  0.37397240  0.87429721  0.37643143  1
  Fe3+  Fe80  1  0.37338536  0.87301788  0.87456122  1
  Fe3+  Fe81  1  0.87596337  0.12437960  0.88054247  1
  Fe3+  Fe82  1  0.87588873  0.87458797  0.37995396  1
  Fe3+  Fe83  1  0.12588730  0.62487677  0.37494810  1
  Fe3+  Fe84  1  0.37524588  0.37594931  0.63617175  1
  Fe3+  Fe85  1  0.37595592  0.12533285  0.13644313  1
  Fe3+  Fe86  1  0.62508378  0.12561089  0.63645325  1
  Fe3+  Fe87  1  0.87533531  0.37563150  0.63763698  1
  Fe3+  Fe88  1  0.62409798  0.12520297  0.13457367  1
  Fe3+  Fe89  1  0.87520218  0.62393486  0.63234368  1
  Fe3+  Fe90  1  0.87506214  0.87433204  0.63263811  1
  Fe3+  Fe91  1  0.62310729  0.37520785  0.13900513  1
  Fe3+  Fe92  1  0.87546123  0.12607295  0.63354994  1
  Fe3+  Fe93  1  0.12634720  0.37469070  0.63811144  1
  Fe3+  Fe94  1  0.87425712  0.12497908  0.13431358  1
  Fe3+  Fe95  1  0.62326492  0.87494164  0.13968262  1
  Cu2+  Cu96  1  0.87446128  0.37536515  0.36309029  1
  Cu2+  Cu97  1  0.37441252  0.37710586  0.87140088  1
  Cu2+  Cu98  1  0.62455121  0.62567494  0.87345651  1
  Cu2+  Cu99  1  0.62523738  0.37558423  0.86328930  1
  Cu2+  Cu100  1  0.37397291  0.12457107  0.37419995  1
  Cu2+  Cu101  1  0.37455273  0.62490278  0.37318681  1
  Cu2+  Cu102  1  0.12646252  0.37506970  0.36230937  1
  Cu2+  Cu103  1  0.62430290  0.62428480  0.37194009  1
  Cu2+  Cu104  1  0.62350297  0.87476605  0.37306601  1
  Cu2+  Cu105  1  0.37466137  0.12419150  0.86598019  1
  Cu2+  Cu106  1  0.12496562  0.37654757  0.87326064  1
  Cu2+  Cu107  1  0.62416994  0.87465219  0.86232194  1
  Cu2+  Cu108  1  0.12539273  0.62468479  0.15284478  1
  Cu2+  Cu109  1  0.12492032  0.62279326  0.64801276  1
  Cu2+  Cu110  1  0.87375072  0.37536062  0.15214662  1
  Cu2+  Cu111  1  0.62539006  0.62473970  0.64344613  1
  Cu2+  Cu112  1  0.62455954  0.37470799  0.65190594  1
  Cu2+  Cu113  1  0.12643150  0.37539941  0.14377718  1
  Cu2+  Cu114  1  0.62421913  0.87515873  0.64198909  1
  Cu2+  Cu115  1  0.87331377  0.87458080  0.15585816  1
  Cu2+  Cu116  1  0.37643091  0.87499589  0.15170097  1
  Cu2+  Cu117  1  0.87417647  0.62492332  0.15528344  1
  Cu2+  Cu118  1  0.12519147  0.12718257  0.65215776  1
  Cu2+  Cu119  1  0.37547989  0.12615595  0.64258955  1
  Cu2+  Cu120  1  0.37578062  0.62372914  0.64160309  1
  Cu2+  Cu121  1  0.12585238  0.87435779  0.15421187  1
  Cu2+  Cu122  1  0.62394115  0.62454374  0.14396078  1
  Cu2+  Cu123  1  0.12577279  0.87538115  0.64919460  1
  Cu2+  Cu124  1  0.12527989  0.12537787  0.14801859  1
  Cu2+  Cu125  1  0.37667721  0.37491525  0.14372044  1
  Cu2+  Cu126  1  0.37513236  0.87461856  0.65153676  1
  Cu2+  Cu127  1  0.37561788  0.62498444  0.14976276  1
  O2-  O128  1  0.12302419  0.12225433  -0.00173862  1
  O2-  O129  1  0.12488889  0.12425378  0.49505730  1
  O2-  O130  1  0.12465142  0.37654264  0.00839778  1
  O2-  O131  1  0.12564062  0.37375750  0.51750104  1
  O2-  O132  1  0.12337227  0.62776496  -0.00302069  1
  O2-  O133  1  0.12468781  0.62481831  0.49534128  1
  O2-  O134  1  0.12408750  0.87289217  -0.00587923  1
  O2-  O135  1  0.12677312  0.87638710  0.49521465  1
  O2-  O136  1  0.37712820  0.12438539  0.01623985  1
  O2-  O137  1  0.37477454  0.12478501  0.50853703  1
  O2-  O138  1  0.37527307  0.37613903  0.00817841  1
  O2-  O139  1  0.37385245  0.37519165  0.50825483  1
  O2-  O140  1  0.37334669  0.62677653  -0.00314738  1
  O2-  O141  1  0.37433939  0.62491434  0.50692985  1
  O2-  O142  1  0.37258468  0.87348033  -0.00493566  1
  O2-  O143  1  0.37267294  0.87483377  0.49687337  1
  O2-  O144  1  0.62521169  0.12426468  0.00886949  1
  O2-  O145  1  0.62561871  0.12614771  0.50853974  1
  O2-  O146  1  0.62488039  0.37515555  0.01846424  1
  O2-  O147  1  0.62383194  0.37329501  0.49773569  1
  O2-  O148  1  0.62512253  0.62571281  0.00822354  1
  O2-  O149  1  0.62571344  0.62433526  0.50794566  1
  O2-  O150  1  0.62502139  0.87557446  0.01906690  1
  O2-  O151  1  0.62382218  0.87639587  0.50795298  1
  O2-  O152  1  0.87531504  0.12360824  0.00612521  1
  O2-  O153  1  0.87538130  0.12543834  0.50669388  1
  O2-  O154  1  0.87546188  0.37694682  -0.00196115  1
  O2-  O155  1  0.87677099  0.37322785  0.51748017  1
  O2-  O156  1  0.87685761  0.62743085  -0.00483100  1
  O2-  O157  1  0.87548030  0.62354941  0.50575210  1
  O2-  O158  1  0.87722543  0.87300012  -0.00612080  1
  O2-  O159  1  0.87590965  0.87624006  0.50589364  1
  O2-  O160  1  0.12332859  -0.00085398  0.16247516  1
  O2-  O161  1  0.12407380  0.00166065  0.66201609  1
  O2-  O162  1  0.12459625  0.24924957  0.16600347  1
  O2-  O163  1  0.12493297  0.25132808  0.66916368  1
  O2-  O164  1  0.12451190  0.50132465  0.16671899  1
  O2-  O165  1  0.12487714  0.49808186  0.66596061  1
  O2-  O166  1  0.12458992  0.74986261  0.16526275  1
  O2-  O167  1  0.12430547  0.74925646  0.65783934  1
  O2-  O168  1  0.37640230  0.00076173  0.16552534  1
  O2-  O169  1  0.37529865  -0.00155440  0.66380735  1
  O2-  O170  1  0.37531748  0.24732645  0.17006662  1
  O2-  O171  1  0.37582394  0.25340377  0.66633088  1
  O2-  O172  1  0.37573970  0.50149261  0.16691392  1
  O2-  O173  1  0.37545029  0.49692100  0.66431664  1
  O2-  O174  1  0.37519258  0.75026284  0.16355548  1
  O2-  O175  1  0.37470267  0.75137318  0.66064818  1
  O2-  O176  1  0.62582774  0.00185908  0.16761842  1
  O2-  O177  1  0.62636573  0.00301498  0.66494222  1
  O2-  O178  1  0.62680856  0.24771881  0.16648030  1
  O2-  O179  1  0.62639800  0.24783632  0.66687888  1
  O2-  O180  1  0.62486892  0.49891342  0.16726156  1
  O2-  O181  1  0.62601975  0.49889523  0.66500559  1
  O2-  O182  1  0.62544818  0.75118809  0.16691194  1
  O2-  O183  1  0.62529644  0.75020118  0.66320623  1
  O2-  O184  1  0.87430011  0.00157649  0.16448427  1
  O2-  O185  1  0.87556375  0.00091648  0.66050554  1
  O2-  O186  1  0.87368747  0.24768090  0.16439827  1
  O2-  O187  1  0.87422622  0.24884844  0.66776917  1
  O2-  O188  1  0.87459008  0.50036348  0.16647155  1
  O2-  O189  1  0.87502916  0.50044000  0.66319715  1
  O2-  O190  1  0.87381839  0.75013178  0.16797424  1
  O2-  O191  1  0.87729637  0.74989279  0.65465852  1
  O2-  O192  1  -0.00222572  0.12481693  0.16262471  1
  O2-  O193  1  -0.00186263  0.12598081  0.66193807  1
  O2-  O194  1  -0.00165071  0.37454647  0.16489003  1
  O2-  O195  1  0.00009970  0.37407373  0.66718067  1
  O2-  O196  1  -0.00060574  0.62572735  0.16544612  1
  O2-  O197  1  -0.00142712  0.62399334  0.65978567  1
  O2-  O198  1  -0.00094556  0.87487278  0.16546999  1
  O2-  O199  1  -0.00137890  0.87640717  0.65919693  1
  O2-  O200  1  0.25056328  0.12404459  0.16310271  1
  O2-  O201  1  0.24880621  0.12591538  0.66445862  1
  O2-  O202  1  0.25127247  0.37518546  0.16563132  1
  O2-  O203  1  0.25115495  0.37459794  0.66609490  1
  O2-  O204  1  0.25059715  0.62469334  0.16257824  1
  O2-  O205  1  0.24847985  0.62390681  0.66216856  1
  O2-  O206  1  0.25109020  0.87603613  0.16108078  1
  O2-  O207  1  0.25043896  0.87575725  0.66127290  1
  O2-  O208  1  0.50183798  0.12494882  0.16915220  1
  O2-  O209  1  0.50313339  0.12553148  0.66597298  1
  O2-  O210  1  0.50182489  0.37311919  0.17068932  1
  O2-  O211  1  0.49927135  0.37395121  0.66376130  1
  O2-  O212  1  0.49856370  0.62568759  0.16716262  1
  O2-  O213  1  0.50065372  0.62456833  0.66621122  1
  O2-  O214  1  0.50074027  0.87600315  0.16835475  1
  O2-  O215  1  0.49793642  0.87597317  0.66576200  1
  O2-  O216  1  0.74980244  0.12406251  0.16571045  1
  O2-  O217  1  0.75126918  0.12482756  0.66466452  1
  O2-  O218  1  0.74853725  0.37429293  0.16779423  1
  O2-  O219  1  0.75058335  0.37400934  0.66578380  1
  O2-  O220  1  0.75062962  0.62479032  0.16763755  1
  O2-  O221  1  0.75385100  0.62554906  0.66448284  1
  O2-  O222  1  0.74824787  0.87629341  0.16986447  1
  O2-  O223  1  0.75431595  0.87570045  0.66460062  1
  O2-  O224  1  0.12395975  -0.00028626  0.34326055  1
  O2-  O225  1  0.12422795  -0.00038275  0.84381597  1
  O2-  O226  1  0.12340523  0.25018222  0.34869139  1
  O2-  O227  1  0.12430269  0.24817871  0.85061760  1
  O2-  O228  1  0.12451491  0.49956498  0.34958243  1
  O2-  O229  1  0.12441640  0.50240799  0.84691761  1
  O2-  O230  1  0.12317389  0.75040161  0.34613237  1
  O2-  O231  1  0.12455839  0.74999186  0.83926377  1
  O2-  O232  1  0.37402912  -0.00137172  0.34680736  1
  O2-  O233  1  0.37555432  -0.00127986  0.84659473  1
  O2-  O234  1  0.37506086  0.25258600  0.35270823  1
  O2-  O235  1  0.37566723  0.24932783  0.84996913  1
  O2-  O236  1  0.37432411  0.49725084  0.35107077  1
  O2-  O237  1  0.37532134  0.50263544  0.84596974  1
  O2-  O238  1  0.37474228  0.75109446  0.34677358  1
  O2-  O239  1  0.37496051  0.74974281  0.84106462  1
  O2-  O240  1  0.62682616  0.00354696  0.35030668  1
  O2-  O241  1  0.62598083  0.00186685  0.84986348  1
  O2-  O242  1  0.62566002  0.24882432  0.34830770  1
  O2-  O243  1  0.62634445  0.24810399  0.85208488  1
  O2-  O244  1  0.62547069  0.49781972  0.34861398  1
  O2-  O245  1  0.62532383  0.49899535  0.84891490  1
  O2-  O246  1  0.62512718  0.74947744  0.34958260  1
  O2-  O247  1  0.62511638  0.75147897  0.84662508  1
  O2-  O248  1  0.87432303  0.00054417  0.34994749  1
  O2-  O249  1  0.87430715  0.00085365  0.84524990  1
  O2-  O250  1  0.87520467  0.24780957  0.35043454  1
  O2-  O251  1  0.87404581  0.24811882  0.85107175  1
  O2-  O252  1  0.87482354  0.50146163  0.35169202  1
  O2-  O253  1  0.87497023  0.50133194  0.84373089  1
  O2-  O254  1  0.87601675  0.75008535  0.35268340  1
  O2-  O255  1  0.87495724  0.75017211  0.83705842  1
  O2-  O256  1  -0.00155281  0.12479561  0.34705383  1
  O2-  O257  1  -0.00170238  0.12425933  0.84525934  1
  O2-  O258  1  -0.00009599  0.37469733  0.34950850  1
  O2-  O259  1  -0.00220283  0.37445022  0.84570702  1
  O2-  O260  1  -0.00118498  0.62428275  0.34859605  1
  O2-  O261  1  0.00030115  0.62602142  0.84056386  1
  O2-  O262  1  -0.00109228  0.87632342  0.34843035  1
  O2-  O263  1  0.00050328  0.87546906  0.83921971  1
  O2-  O264  1  0.24793839  0.12603667  0.34467897  1
  O2-  O265  1  0.24940902  0.12467289  0.84799750  1
  O2-  O266  1  0.25178252  0.37414652  0.34924692  1
  O2-  O267  1  0.25008313  0.37503279  0.84824234  1
  O2-  O268  1  0.24799348  0.62469613  0.34513511  1
  O2-  O269  1  0.24955636  0.62573272  0.84366074  1
  O2-  O270  1  0.24919987  0.87480968  0.34248763  1
  O2-  O271  1  0.24927117  0.87518026  0.84192545  1
  O2-  O272  1  0.50258535  0.12519600  0.35235638  1
  O2-  O273  1  0.50192049  0.12496209  0.85167290  1
  O2-  O274  1  0.49816077  0.37386516  0.35094817  1
  O2-  O275  1  0.50136831  0.37451934  0.84876090  1
  O2-  O276  1  0.49991965  0.62407431  0.35026629  1
  O2-  O277  1  0.49850669  0.62535451  0.84873840  1
  O2-  O278  1  0.49804316  0.87629658  0.34907098  1
  O2-  O279  1  0.49961760  0.87594016  0.84896315  1
  O2-  O280  1  0.75070705  0.12553497  0.35200748  1
  O2-  O281  1  0.75049807  0.12413549  0.85065387  1
  O2-  O282  1  0.74892222  0.37316281  0.34981956  1
  O2-  O283  1  0.75125290  0.37432432  0.84760494  1
  O2-  O284  1  0.75262293  0.62534835  0.35129161  1
  O2-  O285  1  0.75120881  0.62592094  0.84718220  1
  O2-  O286  1  0.75320327  0.87543568  0.35300772  1
  O2-  O287  1  0.75025297  0.87613064  0.84742096  1
