# generated using pymatgen
data_BaYFeCuO5
_symmetry_space_group_name_H-M   'P 1'
_cell_length_a   15.66207997
_cell_length_b   15.65708346
_cell_length_c   15.46074733
_cell_angle_alpha   90.00014100
_cell_angle_beta   90.00195861
_cell_angle_gamma   90.00383831
_symmetry_Int_Tables_number   1
_chemical_formula_structural   BaYFeCuO5
_chemical_formula_sum   'Ba32 Y32 Fe32 Cu32 O160'
_cell_volume   3791.32300048
_cell_formula_units_Z   32
loop_
 _symmetry_equiv_pos_site_id
 _symmetry_equiv_pos_as_xyz
  1  'x, y, z'
loop_
 _atom_type_symbol
 _atom_type_oxidation_number
  Ba2+  2.0
  Y3+  3.0
  Fe3+  3.0
  Cu2+  2.0
  O2-  -2.0
loop_
 _atom_site_type_symbol
 _atom_site_label
 _atom_site_symmetry_multiplicity
 _atom_site_fract_x
 _atom_site_fract_y
 _atom_site_fract_z
 _atom_site_occupancy
  Ba2+  Ba0  1  -0.00283439  -0.00830059  0.01097291  1
  Ba2+  Ba1  1  -0.00616804  0.00212599  0.51718883  1
  Ba2+  Ba2  1  -0.00163426  0.25535152  0.01350049  1
  Ba2+  Ba3  1  -0.00086719  0.25079304  0.52588947  1
  Ba2+  Ba4  1  -0.00419197  0.49772799  0.01160538  1
  Ba2+  Ba5  1  0.00127259  0.50118140  0.51364873  1
  Ba2+  Ba6  1  -0.00545051  0.75544609  0.00664439  1
  Ba2+  Ba7  1  -0.00371731  0.74456750  0.50049370  1
  Ba2+  Ba8  1  0.25308663  -0.00847414  0.01227917  1
  Ba2+  Ba9  1  0.25025050  0.01042012  0.51127708  1
  Ba2+  Ba10  1  0.24686751  0.25094182  0.01085986  1
  Ba2+  Ba11  1  0.24669482  0.24593540  0.51753786  1
  Ba2+  Ba12  1  0.24655598  0.49876938  0.00214211  1
  Ba2+  Ba13  1  0.24190521  0.50400297  0.51814744  1
  Ba2+  Ba14  1  0.25242004  0.75862786  0.00141214  1
  Ba2+  Ba15  1  0.24570338  0.73937514  0.51274454  1
  Ba2+  Ba16  1  0.49404025  -0.00634876  0.01842255  1
  Ba2+  Ba17  1  0.49862118  0.01075069  0.51075531  1
  Ba2+  Ba18  1  0.50008106  0.24847970  0.01724925  1
  Ba2+  Ba19  1  0.50539273  0.24791484  0.51095144  1
  Ba2+  Ba20  1  0.50051999  0.50122445  0.00719867  1
  Ba2+  Ba21  1  0.50813035  0.49899390  0.50604310  1
  Ba2+  Ba22  1  0.49431626  0.75725260  0.00709069  1
  Ba2+  Ba23  1  0.50044748  0.74094233  0.50755852  1
  Ba2+  Ba24  1  0.75534702  -0.00597778  0.01657555  1
  Ba2+  Ba25  1  0.75730066  0.00259486  0.51588007  1
  Ba2+  Ba26  1  0.75411788  0.25366486  0.01974410  1
  Ba2+  Ba27  1  0.75022844  0.25279764  0.51964465  1
  Ba2+  Ba28  1  0.75646632  0.49988942  0.01612466  1
  Ba2+  Ba29  1  0.75034882  0.49729063  0.50039385  1
  Ba2+  Ba30  1  0.75802505  0.75328874  0.01178134  1
  Ba2+  Ba31  1  0.75700034  0.74723570  0.49648792  1
  Y3+  Y32  1  -0.00139382  -0.00375459  0.25512485  1
  Y3+  Y33  1  -0.00149325  -0.00258632  0.75821930  1
  Y3+  Y34  1  -0.00016928  0.25119877  0.25043892  1
  Y3+  Y35  1  0.00128211  0.25137740  0.75863162  1
  Y3+  Y36  1  -0.00023182  0.50191530  0.25541207  1
  Y3+  Y37  1  0.00126061  0.50044273  0.76008697  1
  Y3+  Y38  1  -0.00147541  0.74988046  0.25666747  1
  Y3+  Y39  1  -0.00138928  0.75161175  0.76037550  1
  Y3+  Y40  1  0.25098469  -0.00047612  0.25604500  1
  Y3+  Y41  1  0.24978511  -0.00076664  0.75763099  1
  Y3+  Y42  1  0.25073081  0.24854106  0.25575636  1
  Y3+  Y43  1  0.24812593  0.24979223  0.75714354  1
  Y3+  Y44  1  0.24664898  0.49983384  0.25694759  1
  Y3+  Y45  1  0.24795849  0.50208517  0.75872439  1
  Y3+  Y46  1  0.24732177  0.75123084  0.25766013  1
  Y3+  Y47  1  0.24985550  0.74994036  0.75995813  1
  Y3+  Y48  1  0.49742365  0.00030098  0.25804918  1
  Y3+  Y49  1  0.49914407  0.00112536  0.75510028  1
  Y3+  Y50  1  0.50002113  0.24941847  0.25980485  1
  Y3+  Y51  1  0.50106220  0.24935110  0.75256095  1
  Y3+  Y52  1  0.50354389  0.49818265  0.25925779  1
  Y3+  Y53  1  0.49933608  0.50114188  0.75655382  1
  Y3+  Y54  1  0.50075688  0.75136902  0.25786917  1
  Y3+  Y55  1  0.49744716  0.74936276  0.75933808  1
  Y3+  Y56  1  0.75308555  -0.00320624  0.25687404  1
  Y3+  Y57  1  0.75220598  -0.00074591  0.75523565  1
  Y3+  Y58  1  0.74973744  0.25209179  0.25551178  1
  Y3+  Y59  1  0.74929649  0.25068347  0.75361460  1
  Y3+  Y60  1  0.75034136  0.50020362  0.25713651  1
  Y3+  Y61  1  0.75112838  0.49965307  0.75761793  1
  Y3+  Y62  1  0.75356745  0.75010196  0.25711199  1
  Y3+  Y63  1  0.75409605  0.75122767  0.76041585  1
  Fe3+  Fe64  1  0.37572840  0.12489122  0.87730759  1
  Fe3+  Fe65  1  0.87667952  0.37371949  0.37514229  1
  Fe3+  Fe66  1  0.62543848  0.87560249  0.38013268  1
  Fe3+  Fe67  1  0.12434959  0.12392848  0.87906907  1
  Fe3+  Fe68  1  0.62738805  0.12483800  0.37508906  1
  Fe3+  Fe69  1  0.87404756  0.12539007  0.87760146  1
  Fe3+  Fe70  1  0.87431950  0.37468382  0.87499122  1
  Fe3+  Fe71  1  0.37387906  0.37440520  0.38014829  1
  Fe3+  Fe72  1  0.87628068  0.12629909  0.37369031  1
  Fe3+  Fe73  1  0.12400533  0.37388418  0.37607397  1
  Fe3+  Fe74  1  0.37414047  0.62307412  0.37739635  1
  Fe3+  Fe75  1  0.12376954  0.62629308  0.88002245  1
  Fe3+  Fe76  1  0.12439521  0.87531760  0.38079254  1
  Fe3+  Fe77  1  0.62502659  0.37420742  0.87835446  1
  Fe3+  Fe78  1  0.62492798  0.87641095  0.87717635  1
  Fe3+  Fe79  1  0.37551379  0.37425817  0.87824267  1
  Fe3+  Fe80  1  0.62578289  0.62587198  0.88149579  1
  Fe3+  Fe81  1  0.37417296  0.87501813  0.38148544  1
  Fe3+  Fe82  1  0.12289166  0.12569749  0.37459567  1
  Fe3+  Fe83  1  0.62544809  0.12459784  0.87971075  1
  Fe3+  Fe84  1  0.62562392  0.12339554  0.13495240  1
  Fe3+  Fe85  1  0.62572503  0.87389521  0.63375171  1
  Fe3+  Fe86  1  0.37495516  0.37570133  0.13590172  1
  Fe3+  Fe87  1  0.37443374  0.62541194  0.13696059  1
  Fe3+  Fe88  1  0.62677847  0.62569794  0.63945160  1
  Fe3+  Fe89  1  0.12417830  0.87415785  0.63520847  1
  Fe3+  Fe90  1  0.87520653  0.62494009  0.64012696  1
  Fe3+  Fe91  1  0.62494183  0.62640484  0.13625231  1
  Fe3+  Fe92  1  0.12483911  0.62640884  0.13453567  1
  Fe3+  Fe93  1  0.37479583  0.87448596  0.63395263  1
  Fe3+  Fe94  1  0.12468472  0.12327619  0.13333126  1
  Fe3+  Fe95  1  0.37469549  0.37622549  0.63534015  1
  Cu2+  Cu96  1  0.87548232  0.62352714  0.36049583  1
  Cu2+  Cu97  1  0.62547548  0.62554731  0.36172347  1
  Cu2+  Cu98  1  0.62622989  0.37358344  0.37204635  1
  Cu2+  Cu99  1  0.12481234  0.87628879  0.87223338  1
  Cu2+  Cu100  1  0.37525351  0.62487806  0.86817221  1
  Cu2+  Cu101  1  0.87608278  0.87564264  0.37391295  1
  Cu2+  Cu102  1  0.87458188  0.62474254  0.87506810  1
  Cu2+  Cu103  1  0.37405029  0.12603365  0.37259895  1
  Cu2+  Cu104  1  0.12457891  0.62408746  0.37153147  1
  Cu2+  Cu105  1  0.12488683  0.37442518  0.87355619  1
  Cu2+  Cu106  1  0.87399809  0.87637661  0.87061655  1
  Cu2+  Cu107  1  0.37589918  0.87683372  0.86707638  1
  Cu2+  Cu108  1  0.62496103  0.87429836  0.15156850  1
  Cu2+  Cu109  1  0.62431052  0.37539214  0.14827840  1
  Cu2+  Cu110  1  0.37481238  0.12482361  0.14872882  1
  Cu2+  Cu111  1  0.87521029  0.87293727  0.64104619  1
  Cu2+  Cu112  1  0.62595628  0.12419692  0.65070617  1
  Cu2+  Cu113  1  0.12508641  0.37577112  0.65352447  1
  Cu2+  Cu114  1  0.87527338  0.12436778  0.14517388  1
  Cu2+  Cu115  1  0.37462913  0.12587719  0.64200405  1
  Cu2+  Cu116  1  0.12507944  0.87379787  0.14242962  1
  Cu2+  Cu117  1  0.87552538  0.62552942  0.14185834  1
  Cu2+  Cu118  1  0.12326308  0.62655466  0.64795795  1
  Cu2+  Cu119  1  0.12414779  0.12378598  0.65456915  1
  Cu2+  Cu120  1  0.12586788  0.37610437  0.13889410  1
  Cu2+  Cu121  1  0.87556455  0.37660096  0.65197820  1
  Cu2+  Cu122  1  0.37483250  0.62490394  0.65207901  1
  Cu2+  Cu123  1  0.87548382  0.87421166  0.14677006  1
  Cu2+  Cu124  1  0.87537858  0.12569085  0.65461895  1
  Cu2+  Cu125  1  0.37455483  0.87322859  0.14924044  1
  Cu2+  Cu126  1  0.87489807  0.37559098  0.15159054  1
  Cu2+  Cu127  1  0.62525535  0.37699234  0.64143839  1
  O2-  O128  1  0.12540837  0.12310173  0.00543834  1
  O2-  O129  1  0.12197674  0.12712493  0.49499591  1
  O2-  O130  1  0.12652297  0.37494250  0.00611118  1
  O2-  O131  1  0.12396555  0.37296805  0.49649806  1
  O2-  O132  1  0.12535275  0.62643269  0.00769663  1
  O2-  O133  1  0.12348842  0.62398600  0.50712976  1
  O2-  O134  1  0.12545927  0.87538071  0.00722684  1
  O2-  O135  1  0.12460482  0.87509895  0.50778689  1
  O2-  O136  1  0.37655001  0.12464955  -0.00264285  1
  O2-  O137  1  0.37421772  0.12715197  0.50668583  1
  O2-  O138  1  0.37641640  0.37446749  0.00659192  1
  O2-  O139  1  0.37371406  0.37554240  0.50694781  1
  O2-  O140  1  0.37579747  0.62597905  0.01654444  1
  O2-  O141  1  0.37428377  0.62137548  0.49813329  1
  O2-  O142  1  0.37586923  0.87521510  0.00688768  1
  O2-  O143  1  0.37434428  0.87456778  0.50738620  1
  O2-  O144  1  0.62462048  0.12388154  0.00551634  1
  O2-  O145  1  0.62851764  0.12536885  0.49574599  1
  O2-  O146  1  0.62338150  0.37320698  -0.00181675  1
  O2-  O147  1  0.62593175  0.37485130  0.50693121  1
  O2-  O148  1  0.62432315  0.62636330  0.00867740  1
  O2-  O149  1  0.62732019  0.62473189  0.51877587  1
  O2-  O150  1  0.62413493  0.87669198  -0.00250701  1
  O2-  O151  1  0.62517414  0.87477396  0.50683214  1
  O2-  O152  1  0.87314458  0.12572384  -0.00243476  1
  O2-  O153  1  0.87624738  0.12809575  0.49406715  1
  O2-  O154  1  0.87337412  0.37413816  -0.00400308  1
  O2-  O155  1  0.87730510  0.37339620  0.49552449  1
  O2-  O156  1  0.87438386  0.62428917  0.00860761  1
  O2-  O157  1  0.87400262  0.62341127  0.51929353  1
  O2-  O158  1  0.87399053  0.87581633  0.00681726  1
  O2-  O159  1  0.87535008  0.87465278  0.50729586  1
  O2-  O160  1  0.12548188  0.00186224  0.16445989  1
  O2-  O161  1  0.12561737  -0.00210494  0.66177257  1
  O2-  O162  1  0.12589731  0.24704123  0.15853226  1
  O2-  O163  1  0.12497461  0.24945580  0.66552363  1
  O2-  O164  1  0.12578367  0.50313790  0.16273548  1
  O2-  O165  1  0.12578541  0.50024622  0.66780658  1
  O2-  O166  1  0.12566112  0.74731678  0.16810968  1
  O2-  O167  1  0.12529036  0.75313358  0.66703787  1
  O2-  O168  1  0.37512444  0.00015800  0.16712462  1
  O2-  O169  1  0.37502129  -0.00296314  0.66050358  1
  O2-  O170  1  0.37546195  0.25153545  0.16136174  1
  O2-  O171  1  0.37459699  0.25335683  0.66395518  1
  O2-  O172  1  0.37580129  0.49971170  0.16414091  1
  O2-  O173  1  0.37384111  0.49862772  0.66743059  1
  O2-  O174  1  0.37545258  0.74747343  0.17139764  1
  O2-  O175  1  0.37519541  0.75203477  0.66370912  1
  O2-  O176  1  0.62453061  0.00056540  0.16310502  1
  O2-  O177  1  0.62506171  -0.00192921  0.66119417  1
  O2-  O178  1  0.62420933  0.24817846  0.16001562  1
  O2-  O179  1  0.62466977  0.24872326  0.66383942  1
  O2-  O180  1  0.62426481  0.50174672  0.16290070  1
  O2-  O181  1  0.62461612  0.50295284  0.67089475  1
  O2-  O182  1  0.62408537  0.74882189  0.16703629  1
  O2-  O183  1  0.62366985  0.75113210  0.66757574  1
  O2-  O184  1  0.87495619  -0.00022003  0.16506906  1
  O2-  O185  1  0.87443174  0.00106290  0.66198587  1
  O2-  O186  1  0.87464429  0.25130475  0.15903206  1
  O2-  O187  1  0.87553697  0.25117238  0.66332310  1
  O2-  O188  1  0.87453374  0.49822334  0.16429606  1
  O2-  O189  1  0.87511182  0.50052039  0.66795415  1
  O2-  O190  1  0.87496737  0.75039110  0.16772023  1
  O2-  O191  1  0.87539753  0.74806905  0.67033313  1
  O2-  O192  1  0.00116061  0.12471592  0.15795489  1
  O2-  O193  1  -0.00035802  0.12456978  0.66666975  1
  O2-  O194  1  -0.00146483  0.37540347  0.16005019  1
  O2-  O195  1  0.00104078  0.37593430  0.66564002  1
  O2-  O196  1  0.00253531  0.62513242  0.16285840  1
  O2-  O197  1  -0.00146804  0.62453165  0.67001099  1
  O2-  O198  1  -0.00019414  0.87418966  0.16583777  1
  O2-  O199  1  0.00222974  0.87565770  0.66512031  1
  O2-  O200  1  0.24887186  0.12448908  0.16202254  1
  O2-  O201  1  0.24830797  0.12532867  0.66649957  1
  O2-  O202  1  0.25344681  0.37528431  0.16445549  1
  O2-  O203  1  0.25073601  0.37533066  0.66465722  1
  O2-  O204  1  0.24918803  0.62464705  0.16477414  1
  O2-  O205  1  0.25013863  0.62574455  0.66682594  1
  O2-  O206  1  0.25044455  0.87454016  0.16864478  1
  O2-  O207  1  0.25013248  0.87481048  0.66246458  1
  O2-  O208  1  0.50147231  0.12443762  0.16370570  1
  O2-  O209  1  0.50152199  0.12503532  0.66447431  1
  O2-  O210  1  0.49770791  0.37482003  0.16624884  1
  O2-  O211  1  0.49731967  0.37630771  0.66353656  1
  O2-  O212  1  0.50096251  0.62478170  0.16609381  1
  O2-  O213  1  0.50057838  0.62534792  0.66695617  1
  O2-  O214  1  0.50015892  0.87473506  0.16901155  1
  O2-  O215  1  0.49999229  0.87497614  0.66042003  1
  O2-  O216  1  0.74864257  0.12443238  0.16007387  1
  O2-  O217  1  0.75077817  0.12541402  0.66437147  1
  O2-  O218  1  0.75036881  0.37526859  0.16263254  1
  O2-  O219  1  0.75130739  0.37559788  0.66431424  1
  O2-  O220  1  0.74733120  0.62539706  0.16357350  1
  O2-  O221  1  0.75033628  0.62574260  0.67226893  1
  O2-  O222  1  0.74947563  0.87443186  0.16653913  1
  O2-  O223  1  0.74737750  0.87440528  0.66329520  1
  O2-  O224  1  0.12514709  -0.00132123  0.34827868  1
  O2-  O225  1  0.12493696  0.00308704  0.84583736  1
  O2-  O226  1  0.12508174  0.25035868  0.33952698  1
  O2-  O227  1  0.12603420  0.24657128  0.84955864  1
  O2-  O228  1  0.12519400  0.49751668  0.34522709  1
  O2-  O229  1  0.12559442  0.50307230  0.85193299  1
  O2-  O230  1  0.12574075  0.75243613  0.35239906  1
  O2-  O231  1  0.12606172  0.74838691  0.85088523  1
  O2-  O232  1  0.37475363  -0.00321050  0.35119267  1
  O2-  O233  1  0.37595471  0.00320144  0.84232179  1
  O2-  O234  1  0.37465324  0.25316330  0.34578347  1
  O2-  O235  1  0.37550272  0.25036247  0.84693904  1
  O2-  O236  1  0.37525372  0.49774106  0.34631714  1
  O2-  O237  1  0.37597853  0.49796657  0.85265632  1
  O2-  O238  1  0.37561230  0.75115142  0.35334179  1
  O2-  O239  1  0.37536812  0.74958830  0.84833502  1
  O2-  O240  1  0.62503660  -0.00155626  0.34696868  1
  O2-  O241  1  0.62432901  0.00216696  0.84489848  1
  O2-  O242  1  0.62539285  0.24764830  0.34285617  1
  O2-  O243  1  0.62418746  0.24878683  0.84710065  1
  O2-  O244  1  0.62511512  0.50140940  0.34821214  1
  O2-  O245  1  0.62333084  0.50057852  0.85292108  1
  O2-  O246  1  0.62408431  0.75171107  0.35236943  1
  O2-  O247  1  0.62414920  0.74946759  0.85042870  1
  O2-  O248  1  0.87565784  0.00178022  0.34692895  1
  O2-  O249  1  0.87433436  0.00269635  0.84487097  1
  O2-  O250  1  0.87542479  0.24995706  0.33952670  1
  O2-  O251  1  0.87384052  0.24969227  0.84456778  1
  O2-  O252  1  0.87515422  0.49948836  0.34751962  1
  O2-  O253  1  0.87444180  0.49799752  0.84871677  1
  O2-  O254  1  0.87497848  0.74758899  0.35165882  1
  O2-  O255  1  0.87411580  0.75067625  0.85207271  1
  O2-  O256  1  0.00022889  0.12498471  0.33871892  1
  O2-  O257  1  0.00027558  0.12546605  0.85037737  1
  O2-  O258  1  0.00024274  0.37466181  0.34116657  1
  O2-  O259  1  -0.00174627  0.37415169  0.84866007  1
  O2-  O260  1  -0.00131676  0.62487184  0.34669385  1
  O2-  O261  1  0.00174234  0.62584647  0.85234198  1
  O2-  O262  1  0.00280214  0.87441424  0.34948723  1
  O2-  O263  1  -0.00074160  0.87565843  0.84892085  1
  O2-  O264  1  0.24697449  0.12489214  0.34532357  1
  O2-  O265  1  0.24960048  0.12510948  0.84967023  1
  O2-  O266  1  0.25034616  0.37451605  0.34713885  1
  O2-  O267  1  0.25329615  0.37497735  0.85018275  1
  O2-  O268  1  0.25229368  0.62443781  0.34539314  1
  O2-  O269  1  0.24865317  0.62494613  0.85183118  1
  O2-  O270  1  0.24988856  0.87493967  0.35207329  1
  O2-  O271  1  0.25100711  0.87614055  0.84690519  1
  O2-  O272  1  0.50218055  0.12462112  0.34791290  1
  O2-  O273  1  0.50169248  0.12593761  0.84721397  1
  O2-  O274  1  0.49780234  0.37474177  0.35148365  1
  O2-  O275  1  0.49947786  0.37459415  0.84684164  1
  O2-  O276  1  0.49890058  0.62442080  0.34865637  1
  O2-  O277  1  0.50214873  0.62513580  0.85116534  1
  O2-  O278  1  0.49975438  0.87507480  0.35317238  1
  O2-  O279  1  0.50186985  0.87557624  0.84346488  1
  O2-  O280  1  0.75113009  0.12446663  0.34128160  1
  O2-  O281  1  0.74808585  0.12520757  0.84749003  1
  O2-  O282  1  0.75246740  0.37522225  0.34598318  1
  O2-  O283  1  0.74845273  0.37466287  0.84536820  1
  O2-  O284  1  0.75030222  0.62489212  0.34864320  1
  O2-  O285  1  0.74675406  0.62499570  0.85239095  1
  O2-  O286  1  0.74778057  0.87443068  0.35091323  1
  O2-  O287  1  0.74754781  0.87626068  0.84547016  1
