# generated using pymatgen
data_BaYFeCuO5
_symmetry_space_group_name_H-M   'P 1'
_cell_length_a   15.65581381
_cell_length_b   15.65415120
_cell_length_c   15.45140721
_cell_angle_alpha   90.00016822
_cell_angle_beta   89.99342676
_cell_angle_gamma   89.99902446
_symmetry_Int_Tables_number   1
_chemical_formula_structural   BaYFeCuO5
_chemical_formula_sum   'Ba32 Y32 Fe32 Cu32 O160'
_cell_volume   3786.80731346
_cell_formula_units_Z   32
loop_
 _symmetry_equiv_pos_site_id
 _symmetry_equiv_pos_as_xyz
  1  'x, y, z'
loop_
 _atom_type_symbol
 _atom_type_oxidation_number
  Ba2+  2.0
  Y3+  3.0
  Fe3+  3.0
  Cu2+  2.0
  O2-  -2.0
loop_
 _atom_site_type_symbol
 _atom_site_label
 _atom_site_symmetry_multiplicity
 _atom_site_fract_x
 _atom_site_fract_y
 _atom_site_fract_z
 _atom_site_occupancy
  Ba2+  Ba0  1  -0.00235852  -0.00876764  0.00175168  1
  Ba2+  Ba1  1  -0.00389619  -0.00231764  0.51168522  1
  Ba2+  Ba2  1  -0.00229213  0.25916569  0.00189520  1
  Ba2+  Ba3  1  0.00271486  0.25879667  0.51119113  1
  Ba2+  Ba4  1  -0.00183729  0.49178615  0.00170384  1
  Ba2+  Ba5  1  -0.00252437  0.49755817  0.51235997  1
  Ba2+  Ba6  1  -0.00201944  0.75778125  0.00164173  1
  Ba2+  Ba7  1  -0.00834223  0.74470503  0.51155492  1
  Ba2+  Ba8  1  0.25814671  -0.00032707  0.00667322  1
  Ba2+  Ba9  1  0.24957014  0.00121358  0.51706639  1
  Ba2+  Ba10  1  0.25792324  0.25126889  0.00682578  1
  Ba2+  Ba11  1  0.24588236  0.25794920  0.51117900  1
  Ba2+  Ba12  1  0.25571685  0.49621690  0.01348180  1
  Ba2+  Ba13  1  0.24452497  0.49188136  0.51075384  1
  Ba2+  Ba14  1  0.25577910  0.75309896  0.01251450  1
  Ba2+  Ba15  1  0.24831176  0.74932271  0.51566258  1
  Ba2+  Ba16  1  0.50058799  0.00470054  0.01434701  1
  Ba2+  Ba17  1  0.50503439  -0.00258826  0.52188768  1
  Ba2+  Ba18  1  0.50061726  0.24598183  0.01559845  1
  Ba2+  Ba19  1  0.50218166  0.25483158  0.51664123  1
  Ba2+  Ba20  1  0.49990921  0.49899062  0.01888294  1
  Ba2+  Ba21  1  0.49855649  0.48999517  0.51017853  1
  Ba2+  Ba22  1  0.50012942  0.75069559  0.01787792  1
  Ba2+  Ba23  1  0.50171953  0.75836017  0.51552806  1
  Ba2+  Ba24  1  0.74382577  -0.00293043  0.01184363  1
  Ba2+  Ba25  1  0.74830822  -0.00562278  0.51794960  1
  Ba2+  Ba26  1  0.74407102  0.25342817  0.01192805  1
  Ba2+  Ba27  1  0.74885541  0.25579351  0.51756047  1
  Ba2+  Ba28  1  0.74715048  0.49401715  0.00673010  1
  Ba2+  Ba29  1  0.75950454  0.49690092  0.51030794  1
  Ba2+  Ba30  1  0.74716182  0.75559832  0.00690194  1
  Ba2+  Ba31  1  0.75879898  0.75288395  0.51065028  1
  Y3+  Y32  1  -0.00309798  -0.00142801  0.25723708  1
  Y3+  Y33  1  -0.00109739  -0.00156577  0.75868065  1
  Y3+  Y34  1  -0.00143128  0.25316154  0.25914124  1
  Y3+  Y35  1  0.00032593  0.25355940  0.75711311  1
  Y3+  Y36  1  -0.00250270  0.49766466  0.26139363  1
  Y3+  Y37  1  -0.00080686  0.49810556  0.75576271  1
  Y3+  Y38  1  -0.00410467  0.75072232  0.25949215  1
  Y3+  Y39  1  -0.00261308  0.75001567  0.75705611  1
  Y3+  Y40  1  0.25196038  0.00193310  0.25494847  1
  Y3+  Y41  1  0.24999066  0.00155782  0.75894102  1
  Y3+  Y42  1  0.25222096  0.25143423  0.25923360  1
  Y3+  Y43  1  0.24890947  0.25117301  0.75609255  1
  Y3+  Y44  1  0.25129738  0.49697625  0.26094506  1
  Y3+  Y45  1  0.24755733  0.49762043  0.75449835  1
  Y3+  Y46  1  0.25104269  0.74924375  0.25671622  1
  Y3+  Y47  1  0.24826662  0.74999751  0.75678300  1
  Y3+  Y48  1  0.50085930  0.00186843  0.25173983  1
  Y3+  Y49  1  0.50139156  0.00297625  0.75892070  1
  Y3+  Y50  1  0.49950353  0.24984734  0.25461340  1
  Y3+  Y51  1  0.50088595  0.24807092  0.75756653  1
  Y3+  Y52  1  0.49847438  0.49756255  0.25866611  1
  Y3+  Y53  1  0.50081257  0.49850523  0.75367433  1
  Y3+  Y54  1  0.49986112  0.75052360  0.25641915  1
  Y3+  Y55  1  0.50135027  0.75021585  0.75486614  1
  Y3+  Y56  1  0.75053466  -0.00151692  0.25404853  1
  Y3+  Y57  1  0.74902537  -0.00051566  0.75914234  1
  Y3+  Y58  1  0.75038551  0.25153589  0.25429389  1
  Y3+  Y59  1  0.74896366  0.25103861  0.75917001  1
  Y3+  Y60  1  0.75354677  0.49841885  0.25820778  1
  Y3+  Y61  1  0.75216380  0.49887822  0.75645607  1
  Y3+  Y62  1  0.75357721  0.75155272  0.25813096  1
  Y3+  Y63  1  0.75213130  0.75059308  0.75644337  1
  Fe3+  Fe64  1  0.87367924  0.12545927  0.87962263  1
  Fe3+  Fe65  1  0.62599790  0.62516537  0.38052316  1
  Fe3+  Fe66  1  0.37580233  0.37508448  0.87445585  1
  Fe3+  Fe67  1  0.37531292  0.87671249  0.37717974  1
  Fe3+  Fe68  1  0.62528520  0.87601906  0.37501234  1
  Fe3+  Fe69  1  0.37602285  0.87477542  0.87388378  1
  Fe3+  Fe70  1  0.62575831  0.37409524  0.37556048  1
  Fe3+  Fe71  1  0.12585301  0.62452309  0.87995539  1
  Fe3+  Fe72  1  0.12506829  0.12555364  0.87984475  1
  Fe3+  Fe73  1  0.87341507  0.12548916  0.38027538  1
  Fe3+  Fe74  1  0.12480278  0.87522701  0.37973117  1
  Fe3+  Fe75  1  0.37550567  0.62504514  0.38009403  1
  Fe3+  Fe76  1  0.37648901  0.62422120  0.87511533  1
  Fe3+  Fe77  1  0.62332409  0.37559523  0.87524300  1
  Fe3+  Fe78  1  0.12466166  0.12491049  0.37841654  1
  Fe3+  Fe79  1  0.37648779  0.12522184  0.38054094  1
  Fe3+  Fe80  1  0.87356238  0.62451439  0.87968551  1
  Fe3+  Fe81  1  0.62363055  0.87441585  0.87516467  1
  Fe3+  Fe82  1  0.62560334  0.12470269  0.37783036  1
  Fe3+  Fe83  1  0.12428918  0.62482306  0.37769591  1
  Fe3+  Fe84  1  0.12524893  0.87502091  0.13772422  1
  Fe3+  Fe85  1  0.12527412  0.37491808  0.13826400  1
  Fe3+  Fe86  1  0.62646528  0.62448864  0.63365429  1
  Fe3+  Fe87  1  0.87516795  0.12566493  0.63691598  1
  Fe3+  Fe88  1  0.12486275  0.62444157  0.13449494  1
  Fe3+  Fe89  1  0.37459881  0.12578837  0.63583721  1
  Fe3+  Fe90  1  0.87596065  0.62454611  0.13425290  1
  Fe3+  Fe91  1  0.12383338  0.87490717  0.63682273  1
  Fe3+  Fe92  1  0.87594559  0.12542096  0.13393328  1
  Fe3+  Fe93  1  0.37444361  0.62439180  0.63364788  1
  Fe3+  Fe94  1  0.12452705  0.12559474  0.13397693  1
  Fe3+  Fe95  1  0.62634980  0.62460572  0.13895308  1
  Cu2+  Cu96  1  0.12586418  0.87445839  0.86332532  1
  Cu2+  Cu97  1  0.12451763  0.37467816  0.37073662  1
  Cu2+  Cu98  1  0.37589615  0.37348922  0.37367434  1
  Cu2+  Cu99  1  0.37540572  0.12572329  0.87097230  1
  Cu2+  Cu100  1  0.87432278  0.37343184  0.37240715  1
  Cu2+  Cu101  1  0.87445790  0.87663135  0.37359677  1
  Cu2+  Cu102  1  0.87456613  0.62450464  0.37189668  1
  Cu2+  Cu103  1  0.87375570  0.37479729  0.87155675  1
  Cu2+  Cu104  1  0.62429769  0.62464893  0.86230713  1
  Cu2+  Cu105  1  0.12600135  0.37552058  0.86469140  1
  Cu2+  Cu106  1  0.87349779  0.87518771  0.87154150  1
  Cu2+  Cu107  1  0.62483654  0.12545427  0.87257629  1
  Cu2+  Cu108  1  0.37389928  0.12577567  0.14156183  1
  Cu2+  Cu109  1  0.37458842  0.62438926  0.15321072  1
  Cu2+  Cu110  1  0.62609540  0.12541882  0.14103929  1
  Cu2+  Cu111  1  0.37490548  0.37479411  0.15329466  1
  Cu2+  Cu112  1  0.62563174  0.37568012  0.65097255  1
  Cu2+  Cu113  1  0.62497752  0.87395237  0.15106712  1
  Cu2+  Cu114  1  0.87520408  0.87538250  0.64468232  1
  Cu2+  Cu115  1  0.87500915  0.37455290  0.64464592  1
  Cu2+  Cu116  1  0.12375244  0.12504071  0.65036530  1
  Cu2+  Cu117  1  0.12403906  0.62495489  0.65041248  1
  Cu2+  Cu118  1  0.87562350  0.37563037  0.14130754  1
  Cu2+  Cu119  1  0.62484026  0.37602567  0.15210272  1
  Cu2+  Cu120  1  0.37454093  0.37460620  0.64170775  1
  Cu2+  Cu121  1  0.87554206  0.87440795  0.14092622  1
  Cu2+  Cu122  1  0.37496544  0.87510697  0.15202712  1
  Cu2+  Cu123  1  0.62567049  0.87426637  0.65309473  1
  Cu2+  Cu124  1  0.37445495  0.87541334  0.65034428  1
  Cu2+  Cu125  1  0.87492136  0.62436705  0.64493178  1
  Cu2+  Cu126  1  0.12404277  0.37507228  0.64483459  1
  Cu2+  Cu127  1  0.62607142  0.12543324  0.64888125  1
  O2-  O128  1  0.12557730  0.12490155  0.00737696  1
  O2-  O129  1  0.12498319  0.12346667  0.49866594  1
  O2-  O130  1  0.12682842  0.37572468  0.01753619  1
  O2-  O131  1  0.12365023  0.37534767  0.50843141  1
  O2-  O132  1  0.12737263  0.62506391  0.00743075  1
  O2-  O133  1  0.12507110  0.62630125  0.49815835  1
  O2-  O134  1  0.12679903  0.87407004  0.01703979  1
  O2-  O135  1  0.12449990  0.87526508  0.50755199  1
  O2-  O136  1  0.37407942  0.12529546  0.00677603  1
  O2-  O137  1  0.37542142  0.12437480  0.50675015  1
  O2-  O138  1  0.37721081  0.37642709  -0.00474644  1
  O2-  O139  1  0.37507858  0.37371408  0.50690155  1
  O2-  O140  1  0.37658191  0.62481724  -0.00469360  1
  O2-  O141  1  0.37435907  0.62565308  0.50619016  1
  O2-  O142  1  0.37651859  0.87336114  -0.00542408  1
  O2-  O143  1  0.37507137  0.87704729  0.49716961  1
  O2-  O144  1  0.62541541  0.12500606  0.00692679  1
  O2-  O145  1  0.62564030  0.12399729  0.49785885  1
  O2-  O146  1  0.62105137  0.37660571  -0.00384767  1
  O2-  O147  1  0.62607404  0.37381722  0.49656776  1
  O2-  O148  1  0.62418468  0.62494173  0.01834018  1
  O2-  O149  1  0.62612728  0.62545116  0.50668248  1
  O2-  O150  1  0.62132615  0.87337476  -0.00398924  1
  O2-  O151  1  0.62465607  0.87654393  0.49565747  1
  O2-  O152  1  0.87524220  0.12496597  0.00683998  1
  O2-  O153  1  0.87410553  0.12530986  0.50773354  1
  O2-  O154  1  0.87466198  0.37566707  0.00709618  1
  O2-  O155  1  0.87494059  0.37317118  0.50823018  1
  O2-  O156  1  0.87402187  0.62498355  0.00756429  1
  O2-  O157  1  0.87453148  0.62466517  0.50826497  1
  O2-  O158  1  0.87508591  0.87433849  0.00696164  1
  O2-  O159  1  0.87558098  0.87653213  0.50810905  1
  O2-  O160  1  0.12504514  0.00116853  0.16486905  1
  O2-  O161  1  0.12491258  -0.00174797  0.66455457  1
  O2-  O162  1  0.12454018  0.24905350  0.16467542  1
  O2-  O163  1  0.12426034  0.24865324  0.66748766  1
  O2-  O164  1  0.12648436  0.50141991  0.16506369  1
  O2-  O165  1  0.12448487  0.50142319  0.66674517  1
  O2-  O166  1  0.12632772  0.74829128  0.16538038  1
  O2-  O167  1  0.12469287  0.75165908  0.66386561  1
  O2-  O168  1  0.37407626  -0.00098514  0.16375218  1
  O2-  O169  1  0.37420527  0.00189288  0.66302074  1
  O2-  O170  1  0.37447655  0.25144930  0.16561554  1
  O2-  O171  1  0.37472902  0.24718720  0.66363684  1
  O2-  O172  1  0.37458621  0.49945981  0.16659356  1
  O2-  O173  1  0.37474241  0.50298160  0.66157027  1
  O2-  O174  1  0.37444164  0.75000888  0.16534754  1
  O2-  O175  1  0.37458070  0.74828401  0.66022795  1
  O2-  O176  1  0.62541451  -0.00216705  0.16216474  1
  O2-  O177  1  0.62533340  -0.00093300  0.66456588  1
  O2-  O178  1  0.62534189  0.25251201  0.16324501  1
  O2-  O179  1  0.62558286  0.25113298  0.66436223  1
  O2-  O180  1  0.62459911  0.50056221  0.16858131  1
  O2-  O181  1  0.62449988  0.50154310  0.66113706  1
  O2-  O182  1  0.62465338  0.74905331  0.16811024  1
  O2-  O183  1  0.62472850  0.74827179  0.66140080  1
  O2-  O184  1  0.87608238  0.00244942  0.16394411  1
  O2-  O185  1  0.87510281  0.00261724  0.66463592  1
  O2-  O186  1  0.87617529  0.24781691  0.16381007  1
  O2-  O187  1  0.87489330  0.24751488  0.66585817  1
  O2-  O188  1  0.87592701  0.50306201  0.16562847  1
  O2-  O189  1  0.87524842  0.49953080  0.66673305  1
  O2-  O190  1  0.87589319  0.74666590  0.16551495  1
  O2-  O191  1  0.87536000  0.75016628  0.66606528  1
  O2-  O192  1  0.00050224  0.12443422  0.16440837  1
  O2-  O193  1  -0.00183060  0.12441449  0.66755806  1
  O2-  O194  1  0.00239886  0.37557837  0.16786089  1
  O2-  O195  1  -0.00023840  0.37487845  0.66791421  1
  O2-  O196  1  0.00077787  0.62526987  0.16155777  1
  O2-  O197  1  0.00080214  0.62545885  0.67051674  1
  O2-  O198  1  0.00256657  0.87465589  0.16863163  1
  O2-  O199  1  0.00226764  0.87544122  0.66691298  1
  O2-  O200  1  0.24648940  0.12519216  0.16556480  1
  O2-  O201  1  0.25078710  0.12446757  0.66389636  1
  O2-  O202  1  0.24961823  0.37499102  0.16769893  1
  O2-  O203  1  0.24935019  0.37478470  0.66508688  1
  O2-  O204  1  0.24886949  0.62527433  0.16320760  1
  O2-  O205  1  0.25111076  0.62586710  0.66271473  1
  O2-  O206  1  0.24932355  0.87481596  0.16759594  1
  O2-  O207  1  0.24779271  0.87479489  0.66204374  1
  O2-  O208  1  0.50020778  0.12523278  0.16446017  1
  O2-  O209  1  0.49930691  0.12473524  0.66168473  1
  O2-  O210  1  0.49935761  0.37574132  0.16419829  1
  O2-  O211  1  0.50145852  0.37521151  0.65992625  1
  O2-  O212  1  0.49998054  0.62482147  0.16809446  1
  O2-  O213  1  0.50019888  0.62555303  0.65788207  1
  O2-  O214  1  0.49929106  0.87421124  0.16315075  1
  O2-  O215  1  0.50003205  0.87461540  0.65983857  1
  O2-  O216  1  0.75328938  0.12510569  0.16265119  1
  O2-  O217  1  0.75128443  0.12491327  0.66476889  1
  O2-  O218  1  0.74918070  0.37589925  0.16275773  1
  O2-  O219  1  0.74893023  0.37523539  0.66621110  1
  O2-  O220  1  0.75200045  0.62495519  0.16552847  1
  O2-  O221  1  0.74716602  0.62494325  0.66654167  1
  O2-  O222  1  0.74929147  0.87409486  0.16293246  1
  O2-  O223  1  0.74933124  0.87489712  0.66600442  1
  O2-  O224  1  0.12544848  -0.00079109  0.34733519  1
  O2-  O225  1  0.12455012  0.00165967  0.85013231  1
  O2-  O226  1  0.12493295  0.24759489  0.34661358  1
  O2-  O227  1  0.12468801  0.24884948  0.85191469  1
  O2-  O228  1  0.12554151  0.50150538  0.34723766  1
  O2-  O229  1  0.12514608  0.50213915  0.85099275  1
  O2-  O230  1  0.12569050  0.75149482  0.34808192  1
  O2-  O231  1  0.12503074  0.74732969  0.84911280  1
  O2-  O232  1  0.37464800  0.00158602  0.34627395  1
  O2-  O233  1  0.37433003  -0.00142617  0.84614049  1
  O2-  O234  1  0.37532268  0.24599511  0.34902144  1
  O2-  O235  1  0.37422933  0.25198169  0.84570129  1
  O2-  O236  1  0.37549576  0.50283036  0.35141584  1
  O2-  O237  1  0.37457731  0.49992125  0.84238381  1
  O2-  O238  1  0.37486982  0.74977605  0.34919498  1
  O2-  O239  1  0.37462616  0.74934410  0.84204321  1
  O2-  O240  1  0.62493900  0.00054056  0.34307506  1
  O2-  O241  1  0.62463157  -0.00151410  0.84776162  1
  O2-  O242  1  0.62521550  0.24886414  0.34456286  1
  O2-  O243  1  0.62457592  0.25183912  0.84737991  1
  O2-  O244  1  0.62443362  0.50120537  0.35055989  1
  O2-  O245  1  0.62458499  0.49973641  0.84462207  1
  O2-  O246  1  0.62427173  0.74944598  0.34977590  1
  O2-  O247  1  0.62446088  0.74994865  0.84498554  1
  O2-  O248  1  0.87517471  0.00342085  0.34810618  1
  O2-  O249  1  0.87579104  0.00280153  0.84867718  1
  O2-  O250  1  0.87487525  0.24661326  0.34791759  1
  O2-  O251  1  0.87565251  0.24762834  0.84982177  1
  O2-  O252  1  0.87476940  0.49916131  0.34943272  1
  O2-  O253  1  0.87488503  0.50259284  0.85043972  1
  O2-  O254  1  0.87502012  0.75053161  0.34946238  1
  O2-  O255  1  0.87510800  0.74685057  0.84982585  1
  O2-  O256  1  -0.00115521  0.12412960  0.34869885  1
  O2-  O257  1  0.00017957  0.12472275  0.85344477  1
  O2-  O258  1  -0.00032138  0.37420769  0.34979077  1
  O2-  O259  1  0.00123405  0.37518147  0.85202151  1
  O2-  O260  1  0.00136355  0.62577823  0.34531780  1
  O2-  O261  1  0.00015667  0.62504478  0.85654061  1
  O2-  O262  1  0.00287289  0.87582208  0.35107897  1
  O2-  O263  1  0.00094832  0.87489668  0.85117802  1
  O2-  O264  1  0.25149674  0.12404810  0.34930101  1
  O2-  O265  1  0.24689134  0.12482459  0.84922189  1
  O2-  O266  1  0.25007307  0.37434401  0.35051982  1
  O2-  O267  1  0.25054009  0.37554155  0.84755412  1
  O2-  O268  1  0.25154556  0.62592477  0.34766593  1
  O2-  O269  1  0.24932321  0.62524137  0.84714256  1
  O2-  O270  1  0.24945226  0.87523402  0.34946681  1
  O2-  O271  1  0.25099999  0.87447823  0.84542376  1
  O2-  O272  1  0.49958701  0.12431125  0.34779424  1
  O2-  O273  1  0.49992350  0.12527475  0.84646470  1
  O2-  O274  1  0.50224501  0.37463669  0.34707648  1
  O2-  O275  1  0.49948948  0.37563325  0.84083169  1
  O2-  O276  1  0.49995522  0.62591142  0.35217123  1
  O2-  O277  1  0.49919900  0.62483337  0.84082588  1
  O2-  O278  1  0.49976204  0.87525248  0.34492859  1
  O2-  O279  1  0.49954841  0.87437537  0.84119654  1
  O2-  O280  1  0.75042071  0.12467356  0.34630568  1
  O2-  O281  1  0.75220748  0.12507748  0.84962107  1
  O2-  O282  1  0.74835183  0.37457508  0.34516820  1
  O2-  O283  1  0.74785310  0.37546140  0.84880322  1
  O2-  O284  1  0.74711029  0.62526868  0.34849324  1
  O2-  O285  1  0.75071991  0.62499564  0.85178197  1
  O2-  O286  1  0.74801364  0.87546479  0.34545397  1
  O2-  O287  1  0.74790875  0.87445840  0.84848934  1
