# generated using pymatgen
data_BaYFeCuO5
_symmetry_space_group_name_H-M   'P 1'
_cell_length_a   15.65018726
_cell_length_b   15.64999374
_cell_length_c   15.44246307
_cell_angle_alpha   90.00634735
_cell_angle_beta   89.99471617
_cell_angle_gamma   89.99877087
_symmetry_Int_Tables_number   1
_chemical_formula_structural   BaYFeCuO5
_chemical_formula_sum   'Ba32 Y32 Fe32 Cu32 O160'
_cell_volume   3782.25036460
_cell_formula_units_Z   32
loop_
 _symmetry_equiv_pos_site_id
 _symmetry_equiv_pos_as_xyz
  1  'x, y, z'
loop_
 _atom_type_symbol
 _atom_type_oxidation_number
  Ba2+  2.0
  Y3+  3.0
  Fe3+  3.0
  Cu2+  2.0
  O2-  -2.0
loop_
 _atom_site_type_symbol
 _atom_site_label
 _atom_site_symmetry_multiplicity
 _atom_site_fract_x
 _atom_site_fract_y
 _atom_site_fract_z
 _atom_site_occupancy
  Ba2+  Ba0  1  -0.00729812  -0.00533638  0.01146016  1
  Ba2+  Ba1  1  -0.00155970  -0.00233390  0.51687734  1
  Ba2+  Ba2  1  -0.00526678  0.24264010  0.00643036  1
  Ba2+  Ba3  1  -0.00369628  0.23838387  0.51135362  1
  Ba2+  Ba4  1  -0.00384402  0.50572604  0.00124476  1
  Ba2+  Ba5  1  -0.00171126  0.51329551  0.50670799  1
  Ba2+  Ba6  1  -0.00586172  0.75751346  0.00768561  1
  Ba2+  Ba7  1  -0.00087719  0.75054053  0.51239267  1
  Ba2+  Ba8  1  0.25359597  -0.00517135  0.01187538  1
  Ba2+  Ba9  1  0.24554453  0.00326267  0.51179896  1
  Ba2+  Ba10  1  0.25885612  0.24894914  0.01708954  1
  Ba2+  Ba11  1  0.25674704  0.24359023  0.51390467  1
  Ba2+  Ba12  1  0.25980955  0.50111978  0.01862898  1
  Ba2+  Ba13  1  0.24764918  0.50242122  0.51059027  1
  Ba2+  Ba14  1  0.25399713  0.75415657  0.01209573  1
  Ba2+  Ba15  1  0.23739422  0.75166812  0.50646840  1
  Ba2+  Ba16  1  0.49727628  0.00276282  0.01333012  1
  Ba2+  Ba17  1  0.50502110  0.00420294  0.51111391  1
  Ba2+  Ba18  1  0.49628125  0.24603326  0.02093657  1
  Ba2+  Ba19  1  0.49964672  0.24747001  0.51885372  1
  Ba2+  Ba20  1  0.49860397  0.50652008  0.01765646  1
  Ba2+  Ba21  1  0.50745410  0.49749541  0.51650477  1
  Ba2+  Ba22  1  0.49977551  0.74433670  0.00734786  1
  Ba2+  Ba23  1  0.51292582  0.75140022  0.50632066  1
  Ba2+  Ba24  1  0.75802849  0.00104554  0.01103392  1
  Ba2+  Ba25  1  0.75026717  -0.00145312  0.51678819  1
  Ba2+  Ba26  1  0.75026906  0.23909389  0.01150629  1
  Ba2+  Ba27  1  0.74730165  0.24342330  0.51723213  1
  Ba2+  Ba28  1  0.74578833  0.51079746  0.00173867  1
  Ba2+  Ba29  1  0.74717160  0.50978803  0.51097458  1
  Ba2+  Ba30  1  0.75380476  0.74845383  0.00086247  1
  Ba2+  Ba31  1  0.74985734  0.74956959  0.51241940  1
  Y3+  Y32  1  -0.00219594  -0.00205695  0.25683450  1
  Y3+  Y33  1  -0.00286608  -0.00103559  0.75741320  1
  Y3+  Y34  1  -0.00276706  0.24759346  0.25702853  1
  Y3+  Y35  1  -0.00198018  0.24631156  0.75732777  1
  Y3+  Y36  1  -0.00056000  0.50274103  0.26118576  1
  Y3+  Y37  1  -0.00088184  0.50318554  0.75476244  1
  Y3+  Y38  1  0.00010979  0.75190444  0.26121846  1
  Y3+  Y39  1  -0.00235492  0.75127907  0.75526390  1
  Y3+  Y40  1  0.24963335  -0.00118249  0.26063837  1
  Y3+  Y41  1  0.24911359  -0.00056171  0.75320825  1
  Y3+  Y42  1  0.25267240  0.24865807  0.25828683  1
  Y3+  Y43  1  0.25143183  0.24873124  0.75270161  1
  Y3+  Y44  1  0.25061470  0.50152043  0.25927611  1
  Y3+  Y45  1  0.24994093  0.49993218  0.75309180  1
  Y3+  Y46  1  0.24722709  0.75141239  0.26139041  1
  Y3+  Y47  1  0.24783012  0.75147127  0.75351786  1
  Y3+  Y48  1  0.50117477  0.00068347  0.26017630  1
  Y3+  Y49  1  0.50050914  -0.00116196  0.75396241  1
  Y3+  Y50  1  0.49890340  0.24758223  0.25703930  1
  Y3+  Y51  1  0.49973775  0.25004606  0.75263276  1
  Y3+  Y52  1  0.50155683  0.50264274  0.25691680  1
  Y3+  Y53  1  0.50279411  0.50058757  0.75564317  1
  Y3+  Y54  1  0.50449816  0.74924427  0.25952197  1
  Y3+  Y55  1  0.50336721  0.75027332  0.75637666  1
  Y3+  Y56  1  0.75207820  -0.00004692  0.25642581  1
  Y3+  Y57  1  0.75244407  -0.00150978  0.75814684  1
  Y3+  Y58  1  0.75165140  0.24657515  0.25597910  1
  Y3+  Y59  1  0.75052395  0.24748590  0.75758229  1
  Y3+  Y60  1  0.74877995  0.50401652  0.25939555  1
  Y3+  Y61  1  0.74831563  0.50419357  0.75628910  1
  Y3+  Y62  1  0.74913952  0.74970435  0.26022835  1
  Y3+  Y63  1  0.75045790  0.74972057  0.75680523  1
  Fe3+  Fe64  1  0.87386288  0.37463843  0.38088343  1
  Fe3+  Fe65  1  0.62372510  0.12455584  0.87641307  1
  Fe3+  Fe66  1  0.87384807  0.37517946  0.87950607  1
  Fe3+  Fe67  1  0.37644444  0.37488869  0.37744116  1
  Fe3+  Fe68  1  0.62580117  0.37395488  0.37641440  1
  Fe3+  Fe69  1  0.37434616  0.62551049  0.87352355  1
  Fe3+  Fe70  1  0.37555165  0.37502402  0.87498126  1
  Fe3+  Fe71  1  0.12587716  0.12433711  0.87936680  1
  Fe3+  Fe72  1  0.87412353  0.87561241  0.37776896  1
  Fe3+  Fe73  1  0.12598157  0.62544383  0.87932246  1
  Fe3+  Fe74  1  0.62616253  0.12509232  0.37519549  1
  Fe3+  Fe75  1  0.12615792  0.37468128  0.87986956  1
  Fe3+  Fe76  1  0.62415254  0.87546627  0.87970464  1
  Fe3+  Fe77  1  0.12416146  0.12476780  0.37549731  1
  Fe3+  Fe78  1  0.62376990  0.37454625  0.87972289  1
  Fe3+  Fe79  1  0.37492736  0.12415333  0.87415482  1
  Fe3+  Fe80  1  0.37588307  0.87552909  0.38135646  1
  Fe3+  Fe81  1  0.12547048  0.87517432  0.87667846  1
  Fe3+  Fe82  1  0.12411068  0.37384445  0.37948650  1
  Fe3+  Fe83  1  0.37592735  0.62568315  0.38030034  1
  Fe3+  Fe84  1  0.12450450  0.37543481  0.13391827  1
  Fe3+  Fe85  1  0.87502835  0.62599299  0.13928421  1
  Fe3+  Fe86  1  0.87454077  0.37653435  0.13437196  1
  Fe3+  Fe87  1  0.12481385  0.62645013  0.13529454  1
  Fe3+  Fe88  1  0.62637007  0.87484274  0.13524368  1
  Fe3+  Fe89  1  0.37618246  0.87391700  0.14135980  1
  Fe3+  Fe90  1  0.12526669  0.12338161  0.13443695  1
  Fe3+  Fe91  1  0.12311025  0.37403419  0.63402856  1
  Fe3+  Fe92  1  0.62569925  0.37515950  0.13393377  1
  Fe3+  Fe93  1  0.87418117  0.37565757  0.63549473  1
  Fe3+  Fe94  1  0.37551496  0.62597625  0.63342806  1
  Fe3+  Fe95  1  0.37539950  0.87436051  0.63409104  1
  Cu2+  Cu96  1  0.37496452  0.87483843  0.86069807  1
  Cu2+  Cu97  1  0.12367905  0.87654024  0.37305676  1
  Cu2+  Cu98  1  0.87431408  0.62615884  0.37305513  1
  Cu2+  Cu99  1  0.62504174  0.62464351  0.37228526  1
  Cu2+  Cu100  1  0.37559322  0.12483617  0.37330836  1
  Cu2+  Cu101  1  0.87482327  0.12437319  0.87160429  1
  Cu2+  Cu102  1  0.62633176  0.87629003  0.37238232  1
  Cu2+  Cu103  1  0.62348728  0.62524331  0.87200942  1
  Cu2+  Cu104  1  0.87458366  0.12423773  0.37248077  1
  Cu2+  Cu105  1  0.87460457  0.87488061  0.87125544  1
  Cu2+  Cu106  1  0.87579642  0.62493204  0.86199147  1
  Cu2+  Cu107  1  0.12481655  0.62516620  0.37174916  1
  Cu2+  Cu108  1  0.62613074  0.62647281  0.14222715  1
  Cu2+  Cu109  1  0.62684181  0.37469520  0.65088146  1
  Cu2+  Cu110  1  0.62568777  0.12431915  0.65339586  1
  Cu2+  Cu111  1  0.62507452  0.62612156  0.64439427  1
  Cu2+  Cu112  1  0.12448173  0.62540580  0.64328516  1
  Cu2+  Cu113  1  0.37418228  0.12301393  0.15470052  1
  Cu2+  Cu114  1  0.87428473  0.12398714  0.64243502  1
  Cu2+  Cu115  1  0.87439472  0.87340290  0.14482259  1
  Cu2+  Cu116  1  0.87604107  0.12435969  0.14267993  1
  Cu2+  Cu117  1  0.87445822  0.62585619  0.64344203  1
  Cu2+  Cu118  1  0.12384705  0.87535622  0.64159192  1
  Cu2+  Cu119  1  0.62525228  0.12394122  0.14923005  1
  Cu2+  Cu120  1  0.12471297  0.87470013  0.15045696  1
  Cu2+  Cu121  1  0.87437576  0.87465366  0.65139793  1
  Cu2+  Cu122  1  0.37467229  0.62708205  0.15664330  1
  Cu2+  Cu123  1  0.12394756  0.12502572  0.65212472  1
  Cu2+  Cu124  1  0.37555627  0.37552572  0.15290874  1
  Cu2+  Cu125  1  0.37548963  0.12336784  0.64083432  1
  Cu2+  Cu126  1  0.37524856  0.37576990  0.64545098  1
  Cu2+  Cu127  1  0.62569967  0.87508039  0.64238084  1
  O2-  O128  1  0.12732195  0.12427628  0.00572543  1
  O2-  O129  1  0.12458040  0.12674264  0.49652809  1
  O2-  O130  1  0.12695428  0.37614851  0.00667879  1
  O2-  O131  1  0.12280943  0.37332746  0.50635081  1
  O2-  O132  1  0.12671052  0.62500917  0.00710185  1
  O2-  O133  1  0.12548228  0.62357579  0.50741421  1
  O2-  O134  1  0.12742983  0.87441842  -0.00279883  1
  O2-  O135  1  0.12358502  0.87679770  0.50735964  1
  O2-  O136  1  0.37444974  0.12473904  -0.00505564  1
  O2-  O137  1  0.37567690  0.12480789  0.50677495  1
  O2-  O138  1  0.37496314  0.37522532  -0.00443813  1
  O2-  O139  1  0.37619970  0.37480970  0.49777351  1
  O2-  O140  1  0.37343726  0.62508007  -0.00548914  1
  O2-  O141  1  0.37556862  0.62474604  0.50650015  1
  O2-  O142  1  0.37610473  0.87379316  0.01998163  1
  O2-  O143  1  0.37551576  0.87526705  0.50776696  1
  O2-  O144  1  0.62127820  0.12543101  -0.00307125  1
  O2-  O145  1  0.62579344  0.12645357  0.49632974  1
  O2-  O146  1  0.62339427  0.37493481  0.00622702  1
  O2-  O147  1  0.62603060  0.37235165  0.49682448  1
  O2-  O148  1  0.62319429  0.62517069  0.00725171  1
  O2-  O149  1  0.62444635  0.62420310  0.50784432  1
  O2-  O150  1  0.62337212  0.87516793  0.00745447  1
  O2-  O151  1  0.62625346  0.87667267  0.50819288  1
  O2-  O152  1  0.87614070  0.12557622  0.00716544  1
  O2-  O153  1  0.87394674  0.12443143  0.50807313  1
  O2-  O154  1  0.87480607  0.37627884  0.00757947  1
  O2-  O155  1  0.87456842  0.37466996  0.50798110  1
  O2-  O156  1  0.87604151  0.62431292  0.01804612  1
  O2-  O157  1  0.87424384  0.62581332  0.50880925  1
  O2-  O158  1  0.87376765  0.87406355  0.00650790  1
  O2-  O159  1  0.87437645  0.87575472  0.49895829  1
  O2-  O160  1  0.12584912  0.00089843  0.16047034  1
  O2-  O161  1  0.12428443  0.00165408  0.66535687  1
  O2-  O162  1  0.12527446  0.25089915  0.15818624  1
  O2-  O163  1  0.12352371  0.25164092  0.66547826  1
  O2-  O164  1  0.12609625  0.50007765  0.16285175  1
  O2-  O165  1  0.12427607  0.49629898  0.66528931  1
  O2-  O166  1  0.12523105  0.74817706  0.16422031  1
  O2-  O167  1  0.12461771  0.75029063  0.66624292  1
  O2-  O168  1  0.37452769  -0.00154681  0.16769104  1
  O2-  O169  1  0.37493624  -0.00309417  0.66358262  1
  O2-  O170  1  0.37421105  0.24878629  0.16171358  1
  O2-  O171  1  0.37501066  0.25103219  0.66290212  1
  O2-  O172  1  0.37418700  0.50166944  0.16448206  1
  O2-  O173  1  0.37444987  0.50162672  0.66094771  1
  O2-  O174  1  0.37486799  0.75107733  0.17155727  1
  O2-  O175  1  0.37441504  0.74979310  0.66241721  1
  O2-  O176  1  0.62486307  -0.00119812  0.16176130  1
  O2-  O177  1  0.62525439  0.00165405  0.66580855  1
  O2-  O178  1  0.62523170  0.25108837  0.15949437  1
  O2-  O179  1  0.62584731  0.24854996  0.66464229  1
  O2-  O180  1  0.62508172  0.49743051  0.16351416  1
  O2-  O181  1  0.62554237  0.49931132  0.66614998  1
  O2-  O182  1  0.62459538  0.75276331  0.16608690  1
  O2-  O183  1  0.62517265  0.75017923  0.66802355  1
  O2-  O184  1  0.87556477  -0.00097976  0.16336347  1
  O2-  O185  1  0.87468098  -0.00214576  0.66552869  1
  O2-  O186  1  0.87634527  0.25386821  0.16361826  1
  O2-  O187  1  0.87522370  0.25282807  0.66511564  1
  O2-  O188  1  0.87582663  0.49905897  0.16807089  1
  O2-  O189  1  0.87520595  0.49727872  0.66577556  1
  O2-  O190  1  0.87628293  0.74806271  0.16794089  1
  O2-  O191  1  0.87462177  0.75193418  0.66592787  1
  O2-  O192  1  0.00361139  0.12614177  0.16317718  1
  O2-  O193  1  0.00037532  0.12555840  0.66783337  1
  O2-  O194  1  0.00055927  0.37610732  0.16299165  1
  O2-  O195  1  -0.00056989  0.37459064  0.66687595  1
  O2-  O196  1  0.00180128  0.62324386  0.16534159  1
  O2-  O197  1  -0.00009111  0.62463033  0.66784290  1
  O2-  O198  1  0.00102006  0.87453458  0.16431117  1
  O2-  O199  1  -0.00251730  0.87518561  0.66568408  1
  O2-  O200  1  0.24795498  0.12538026  0.16346661  1
  O2-  O201  1  0.24837190  0.12555980  0.66360450  1
  O2-  O202  1  0.24852459  0.37550513  0.16418553  1
  O2-  O203  1  0.24710608  0.37454127  0.66073869  1
  O2-  O204  1  0.24805766  0.62514168  0.16483723  1
  O2-  O205  1  0.25262956  0.62421889  0.66262134  1
  O2-  O206  1  0.25030144  0.87428103  0.16802926  1
  O2-  O207  1  0.25235562  0.87483785  0.66227418  1
  O2-  O208  1  0.49913317  0.12441261  0.16344872  1
  O2-  O209  1  0.50238149  0.12471310  0.66267094  1
  O2-  O210  1  0.50137584  0.37512167  0.16102550  1
  O2-  O211  1  0.50158403  0.37515000  0.66271440  1
  O2-  O212  1  0.49899757  0.62551376  0.16508153  1
  O2-  O213  1  0.49737750  0.62486382  0.66302742  1
  O2-  O214  1  0.50203355  0.87544469  0.16745730  1
  O2-  O215  1  0.49749085  0.87438836  0.66465262  1
  O2-  O216  1  0.74989492  0.12599343  0.16244115  1
  O2-  O217  1  0.74841742  0.12512625  0.66726241  1
  O2-  O218  1  0.75038549  0.37489683  0.16083726  1
  O2-  O219  1  0.75193261  0.37450938  0.66732608  1
  O2-  O220  1  0.75204796  0.62428788  0.16719123  1
  O2-  O221  1  0.74945356  0.62512368  0.66706098  1
  O2-  O222  1  0.74771045  0.87481807  0.16349314  1
  O2-  O223  1  0.75172369  0.87515911  0.66741011  1
  O2-  O224  1  0.12483182  0.00208825  0.34445309  1
  O2-  O225  1  0.12614082  0.00128514  0.84884367  1
  O2-  O226  1  0.12451563  0.25183248  0.34276970  1
  O2-  O227  1  0.12503621  0.25043562  0.85118002  1
  O2-  O228  1  0.12481399  0.49603751  0.34826914  1
  O2-  O229  1  0.12498595  0.49946573  0.85067412  1
  O2-  O230  1  0.12539551  0.75054230  0.34922037  1
  O2-  O231  1  0.12577379  0.74839938  0.84945265  1
  O2-  O232  1  0.37517925  -0.00260781  0.35042081  1
  O2-  O233  1  0.37407791  0.00024111  0.84675400  1
  O2-  O234  1  0.37468931  0.25216807  0.34522544  1
  O2-  O235  1  0.37404087  0.25008768  0.84404630  1
  O2-  O236  1  0.37470724  0.50082464  0.34821288  1
  O2-  O237  1  0.37374989  0.49939473  0.84269938  1
  O2-  O238  1  0.37472961  0.75007746  0.35451441  1
  O2-  O239  1  0.37364436  0.74969278  0.84581813  1
  O2-  O240  1  0.62518145  0.00189199  0.34519082  1
  O2-  O241  1  0.62357220  -0.00079566  0.84885882  1
  O2-  O242  1  0.62569953  0.25047799  0.34090802  1
  O2-  O243  1  0.62467778  0.25107128  0.84786994  1
  O2-  O244  1  0.62505969  0.49774132  0.34645527  1
  O2-  O245  1  0.62451375  0.49705389  0.85023380  1
  O2-  O246  1  0.62522108  0.75011721  0.35011944  1
  O2-  O247  1  0.62379270  0.75241132  0.85201463  1
  O2-  O248  1  0.87515774  -0.00126876  0.34578439  1
  O2-  O249  1  0.87514944  0.00004205  0.84893982  1
  O2-  O250  1  0.87554324  0.25286603  0.34806230  1
  O2-  O251  1  0.87556698  0.25334352  0.84945285  1
  O2-  O252  1  0.87578179  0.49720600  0.35136397  1
  O2-  O253  1  0.87593645  0.49793513  0.85016672  1
  O2-  O254  1  0.87472146  0.75190252  0.34887795  1
  O2-  O255  1  0.87558601  0.74821181  0.84987465  1
  O2-  O256  1  0.00093480  0.12675207  0.34573919  1
  O2-  O257  1  0.00320154  0.12614898  0.85174324  1
  O2-  O258  1  -0.00026490  0.37456662  0.34943738  1
  O2-  O259  1  0.00094032  0.37524928  0.85425497  1
  O2-  O260  1  0.00000189  0.62424752  0.34806645  1
  O2-  O261  1  0.00262999  0.62315493  0.85226803  1
  O2-  O262  1  -0.00208073  0.87543228  0.34724876  1
  O2-  O263  1  0.00221056  0.87480129  0.84850514  1
  O2-  O264  1  0.24814866  0.12603374  0.34655962  1
  O2-  O265  1  0.24905431  0.12579248  0.84601179  1
  O2-  O266  1  0.24891311  0.37516864  0.34914920  1
  O2-  O267  1  0.24876267  0.37493870  0.84505090  1
  O2-  O268  1  0.25306805  0.62419066  0.34964386  1
  O2-  O269  1  0.24818439  0.62394698  0.84490633  1
  O2-  O270  1  0.25244343  0.87505316  0.35179105  1
  O2-  O271  1  0.24912140  0.87477614  0.84516165  1
  O2-  O272  1  0.50217664  0.12563487  0.34669278  1
  O2-  O273  1  0.49925522  0.12514050  0.84338922  1
  O2-  O274  1  0.50037587  0.37528536  0.34367158  1
  O2-  O275  1  0.50049565  0.37471419  0.84602854  1
  O2-  O276  1  0.49750951  0.62494948  0.34902361  1
  O2-  O277  1  0.49741596  0.62480084  0.84484678  1
  O2-  O278  1  0.49813218  0.87455527  0.35083120  1
  O2-  O279  1  0.50092294  0.87483849  0.84909333  1
  O2-  O280  1  0.74910225  0.12598281  0.34514024  1
  O2-  O281  1  0.74788337  0.12568683  0.84989342  1
  O2-  O282  1  0.75129353  0.37490883  0.34518993  1
  O2-  O283  1  0.74931937  0.37508010  0.85337412  1
  O2-  O284  1  0.74973932  0.62406564  0.34927119  1
  O2-  O285  1  0.75121527  0.62398696  0.85141833  1
  O2-  O286  1  0.75148500  0.87564652  0.34563770  1
  O2-  O287  1  0.74679693  0.87489120  0.85163150  1
