# generated using pymatgen
data_BaYFeCuO5
_symmetry_space_group_name_H-M   'P 1'
_cell_length_a   15.69614345
_cell_length_b   15.69298974
_cell_length_c   15.57962654
_cell_angle_alpha   90.01596453
_cell_angle_beta   90.00140829
_cell_angle_gamma   89.99515291
_symmetry_Int_Tables_number   1
_chemical_formula_structural   BaYFeCuO5
_chemical_formula_sum   'Ba32 Y32 Fe32 Cu32 O160'
_cell_volume   3837.56438011
_cell_formula_units_Z   32
loop_
 _symmetry_equiv_pos_site_id
 _symmetry_equiv_pos_as_xyz
  1  'x, y, z'
loop_
 _atom_type_symbol
 _atom_type_oxidation_number
  Ba2+  2.0
  Y3+  3.0
  Fe3+  3.0
  Cu2+  2.0
  O2-  -2.0
loop_
 _atom_site_type_symbol
 _atom_site_label
 _atom_site_symmetry_multiplicity
 _atom_site_fract_x
 _atom_site_fract_y
 _atom_site_fract_z
 _atom_site_occupancy
  Ba2+  Ba0  1  -0.00794546  -0.00527615  0.02400554  1
  Ba2+  Ba1  1  -0.00120364  -0.00403954  0.51071683  1
  Ba2+  Ba2  1  -0.00760350  0.25459552  0.00001658  1
  Ba2+  Ba3  1  0.00643733  0.24582968  0.51092100  1
  Ba2+  Ba4  1  -0.00023672  0.50248746  -0.00951478  1
  Ba2+  Ba5  1  0.00668169  0.50533126  0.52209886  1
  Ba2+  Ba6  1  -0.00020955  0.74671397  0.01195972  1
  Ba2+  Ba7  1  0.00059823  0.75253058  0.52111686  1
  Ba2+  Ba8  1  0.24420619  -0.00485754  0.01075378  1
  Ba2+  Ba9  1  0.25162862  -0.00169588  0.52188552  1
  Ba2+  Ba10  1  0.25134213  0.26109383  0.00263651  1
  Ba2+  Ba11  1  0.25192945  0.25038173  0.50574027  1
  Ba2+  Ba12  1  0.24970200  0.50128659  0.00744708  1
  Ba2+  Ba13  1  0.25090723  0.50152199  0.52098869  1
  Ba2+  Ba14  1  0.24314633  0.74249449  0.01334730  1
  Ba2+  Ba15  1  0.25033621  0.74974205  0.52865851  1
  Ba2+  Ba16  1  0.51176159  0.00032961  0.01755955  1
  Ba2+  Ba17  1  0.49898757  0.00009406  0.50645536  1
  Ba2+  Ba18  1  0.50590987  0.25939774  0.01072942  1
  Ba2+  Ba19  1  0.49846450  0.25174783  0.49173131  1
  Ba2+  Ba20  1  0.50172707  0.49659542  0.01710395  1
  Ba2+  Ba21  1  0.49713603  0.50005654  0.50540804  1
  Ba2+  Ba22  1  0.50673712  0.74399397  0.02082529  1
  Ba2+  Ba23  1  0.49725556  0.74812513  0.51827362  1
  Ba2+  Ba24  1  0.75165728  0.00018607  0.03031867  1
  Ba2+  Ba25  1  0.75180323  -0.00348514  0.50178980  1
  Ba2+  Ba26  1  0.74724996  0.25151627  0.01450248  1
  Ba2+  Ba27  1  0.74436162  0.24627699  0.50118255  1
  Ba2+  Ba28  1  0.74903053  0.49790558  -0.00155730  1
  Ba2+  Ba29  1  0.74484531  0.50574020  0.51280215  1
  Ba2+  Ba30  1  0.75127257  0.75058468  0.01985846  1
  Ba2+  Ba31  1  0.75242925  0.75240742  0.51052120  1
  Y3+  Y32  1  -0.00121497  -0.00188740  0.26033281  1
  Y3+  Y33  1  -0.00276398  -0.00117058  0.75199634  1
  Y3+  Y34  1  0.00005229  0.24883936  0.25936806  1
  Y3+  Y35  1  -0.00080704  0.25125275  0.75672118  1
  Y3+  Y36  1  0.00162193  0.50202549  0.25780594  1
  Y3+  Y37  1  0.00098580  0.50184719  0.75785416  1
  Y3+  Y38  1  0.00031875  0.75126145  0.25615138  1
  Y3+  Y39  1  -0.00093020  0.74852048  0.75672967  1
  Y3+  Y40  1  0.24808492  -0.00024829  0.25365371  1
  Y3+  Y41  1  0.25114641  -0.00050149  0.75961044  1
  Y3+  Y42  1  0.25129188  0.25266718  0.25485900  1
  Y3+  Y43  1  0.25068199  0.25315983  0.76125104  1
  Y3+  Y44  1  0.25183275  0.50045090  0.25169520  1
  Y3+  Y45  1  0.24853920  0.49957656  0.76286439  1
  Y3+  Y46  1  0.24797752  0.74711437  0.24937617  1
  Y3+  Y47  1  0.24865560  0.74812049  0.76068552  1
  Y3+  Y48  1  0.50348565  -0.00027346  0.25808536  1
  Y3+  Y49  1  0.49932590  0.00045401  0.75654400  1
  Y3+  Y50  1  0.50147215  0.25373129  0.25389737  1
  Y3+  Y51  1  0.49993922  0.25249476  0.76348538  1
  Y3+  Y52  1  0.49934233  0.49791664  0.25425016  1
  Y3+  Y53  1  0.50032099  0.49897429  0.76109906  1
  Y3+  Y54  1  0.50118541  0.74816298  0.25563708  1
  Y3+  Y55  1  0.49988043  0.74840612  0.75584640  1
  Y3+  Y56  1  0.74944640  -0.00178278  0.26328630  1
  Y3+  Y57  1  0.75212475  -0.00010744  0.74997360  1
  Y3+  Y58  1  0.74687674  0.24984726  0.25835779  1
  Y3+  Y59  1  0.75025321  0.25158489  0.75835006  1
  Y3+  Y60  1  0.74709580  0.49913371  0.25878654  1
  Y3+  Y61  1  0.75072946  0.50067916  0.75635303  1
  Y3+  Y62  1  0.75025801  0.75204536  0.26092742  1
  Y3+  Y63  1  0.75245819  0.74836196  0.75210955  1
  Fe3+  Fe64  1  0.12682817  0.62590865  0.37610733  1
  Fe3+  Fe65  1  0.37282681  0.62535415  0.37366278  1
  Fe3+  Fe66  1  0.87573082  0.37644453  0.38283929  1
  Fe3+  Fe67  1  0.12294015  0.12433960  0.88074843  1
  Fe3+  Fe68  1  0.87581332  0.12542683  0.37789237  1
  Fe3+  Fe69  1  0.12639111  0.37647355  0.37834219  1
  Fe3+  Fe70  1  0.12755039  0.87381895  0.37499407  1
  Fe3+  Fe71  1  0.62353291  0.62537334  0.37626477  1
  Fe3+  Fe72  1  0.87309209  0.87520355  0.87462054  1
  Fe3+  Fe73  1  0.62627868  0.62642455  0.87507942  1
  Fe3+  Fe74  1  0.62737244  0.12351653  0.87710674  1
  Fe3+  Fe75  1  0.37326934  0.87296844  0.37284123  1
  Fe3+  Fe76  1  0.37612765  0.12462991  0.88267945  1
  Fe3+  Fe77  1  0.87352072  0.12283172  0.87559686  1
  Fe3+  Fe78  1  0.87687722  0.62503811  0.37941224  1
  Fe3+  Fe79  1  0.37352575  0.12383504  0.37226458  1
  Fe3+  Fe80  1  0.62752869  0.87513525  0.87546305  1
  Fe3+  Fe81  1  0.37617616  0.62532898  0.87859920  1
  Fe3+  Fe82  1  0.12238127  0.87546961  0.87666974  1
  Fe3+  Fe83  1  0.37683983  0.87403830  0.88088165  1
  Fe3+  Fe84  1  0.37540724  0.87442200  0.13217139  1
  Fe3+  Fe85  1  0.37564287  0.37418146  0.64145715  1
  Fe3+  Fe86  1  0.12330829  0.12651286  0.13356202  1
  Fe3+  Fe87  1  0.12242640  0.37568900  0.13686403  1
  Fe3+  Fe88  1  0.62357032  0.37464471  0.63812696  1
  Fe3+  Fe89  1  0.87524534  0.37441104  0.63475886  1
  Fe3+  Fe90  1  0.87435122  0.62306948  0.13892638  1
  Fe3+  Fe91  1  0.62425151  0.87484128  0.63551667  1
  Fe3+  Fe92  1  0.37558713  0.12551740  0.13273039  1
  Fe3+  Fe93  1  0.12637228  0.12542082  0.64058137  1
  Fe3+  Fe94  1  0.87511311  0.37589984  0.14026861  1
  Fe3+  Fe95  1  0.62327654  0.12686548  0.63661052  1
  Cu2+  Cu96  1  0.12429094  0.62614384  0.87232623  1
  Cu2+  Cu97  1  0.12667314  0.12450076  0.35998455  1
  Cu2+  Cu98  1  0.87446614  0.37510415  0.85908311  1
  Cu2+  Cu99  1  0.12400201  0.37464887  0.86313663  1
  Cu2+  Cu100  1  0.87410412  0.62619572  0.85997798  1
  Cu2+  Cu101  1  0.62608092  0.37560821  0.87306467  1
  Cu2+  Cu102  1  0.62384724  0.12497086  0.36218028  1
  Cu2+  Cu103  1  0.37404344  0.37624342  0.35900493  1
  Cu2+  Cu104  1  0.37628264  0.37655793  0.87581738  1
  Cu2+  Cu105  1  0.62481878  0.37639586  0.36335136  1
  Cu2+  Cu106  1  0.87649560  0.87327557  0.37349264  1
  Cu2+  Cu107  1  0.62315846  0.87328471  0.36515002  1
  Cu2+  Cu108  1  0.62714085  0.37587724  0.14404017  1
  Cu2+  Cu109  1  0.12414350  0.87501795  0.14879349  1
  Cu2+  Cu110  1  0.37556317  0.87486959  0.65666097  1
  Cu2+  Cu111  1  0.37573004  0.62474700  0.14552848  1
  Cu2+  Cu112  1  0.12234819  0.62307431  0.13976922  1
  Cu2+  Cu113  1  0.87492719  0.12582442  0.15710140  1
  Cu2+  Cu114  1  0.37472412  0.37474263  0.14088223  1
  Cu2+  Cu115  1  0.12560042  0.37463100  0.65439494  1
  Cu2+  Cu116  1  0.87533783  0.62404528  0.64881622  1
  Cu2+  Cu117  1  0.62418954  0.62400199  0.65088605  1
  Cu2+  Cu118  1  0.12574016  0.87529326  0.65581987  1
  Cu2+  Cu119  1  0.87473028  0.87504885  0.63928254  1
  Cu2+  Cu120  1  0.37502524  0.62326366  0.65644408  1
  Cu2+  Cu121  1  0.62703362  0.62415896  0.15374579  1
  Cu2+  Cu122  1  0.87444230  0.87443526  0.15760233  1
  Cu2+  Cu123  1  0.12583987  0.62516859  0.65704903  1
  Cu2+  Cu124  1  0.62526222  0.87438539  0.15580304  1
  Cu2+  Cu125  1  0.87427547  0.12659185  0.64554511  1
  Cu2+  Cu126  1  0.37593420  0.12683781  0.65753631  1
  Cu2+  Cu127  1  0.62526471  0.12529365  0.15548335  1
  O2-  O128  1  0.12048347  0.12559842  0.00694497  1
  O2-  O129  1  0.12971097  0.12546815  0.52093557  1
  O2-  O130  1  0.11924979  0.37442495  0.01755500  1
  O2-  O131  1  0.12872572  0.37615501  0.49800123  1
  O2-  O132  1  0.12179623  0.62404768  0.00562850  1
  O2-  O133  1  0.12920397  0.62670438  0.49519153  1
  O2-  O134  1  0.12014295  0.87636032  -0.00388316  1
  O2-  O135  1  0.13017453  0.87409781  0.49438648  1
  O2-  O136  1  0.37750510  0.12421245  0.00721122  1
  O2-  O137  1  0.37219739  0.12286741  0.49192370  1
  O2-  O138  1  0.37597352  0.37575110  0.00822406  1
  O2-  O139  1  0.37514228  0.37332061  0.52176595  1
  O2-  O140  1  0.37759095  0.62641197  -0.00213521  1
  O2-  O141  1  0.37192419  0.62631129  0.49300156  1
  O2-  O142  1  0.37717718  0.87424037  0.00517745  1
  O2-  O143  1  0.37232244  0.87386524  0.49212429  1
  O2-  O144  1  0.62991780  0.12172901  -0.00346462  1
  O2-  O145  1  0.61978039  0.12758843  0.51695060  1
  O2-  O146  1  0.62868672  0.37579373  0.00876378  1
  O2-  O147  1  0.62121211  0.37372132  0.51894884  1
  O2-  O148  1  0.62835509  0.62686915  -0.00548426  1
  O2-  O149  1  0.62079150  0.62564916  0.49586701  1
  O2-  O150  1  0.62924093  0.87544534  -0.00526969  1
  O2-  O151  1  0.62099112  0.87467920  0.51592951  1
  O2-  O152  1  0.87301125  0.12179134  -0.00549592  1
  O2-  O153  1  0.87720797  0.12636189  0.49758172  1
  O2-  O154  1  0.87458996  0.37636411  0.02095782  1
  O2-  O155  1  0.87584789  0.37537958  0.50837659  1
  O2-  O156  1  0.87344726  0.62303214  0.01932060  1
  O2-  O157  1  0.87777882  0.62503125  0.49908189  1
  O2-  O158  1  0.87214588  0.87653417  -0.00587605  1
  O2-  O159  1  0.87637657  0.87435775  0.50590779  1
  O2-  O160  1  0.12513083  0.00197708  0.16088822  1
  O2-  O161  1  0.12708077  0.00035848  0.66767968  1
  O2-  O162  1  0.12380692  0.24875918  0.16749857  1
  O2-  O163  1  0.12561647  0.24921531  0.67127984  1
  O2-  O164  1  0.12418907  0.49800826  0.16798498  1
  O2-  O165  1  0.12538631  0.50013327  0.66505637  1
  O2-  O166  1  0.12350115  0.75093876  0.15965302  1
  O2-  O167  1  0.12604719  0.75063356  0.66495517  1
  O2-  O168  1  0.37408286  -0.00003918  0.15802690  1
  O2-  O169  1  0.37465042  0.00080367  0.66669860  1
  O2-  O170  1  0.37520831  0.24625073  0.16467394  1
  O2-  O171  1  0.37464381  0.25146600  0.67416128  1
  O2-  O172  1  0.37517000  0.50135944  0.16403692  1
  O2-  O173  1  0.37426370  0.49902399  0.66722168  1
  O2-  O174  1  0.37584667  0.75179053  0.15821234  1
  O2-  O175  1  0.37488517  0.74860090  0.66481581  1
  O2-  O176  1  0.62584648  0.00004188  0.16679037  1
  O2-  O177  1  0.62327361  0.00070427  0.66437498  1
  O2-  O178  1  0.62530660  0.24897278  0.16598127  1
  O2-  O179  1  0.62476892  0.25096477  0.67271873  1
  O2-  O180  1  0.62614600  0.50110481  0.16748425  1
  O2-  O181  1  0.62511030  0.49933861  0.66591047  1
  O2-  O182  1  0.62547499  0.74959367  0.16262124  1
  O2-  O183  1  0.62365557  0.74912870  0.66265096  1
  O2-  O184  1  0.87426743  -0.00005548  0.16660902  1
  O2-  O185  1  0.87506671  0.00182792  0.65990545  1
  O2-  O186  1  0.87567779  0.25028291  0.16886338  1
  O2-  O187  1  0.87549375  0.25257533  0.66581391  1
  O2-  O188  1  0.87413974  0.49952780  0.17377185  1
  O2-  O189  1  0.87590766  0.49789329  0.66348383  1
  O2-  O190  1  0.87440632  0.74975795  0.16445956  1
  O2-  O191  1  0.87583320  0.74810170  0.66354894  1
  O2-  O192  1  0.00132192  0.12425749  0.16534528  1
  O2-  O193  1  0.00051525  0.12555470  0.66485425  1
  O2-  O194  1  -0.00068139  0.37425903  0.17393700  1
  O2-  O195  1  -0.00067034  0.37440277  0.66161324  1
  O2-  O196  1  -0.00286876  0.62486787  0.16867811  1
  O2-  O197  1  0.00143577  0.62467538  0.66401845  1
  O2-  O198  1  -0.00069523  0.87631003  0.16510422  1
  O2-  O199  1  0.00137285  0.87586998  0.66182170  1
  O2-  O200  1  0.24907092  0.12497162  0.15452523  1
  O2-  O201  1  0.25075636  0.12510071  0.67435879  1
  O2-  O202  1  0.24740561  0.37379364  0.16180543  1
  O2-  O203  1  0.25048429  0.37489827  0.67109019  1
  O2-  O204  1  0.25024953  0.62493245  0.15690678  1
  O2-  O205  1  0.25013969  0.62490697  0.66922824  1
  O2-  O206  1  0.25144582  0.87511568  0.15444840  1
  O2-  O207  1  0.25126770  0.87561450  0.67033149  1
  O2-  O208  1  0.49890920  0.12339407  0.16147449  1
  O2-  O209  1  0.50014485  0.12551191  0.67118577  1
  O2-  O210  1  0.50068440  0.37509079  0.16368011  1
  O2-  O211  1  0.50020499  0.37540977  0.67314189  1
  O2-  O212  1  0.50184105  0.62493045  0.16145697  1
  O2-  O213  1  0.49909344  0.62438806  0.66526537  1
  O2-  O214  1  0.49882727  0.87603322  0.16071251  1
  O2-  O215  1  0.50007914  0.87474031  0.66807987  1
  O2-  O216  1  0.74994995  0.12560674  0.16913305  1
  O2-  O217  1  0.74869443  0.12628697  0.66052100  1
  O2-  O218  1  0.75226478  0.37373490  0.17283696  1
  O2-  O219  1  0.75070320  0.37538815  0.66219757  1
  O2-  O220  1  0.75090249  0.62536043  0.17136361  1
  O2-  O221  1  0.74963945  0.62406531  0.66003359  1
  O2-  O222  1  0.74947201  0.87490910  0.16977562  1
  O2-  O223  1  0.74788755  0.87467127  0.66056750  1
  O2-  O224  1  0.12631850  -0.00037076  0.34374229  1
  O2-  O225  1  0.12516731  0.00135108  0.84803825  1
  O2-  O226  1  0.12650220  0.25044151  0.34972524  1
  O2-  O227  1  0.12445506  0.24778198  0.85380751  1
  O2-  O228  1  0.12487315  0.50051168  0.34646413  1
  O2-  O229  1  0.12367976  0.49868865  0.84898142  1
  O2-  O230  1  0.12629367  0.74931796  0.33982919  1
  O2-  O231  1  0.12472166  0.75299100  0.84675915  1
  O2-  O232  1  0.37507806  -0.00115730  0.33928371  1
  O2-  O233  1  0.37527385  -0.00019560  0.85112706  1
  O2-  O234  1  0.37439350  0.25068409  0.34756170  1
  O2-  O235  1  0.37447032  0.24657973  0.85491381  1
  O2-  O236  1  0.37481156  0.50035419  0.34634252  1
  O2-  O237  1  0.37537475  0.50238994  0.84835506  1
  O2-  O238  1  0.37415837  0.74931127  0.33792660  1
  O2-  O239  1  0.37518014  0.75185217  0.84700233  1
  O2-  O240  1  0.62334093  -0.00104097  0.35100153  1
  O2-  O241  1  0.62478478  -0.00041989  0.84188668  1
  O2-  O242  1  0.62436123  0.25176869  0.34964483  1
  O2-  O243  1  0.62591804  0.24794325  0.85191576  1
  O2-  O244  1  0.62371907  0.50068558  0.34878302  1
  O2-  O245  1  0.62624413  0.50208811  0.84718096  1
  O2-  O246  1  0.62433053  0.74836061  0.34453888  1
  O2-  O247  1  0.62532782  0.75093662  0.84209969  1
  O2-  O248  1  0.87545389  0.00152935  0.34952972  1
  O2-  O249  1  0.87475233  -0.00024839  0.83908840  1
  O2-  O250  1  0.87470117  0.25194981  0.35075404  1
  O2-  O251  1  0.87538419  0.24899129  0.84837079  1
  O2-  O252  1  0.87654664  0.49890798  0.35149435  1
  O2-  O253  1  0.87509638  0.50021142  0.84837296  1
  O2-  O254  1  0.87526197  0.74730170  0.34576847  1
  O2-  O255  1  0.87482084  0.75118702  0.84523209  1
  O2-  O256  1  0.00034300  0.12584240  0.34820903  1
  O2-  O257  1  0.00028626  0.12531185  0.84662276  1
  O2-  O258  1  -0.00019037  0.37363749  0.35251397  1
  O2-  O259  1  -0.00083463  0.37430687  0.84662629  1
  O2-  O260  1  0.00153169  0.62510616  0.34654166  1
  O2-  O261  1  -0.00214017  0.62537853  0.84760934  1
  O2-  O262  1  0.00339986  0.87508205  0.34697791  1
  O2-  O263  1  -0.00141072  0.87594070  0.84253204  1
  O2-  O264  1  0.25118839  0.12510575  0.33663501  1
  O2-  O265  1  0.24954463  0.12362767  0.85849787  1
  O2-  O266  1  0.24913892  0.37493495  0.34285733  1
  O2-  O267  1  0.24864336  0.37484488  0.85356202  1
  O2-  O268  1  0.24962480  0.62444568  0.33702260  1
  O2-  O269  1  0.25162919  0.62594642  0.85140654  1
  O2-  O270  1  0.25013817  0.87501795  0.33469538  1
  O2-  O271  1  0.25151718  0.87648384  0.85360758  1
  O2-  O272  1  0.49901833  0.12546410  0.34439352  1
  O2-  O273  1  0.49971429  0.12398712  0.85183758  1
  O2-  O274  1  0.49925908  0.37495459  0.34798275  1
  O2-  O275  1  0.50085323  0.37483018  0.85221484  1
  O2-  O276  1  0.49857491  0.62468821  0.34317310  1
  O2-  O277  1  0.50067323  0.62652757  0.84574439  1
  O2-  O278  1  0.49810024  0.87422965  0.34334933  1
  O2-  O279  1  0.49951922  0.87558028  0.84913494  1
  O2-  O280  1  0.74945449  0.12532872  0.35251470  1
  O2-  O281  1  0.75027679  0.12481851  0.83934349  1
  O2-  O282  1  0.75187002  0.37581664  0.35556320  1
  O2-  O283  1  0.75144082  0.37576495  0.84418618  1
  O2-  O284  1  0.75026433  0.62366782  0.35155985  1
  O2-  O285  1  0.75000915  0.62513977  0.84261374  1
  O2-  O286  1  0.74833176  0.87465925  0.35366061  1
  O2-  O287  1  0.75031470  0.87504474  0.83819430  1
