# generated using pymatgen
data_BaYFeCuO5
_symmetry_space_group_name_H-M   'P 1'
_cell_length_a   15.66148818
_cell_length_b   15.66133276
_cell_length_c   15.45686248
_cell_angle_alpha   90.00002417
_cell_angle_beta   89.99608129
_cell_angle_gamma   89.99502234
_symmetry_Int_Tables_number   1
_chemical_formula_structural   BaYFeCuO5
_chemical_formula_sum   'Ba32 Y32 Fe32 Cu32 O160'
_cell_volume   3791.25577297
_cell_formula_units_Z   32
loop_
 _symmetry_equiv_pos_site_id
 _symmetry_equiv_pos_as_xyz
  1  'x, y, z'
loop_
 _atom_type_symbol
 _atom_type_oxidation_number
  Ba2+  2.0
  Y3+  3.0
  Fe3+  3.0
  Cu2+  2.0
  O2-  -2.0
loop_
 _atom_site_type_symbol
 _atom_site_label
 _atom_site_symmetry_multiplicity
 _atom_site_fract_x
 _atom_site_fract_y
 _atom_site_fract_z
 _atom_site_occupancy
  Ba2+  Ba0  1  0.00491892  0.00008312  0.01148584  1
  Ba2+  Ba1  1  -0.00474853  0.00384378  0.51205170  1
  Ba2+  Ba2  1  0.00450771  0.24020032  0.01100568  1
  Ba2+  Ba3  1  0.00296943  0.25312415  0.51325554  1
  Ba2+  Ba4  1  -0.00052319  0.51076727  0.01144262  1
  Ba2+  Ba5  1  0.00052896  0.49999591  0.51705462  1
  Ba2+  Ba6  1  -0.00095564  0.74862296  0.01192704  1
  Ba2+  Ba7  1  -0.00588826  0.74454368  0.51571123  1
  Ba2+  Ba8  1  0.24840891  -0.00214959  0.00463943  1
  Ba2+  Ba9  1  0.25571532  0.00544546  0.51614152  1
  Ba2+  Ba10  1  0.25110682  0.24284267  0.01786412  1
  Ba2+  Ba11  1  0.24460970  0.24672989  0.51174610  1
  Ba2+  Ba12  1  0.25456850  0.50519102  0.02360584  1
  Ba2+  Ba13  1  0.24359363  0.50272759  0.51064271  1
  Ba2+  Ba14  1  0.25205569  0.75262698  0.01117071  1
  Ba2+  Ba15  1  0.25468601  0.74469971  0.51486107  1
  Ba2+  Ba16  1  0.48820948  -0.00389248  0.01179960  1
  Ba2+  Ba17  1  0.50032460  -0.00130481  0.50680739  1
  Ba2+  Ba18  1  0.48943778  0.25140956  0.01811985  1
  Ba2+  Ba19  1  0.49768413  0.23830893  0.50165263  1
  Ba2+  Ba20  1  0.49743476  0.50757415  0.01799792  1
  Ba2+  Ba21  1  0.49371244  0.50688531  0.50660916  1
  Ba2+  Ba22  1  0.49519500  0.74617154  0.01265868  1
  Ba2+  Ba23  1  0.49711037  0.75626800  0.51267080  1
  Ba2+  Ba24  1  0.75935160  -0.00247307  0.01693647  1
  Ba2+  Ba25  1  0.74668454  -0.00271056  0.49984251  1
  Ba2+  Ba26  1  0.75381700  0.24645017  0.01099484  1
  Ba2+  Ba27  1  0.75528671  0.24432100  0.49930960  1
  Ba2+  Ba28  1  0.74926080  0.51235544  0.00613912  1
  Ba2+  Ba29  1  0.76160923  0.50250150  0.51204472  1
  Ba2+  Ba30  1  0.75372621  0.74287611  0.01142218  1
  Ba2+  Ba31  1  0.75394392  0.75573512  0.51357300  1
  Y3+  Y32  1  -0.00094756  0.00119970  0.25415069  1
  Y3+  Y33  1  0.00342063  0.00017851  0.75923942  1
  Y3+  Y34  1  0.00216886  0.24833708  0.25652184  1
  Y3+  Y35  1  0.00361689  0.25065080  0.75745742  1
  Y3+  Y36  1  0.00001867  0.50236095  0.25859931  1
  Y3+  Y37  1  -0.00051131  0.50121657  0.75496882  1
  Y3+  Y38  1  -0.00280203  0.74776900  0.25579838  1
  Y3+  Y39  1  -0.00127240  0.74844145  0.75670705  1
  Y3+  Y40  1  0.25151010  0.00123184  0.25451126  1
  Y3+  Y41  1  0.25055050  -0.00015229  0.75810107  1
  Y3+  Y42  1  0.24940551  0.24866912  0.25918082  1
  Y3+  Y43  1  0.24767964  0.24819632  0.75451996  1
  Y3+  Y44  1  0.25012490  0.50084071  0.26167113  1
  Y3+  Y45  1  0.24852739  0.50047810  0.75091799  1
  Y3+  Y46  1  0.25191380  0.74882311  0.25693365  1
  Y3+  Y47  1  0.25176121  0.75173263  0.75553060  1
  Y3+  Y48  1  0.49852989  -0.00122511  0.25989290  1
  Y3+  Y49  1  0.49738063  -0.00320365  0.75503554  1
  Y3+  Y50  1  0.49711016  0.24789522  0.25946226  1
  Y3+  Y51  1  0.49869810  0.24923651  0.75553318  1
  Y3+  Y52  1  0.49874482  0.50318446  0.25865641  1
  Y3+  Y53  1  0.50088021  0.50272096  0.75639547  1
  Y3+  Y54  1  0.49981720  0.75013990  0.25844114  1
  Y3+  Y55  1  0.49975432  0.75195141  0.75678344  1
  Y3+  Y56  1  0.75018418  -0.00097799  0.25868019  1
  Y3+  Y57  1  0.74898541  -0.00405429  0.75624163  1
  Y3+  Y58  1  0.75063681  0.24799795  0.25684126  1
  Y3+  Y59  1  0.75065745  0.25164825  0.75906278  1
  Y3+  Y60  1  0.75106271  0.50428591  0.25650907  1
  Y3+  Y61  1  0.75191700  0.50364727  0.75951298  1
  Y3+  Y62  1  0.75054945  0.74873159  0.25756002  1
  Y3+  Y63  1  0.75000860  0.74882513  0.75818492  1
  Fe3+  Fe64  1  0.62396839  0.12412547  0.88214415  1
  Fe3+  Fe65  1  0.37355177  0.87495889  0.37667244  1
  Fe3+  Fe66  1  0.37435233  0.62465860  0.87318192  1
  Fe3+  Fe67  1  0.62592001  0.62647504  0.38060743  1
  Fe3+  Fe68  1  0.87610668  0.87429779  0.87698452  1
  Fe3+  Fe69  1  0.12471833  0.87502307  0.38032631  1
  Fe3+  Fe70  1  0.12692117  0.37599086  0.88056027  1
  Fe3+  Fe71  1  0.87542871  0.12437577  0.87723981  1
  Fe3+  Fe72  1  0.62345606  0.37575677  0.88116271  1
  Fe3+  Fe73  1  0.87618253  0.87467421  0.37563778  1
  Fe3+  Fe74  1  0.62548824  0.37537217  0.37967893  1
  Fe3+  Fe75  1  0.87633633  0.37585786  0.88072646  1
  Fe3+  Fe76  1  0.37477769  0.12543333  0.87487426  1
  Fe3+  Fe77  1  0.62449416  0.87442115  0.88120174  1
  Fe3+  Fe78  1  0.37368976  0.37631520  0.87622052  1
  Fe3+  Fe79  1  0.12437936  0.12369210  0.37652384  1
  Fe3+  Fe80  1  0.87652542  0.37517418  0.37476100  1
  Fe3+  Fe81  1  0.12376229  0.62616152  0.37690898  1
  Fe3+  Fe82  1  0.37384767  0.37461515  0.37932532  1
  Fe3+  Fe83  1  0.12653392  0.62529330  0.87522987  1
  Fe3+  Fe84  1  0.62486534  0.87402018  0.13542683  1
  Fe3+  Fe85  1  0.12511633  0.87387589  0.13855714  1
  Fe3+  Fe86  1  0.37566138  0.37427495  0.63318657  1
  Fe3+  Fe87  1  0.87427499  0.12474793  0.64001009  1
  Fe3+  Fe88  1  0.62590929  0.12445652  0.63906458  1
  Fe3+  Fe89  1  0.12464955  0.87510967  0.63414667  1
  Fe3+  Fe90  1  0.62621993  0.37458660  0.63345874  1
  Fe3+  Fe91  1  0.12560846  0.37578791  0.13511752  1
  Fe3+  Fe92  1  0.87545544  0.37544209  0.13389830  1
  Fe3+  Fe93  1  0.62368202  0.12414688  0.13558316  1
  Fe3+  Fe94  1  0.62544944  0.62576435  0.63527480  1
  Fe3+  Fe95  1  0.62452460  0.37579291  0.13560514  1
  Cu2+  Cu96  1  0.12610720  0.12516456  0.87264916  1
  Cu2+  Cu97  1  0.62498019  0.12463149  0.36101097  1
  Cu2+  Cu98  1  0.37472108  0.87423743  0.87213719  1
  Cu2+  Cu99  1  0.12399784  0.37501798  0.37215802  1
  Cu2+  Cu100  1  0.62368047  0.62588107  0.87256527  1
  Cu2+  Cu101  1  0.87506018  0.62516886  0.37251271  1
  Cu2+  Cu102  1  0.62494875  0.87410748  0.37203781  1
  Cu2+  Cu103  1  0.37461243  0.62599100  0.37380700  1
  Cu2+  Cu104  1  0.12520309  0.87391995  0.86208941  1
  Cu2+  Cu105  1  0.87614641  0.62550244  0.87059442  1
  Cu2+  Cu106  1  0.87600486  0.12475729  0.36015759  1
  Cu2+  Cu107  1  0.37328272  0.12381394  0.37214562  1
  Cu2+  Cu108  1  0.62529224  0.87542737  0.64117093  1
  Cu2+  Cu109  1  0.37586445  0.62495123  0.64062317  1
  Cu2+  Cu110  1  0.87425099  0.62544009  0.64332256  1
  Cu2+  Cu111  1  0.12591418  0.12389652  0.14243757  1
  Cu2+  Cu112  1  0.37463521  0.87452695  0.14267448  1
  Cu2+  Cu113  1  0.37473819  0.37543347  0.15492508  1
  Cu2+  Cu114  1  0.87415548  0.37404246  0.65406772  1
  Cu2+  Cu115  1  0.37439363  0.87541469  0.64982216  1
  Cu2+  Cu116  1  0.12454408  0.12411470  0.65118542  1
  Cu2+  Cu117  1  0.37578396  0.12556237  0.64215571  1
  Cu2+  Cu118  1  0.12552689  0.62513232  0.15211553  1
  Cu2+  Cu119  1  0.87497217  0.87437247  0.15047930  1
  Cu2+  Cu120  1  0.87473877  0.12549850  0.15102335  1
  Cu2+  Cu121  1  0.37520730  0.12415410  0.15354598  1
  Cu2+  Cu122  1  0.12466980  0.62626544  0.64978866  1
  Cu2+  Cu123  1  0.87501592  0.62454894  0.14347971  1
  Cu2+  Cu124  1  0.87553181  0.87603982  0.65220048  1
  Cu2+  Cu125  1  0.37478783  0.62558507  0.15651903  1
  Cu2+  Cu126  1  0.62472645  0.62569848  0.14340499  1
  Cu2+  Cu127  1  0.12464201  0.37509079  0.64052315  1
  O2-  O128  1  0.12684330  0.12457527  0.00688270  1
  O2-  O129  1  0.12278932  0.12401294  0.49729830  1
  O2-  O130  1  0.12833260  0.37632374  0.00654572  1
  O2-  O131  1  0.12319085  0.37460091  0.50665949  1
  O2-  O132  1  0.12841033  0.62485864  -0.00430074  1
  O2-  O133  1  0.12287775  0.62592905  0.49774979  1
  O2-  O134  1  0.12515085  0.87348842  0.01746407  1
  O2-  O135  1  0.12426644  0.87576487  0.50594770  1
  O2-  O136  1  0.37520951  0.12626448  -0.00406290  1
  O2-  O137  1  0.37529860  0.12499557  0.50670132  1
  O2-  O138  1  0.37414238  0.37708209  -0.00378327  1
  O2-  O139  1  0.37579187  0.37350453  0.50619978  1
  O2-  O140  1  0.37379327  0.62367060  -0.00588091  1
  O2-  O141  1  0.37527499  0.62496323  0.50671640  1
  O2-  O142  1  0.37410735  0.87387253  0.00689470  1
  O2-  O143  1  0.37379867  0.87592555  0.49769643  1
  O2-  O144  1  0.62299810  0.12518931  0.00804781  1
  O2-  O145  1  0.62779027  0.12544325  0.51853485  1
  O2-  O146  1  0.62258553  0.37571836  0.00810460  1
  O2-  O147  1  0.62664712  0.37370894  0.50663705  1
  O2-  O148  1  0.62287954  0.62504353  0.00764432  1
  O2-  O149  1  0.62680115  0.62547621  0.50770808  1
  O2-  O150  1  0.62484571  0.87456081  0.00789971  1
  O2-  O151  1  0.62532400  0.87581813  0.50722975  1
  O2-  O152  1  0.87524502  0.12464699  -0.00180665  1
  O2-  O153  1  0.87301868  0.12474842  0.51933371  1
  O2-  O154  1  0.87521096  0.37542260  0.00698961  1
  O2-  O155  1  0.87556596  0.37341037  0.49565075  1
  O2-  O156  1  0.87592551  0.62470523  0.00723077  1
  O2-  O157  1  0.87474042  0.62488071  0.50835699  1
  O2-  O158  1  0.87657232  0.87452210  -0.00243225  1
  O2-  O159  1  0.87601458  0.87667003  0.49643776  1
  O2-  O160  1  0.12472977  -0.00208973  0.16651641  1
  O2-  O161  1  0.12472674  -0.00158349  0.66413724  1
  O2-  O162  1  0.12550283  0.25274216  0.16292324  1
  O2-  O163  1  0.12449989  0.24816138  0.66608148  1
  O2-  O164  1  0.12546579  0.49894711  0.16333364  1
  O2-  O165  1  0.12397389  0.50242012  0.66360281  1
  O2-  O166  1  0.12443081  0.74932518  0.16677902  1
  O2-  O167  1  0.12496316  0.75165161  0.66120449  1
  O2-  O168  1  0.37538449  0.00078852  0.16429768  1
  O2-  O169  1  0.37516968  -0.00053254  0.66546452  1
  O2-  O170  1  0.37606452  0.24951457  0.16509258  1
  O2-  O171  1  0.37603747  0.25316327  0.66392928  1
  O2-  O172  1  0.37573231  0.50085312  0.16723697  1
  O2-  O173  1  0.37691229  0.49648781  0.66045189  1
  O2-  O174  1  0.37566405  0.74859463  0.16499754  1
  O2-  O175  1  0.37537104  0.75109353  0.66335207  1
  O2-  O176  1  0.62575105  0.00009001  0.16137600  1
  O2-  O177  1  0.62499198  0.00140091  0.66964859  1
  O2-  O178  1  0.62402160  0.25000952  0.16230426  1
  O2-  O179  1  0.62618455  0.25150564  0.66849496  1
  O2-  O180  1  0.62469439  0.49689351  0.16665417  1
  O2-  O181  1  0.62515732  0.49938658  0.66117069  1
  O2-  O182  1  0.62508507  0.75271551  0.16482616  1
  O2-  O183  1  0.62541397  0.74790795  0.66320429  1
  O2-  O184  1  0.87393383  0.00049476  0.16295996  1
  O2-  O185  1  0.87531221  0.00087698  0.66784531  1
  O2-  O186  1  0.87449393  0.25251688  0.16223391  1
  O2-  O187  1  0.87393554  0.24902941  0.66974950  1
  O2-  O188  1  0.87419611  0.49614791  0.16457574  1
  O2-  O189  1  0.87433612  0.49819096  0.66568363  1
  O2-  O190  1  0.87452886  0.75027327  0.16510176  1
  O2-  O191  1  0.87457447  0.75202804  0.66392147  1
  O2-  O192  1  -0.00107316  0.12530255  0.16256348  1
  O2-  O193  1  -0.00058063  0.12555195  0.66656861  1
  O2-  O194  1  0.00042194  0.37511168  0.15758298  1
  O2-  O195  1  -0.00169374  0.37443390  0.66778492  1
  O2-  O196  1  0.00104348  0.62407735  0.16292942  1
  O2-  O197  1  0.00070578  0.62511865  0.66514292  1
  O2-  O198  1  -0.00036810  0.87468430  0.16515937  1
  O2-  O199  1  0.00152248  0.87547577  0.66212115  1
  O2-  O200  1  0.25187703  0.12571148  0.16499415  1
  O2-  O201  1  0.24877143  0.12555594  0.66193402  1
  O2-  O202  1  0.24902208  0.37549265  0.16493119  1
  O2-  O203  1  0.25267280  0.37498904  0.66053354  1
  O2-  O204  1  0.25054541  0.62449702  0.16550164  1
  O2-  O205  1  0.24893518  0.62435712  0.66003155  1
  O2-  O206  1  0.24865557  0.87386272  0.16724755  1
  O2-  O207  1  0.24846838  0.87554270  0.66137706  1
  O2-  O208  1  0.50154729  0.12517035  0.16456575  1
  O2-  O209  1  0.50237251  0.12633399  0.66742368  1
  O2-  O210  1  0.50114347  0.37467697  0.16611089  1
  O2-  O211  1  0.50181136  0.37433307  0.66236552  1
  O2-  O212  1  0.49859533  0.62458338  0.16781830  1
  O2-  O213  1  0.50347571  0.62454904  0.66317259  1
  O2-  O214  1  0.50253507  0.87549454  0.16415895  1
  O2-  O215  1  0.49801099  0.87505969  0.66537681  1
  O2-  O216  1  0.74741507  0.12637789  0.16252766  1
  O2-  O217  1  0.74973412  0.12537233  0.67397976  1
  O2-  O218  1  0.74938513  0.37340623  0.16096370  1
  O2-  O219  1  0.74758034  0.37541285  0.66823454  1
  O2-  O220  1  0.75024376  0.62447028  0.16662472  1
  O2-  O221  1  0.74705162  0.62423629  0.66727683  1
  O2-  O222  1  0.74885559  0.87540935  0.16264314  1
  O2-  O223  1  0.75196682  0.87522432  0.66764813  1
  O2-  O224  1  0.12378006  -0.00167535  0.34778324  1
  O2-  O225  1  0.12560057  -0.00163773  0.84936783  1
  O2-  O226  1  0.12469203  0.24800607  0.34632437  1
  O2-  O227  1  0.12519034  0.25390951  0.84988879  1
  O2-  O228  1  0.12442519  0.50177742  0.34694625  1
  O2-  O229  1  0.12547983  0.49858543  0.84598895  1
  O2-  O230  1  0.12454359  0.75174186  0.34856420  1
  O2-  O231  1  0.12533056  0.74908519  0.84487570  1
  O2-  O232  1  0.37465701  -0.00211626  0.34647074  1
  O2-  O233  1  0.37526169  0.00165497  0.84833465  1
  O2-  O234  1  0.37545406  0.25221604  0.34975011  1
  O2-  O235  1  0.37606422  0.25087512  0.84438509  1
  O2-  O236  1  0.37616116  0.49721457  0.35131971  1
  O2-  O237  1  0.37516324  0.49956286  0.84044024  1
  O2-  O238  1  0.37476955  0.75201663  0.34705585  1
  O2-  O239  1  0.37512309  0.74839231  0.84589722  1
  O2-  O240  1  0.62509124  0.00128528  0.34667439  1
  O2-  O241  1  0.62586990  0.00045594  0.85325597  1
  O2-  O242  1  0.62543384  0.25192750  0.34873197  1
  O2-  O243  1  0.62458143  0.25034689  0.85269999  1
  O2-  O244  1  0.62470624  0.49962422  0.35184532  1
  O2-  O245  1  0.62537547  0.49653056  0.84686741  1
  O2-  O246  1  0.62558666  0.74721115  0.34855109  1
  O2-  O247  1  0.62486854  0.75326206  0.84789366  1
  O2-  O248  1  0.87512755  0.00005143  0.34700820  1
  O2-  O249  1  0.87390986  0.00001450  0.84761359  1
  O2-  O250  1  0.87380103  0.24977819  0.34549818  1
  O2-  O251  1  0.87453972  0.25168965  0.85160528  1
  O2-  O252  1  0.87422736  0.49876058  0.34653015  1
  O2-  O253  1  0.87458283  0.49695076  0.84980980  1
  O2-  O254  1  0.87452830  0.75127875  0.34760212  1
  O2-  O255  1  0.87522711  0.75159259  0.84629562  1
  O2-  O256  1  0.00078028  0.12494734  0.34530216  1
  O2-  O257  1  -0.00171340  0.12544127  0.84878462  1
  O2-  O258  1  -0.00200087  0.37425466  0.34100112  1
  O2-  O259  1  0.00067428  0.37520827  0.85325584  1
  O2-  O260  1  0.00082871  0.62540707  0.34540462  1
  O2-  O261  1  0.00219709  0.62413987  0.84787786  1
  O2-  O262  1  0.00118450  0.87508781  0.34690397  1
  O2-  O263  1  -0.00026617  0.87542558  0.84587875  1
  O2-  O264  1  0.24739941  0.12440638  0.34691476  1
  O2-  O265  1  0.25209176  0.12587645  0.84491588  1
  O2-  O266  1  0.25232802  0.37498849  0.34998653  1
  O2-  O267  1  0.24932338  0.37517601  0.84364703  1
  O2-  O268  1  0.24786571  0.62499363  0.34864239  1
  O2-  O269  1  0.25022174  0.62441039  0.84062959  1
  O2-  O270  1  0.24794746  0.87513027  0.34845059  1
  O2-  O271  1  0.24873511  0.87477583  0.84625041  1
  O2-  O272  1  0.50071505  0.12534852  0.34907408  1
  O2-  O273  1  0.50168308  0.12563141  0.84830723  1
  O2-  O274  1  0.50073075  0.37427528  0.35231864  1
  O2-  O275  1  0.50058656  0.37504595  0.84650384  1
  O2-  O276  1  0.50319984  0.62436195  0.35170476  1
  O2-  O277  1  0.49798903  0.62424872  0.84473733  1
  O2-  O278  1  0.49832319  0.87500227  0.34775970  1
  O2-  O279  1  0.50290650  0.87595958  0.84971175  1
  O2-  O280  1  0.75019284  0.12539790  0.34790281  1
  O2-  O281  1  0.74828921  0.12719516  0.85374341  1
  O2-  O282  1  0.74850882  0.37447231  0.34600946  1
  O2-  O283  1  0.74974404  0.37411300  0.85456253  1
  O2-  O284  1  0.74753357  0.62373344  0.34968113  1
  O2-  O285  1  0.75040163  0.62483143  0.85101250  1
  O2-  O286  1  0.75174650  0.87596578  0.34652796  1
  O2-  O287  1  0.74894786  0.87508571  0.85056504  1
