# generated using pymatgen
data_BaYFeCuO5
_symmetry_space_group_name_H-M   'P 1'
_cell_length_a   15.67216012
_cell_length_b   15.67317596
_cell_length_c   15.49174671
_cell_angle_alpha   90.00152964
_cell_angle_beta   90.00422790
_cell_angle_gamma   90.00003738
_symmetry_Int_Tables_number   1
_chemical_formula_structural   BaYFeCuO5
_chemical_formula_sum   'Ba32 Y32 Fe32 Cu32 O160'
_cell_volume   3805.27682328
_cell_formula_units_Z   32
loop_
 _symmetry_equiv_pos_site_id
 _symmetry_equiv_pos_as_xyz
  1  'x, y, z'
loop_
 _atom_type_symbol
 _atom_type_oxidation_number
  Ba2+  2.0
  Y3+  3.0
  Fe3+  3.0
  Cu2+  2.0
  O2-  -2.0
loop_
 _atom_site_type_symbol
 _atom_site_label
 _atom_site_symmetry_multiplicity
 _atom_site_fract_x
 _atom_site_fract_y
 _atom_site_fract_z
 _atom_site_occupancy
  Ba2+  Ba0  1  -0.00157196  -0.00309126  0.02151397  1
  Ba2+  Ba1  1  -0.00197669  0.00344572  0.51845533  1
  Ba2+  Ba2  1  0.00736562  0.24744057  0.01810472  1
  Ba2+  Ba3  1  -0.00498425  0.24855073  0.51506820  1
  Ba2+  Ba4  1  0.00408694  0.50523415  0.01377737  1
  Ba2+  Ba5  1  -0.00026804  0.49226832  0.50645183  1
  Ba2+  Ba6  1  -0.00448359  0.75103534  0.01744290  1
  Ba2+  Ba7  1  0.00342469  0.75473375  0.51100968  1
  Ba2+  Ba8  1  0.24280364  -0.00371907  0.01374137  1
  Ba2+  Ba9  1  0.25175658  -0.00108375  0.51113325  1
  Ba2+  Ba10  1  0.24214615  0.25546664  0.00600741  1
  Ba2+  Ba11  1  0.24889711  0.24894386  0.51824709  1
  Ba2+  Ba12  1  0.24153487  0.49498496  0.00659768  1
  Ba2+  Ba13  1  0.24673387  0.49454462  0.51306134  1
  Ba2+  Ba14  1  0.24266046  0.75355652  0.01389327  1
  Ba2+  Ba15  1  0.24973013  0.75719962  0.50693051  1
  Ba2+  Ba16  1  0.50219465  -0.01075686  0.00229855  1
  Ba2+  Ba17  1  0.49870602  -0.00116645  0.51133065  1
  Ba2+  Ba18  1  0.49464908  0.25341781  0.00314093  1
  Ba2+  Ba19  1  0.50263841  0.24924284  0.52062987  1
  Ba2+  Ba20  1  0.49948660  0.50222019  -0.00230576  1
  Ba2+  Ba21  1  0.50522680  0.49500690  0.52374871  1
  Ba2+  Ba22  1  0.50735861  0.75489413  -0.00260173  1
  Ba2+  Ba23  1  0.50215299  0.75701573  0.51693142  1
  Ba2+  Ba24  1  0.75492023  -0.01043047  0.01035903  1
  Ba2+  Ba25  1  0.75055952  0.00369771  0.52169486  1
  Ba2+  Ba26  1  0.75590808  0.24445064  0.01170495  1
  Ba2+  Ba27  1  0.75470168  0.24855087  0.51558008  1
  Ba2+  Ba28  1  0.75416731  0.51268158  0.00178071  1
  Ba2+  Ba29  1  0.74821781  0.49213246  0.51761533  1
  Ba2+  Ba30  1  0.75474188  0.75359554  0.00111029  1
  Ba2+  Ba31  1  0.74474419  0.75417116  0.52249039  1
  Y3+  Y32  1  -0.00230059  0.00111511  0.25648355  1
  Y3+  Y33  1  -0.00147719  -0.00060541  0.75306743  1
  Y3+  Y34  1  -0.00176744  0.24904247  0.25871919  1
  Y3+  Y35  1  0.00085135  0.25072530  0.75380928  1
  Y3+  Y36  1  0.00030245  0.50099752  0.25767513  1
  Y3+  Y37  1  -0.00059398  0.49797827  0.75775132  1
  Y3+  Y38  1  -0.00044366  0.74847856  0.25620006  1
  Y3+  Y39  1  -0.00293744  0.75202422  0.75680001  1
  Y3+  Y40  1  0.25070273  -0.00056291  0.25964815  1
  Y3+  Y41  1  0.24926894  -0.00199528  0.75449018  1
  Y3+  Y42  1  0.24781311  0.24930221  0.25465970  1
  Y3+  Y43  1  0.24777427  0.25253129  0.75916011  1
  Y3+  Y44  1  0.24634320  0.50101475  0.25706313  1
  Y3+  Y45  1  0.24891054  0.49656740  0.75950711  1
  Y3+  Y46  1  0.24868182  0.74961421  0.26120777  1
  Y3+  Y47  1  0.25099165  0.75309653  0.75459662  1
  Y3+  Y48  1  0.49910718  -0.00186443  0.25772775  1
  Y3+  Y49  1  0.50058289  -0.00386729  0.75761183  1
  Y3+  Y50  1  0.49898554  0.24813562  0.25551338  1
  Y3+  Y51  1  0.49921909  0.25118937  0.76002147  1
  Y3+  Y52  1  0.49994233  0.50106101  0.25674119  1
  Y3+  Y53  1  0.50058464  0.50026031  0.75913050  1
  Y3+  Y54  1  0.49996622  0.75248416  0.25867171  1
  Y3+  Y55  1  0.50188831  0.75268331  0.75779065  1
  Y3+  Y56  1  0.75234503  -0.00028611  0.25380059  1
  Y3+  Y57  1  0.75155249  -0.00242824  0.75853644  1
  Y3+  Y58  1  0.75456341  0.24834079  0.25926472  1
  Y3+  Y59  1  0.75289870  0.24926461  0.75490115  1
  Y3+  Y60  1  0.75334273  0.50075524  0.25762333  1
  Y3+  Y61  1  0.75179886  0.50205077  0.75818496  1
  Y3+  Y62  1  0.75159314  0.75123988  0.25190303  1
  Y3+  Y63  1  0.75032769  0.75175333  0.76174740  1
  Fe3+  Fe64  1  0.37575132  0.37400876  0.37697594  1
  Fe3+  Fe65  1  0.87715239  0.12421743  0.87743694  1
  Fe3+  Fe66  1  0.12474304  0.12510661  0.37696891  1
  Fe3+  Fe67  1  0.37286872  0.62677737  0.87903755  1
  Fe3+  Fe68  1  0.87701578  0.37454658  0.88018364  1
  Fe3+  Fe69  1  0.62584901  0.12423737  0.87975567  1
  Fe3+  Fe70  1  0.87356142  0.87544525  0.37792716  1
  Fe3+  Fe71  1  0.12356498  0.87591051  0.37601519  1
  Fe3+  Fe72  1  0.37574880  0.62416657  0.38189924  1
  Fe3+  Fe73  1  0.87400959  0.62562173  0.38105806  1
  Fe3+  Fe74  1  0.62728050  0.37493009  0.87970754  1
  Fe3+  Fe75  1  0.12331125  0.87533529  0.87423873  1
  Fe3+  Fe76  1  0.62518109  0.37408037  0.37430111  1
  Fe3+  Fe77  1  0.12373134  0.62641623  0.87521013  1
  Fe3+  Fe78  1  0.62543168  0.62505192  0.37908232  1
  Fe3+  Fe79  1  0.12375618  0.12389761  0.87537543  1
  Fe3+  Fe80  1  0.37332153  0.12340712  0.88022470  1
  Fe3+  Fe81  1  0.12469595  0.37383961  0.37567409  1
  Fe3+  Fe82  1  0.62535396  0.12489316  0.37545529  1
  Fe3+  Fe83  1  0.62667531  0.87570244  0.37583569  1
  Fe3+  Fe84  1  0.37399683  0.12406472  0.13322802  1
  Fe3+  Fe85  1  0.62565236  0.37568370  0.13242018  1
  Fe3+  Fe86  1  0.37443151  0.62562245  0.13412509  1
  Fe3+  Fe87  1  0.37480471  0.87357910  0.13759932  1
  Fe3+  Fe88  1  0.12505227  0.62497918  0.63574710  1
  Fe3+  Fe89  1  0.87552581  0.37587898  0.13469774  1
  Fe3+  Fe90  1  0.37513381  0.62478360  0.63636744  1
  Fe3+  Fe91  1  0.87475292  0.62519005  0.63526892  1
  Fe3+  Fe92  1  0.37445653  0.37629021  0.13535689  1
  Fe3+  Fe93  1  0.62450363  0.12367102  0.13239778  1
  Fe3+  Fe94  1  0.62470268  0.62598013  0.13582311  1
  Fe3+  Fe95  1  0.37523866  0.12506527  0.64089891  1
  Cu2+  Cu96  1  0.37568706  0.87539273  0.37423606  1
  Cu2+  Cu97  1  0.87746424  0.87605763  0.87027616  1
  Cu2+  Cu98  1  0.37446146  0.37537387  0.86575716  1
  Cu2+  Cu99  1  0.87465620  0.12385658  0.37250004  1
  Cu2+  Cu100  1  0.62646469  0.87579401  0.87090745  1
  Cu2+  Cu101  1  0.37511027  0.12594926  0.36246489  1
  Cu2+  Cu102  1  0.12263732  0.37464916  0.87155334  1
  Cu2+  Cu103  1  0.12454838  0.62478618  0.36833910  1
  Cu2+  Cu104  1  0.87457598  0.37486192  0.37179671  1
  Cu2+  Cu105  1  0.62527919  0.62550310  0.86206094  1
  Cu2+  Cu106  1  0.87738469  0.62605252  0.87139446  1
  Cu2+  Cu107  1  0.37325256  0.87497367  0.86467059  1
  Cu2+  Cu108  1  0.87504125  0.12515897  0.14796463  1
  Cu2+  Cu109  1  0.62575415  0.37426284  0.65906645  1
  Cu2+  Cu110  1  0.12551951  0.12425088  0.15177019  1
  Cu2+  Cu111  1  0.62515608  0.62535143  0.65354862  1
  Cu2+  Cu112  1  0.87449623  0.87436081  0.64827778  1
  Cu2+  Cu113  1  0.37498087  0.37508978  0.65509508  1
  Cu2+  Cu114  1  0.62530559  0.87597293  0.65490578  1
  Cu2+  Cu115  1  0.87524757  0.87408157  0.14288842  1
  Cu2+  Cu116  1  0.12544461  0.62554836  0.15265386  1
  Cu2+  Cu117  1  0.12450654  0.37529737  0.14327250  1
  Cu2+  Cu118  1  0.87477732  0.62485279  0.14252319  1
  Cu2+  Cu119  1  0.12470476  0.87476801  0.64872400  1
  Cu2+  Cu120  1  0.12469574  0.37554452  0.65189629  1
  Cu2+  Cu121  1  0.62444530  0.12485841  0.65715458  1
  Cu2+  Cu122  1  0.87532298  0.37567638  0.64313606  1
  Cu2+  Cu123  1  0.62458572  0.87418054  0.14161187  1
  Cu2+  Cu124  1  0.12573466  0.12512791  0.64990031  1
  Cu2+  Cu125  1  0.87492556  0.12481130  0.64336231  1
  Cu2+  Cu126  1  0.37526400  0.87532361  0.64213026  1
  Cu2+  Cu127  1  0.12526460  0.87466651  0.15567863  1
  O2-  O128  1  0.12460525  0.12290307  -0.00449184  1
  O2-  O129  1  0.12631276  0.12581914  0.49707849  1
  O2-  O130  1  0.12320547  0.37538492  0.00743225  1
  O2-  O131  1  0.12607841  0.37300060  0.49630953  1
  O2-  O132  1  0.12504438  0.62725162  -0.00415586  1
  O2-  O133  1  0.12683496  0.62365655  0.51568132  1
  O2-  O134  1  0.12338193  0.87478205  -0.00543639  1
  O2-  O135  1  0.12455868  0.87696489  0.49653774  1
  O2-  O136  1  0.37278504  0.12324908  0.00712713  1
  O2-  O137  1  0.37690494  0.12670658  0.52024348  1
  O2-  O138  1  0.37450389  0.37769222  0.01525626  1
  O2-  O139  1  0.37777882  0.37332620  0.49676265  1
  O2-  O140  1  0.37307085  0.62664526  0.00744072  1
  O2-  O141  1  0.37710196  0.62275971  0.50814078  1
  O2-  O142  1  0.37347677  0.87242687  0.01732845  1
  O2-  O143  1  0.37633007  0.87563777  0.50769165  1
  O2-  O144  1  0.62519533  0.12389758  0.00581502  1
  O2-  O145  1  0.62411318  0.12645914  0.49539872  1
  O2-  O146  1  0.62607677  0.37664234  0.00654119  1
  O2-  O147  1  0.62392778  0.37286207  0.49420989  1
  O2-  O148  1  0.62382143  0.62519206  0.01568556  1
  O2-  O149  1  0.62397685  0.62344282  0.49849490  1
  O2-  O150  1  0.62545190  0.87433547  0.00595186  1
  O2-  O151  1  0.62656978  0.87722145  0.49609942  1
  O2-  O152  1  0.87792400  0.12499517  -0.00225197  1
  O2-  O153  1  0.87364481  0.12446352  0.50789828  1
  O2-  O154  1  0.87632714  0.37517636  0.00695120  1
  O2-  O155  1  0.87362719  0.37557485  0.50749035  1
  O2-  O156  1  0.87700917  0.62552104  0.00668932  1
  O2-  O157  1  0.87275659  0.62507789  0.50763118  1
  O2-  O158  1  0.87784923  0.87467188  0.00712370  1
  O2-  O159  1  0.87212566  0.87485246  0.49814485  1
  O2-  O160  1  0.12613423  -0.00033243  0.16295398  1
  O2-  O161  1  0.12561053  -0.00074028  0.66198274  1
  O2-  O162  1  0.12527108  0.24835819  0.16206283  1
  O2-  O163  1  0.12595647  0.25117956  0.66510712  1
  O2-  O164  1  0.12517639  0.50148917  0.16591728  1
  O2-  O165  1  0.12519878  0.50092918  0.66711971  1
  O2-  O166  1  0.12588000  0.74998216  0.16673746  1
  O2-  O167  1  0.12605618  0.74929487  0.66282421  1
  O2-  O168  1  0.37433511  0.00061524  0.16377876  1
  O2-  O169  1  0.37572261  0.00148999  0.66832574  1
  O2-  O170  1  0.37553813  0.24889414  0.15941584  1
  O2-  O171  1  0.37533557  0.25042191  0.67020007  1
  O2-  O172  1  0.37511258  0.50176236  0.16551222  1
  O2-  O173  1  0.37622375  0.50079853  0.66552723  1
  O2-  O174  1  0.37416075  0.74813913  0.16888180  1
  O2-  O175  1  0.37570434  0.74726228  0.66299870  1
  O2-  O176  1  0.62401219  0.00255675  0.16054856  1
  O2-  O177  1  0.62396555  0.00019082  0.66617217  1
  O2-  O178  1  0.62326119  0.25018607  0.15551611  1
  O2-  O179  1  0.62469173  0.24996130  0.66983566  1
  O2-  O180  1  0.62433475  0.49852741  0.16453802  1
  O2-  O181  1  0.62448669  0.49911747  0.66707649  1
  O2-  O182  1  0.62340663  0.74824084  0.16807912  1
  O2-  O183  1  0.62459779  0.75109212  0.66392237  1
  O2-  O184  1  0.87479343  0.00136202  0.16298889  1
  O2-  O185  1  0.87469380  -0.00171088  0.66392437  1
  O2-  O186  1  0.87495553  0.25160465  0.16241702  1
  O2-  O187  1  0.87468887  0.25018123  0.66634691  1
  O2-  O188  1  0.87452961  0.49735585  0.16574438  1
  O2-  O189  1  0.87468857  0.50340167  0.66619816  1
  O2-  O190  1  0.87568558  0.74934183  0.16682368  1
  O2-  O191  1  0.87379080  0.74842086  0.66334900  1
  O2-  O192  1  0.00053015  0.12484499  0.16434010  1
  O2-  O193  1  0.00210255  0.12559874  0.66135844  1
  O2-  O194  1  -0.00269078  0.37530378  0.16359598  1
  O2-  O195  1  0.00122356  0.37561113  0.66399501  1
  O2-  O196  1  0.00150404  0.62451857  0.16661138  1
  O2-  O197  1  -0.00107162  0.62567214  0.66069022  1
  O2-  O198  1  0.00187771  0.87471258  0.16574954  1
  O2-  O199  1  -0.00005092  0.87409786  0.65982953  1
  O2-  O200  1  0.25209343  0.12478386  0.16304173  1
  O2-  O201  1  0.25042584  0.12577058  0.66709809  1
  O2-  O202  1  0.25189386  0.37544485  0.16562405  1
  O2-  O203  1  0.24956684  0.37580918  0.66524275  1
  O2-  O204  1  0.25173914  0.62523022  0.16447874  1
  O2-  O205  1  0.25152500  0.62393751  0.66490348  1
  O2-  O206  1  0.25058917  0.87410532  0.16695217  1
  O2-  O207  1  0.24885226  0.87482589  0.66370833  1
  O2-  O208  1  0.49897477  0.12523072  0.16042344  1
  O2-  O209  1  0.49954241  0.12646513  0.67277939  1
  O2-  O210  1  0.50083562  0.37527721  0.16130737  1
  O2-  O211  1  0.50110024  0.37462873  0.66929072  1
  O2-  O212  1  0.49817174  0.62423402  0.16455399  1
  O2-  O213  1  0.49890721  0.62409792  0.66661871  1
  O2-  O214  1  0.49749252  0.87470315  0.16690915  1
  O2-  O215  1  0.50157824  0.87498372  0.66711873  1
  O2-  O216  1  0.74769337  0.12649825  0.16097915  1
  O2-  O217  1  0.74825340  0.12496127  0.66807222  1
  O2-  O218  1  0.74967953  0.37409529  0.16009057  1
  O2-  O219  1  0.74915084  0.37549364  0.66915104  1
  O2-  O220  1  0.74780324  0.62384025  0.16582447  1
  O2-  O221  1  0.75094610  0.62454568  0.66418663  1
  O2-  O222  1  0.74977645  0.87457873  0.16161917  1
  O2-  O223  1  0.74947811  0.87551347  0.66664476  1
  O2-  O224  1  0.12516813  0.00016804  0.34457186  1
  O2-  O225  1  0.12575471  0.00027283  0.84317302  1
  O2-  O226  1  0.12555531  0.24974808  0.34300364  1
  O2-  O227  1  0.12495875  0.24812575  0.84821242  1
  O2-  O228  1  0.12500119  0.49936728  0.34871501  1
  O2-  O229  1  0.12534290  0.50138011  0.84890752  1
  O2-  O230  1  0.12508460  0.75027328  0.35026210  1
  O2-  O231  1  0.12560109  0.75059196  0.84282770  1
  O2-  O232  1  0.37558645  0.00170293  0.34731059  1
  O2-  O233  1  0.37515378  0.00152660  0.85119249  1
  O2-  O234  1  0.37515360  0.25126368  0.34143022  1
  O2-  O235  1  0.37542068  0.24803448  0.85425447  1
  O2-  O236  1  0.37582783  0.50055782  0.34769444  1
  O2-  O237  1  0.37476920  0.50243434  0.85092902  1
  O2-  O238  1  0.37524854  0.74617514  0.35225184  1
  O2-  O239  1  0.37486436  0.74861886  0.84765432  1
  O2-  O240  1  0.62451679  0.00008937  0.34190479  1
  O2-  O241  1  0.62474966  0.00348953  0.84970190  1
  O2-  O242  1  0.62468497  0.24979312  0.33829001  1
  O2-  O243  1  0.62414276  0.25005583  0.85423823  1
  O2-  O244  1  0.62460858  0.50021146  0.34423359  1
  O2-  O245  1  0.62578781  0.49820318  0.85173369  1
  O2-  O246  1  0.62467400  0.74961976  0.34784140  1
  O2-  O247  1  0.62461627  0.74946315  0.84821307  1
  O2-  O248  1  0.87451705  -0.00232415  0.34506570  1
  O2-  O249  1  0.87505012  0.00227789  0.84588102  1
  O2-  O250  1  0.87474167  0.24972489  0.34723174  1
  O2-  O251  1  0.87502433  0.25049136  0.84918460  1
  O2-  O252  1  0.87464681  0.50309145  0.34984234  1
  O2-  O253  1  0.87441278  0.49713174  0.85019986  1
  O2-  O254  1  0.87426271  0.74886521  0.34884729  1
  O2-  O255  1  0.87579142  0.75096632  0.84741870  1
  O2-  O256  1  0.00156984  0.12509771  0.34732202  1
  O2-  O257  1  0.00017756  0.12517602  0.84209138  1
  O2-  O258  1  0.00169610  0.37539367  0.34632852  1
  O2-  O259  1  -0.00315493  0.37489004  0.84666537  1
  O2-  O260  1  -0.00238390  0.62499583  0.35173832  1
  O2-  O261  1  0.00226194  0.62499994  0.84172101  1
  O2-  O262  1  -0.00108939  0.87402535  0.34694149  1
  O2-  O263  1  0.00186006  0.87571775  0.84164946  1
  O2-  O264  1  0.24965700  0.12515601  0.34641034  1
  O2-  O265  1  0.25061649  0.12524032  0.84894116  1
  O2-  O266  1  0.25022991  0.37561060  0.34551534  1
  O2-  O267  1  0.25012682  0.37489374  0.85006312  1
  O2-  O268  1  0.25220432  0.62408525  0.35019658  1
  O2-  O269  1  0.25040170  0.62541944  0.84703351  1
  O2-  O270  1  0.24823131  0.87477138  0.34889600  1
  O2-  O271  1  0.24872100  0.87498115  0.84613379  1
  O2-  O272  1  0.50043791  0.12551672  0.34333567  1
  O2-  O273  1  0.49962770  0.12571227  0.85674495  1
  O2-  O274  1  0.50020178  0.37468806  0.34053250  1
  O2-  O275  1  0.50231346  0.37590262  0.85412910  1
  O2-  O276  1  0.49964375  0.62431847  0.34593653  1
  O2-  O277  1  0.49792295  0.62472693  0.85237325  1
  O2-  O278  1  0.50239015  0.87512873  0.34741565  1
  O2-  O279  1  0.49849895  0.87490800  0.85101853  1
  O2-  O280  1  0.74833153  0.12505894  0.34384795  1
  O2-  O281  1  0.74963669  0.12668968  0.85149512  1
  O2-  O282  1  0.74783058  0.37506022  0.34260123  1
  O2-  O283  1  0.75091019  0.37409557  0.85321199  1
  O2-  O284  1  0.75054489  0.62455086  0.34697461  1
  O2-  O285  1  0.74956698  0.62537980  0.84921169  1
  O2-  O286  1  0.74990533  0.87456873  0.34150482  1
  O2-  O287  1  0.75153023  0.87532097  0.85060048  1
