# generated using pymatgen
data_BaYFeCuO5
_symmetry_space_group_name_H-M   'P 1'
_cell_length_a   15.65886991
_cell_length_b   15.65784265
_cell_length_c   15.46424823
_cell_angle_alpha   89.99671844
_cell_angle_beta   89.99996593
_cell_angle_gamma   90.00197908
_symmetry_Int_Tables_number   1
_chemical_formula_structural   BaYFeCuO5
_chemical_formula_sum   'Ba32 Y32 Fe32 Cu32 O160'
_cell_volume   3791.58810454
_cell_formula_units_Z   32
loop_
 _symmetry_equiv_pos_site_id
 _symmetry_equiv_pos_as_xyz
  1  'x, y, z'
loop_
 _atom_type_symbol
 _atom_type_oxidation_number
  Ba2+  2.0
  Y3+  3.0
  Fe3+  3.0
  Cu2+  2.0
  O2-  -2.0
loop_
 _atom_site_type_symbol
 _atom_site_label
 _atom_site_symmetry_multiplicity
 _atom_site_fract_x
 _atom_site_fract_y
 _atom_site_fract_z
 _atom_site_occupancy
  Ba2+  Ba0  1  0.00039607  0.00012690  0.01614039  1
  Ba2+  Ba1  1  0.00090443  0.00394686  0.51537279  1
  Ba2+  Ba2  1  0.00297931  0.25675965  0.01745730  1
  Ba2+  Ba3  1  0.00270253  0.24569281  0.51478808  1
  Ba2+  Ba4  1  -0.00239201  0.49694511  0.01210309  1
  Ba2+  Ba5  1  0.00455390  0.50125232  0.51143589  1
  Ba2+  Ba6  1  -0.00447416  0.74524336  0.01267822  1
  Ba2+  Ba7  1  0.00298417  0.74868342  0.51151520  1
  Ba2+  Ba8  1  0.25553980  0.00672841  0.00649965  1
  Ba2+  Ba9  1  0.24638553  0.00284606  0.51292584  1
  Ba2+  Ba10  1  0.25088484  0.24733926  0.01262781  1
  Ba2+  Ba11  1  0.24808726  0.25036039  0.51686242  1
  Ba2+  Ba12  1  0.24478498  0.49494522  0.00148411  1
  Ba2+  Ba13  1  0.24930921  0.49957459  0.51672185  1
  Ba2+  Ba14  1  0.24953204  0.75055204  -0.00230613  1
  Ba2+  Ba15  1  0.24765270  0.74763313  0.51258409  1
  Ba2+  Ba16  1  0.49313781  0.00596635  0.00678568  1
  Ba2+  Ba17  1  0.49753700  -0.00764003  0.50497090  1
  Ba2+  Ba18  1  0.49285037  0.24404881  0.00678845  1
  Ba2+  Ba19  1  0.48838095  0.25183742  0.51145737  1
  Ba2+  Ba20  1  0.50075826  0.49984139  0.00700874  1
  Ba2+  Ba21  1  0.49294764  0.50311300  0.51724693  1
  Ba2+  Ba22  1  0.50068655  0.75049343  0.00681241  1
  Ba2+  Ba23  1  0.50211711  0.75146320  0.51254281  1
  Ba2+  Ba24  1  0.74973153  0.00010676  0.01694897  1
  Ba2+  Ba25  1  0.75499932  -0.00464180  0.51143671  1
  Ba2+  Ba26  1  0.75345101  0.25380807  0.01078742  1
  Ba2+  Ba27  1  0.76102576  0.24714024  0.51092755  1
  Ba2+  Ba28  1  0.75714326  0.50167042  0.01717732  1
  Ba2+  Ba29  1  0.75401388  0.50502023  0.51027996  1
  Ba2+  Ba30  1  0.75474595  0.74548212  0.02284167  1
  Ba2+  Ba31  1  0.74762431  0.75315486  0.51085482  1
  Y3+  Y32  1  0.00064483  0.00303062  0.25989414  1
  Y3+  Y33  1  0.00032886  0.00078024  0.75264978  1
  Y3+  Y34  1  0.00177480  0.24924475  0.25870498  1
  Y3+  Y35  1  -0.00091709  0.25107306  0.75376530  1
  Y3+  Y36  1  -0.00007876  0.50030903  0.25796393  1
  Y3+  Y37  1  0.00094738  0.49867119  0.75644058  1
  Y3+  Y38  1  -0.00055601  0.74738479  0.25943642  1
  Y3+  Y39  1  0.00218556  0.74972641  0.75514116  1
  Y3+  Y40  1  0.24950213  0.00292992  0.25697394  1
  Y3+  Y41  1  0.25052346  0.00214095  0.75788873  1
  Y3+  Y42  1  0.24909704  0.24865290  0.25826871  1
  Y3+  Y43  1  0.25138178  0.24974127  0.75604466  1
  Y3+  Y44  1  0.24896611  0.49884805  0.26100658  1
  Y3+  Y45  1  0.24879551  0.49927206  0.75480904  1
  Y3+  Y46  1  0.24900371  0.74972237  0.26041118  1
  Y3+  Y47  1  0.24793532  0.74865969  0.75675368  1
  Y3+  Y48  1  0.50028944  0.00048742  0.25742221  1
  Y3+  Y49  1  0.49781128  0.00024435  0.75793618  1
  Y3+  Y50  1  0.49800255  0.24843025  0.25728477  1
  Y3+  Y51  1  0.49547826  0.25008295  0.75747893  1
  Y3+  Y52  1  0.49940199  0.49911960  0.25865887  1
  Y3+  Y53  1  0.49804407  0.49926472  0.75600761  1
  Y3+  Y54  1  0.50151934  0.75186326  0.25939955  1
  Y3+  Y55  1  0.50050167  0.75051319  0.75620033  1
  Y3+  Y56  1  0.74987526  0.00009041  0.26040567  1
  Y3+  Y57  1  0.75053484  -0.00061720  0.75250054  1
  Y3+  Y58  1  0.75135496  0.24918910  0.25738982  1
  Y3+  Y59  1  0.75357527  0.25082084  0.75585533  1
  Y3+  Y60  1  0.75212304  0.50086118  0.25607700  1
  Y3+  Y61  1  0.75179200  0.49805192  0.75668837  1
  Y3+  Y62  1  0.75091444  0.74956224  0.25968908  1
  Y3+  Y63  1  0.74876213  0.75177830  0.75257706  1
  Fe3+  Fe64  1  0.62706301  0.62504693  0.87658371  1
  Fe3+  Fe65  1  0.87627597  0.87478475  0.37609914  1
  Fe3+  Fe66  1  0.62514042  0.37456488  0.87868070  1
  Fe3+  Fe67  1  0.87555143  0.12504026  0.87860053  1
  Fe3+  Fe68  1  0.62455062  0.37477433  0.38041773  1
  Fe3+  Fe69  1  0.12580434  0.37446984  0.37755692  1
  Fe3+  Fe70  1  0.12547573  0.87567924  0.37701503  1
  Fe3+  Fe71  1  0.62516269  0.62448511  0.37647443  1
  Fe3+  Fe72  1  0.87580982  0.37516860  0.37698972  1
  Fe3+  Fe73  1  0.87439394  0.87506550  0.87656905  1
  Fe3+  Fe74  1  0.87509298  0.62512748  0.87451155  1
  Fe3+  Fe75  1  0.12400938  0.87557879  0.87922512  1
  Fe3+  Fe76  1  0.62572006  0.87546669  0.87950244  1
  Fe3+  Fe77  1  0.62539087  0.12518187  0.38029689  1
  Fe3+  Fe78  1  0.37465244  0.62541578  0.37756313  1
  Fe3+  Fe79  1  0.37467915  0.62443721  0.87854209  1
  Fe3+  Fe80  1  0.62583296  0.12520732  0.87667967  1
  Fe3+  Fe81  1  0.12436157  0.37409351  0.87461848  1
  Fe3+  Fe82  1  0.12358534  0.12571643  0.87696930  1
  Fe3+  Fe83  1  0.37391471  0.12456133  0.37774619  1
  Fe3+  Fe84  1  0.87522471  0.12537675  0.13627710  1
  Fe3+  Fe85  1  0.62373213  0.12505319  0.63387182  1
  Fe3+  Fe86  1  0.12490992  0.87481274  0.13473229  1
  Fe3+  Fe87  1  0.62492903  0.87542982  0.13582030  1
  Fe3+  Fe88  1  0.62527959  0.37458394  0.63421778  1
  Fe3+  Fe89  1  0.37379394  0.87487675  0.64005867  1
  Fe3+  Fe90  1  0.37398652  0.37535389  0.13759915  1
  Fe3+  Fe91  1  0.37399415  0.87471975  0.13748062  1
  Fe3+  Fe92  1  0.12626304  0.62438024  0.13690676  1
  Fe3+  Fe93  1  0.87531057  0.62540024  0.63666400  1
  Fe3+  Fe94  1  0.62438587  0.37428751  0.13550168  1
  Fe3+  Fe95  1  0.37463424  0.62501908  0.13493754  1
  Cu2+  Cu96  1  0.87538801  0.37492542  0.87270299  1
  Cu2+  Cu97  1  0.12385552  0.62464278  0.86493297  1
  Cu2+  Cu98  1  0.12497998  0.62453674  0.37375663  1
  Cu2+  Cu99  1  0.37494492  0.87459163  0.86519647  1
  Cu2+  Cu100  1  0.37407310  0.12560539  0.87036412  1
  Cu2+  Cu101  1  0.62535593  0.87512507  0.37314578  1
  Cu2+  Cu102  1  0.87534122  0.62462469  0.36707401  1
  Cu2+  Cu103  1  0.37465510  0.37507755  0.37373936  1
  Cu2+  Cu104  1  0.87566471  0.12509077  0.37194657  1
  Cu2+  Cu105  1  0.12511819  0.12522945  0.37270448  1
  Cu2+  Cu106  1  0.37454400  0.37537100  0.86473544  1
  Cu2+  Cu107  1  0.37443245  0.87505794  0.36350752  1
  Cu2+  Cu108  1  0.37482758  0.12494376  0.14541912  1
  Cu2+  Cu109  1  0.12480051  0.62472322  0.64230695  1
  Cu2+  Cu110  1  0.87539599  0.37583106  0.64684583  1
  Cu2+  Cu111  1  0.62498759  0.62436368  0.65044614  1
  Cu2+  Cu112  1  0.62386028  0.87599693  0.64130045  1
  Cu2+  Cu113  1  0.37467407  0.62586178  0.65393587  1
  Cu2+  Cu114  1  0.87598061  0.62482889  0.15518065  1
  Cu2+  Cu115  1  0.37428670  0.37519830  0.64270579  1
  Cu2+  Cu116  1  0.62488016  0.12538234  0.14911188  1
  Cu2+  Cu117  1  0.87572859  0.87534691  0.15178546  1
  Cu2+  Cu118  1  0.12515056  0.12508378  0.14806447  1
  Cu2+  Cu119  1  0.87603338  0.87432586  0.64906631  1
  Cu2+  Cu120  1  0.12590107  0.37535555  0.15274004  1
  Cu2+  Cu121  1  0.12559163  0.12529040  0.64283551  1
  Cu2+  Cu122  1  0.62426846  0.62481938  0.14988157  1
  Cu2+  Cu123  1  0.12560424  0.87530745  0.65143733  1
  Cu2+  Cu124  1  0.37529310  0.12434009  0.65009399  1
  Cu2+  Cu125  1  0.12458249  0.37475308  0.65009899  1
  Cu2+  Cu126  1  0.87484910  0.12474553  0.64210111  1
  Cu2+  Cu127  1  0.87564310  0.37468265  0.14287452  1
  O2-  O128  1  0.12280360  0.12568113  -0.00260825  1
  O2-  O129  1  0.12581260  0.12471190  0.50750351  1
  O2-  O130  1  0.12447229  0.37455512  -0.00440628  1
  O2-  O131  1  0.12512490  0.37471480  0.49819916  1
  O2-  O132  1  0.12583818  0.62542560  0.01639981  1
  O2-  O133  1  0.12572336  0.62502009  0.50804116  1
  O2-  O134  1  0.12430434  0.87469197  0.00685331  1
  O2-  O135  1  0.12520484  0.87542702  0.49741402  1
  O2-  O136  1  0.37452785  0.12570851  0.00656414  1
  O2-  O137  1  0.37443775  0.12364231  0.49838141  1
  O2-  O138  1  0.37559307  0.37613629  0.01689479  1
  O2-  O139  1  0.37475685  0.37613227  0.50843428  1
  O2-  O140  1  0.37444632  0.62439328  0.00732343  1
  O2-  O141  1  0.37566041  0.62651143  0.49801833  1
  O2-  O142  1  0.37527743  0.87398064  0.01738692  1
  O2-  O143  1  0.37410660  0.87325592  0.51931359  1
  O2-  O144  1  0.62644595  0.12514573  -0.00295377  1
  O2-  O145  1  0.62428665  0.12495140  0.50670801  1
  O2-  O146  1  0.62469541  0.37449673  0.00678214  1
  O2-  O147  1  0.62516199  0.37530148  0.50679510  1
  O2-  O148  1  0.62769633  0.62506881  -0.00347809  1
  O2-  O149  1  0.62362885  0.62397782  0.49658763  1
  O2-  O150  1  0.62594241  0.87516475  0.00714311  1
  O2-  O151  1  0.62452301  0.87513929  0.50717251  1
  O2-  O152  1  0.87494804  0.12491165  0.00655575  1
  O2-  O153  1  0.87499492  0.12416924  0.50681895  1
  O2-  O154  1  0.87462665  0.37509371  0.00712112  1
  O2-  O155  1  0.87509746  0.37578403  0.49751475  1
  O2-  O156  1  0.87427495  0.62534381  -0.00446869  1
  O2-  O157  1  0.87550048  0.62564466  0.51529227  1
  O2-  O158  1  0.87365184  0.87496494  -0.00332730  1
  O2-  O159  1  0.87680123  0.87415479  0.49679900  1
  O2-  O160  1  0.12472541  -0.00189806  0.16192920  1
  O2-  O161  1  0.12553548  -0.00081715  0.66664565  1
  O2-  O162  1  0.12549153  0.25045518  0.16368077  1
  O2-  O163  1  0.12463289  0.25174503  0.66374299  1
  O2-  O164  1  0.12564523  0.50075786  0.16571268  1
  O2-  O165  1  0.12517943  0.49793612  0.66442879  1
  O2-  O166  1  0.12502965  0.75061813  0.16507447  1
  O2-  O167  1  0.12563461  0.75122406  0.66691205  1
  O2-  O168  1  0.37522694  -0.00180862  0.16575718  1
  O2-  O169  1  0.37488195  -0.00016052  0.66727022  1
  O2-  O170  1  0.37545792  0.25156578  0.16616780  1
  O2-  O171  1  0.37542180  0.24836869  0.66394247  1
  O2-  O172  1  0.37592613  0.50126879  0.16539042  1
  O2-  O173  1  0.37526741  0.50193597  0.66641813  1
  O2-  O174  1  0.37552616  0.74906711  0.16494322  1
  O2-  O175  1  0.37464080  0.75014774  0.66998990  1
  O2-  O176  1  0.62546069  -0.00168082  0.16366536  1
  O2-  O177  1  0.62453794  0.00343760  0.66510328  1
  O2-  O178  1  0.62479464  0.25171227  0.16497788  1
  O2-  O179  1  0.62497431  0.25007056  0.66143557  1
  O2-  O180  1  0.62413444  0.49813187  0.16238875  1
  O2-  O181  1  0.62494933  0.49785849  0.66333861  1
  O2-  O182  1  0.62515465  0.75188337  0.16251000  1
  O2-  O183  1  0.62412465  0.74872841  0.66521295  1
  O2-  O184  1  0.87488490  0.00204354  0.16199378  1
  O2-  O185  1  0.87483705  -0.00207179  0.66497575  1
  O2-  O186  1  0.87438360  0.24718782  0.16339103  1
  O2-  O187  1  0.87455695  0.25187149  0.66503194  1
  O2-  O188  1  0.87490706  0.50080143  0.16465836  1
  O2-  O189  1  0.87417157  0.50068591  0.66493835  1
  O2-  O190  1  0.87495927  0.75006323  0.16411394  1
  O2-  O191  1  0.87490502  0.74970306  0.66500714  1
  O2-  O192  1  -0.00121113  0.12508946  0.16291506  1
  O2-  O193  1  -0.00043465  0.12485325  0.66498958  1
  O2-  O194  1  0.00188534  0.37483834  0.16337821  1
  O2-  O195  1  0.00067061  0.37531215  0.66280604  1
  O2-  O196  1  0.00116229  0.62514998  0.16531465  1
  O2-  O197  1  -0.00169885  0.62513736  0.66556503  1
  O2-  O198  1  0.00166371  0.87472990  0.15996350  1
  O2-  O199  1  0.00104335  0.87495635  0.66463957  1
  O2-  O200  1  0.24889820  0.12485648  0.16387669  1
  O2-  O201  1  0.25157783  0.12494737  0.66609687  1
  O2-  O202  1  0.25067873  0.37563330  0.16559043  1
  O2-  O203  1  0.24810781  0.37503264  0.66496842  1
  O2-  O204  1  0.25151663  0.62529947  0.16572821  1
  O2-  O205  1  0.25062506  0.62514804  0.66749670  1
  O2-  O206  1  0.24849262  0.87444793  0.16424443  1
  O2-  O207  1  0.25025173  0.87488520  0.66997630  1
  O2-  O208  1  0.50090936  0.12486848  0.16638665  1
  O2-  O209  1  0.50132822  0.12580524  0.66481318  1
  O2-  O210  1  0.50046034  0.37499854  0.16649387  1
  O2-  O211  1  0.50300434  0.37513009  0.66580640  1
  O2-  O212  1  0.49794303  0.62522082  0.16066505  1
  O2-  O213  1  0.50027237  0.62470074  0.66727711  1
  O2-  O214  1  0.50102349  0.87494128  0.16521714  1
  O2-  O215  1  0.49754996  0.87494103  0.67020068  1
  O2-  O216  1  0.75146079  0.12486499  0.16403095  1
  O2-  O217  1  0.74710391  0.12566863  0.66322757  1
  O2-  O218  1  0.74709179  0.37471135  0.16429565  1
  O2-  O219  1  0.74813544  0.37447050  0.66361654  1
  O2-  O220  1  0.75030986  0.62464026  0.16386163  1
  O2-  O221  1  0.75045169  0.62493650  0.66280759  1
  O2-  O222  1  0.74883185  0.87538314  0.16277626  1
  O2-  O223  1  0.75107063  0.87526402  0.66285871  1
  O2-  O224  1  0.12517061  -0.00134287  0.34530858  1
  O2-  O225  1  0.12423815  -0.00067811  0.84966497  1
  O2-  O226  1  0.12496473  0.25146629  0.34675421  1
  O2-  O227  1  0.12462043  0.24934117  0.84449328  1
  O2-  O228  1  0.12495830  0.49818281  0.34767111  1
  O2-  O229  1  0.12502433  0.49964119  0.84756201  1
  O2-  O230  1  0.12495337  0.75157511  0.34722981  1
  O2-  O231  1  0.12439888  0.75162600  0.85149513  1
  O2-  O232  1  0.37602668  0.00023138  0.34773150  1
  O2-  O233  1  0.37536779  -0.00160258  0.85024190  1
  O2-  O234  1  0.37620099  0.24794748  0.34806229  1
  O2-  O235  1  0.37522226  0.25160891  0.84760022  1
  O2-  O236  1  0.37600906  0.50181626  0.34680898  1
  O2-  O237  1  0.37576555  0.50209336  0.85094396  1
  O2-  O238  1  0.37565110  0.74992983  0.34659675  1
  O2-  O239  1  0.37537660  0.74787991  0.85350415  1
  O2-  O240  1  0.62496396  0.00309086  0.34866044  1
  O2-  O241  1  0.62519423  -0.00097149  0.84854360  1
  O2-  O242  1  0.62513464  0.24995098  0.35028018  1
  O2-  O243  1  0.62522184  0.25088977  0.84625575  1
  O2-  O244  1  0.62527304  0.49854027  0.34652328  1
  O2-  O245  1  0.62446717  0.49908139  0.84772084  1
  O2-  O246  1  0.62520112  0.74808419  0.34626095  1
  O2-  O247  1  0.62496271  0.75129715  0.84870618  1
  O2-  O248  1  0.87487240  -0.00141320  0.34530728  1
  O2-  O249  1  0.87419073  0.00074077  0.84804880  1
  O2-  O250  1  0.87398776  0.25218033  0.34576935  1
  O2-  O251  1  0.87403915  0.24682260  0.84912437  1
  O2-  O252  1  0.87406439  0.49893437  0.34745586  1
  O2-  O253  1  0.87435101  0.50172195  0.84651847  1
  O2-  O254  1  0.87518186  0.75002893  0.34767206  1
  O2-  O255  1  0.87449646  0.75071121  0.84519437  1
  O2-  O256  1  0.00026853  0.12523434  0.34741598  1
  O2-  O257  1  -0.00135195  0.12429004  0.84728867  1
  O2-  O258  1  0.00005329  0.37501545  0.34560686  1
  O2-  O259  1  0.00141295  0.37484805  0.84557280  1
  O2-  O260  1  -0.00093111  0.62457045  0.34872180  1
  O2-  O261  1  -0.00087215  0.62569111  0.84710218  1
  O2-  O262  1  0.00035229  0.87505561  0.34256831  1
  O2-  O263  1  0.00040582  0.87530829  0.84838204  1
  O2-  O264  1  0.25162333  0.12439579  0.34647756  1
  O2-  O265  1  0.24755560  0.12448147  0.84901677  1
  O2-  O266  1  0.24900724  0.37487922  0.34699541  1
  O2-  O267  1  0.24954040  0.37579519  0.84823646  1
  O2-  O268  1  0.25175364  0.62561623  0.34670216  1
  O2-  O269  1  0.25101781  0.62516873  0.85270425  1
  O2-  O270  1  0.24979839  0.87496338  0.34602852  1
  O2-  O271  1  0.24784042  0.87448609  0.85387782  1
  O2-  O272  1  0.50117962  0.12496067  0.34954562  1
  O2-  O273  1  0.50176741  0.12534350  0.84794526  1
  O2-  O274  1  0.50320976  0.37483752  0.34959204  1
  O2-  O275  1  0.50128960  0.37519698  0.85093350  1
  O2-  O276  1  0.50022776  0.62499443  0.34310871  1
  O2-  O277  1  0.49996586  0.62504347  0.85118293  1
  O2-  O278  1  0.49860730  0.87519340  0.34866846  1
  O2-  O279  1  0.50218133  0.87473473  0.85355201  1
  O2-  O280  1  0.74726939  0.12572410  0.34892401  1
  O2-  O281  1  0.75110940  0.12478377  0.84632122  1
  O2-  O282  1  0.74849854  0.37478630  0.34805276  1
  O2-  O283  1  0.74710797  0.37449222  0.84806852  1
  O2-  O284  1  0.74942191  0.62420116  0.34770984  1
  O2-  O285  1  0.74978880  0.62512098  0.84232377  1
  O2-  O286  1  0.75217971  0.87502137  0.34640395  1
  O2-  O287  1  0.74856761  0.87572052  0.84562022  1
