# generated using pymatgen
data_BaYFeCuO5
_symmetry_space_group_name_H-M   'P 1'
_cell_length_a   15.67313660
_cell_length_b   15.67266244
_cell_length_c   15.49063576
_cell_angle_alpha   89.99419377
_cell_angle_beta   90.00034208
_cell_angle_gamma   90.00013000
_symmetry_Int_Tables_number   1
_chemical_formula_structural   BaYFeCuO5
_chemical_formula_sum   'Ba32 Y32 Fe32 Cu32 O160'
_cell_volume   3805.11632960
_cell_formula_units_Z   32
loop_
 _symmetry_equiv_pos_site_id
 _symmetry_equiv_pos_as_xyz
  1  'x, y, z'
loop_
 _atom_type_symbol
 _atom_type_oxidation_number
  Ba2+  2.0
  Y3+  3.0
  Fe3+  3.0
  Cu2+  2.0
  O2-  -2.0
loop_
 _atom_site_type_symbol
 _atom_site_label
 _atom_site_symmetry_multiplicity
 _atom_site_fract_x
 _atom_site_fract_y
 _atom_site_fract_z
 _atom_site_occupancy
  Ba2+  Ba0  1  0.00163439  -0.00156323  0.02231088  1
  Ba2+  Ba1  1  -0.00432528  0.00554800  0.51000221  1
  Ba2+  Ba2  1  -0.00004287  0.24797159  0.01927381  1
  Ba2+  Ba3  1  0.00006965  0.25428698  0.50702757  1
  Ba2+  Ba4  1  0.00182667  0.50281022  0.01375607  1
  Ba2+  Ba5  1  -0.00073296  0.48815795  0.50699708  1
  Ba2+  Ba6  1  0.00379705  0.75115881  0.01781859  1
  Ba2+  Ba7  1  -0.00532438  0.75403026  0.51147390  1
  Ba2+  Ba8  1  0.24561019  -0.00224511  0.01149980  1
  Ba2+  Ba9  1  0.25766606  0.00399937  0.50613380  1
  Ba2+  Ba10  1  0.24414234  0.24306317  0.02334796  1
  Ba2+  Ba11  1  0.25050031  0.25372474  0.50705059  1
  Ba2+  Ba12  1  0.23755892  0.50223816  0.01236277  1
  Ba2+  Ba13  1  0.25086967  0.48740264  0.50706822  1
  Ba2+  Ba14  1  0.23955477  0.75514999  0.00089499  1
  Ba2+  Ba15  1  0.25824424  0.75641097  0.50708081  1
  Ba2+  Ba16  1  0.50046343  0.00204204  0.01865191  1
  Ba2+  Ba17  1  0.50083044  0.00180620  0.50646789  1
  Ba2+  Ba18  1  0.50442915  0.24302003  0.01283585  1
  Ba2+  Ba19  1  0.49988770  0.24896931  0.50691887  1
  Ba2+  Ba20  1  0.50444140  0.49423711  0.00240781  1
  Ba2+  Ba21  1  0.50230644  0.49334435  0.51919675  1
  Ba2+  Ba22  1  0.50015770  0.76044179  0.00608777  1
  Ba2+  Ba23  1  0.50288278  0.75646806  0.51804162  1
  Ba2+  Ba24  1  0.75141627  0.00146655  0.02653740  1
  Ba2+  Ba25  1  0.74546269  0.00336360  0.51066147  1
  Ba2+  Ba26  1  0.75211826  0.24843504  0.00491044  1
  Ba2+  Ba27  1  0.74945028  0.24933906  0.50625268  1
  Ba2+  Ba28  1  0.75670829  0.49466999  0.00025056  1
  Ba2+  Ba29  1  0.74774054  0.49307283  0.51759677  1
  Ba2+  Ba30  1  0.75692133  0.75545755  0.02027448  1
  Ba2+  Ba31  1  0.74433903  0.75428287  0.52095723  1
  Y3+  Y32  1  -0.00027257  0.00097424  0.25708048  1
  Y3+  Y33  1  0.00133012  0.00000987  0.75475298  1
  Y3+  Y34  1  -0.00035370  0.25091567  0.26240656  1
  Y3+  Y35  1  0.00048436  0.25162766  0.75235378  1
  Y3+  Y36  1  0.00161864  0.49866704  0.25944418  1
  Y3+  Y37  1  0.00029122  0.49684561  0.75596301  1
  Y3+  Y38  1  0.00092783  0.74924719  0.25511639  1
  Y3+  Y39  1  0.00201122  0.75094522  0.75836913  1
  Y3+  Y40  1  0.25149553  0.00060171  0.25791381  1
  Y3+  Y41  1  0.24998238  -0.00188481  0.75671487  1
  Y3+  Y42  1  0.25027838  0.25064540  0.26170623  1
  Y3+  Y43  1  0.24821399  0.25082875  0.75260196  1
  Y3+  Y44  1  0.24781618  0.49815988  0.25949446  1
  Y3+  Y45  1  0.24801953  0.49873323  0.75642308  1
  Y3+  Y46  1  0.24917523  0.75043279  0.25692976  1
  Y3+  Y47  1  0.24942673  0.75235741  0.75952441  1
  Y3+  Y48  1  0.49982071  0.00248564  0.26015692  1
  Y3+  Y49  1  0.49924077  -0.00048755  0.75407206  1
  Y3+  Y50  1  0.49905173  0.24671494  0.26014790  1
  Y3+  Y51  1  0.50129872  0.25050276  0.75595682  1
  Y3+  Y52  1  0.49841619  0.49885020  0.25714278  1
  Y3+  Y53  1  0.50067044  0.49754336  0.75825045  1
  Y3+  Y54  1  0.49905566  0.75196387  0.25760555  1
  Y3+  Y55  1  0.49902939  0.75261371  0.75693096  1
  Y3+  Y56  1  0.74938482  0.00345568  0.25958926  1
  Y3+  Y57  1  0.74903960  0.00103517  0.75156086  1
  Y3+  Y58  1  0.75145350  0.24712401  0.26115085  1
  Y3+  Y59  1  0.74939378  0.25140082  0.75476135  1
  Y3+  Y60  1  0.75281405  0.49945068  0.25839562  1
  Y3+  Y61  1  0.75011184  0.49617440  0.75713033  1
  Y3+  Y62  1  0.75117731  0.75060828  0.25499504  1
  Y3+  Y63  1  0.74957610  0.75106338  0.75539612  1
  Fe3+  Fe64  1  0.62487231  0.37531240  0.37549628  1
  Fe3+  Fe65  1  0.12528812  0.62520668  0.38170603  1
  Fe3+  Fe66  1  0.62502251  0.87472272  0.37431318  1
  Fe3+  Fe67  1  0.12397738  0.12491299  0.87463429  1
  Fe3+  Fe68  1  0.62580122  0.12374369  0.87526241  1
  Fe3+  Fe69  1  0.87622851  0.62564375  0.87518456  1
  Fe3+  Fe70  1  0.12393162  0.37324397  0.87705482  1
  Fe3+  Fe71  1  0.37413519  0.12460701  0.87782203  1
  Fe3+  Fe72  1  0.87580871  0.12451793  0.87566071  1
  Fe3+  Fe73  1  0.12514383  0.12475940  0.37813064  1
  Fe3+  Fe74  1  0.37405907  0.62501908  0.88039354  1
  Fe3+  Fe75  1  0.62493202  0.62498912  0.37749465  1
  Fe3+  Fe76  1  0.87522067  0.87701620  0.87508349  1
  Fe3+  Fe77  1  0.37640673  0.62445608  0.38073431  1
  Fe3+  Fe78  1  0.12521584  0.87527907  0.37957796  1
  Fe3+  Fe79  1  0.62617291  0.62598874  0.87884531  1
  Fe3+  Fe80  1  0.37317032  0.37282434  0.88099099  1
  Fe3+  Fe81  1  0.87388540  0.62504211  0.38046666  1
  Fe3+  Fe82  1  0.87410563  0.87504467  0.37668136  1
  Fe3+  Fe83  1  0.62672856  0.87737677  0.87614884  1
  Fe3+  Fe84  1  0.87469280  0.62441964  0.63456008  1
  Fe3+  Fe85  1  0.87539222  0.37452415  0.14018434  1
  Fe3+  Fe86  1  0.37482529  0.12587816  0.63806993  1
  Fe3+  Fe87  1  0.12541605  0.62484982  0.63313900  1
  Fe3+  Fe88  1  0.37429815  0.62510035  0.13360410  1
  Fe3+  Fe89  1  0.37511561  0.62427822  0.63653582  1
  Fe3+  Fe90  1  0.87492836  0.12578524  0.63595544  1
  Fe3+  Fe91  1  0.62607367  0.37413296  0.13743939  1
  Fe3+  Fe92  1  0.37430916  0.37440458  0.13480411  1
  Fe3+  Fe93  1  0.12549365  0.87584021  0.63366709  1
  Fe3+  Fe94  1  0.62517129  0.62447788  0.13265120  1
  Fe3+  Fe95  1  0.37428862  0.87519375  0.13884624  1
  Cu2+  Cu96  1  0.12511351  0.37465915  0.37164401  1
  Cu2+  Cu97  1  0.37533107  0.87634056  0.86423878  1
  Cu2+  Cu98  1  0.87375376  0.37508567  0.37378567  1
  Cu2+  Cu99  1  0.12365090  0.62450363  0.87062597  1
  Cu2+  Cu100  1  0.62485700  0.12520544  0.37396614  1
  Cu2+  Cu101  1  0.87620248  0.37361539  0.86167986  1
  Cu2+  Cu102  1  0.12307791  0.87657202  0.87054374  1
  Cu2+  Cu103  1  0.87551185  0.12453401  0.36707710  1
  Cu2+  Cu104  1  0.37612518  0.87473628  0.37359906  1
  Cu2+  Cu105  1  0.37659545  0.37555492  0.37229576  1
  Cu2+  Cu106  1  0.62497268  0.37359466  0.86453216  1
  Cu2+  Cu107  1  0.37462615  0.12513498  0.36402740  1
  Cu2+  Cu108  1  0.12543083  0.12477760  0.64407861  1
  Cu2+  Cu109  1  0.62450508  0.37429174  0.65337625  1
  Cu2+  Cu110  1  0.62454035  0.62434515  0.65246483  1
  Cu2+  Cu111  1  0.62397896  0.12613134  0.63959658  1
  Cu2+  Cu112  1  0.12591119  0.87514473  0.14588786  1
  Cu2+  Cu113  1  0.12509127  0.37492236  0.64163806  1
  Cu2+  Cu114  1  0.87537075  0.87561820  0.15502861  1
  Cu2+  Cu115  1  0.37459395  0.12520606  0.15202588  1
  Cu2+  Cu116  1  0.87544167  0.12602463  0.15492179  1
  Cu2+  Cu117  1  0.87461390  0.37426950  0.64141334  1
  Cu2+  Cu118  1  0.12485395  0.37442213  0.15435191  1
  Cu2+  Cu119  1  0.37521242  0.37452409  0.64325389  1
  Cu2+  Cu120  1  0.12482511  0.12497895  0.15751898  1
  Cu2+  Cu121  1  0.37463085  0.87575304  0.64166354  1
  Cu2+  Cu122  1  0.62550395  0.12610005  0.15482072  1
  Cu2+  Cu123  1  0.62439402  0.87594477  0.65180476  1
  Cu2+  Cu124  1  0.62455383  0.87536118  0.15207203  1
  Cu2+  Cu125  1  0.87515548  0.87529833  0.64772558  1
  Cu2+  Cu126  1  0.87521120  0.62397341  0.15213138  1
  Cu2+  Cu127  1  0.12570899  0.62513076  0.14553126  1
  O2-  O128  1  0.12312352  0.12443859  -0.00529883  1
  O2-  O129  1  0.12558922  0.12399078  0.49839355  1
  O2-  O130  1  0.12376530  0.37260386  -0.00261132  1
  O2-  O131  1  0.12566411  0.37513086  0.50635992  1
  O2-  O132  1  0.12344528  0.62543648  0.00691581  1
  O2-  O133  1  0.12619716  0.62559028  0.50744502  1
  O2-  O134  1  0.12329734  0.87649798  0.00742063  1
  O2-  O135  1  0.12555954  0.87467583  0.50614931  1
  O2-  O136  1  0.37442775  0.12464848  -0.00194294  1
  O2-  O137  1  0.37594953  0.12653114  0.51713734  1
  O2-  O138  1  0.37273717  0.37322556  0.00730665  1
  O2-  O139  1  0.37744605  0.37566655  0.50704588  1
  O2-  O140  1  0.37397547  0.62576659  0.00724312  1
  O2-  O141  1  0.37765990  0.62365486  0.50791343  1
  O2-  O142  1  0.37371721  0.87525428  0.01831224  1
  O2-  O143  1  0.37686835  0.87458074  0.50766295  1
  O2-  O144  1  0.62677938  0.12275481  -0.00444019  1
  O2-  O145  1  0.62410865  0.12537606  0.50692063  1
  O2-  O146  1  0.62704980  0.37398264  0.01700896  1
  O2-  O147  1  0.62387502  0.37650235  0.49618185  1
  O2-  O148  1  0.62661772  0.62540418  0.00545841  1
  O2-  O149  1  0.62401443  0.62534224  0.49695918  1
  O2-  O150  1  0.62773648  0.87749839  -0.00385903  1
  O2-  O151  1  0.62511749  0.87339449  0.49482299  1
  O2-  O152  1  0.87600683  0.12342410  -0.00414517  1
  O2-  O153  1  0.87405677  0.12573997  0.51498172  1
  O2-  O154  1  0.87602520  0.37408589  0.01974779  1
  O2-  O155  1  0.87258218  0.37546898  0.50789362  1
  O2-  O156  1  0.87608853  0.62579111  -0.00448418  1
  O2-  O157  1  0.87213108  0.62543098  0.50648644  1
  O2-  O158  1  0.87545433  0.87676927  -0.00476459  1
  O2-  O159  1  0.87260265  0.87336458  0.49659113  1
  O2-  O160  1  0.12522657  0.00108734  0.16693413  1
  O2-  O161  1  0.12490696  -0.00193385  0.66038534  1
  O2-  O162  1  0.12508452  0.24951978  0.16529467  1
  O2-  O163  1  0.12541690  0.24887678  0.66292419  1
  O2-  O164  1  0.12533014  0.49902611  0.16671163  1
  O2-  O165  1  0.12476940  0.50421021  0.66512374  1
  O2-  O166  1  0.12556112  0.74987314  0.16861417  1
  O2-  O167  1  0.12550496  0.74947395  0.66218409  1
  O2-  O168  1  0.37517577  0.00006721  0.16683645  1
  O2-  O169  1  0.37447797  0.00183908  0.66464915  1
  O2-  O170  1  0.37474866  0.25150975  0.16350367  1
  O2-  O171  1  0.37462554  0.24894464  0.66801408  1
  O2-  O172  1  0.37517321  0.49965677  0.16112952  1
  O2-  O173  1  0.37582193  0.50264993  0.66813649  1
  O2-  O174  1  0.37566292  0.74847671  0.16654993  1
  O2-  O175  1  0.37534167  0.74695332  0.66458317  1
  O2-  O176  1  0.62541705  0.00105589  0.16523862  1
  O2-  O177  1  0.62407679  -0.00161724  0.66051373  1
  O2-  O178  1  0.62440556  0.25103891  0.16645980  1
  O2-  O179  1  0.62456566  0.25220840  0.66547298  1
  O2-  O180  1  0.62416275  0.50082965  0.16272216  1
  O2-  O181  1  0.62395013  0.49787118  0.66726931  1
  O2-  O182  1  0.62411551  0.74764442  0.16005521  1
  O2-  O183  1  0.62433301  0.75164113  0.66480968  1
  O2-  O184  1  0.87510538  0.00105433  0.16536049  1
  O2-  O185  1  0.87559597  0.00007404  0.66126563  1
  O2-  O186  1  0.87577026  0.25060735  0.16839228  1
  O2-  O187  1  0.87456823  0.24842167  0.66644341  1
  O2-  O188  1  0.87566342  0.49904253  0.16850214  1
  O2-  O189  1  0.87471604  0.50290273  0.66430038  1
  O2-  O190  1  0.87554345  0.74940894  0.16377827  1
  O2-  O191  1  0.87383060  0.74862469  0.66130292  1
  O2-  O192  1  0.00045980  0.12482295  0.16655467  1
  O2-  O193  1  -0.00016766  0.12462225  0.66126356  1
  O2-  O194  1  0.00020466  0.37540773  0.16894566  1
  O2-  O195  1  0.00059824  0.37549300  0.66204123  1
  O2-  O196  1  -0.00095153  0.62463280  0.16980018  1
  O2-  O197  1  0.00010171  0.62680526  0.65642857  1
  O2-  O198  1  -0.00089770  0.87456512  0.16845513  1
  O2-  O199  1  0.00249883  0.87351644  0.65894002  1
  O2-  O200  1  0.24913984  0.12503757  0.16661820  1
  O2-  O201  1  0.25006735  0.12475205  0.66470562  1
  O2-  O202  1  0.25122778  0.37556583  0.16466749  1
  O2-  O203  1  0.24926330  0.37662883  0.66529542  1
  O2-  O204  1  0.25391470  0.62422718  0.16857896  1
  O2-  O205  1  0.24998242  0.62510037  0.66267396  1
  O2-  O206  1  0.25222156  0.87444705  0.17090039  1
  O2-  O207  1  0.24673828  0.87367760  0.66463620  1
  O2-  O208  1  0.50061077  0.12530170  0.16477707  1
  O2-  O209  1  0.49837842  0.12574788  0.66748131  1
  O2-  O210  1  0.49865197  0.37583021  0.16120653  1
  O2-  O211  1  0.50174688  0.37585317  0.66857441  1
  O2-  O212  1  0.49957422  0.62426784  0.16029263  1
  O2-  O213  1  0.49904174  0.62461986  0.66760693  1
  O2-  O214  1  0.49921790  0.87459171  0.16444400  1
  O2-  O215  1  0.50140599  0.87413392  0.66633740  1
  O2-  O216  1  0.75016146  0.12589956  0.16615573  1
  O2-  O217  1  0.75100840  0.12483787  0.66331573  1
  O2-  O218  1  0.75011759  0.37559235  0.16851196  1
  O2-  O219  1  0.74765983  0.37599273  0.66490005  1
  O2-  O220  1  0.74799633  0.62482568  0.16267620  1
  O2-  O221  1  0.75037360  0.62471540  0.66259877  1
  O2-  O222  1  0.74993375  0.87380580  0.16243438  1
  O2-  O223  1  0.74866572  0.87464731  0.66063054  1
  O2-  O224  1  0.12516941  -0.00163475  0.34961532  1
  O2-  O225  1  0.12514106  0.00217351  0.84257785  1
  O2-  O226  1  0.12564025  0.24807950  0.34851162  1
  O2-  O227  1  0.12497488  0.25000438  0.84332014  1
  O2-  O228  1  0.12529274  0.50367774  0.35045596  1
  O2-  O229  1  0.12539184  0.49727742  0.84723825  1
  O2-  O230  1  0.12551754  0.74958520  0.35174291  1
  O2-  O231  1  0.12488634  0.75014901  0.84604314  1
  O2-  O232  1  0.37495529  0.00142338  0.35033627  1
  O2-  O233  1  0.37449449  0.00080246  0.84595341  1
  O2-  O234  1  0.37517340  0.24850233  0.34824142  1
  O2-  O235  1  0.37519275  0.25086825  0.84896714  1
  O2-  O236  1  0.37495957  0.50420293  0.34533796  1
  O2-  O237  1  0.37540385  0.49936924  0.85347586  1
  O2-  O238  1  0.37516179  0.74598483  0.34940625  1
  O2-  O239  1  0.37580047  0.74872122  0.85029781  1
  O2-  O240  1  0.62490867  -0.00134903  0.34851502  1
  O2-  O241  1  0.62525748  0.00030030  0.84070792  1
  O2-  O242  1  0.62464934  0.25124106  0.34830121  1
  O2-  O243  1  0.62465216  0.24880495  0.84821150  1
  O2-  O244  1  0.62480404  0.50145149  0.34241102  1
  O2-  O245  1  0.62508439  0.50145169  0.85275032  1
  O2-  O246  1  0.62516389  0.74895377  0.34172350  1
  O2-  O247  1  0.62459174  0.74923731  0.84828422  1
  O2-  O248  1  0.87566834  -0.00150886  0.34857893  1
  O2-  O249  1  0.87455124  0.00067734  0.84059532  1
  O2-  O250  1  0.87474673  0.24892310  0.35102909  1
  O2-  O251  1  0.87503030  0.24961588  0.84831578  1
  O2-  O252  1  0.87530207  0.50394684  0.35058229  1
  O2-  O253  1  0.87410727  0.49925802  0.84796834  1
  O2-  O254  1  0.87506084  0.74866820  0.34713369  1
  O2-  O255  1  0.87463421  0.75058384  0.84284932  1
  O2-  O256  1  0.00078479  0.12412878  0.34977391  1
  O2-  O257  1  -0.00027124  0.12511726  0.84108213  1
  O2-  O258  1  -0.00035774  0.37547414  0.35185599  1
  O2-  O259  1  0.00083402  0.37494627  0.84415481  1
  O2-  O260  1  0.00018794  0.62629489  0.35534839  1
  O2-  O261  1  -0.00256730  0.62417354  0.83932544  1
  O2-  O262  1  0.00134465  0.87354467  0.35167036  1
  O2-  O263  1  -0.00257469  0.87531180  0.84097137  1
  O2-  O264  1  0.25030440  0.12443802  0.34999468  1
  O2-  O265  1  0.24992377  0.12525310  0.84523513  1
  O2-  O266  1  0.25049053  0.37590635  0.34920896  1
  O2-  O267  1  0.25089599  0.37537582  0.84669616  1
  O2-  O268  1  0.24984907  0.62559066  0.35412355  1
  O2-  O269  1  0.25345336  0.62499361  0.84764392  1
  O2-  O270  1  0.24736089  0.87382420  0.35282563  1
  O2-  O271  1  0.25111640  0.87442239  0.84866125  1
  O2-  O272  1  0.49754927  0.12503629  0.34953534  1
  O2-  O273  1  0.49987891  0.12493237  0.84805120  1
  O2-  O274  1  0.50207540  0.37613834  0.34292357  1
  O2-  O275  1  0.49729076  0.37587459  0.85303294  1
  O2-  O276  1  0.49981206  0.62486700  0.34422463  1
  O2-  O277  1  0.50030976  0.62450583  0.85360017  1
  O2-  O278  1  0.50175808  0.87398275  0.34536155  1
  O2-  O279  1  0.50130370  0.87458275  0.84920993  1
  O2-  O280  1  0.75159905  0.12453325  0.35040380  1
  O2-  O281  1  0.75030177  0.12597420  0.84332276  1
  O2-  O282  1  0.74811079  0.37630448  0.34754017  1
  O2-  O283  1  0.75067480  0.37463615  0.84993375  1
  O2-  O284  1  0.75070507  0.62541916  0.34609130  1
  O2-  O285  1  0.74890820  0.62475556  0.84624212  1
  O2-  O286  1  0.75011922  0.87409417  0.34360458  1
  O2-  O287  1  0.75015478  0.87458395  0.84150238  1
