# generated using pymatgen
data_BaYFeCuO5
_symmetry_space_group_name_H-M   'P 1'
_cell_length_a   15.67121304
_cell_length_b   15.67190519
_cell_length_c   15.49365971
_cell_angle_alpha   89.99508528
_cell_angle_beta   90.00286195
_cell_angle_gamma   89.99441499
_symmetry_Int_Tables_number   1
_chemical_formula_structural   BaYFeCuO5
_chemical_formula_sum   'Ba32 Y32 Fe32 Cu32 O160'
_cell_volume   3805.20815876
_cell_formula_units_Z   32
loop_
 _symmetry_equiv_pos_site_id
 _symmetry_equiv_pos_as_xyz
  1  'x, y, z'
loop_
 _atom_type_symbol
 _atom_type_oxidation_number
  Ba2+  2.0
  Y3+  3.0
  Fe3+  3.0
  Cu2+  2.0
  O2-  -2.0
loop_
 _atom_site_type_symbol
 _atom_site_label
 _atom_site_symmetry_multiplicity
 _atom_site_fract_x
 _atom_site_fract_y
 _atom_site_fract_z
 _atom_site_occupancy
  Ba2+  Ba0  1  0.00104565  -0.00872603  0.00653065  1
  Ba2+  Ba1  1  -0.00011036  -0.00049535  0.50559962  1
  Ba2+  Ba2  1  0.00009972  0.26287596  0.00637704  1
  Ba2+  Ba3  1  0.00125904  0.24229019  0.51804390  1
  Ba2+  Ba4  1  -0.00130703  0.49759838  0.01785830  1
  Ba2+  Ba5  1  0.00299357  0.50450492  0.51208011  1
  Ba2+  Ba6  1  -0.00109026  0.74680115  0.01971489  1
  Ba2+  Ba7  1  0.00277491  0.75357534  0.50079439  1
  Ba2+  Ba8  1  0.25673275  -0.00000230  0.00810887  1
  Ba2+  Ba9  1  0.24736401  -0.00354264  0.51307858  1
  Ba2+  Ba10  1  0.25431388  0.25401533  0.00074714  1
  Ba2+  Ba11  1  0.24578242  0.24530108  0.51341537  1
  Ba2+  Ba12  1  0.24241324  0.49443469  0.00730053  1
  Ba2+  Ba13  1  0.24711181  0.50508804  0.49964304  1
  Ba2+  Ba14  1  0.24490594  0.75329166  0.01206705  1
  Ba2+  Ba15  1  0.24781650  0.75320710  0.50075026  1
  Ba2+  Ba16  1  0.49425929  0.00680160  0.01463112  1
  Ba2+  Ba17  1  0.50108306  -0.00092374  0.51862433  1
  Ba2+  Ba18  1  0.50017428  0.25026871  0.00662983  1
  Ba2+  Ba19  1  0.50442888  0.24517111  0.51271644  1
  Ba2+  Ba20  1  0.50674070  0.49330097  0.00672764  1
  Ba2+  Ba21  1  0.50366832  0.50453342  0.51196354  1
  Ba2+  Ba22  1  0.50003922  0.74957190  0.01553261  1
  Ba2+  Ba23  1  0.50010858  0.75152640  0.51763541  1
  Ba2+  Ba24  1  0.75001199  0.00043307  0.01591985  1
  Ba2+  Ba25  1  0.75277753  0.00236156  0.51065439  1
  Ba2+  Ba26  1  0.74616127  0.25931797  0.01037839  1
  Ba2+  Ba27  1  0.74849162  0.24234578  0.51768041  1
  Ba2+  Ba28  1  0.75160437  0.49594728  0.01572910  1
  Ba2+  Ba29  1  0.74556147  0.50451858  0.52201584  1
  Ba2+  Ba30  1  0.75558139  0.74362730  0.02114855  1
  Ba2+  Ba31  1  0.74970314  0.75058194  0.51603147  1
  Y3+  Y32  1  -0.00161585  -0.00081058  0.26039603  1
  Y3+  Y33  1  0.00188617  0.00011242  0.75471708  1
  Y3+  Y34  1  -0.00175268  0.25101327  0.25614529  1
  Y3+  Y35  1  0.00040761  0.25150236  0.75830419  1
  Y3+  Y36  1  0.00029893  0.49937923  0.25515292  1
  Y3+  Y37  1  0.00005721  0.49752947  0.75876764  1
  Y3+  Y38  1  0.00064379  0.75050945  0.25998580  1
  Y3+  Y39  1  0.00115370  0.75084940  0.75527057  1
  Y3+  Y40  1  0.25195952  0.00085406  0.25748900  1
  Y3+  Y41  1  0.24887796  -0.00101797  0.75862176  1
  Y3+  Y42  1  0.25113341  0.24909629  0.25530696  1
  Y3+  Y43  1  0.24915396  0.25088252  0.76105784  1
  Y3+  Y44  1  0.24799731  0.50110781  0.25705060  1
  Y3+  Y45  1  0.24839083  0.49667366  0.75908780  1
  Y3+  Y46  1  0.24860709  0.74980190  0.25975811  1
  Y3+  Y47  1  0.24833924  0.75342493  0.75647366  1
  Y3+  Y48  1  0.49763465  0.00314537  0.25347256  1
  Y3+  Y49  1  0.49926820  0.00050266  0.75901869  1
  Y3+  Y50  1  0.50047516  0.24816249  0.25381466  1
  Y3+  Y51  1  0.50059170  0.25105244  0.76076293  1
  Y3+  Y52  1  0.50132882  0.49976230  0.25592967  1
  Y3+  Y53  1  0.50183183  0.49727323  0.75835583  1
  Y3+  Y54  1  0.49864419  0.74906451  0.25541000  1
  Y3+  Y55  1  0.50060597  0.75080709  0.75636317  1
  Y3+  Y56  1  0.75251907  0.00154802  0.25775599  1
  Y3+  Y57  1  0.75002515  0.00154891  0.75439938  1
  Y3+  Y58  1  0.75004868  0.25015260  0.25471589  1
  Y3+  Y59  1  0.74984767  0.25164933  0.75819666  1
  Y3+  Y60  1  0.74996478  0.49843693  0.25269532  1
  Y3+  Y61  1  0.74941637  0.49763128  0.75889602  1
  Y3+  Y62  1  0.75224748  0.74981918  0.25587540  1
  Y3+  Y63  1  0.74978822  0.74839249  0.75438274  1
  Fe3+  Fe64  1  0.87380956  0.62373935  0.37688182  1
  Fe3+  Fe65  1  0.87508772  0.12533597  0.87973332  1
  Fe3+  Fe66  1  0.62580431  0.37483638  0.37802567  1
  Fe3+  Fe67  1  0.87544179  0.62440637  0.87543732  1
  Fe3+  Fe68  1  0.37585849  0.37436405  0.38108247  1
  Fe3+  Fe69  1  0.12398800  0.37405075  0.37781430  1
  Fe3+  Fe70  1  0.62453870  0.12441034  0.37405322  1
  Fe3+  Fe71  1  0.87467866  0.87380115  0.87734869  1
  Fe3+  Fe72  1  0.87393155  0.37441189  0.38099866  1
  Fe3+  Fe73  1  0.62626878  0.87455161  0.87969264  1
  Fe3+  Fe74  1  0.37533911  0.87397612  0.87733874  1
  Fe3+  Fe75  1  0.62581252  0.62525237  0.87760148  1
  Fe3+  Fe76  1  0.62568060  0.12467435  0.87755835  1
  Fe3+  Fe77  1  0.62488530  0.87530757  0.37411875  1
  Fe3+  Fe78  1  0.37459252  0.62419014  0.88065713  1
  Fe3+  Fe79  1  0.12394461  0.62567317  0.87826835  1
  Fe3+  Fe80  1  0.12457572  0.12438510  0.88014246  1
  Fe3+  Fe81  1  0.37677832  0.87606842  0.37549267  1
  Fe3+  Fe82  1  0.12552305  0.12505707  0.37482462  1
  Fe3+  Fe83  1  0.62530009  0.62568946  0.37413696  1
  Fe3+  Fe84  1  0.37398859  0.62412974  0.13482493  1
  Fe3+  Fe85  1  0.12550155  0.62542992  0.63866677  1
  Fe3+  Fe86  1  0.87587294  0.87478814  0.63732299  1
  Fe3+  Fe87  1  0.87608396  0.12591967  0.13356286  1
  Fe3+  Fe88  1  0.37462121  0.37535406  0.13871727  1
  Fe3+  Fe89  1  0.12520975  0.87618125  0.14000229  1
  Fe3+  Fe90  1  0.37349720  0.62516685  0.63913447  1
  Fe3+  Fe91  1  0.62482366  0.87558027  0.13426606  1
  Fe3+  Fe92  1  0.87517365  0.37505239  0.63527192  1
  Fe3+  Fe93  1  0.12479063  0.12602087  0.13357024  1
  Fe3+  Fe94  1  0.37455889  0.37512790  0.63565391  1
  Fe3+  Fe95  1  0.37445759  0.12487737  0.63977283  1
  Cu2+  Cu96  1  0.37589056  0.62478387  0.36285586  1
  Cu2+  Cu97  1  0.87386047  0.87479111  0.36357480  1
  Cu2+  Cu98  1  0.87471945  0.37561179  0.87084214  1
  Cu2+  Cu99  1  0.12549137  0.87649088  0.37186981  1
  Cu2+  Cu100  1  0.62581242  0.37501673  0.87116947  1
  Cu2+  Cu101  1  0.12393435  0.37559759  0.87221057  1
  Cu2+  Cu102  1  0.37513157  0.12490486  0.87286192  1
  Cu2+  Cu103  1  0.12423061  0.87450066  0.86450534  1
  Cu2+  Cu104  1  0.12416676  0.62449682  0.36155826  1
  Cu2+  Cu105  1  0.37543133  0.37601011  0.86370645  1
  Cu2+  Cu106  1  0.87475928  0.12643897  0.37255443  1
  Cu2+  Cu107  1  0.37551200  0.12572918  0.36485467  1
  Cu2+  Cu108  1  0.62407269  0.62499972  0.65433128  1
  Cu2+  Cu109  1  0.87571687  0.12453179  0.64359053  1
  Cu2+  Cu110  1  0.62534067  0.87551770  0.65235791  1
  Cu2+  Cu111  1  0.12577600  0.12510334  0.65602777  1
  Cu2+  Cu112  1  0.62453382  0.62496391  0.14731098  1
  Cu2+  Cu113  1  0.87516953  0.37442917  0.14327267  1
  Cu2+  Cu114  1  0.87582274  0.62442410  0.15391851  1
  Cu2+  Cu115  1  0.62422576  0.12483035  0.65516335  1
  Cu2+  Cu116  1  0.62385259  0.37448775  0.14287345  1
  Cu2+  Cu117  1  0.37438091  0.87457635  0.15004146  1
  Cu2+  Cu118  1  0.12479343  0.87485525  0.64132353  1
  Cu2+  Cu119  1  0.62423048  0.37432684  0.64862453  1
  Cu2+  Cu120  1  0.12537094  0.62513171  0.15205534  1
  Cu2+  Cu121  1  0.87578699  0.62472959  0.64887438  1
  Cu2+  Cu122  1  0.87552659  0.87553830  0.15171211  1
  Cu2+  Cu123  1  0.12572651  0.37524222  0.64871100  1
  Cu2+  Cu124  1  0.37358755  0.12645631  0.14075453  1
  Cu2+  Cu125  1  0.12587263  0.37419419  0.14332479  1
  Cu2+  Cu126  1  0.37473771  0.87508526  0.65255847  1
  Cu2+  Cu127  1  0.62565541  0.12510930  0.14663674  1
  O2-  O128  1  0.12442592  0.12464607  0.00699913  1
  O2-  O129  1  0.12589668  0.12454471  0.49558909  1
  O2-  O130  1  0.12528449  0.37538225  0.00736203  1
  O2-  O131  1  0.12403438  0.37403721  0.49778583  1
  O2-  O132  1  0.12300795  0.62600053  -0.00141359  1
  O2-  O133  1  0.12705120  0.62562823  0.51797698  1
  O2-  O134  1  0.12436927  0.87410722  0.01916693  1
  O2-  O135  1  0.12504543  0.87545084  0.50668699  1
  O2-  O136  1  0.37424202  0.12609042  0.00657720  1
  O2-  O137  1  0.37497321  0.12506568  0.51930317  1
  O2-  O138  1  0.37501160  0.37692473  0.01811034  1
  O2-  O139  1  0.37545512  0.37473231  0.50849966  1
  O2-  O140  1  0.37434103  0.62399436  0.00735416  1
  O2-  O141  1  0.37450736  0.62522962  0.51891738  1
  O2-  O142  1  0.37547116  0.87302155  -0.00258913  1
  O2-  O143  1  0.37832780  0.87553886  0.49590860  1
  O2-  O144  1  0.62623210  0.12387868  -0.00243566  1
  O2-  O145  1  0.62436182  0.12289740  0.49463037  1
  O2-  O146  1  0.62452134  0.37532536  0.00704316  1
  O2-  O147  1  0.62551970  0.37508507  0.49804046  1
  O2-  O148  1  0.62623683  0.62624546  -0.00254856  1
  O2-  O149  1  0.62444019  0.62712689  0.49439793  1
  O2-  O150  1  0.62609116  0.87430254  0.00504619  1
  O2-  O151  1  0.62392979  0.87490606  0.49412008  1
  O2-  O152  1  0.87536581  0.12526712  0.00629374  1
  O2-  O153  1  0.87484575  0.12488859  0.50792028  1
  O2-  O154  1  0.87463516  0.37619607  0.00700645  1
  O2-  O155  1  0.87406810  0.37453500  0.50672501  1
  O2-  O156  1  0.87590091  0.62442597  -0.00447211  1
  O2-  O157  1  0.87249483  0.62418612  0.49691179  1
  O2-  O158  1  0.87424873  0.87295119  -0.00248600  1
  O2-  O159  1  0.87461982  0.87504324  0.51669450  1
  O2-  O160  1  0.12412768  0.00186012  0.16364936  1
  O2-  O161  1  0.12575683  0.00126284  0.66759853  1
  O2-  O162  1  0.12473862  0.24710570  0.16353892  1
  O2-  O163  1  0.12534585  0.25035553  0.66603267  1
  O2-  O164  1  0.12534224  0.50116331  0.16559202  1
  O2-  O165  1  0.12590938  0.50033206  0.66589712  1
  O2-  O166  1  0.12517336  0.75072374  0.16699434  1
  O2-  O167  1  0.12547478  0.74834786  0.66713933  1
  O2-  O168  1  0.37454757  -0.00098892  0.16220041  1
  O2-  O169  1  0.37496341  -0.00025440  0.66646715  1
  O2-  O170  1  0.37460842  0.25183528  0.16817282  1
  O2-  O171  1  0.37504621  0.25133636  0.66557871  1
  O2-  O172  1  0.37483520  0.50172011  0.16824428  1
  O2-  O173  1  0.37509074  0.49841741  0.66555604  1
  O2-  O174  1  0.37449976  0.74801397  0.16163272  1
  O2-  O175  1  0.37561778  0.75039331  0.66656590  1
  O2-  O176  1  0.62505129  -0.00161829  0.15945002  1
  O2-  O177  1  0.62485084  0.00015493  0.66625694  1
  O2-  O178  1  0.62514809  0.24837462  0.16494358  1
  O2-  O179  1  0.62441738  0.24941847  0.66494266  1
  O2-  O180  1  0.62422881  0.50139540  0.16525444  1
  O2-  O181  1  0.62382416  0.49999371  0.66371036  1
  O2-  O182  1  0.62482578  0.75196732  0.16024622  1
  O2-  O183  1  0.62424486  0.75010607  0.66443611  1
  O2-  O184  1  0.87576798  0.00239041  0.16257423  1
  O2-  O185  1  0.87483061  -0.00162906  0.66880970  1
  O2-  O186  1  0.87510857  0.24709052  0.16502863  1
  O2-  O187  1  0.87518223  0.25274774  0.66471975  1
  O2-  O188  1  0.87538904  0.50095623  0.16599307  1
  O2-  O189  1  0.87475206  0.49833751  0.66132207  1
  O2-  O190  1  0.87546790  0.74950739  0.16383094  1
  O2-  O191  1  0.87450543  0.74991527  0.66472060  1
  O2-  O192  1  -0.00018437  0.12541750  0.16195303  1
  O2-  O193  1  0.00216760  0.12564058  0.66810026  1
  O2-  O194  1  0.00019076  0.37485941  0.16613304  1
  O2-  O195  1  -0.00124186  0.37495313  0.66263072  1
  O2-  O196  1  0.00020517  0.62496950  0.16583706  1
  O2-  O197  1  0.00106474  0.62403660  0.66497622  1
  O2-  O198  1  0.00061574  0.87501914  0.16776203  1
  O2-  O199  1  -0.00141705  0.87524423  0.66689110  1
  O2-  O200  1  0.24682342  0.12479044  0.16427197  1
  O2-  O201  1  0.25075211  0.12554548  0.66948975  1
  O2-  O202  1  0.25177026  0.37588297  0.16990218  1
  O2-  O203  1  0.25212485  0.37433468  0.66564171  1
  O2-  O204  1  0.25174055  0.62509478  0.16490480  1
  O2-  O205  1  0.25033696  0.62480251  0.67311203  1
  O2-  O206  1  0.24931289  0.87521259  0.16731511  1
  O2-  O207  1  0.25086617  0.87549724  0.66659744  1
  O2-  O208  1  0.50084637  0.12530994  0.16210871  1
  O2-  O209  1  0.49918470  0.12448979  0.66703951  1
  O2-  O210  1  0.49797378  0.37550141  0.16815147  1
  O2-  O211  1  0.49809500  0.37494159  0.66366698  1
  O2-  O212  1  0.49768945  0.62529339  0.16075799  1
  O2-  O213  1  0.49866487  0.62510631  0.66857500  1
  O2-  O214  1  0.50098263  0.87466603  0.15855062  1
  O2-  O215  1  0.50093312  0.87510170  0.66580634  1
  O2-  O216  1  0.75237646  0.12446589  0.16093430  1
  O2-  O217  1  0.74801582  0.12505138  0.66467901  1
  O2-  O218  1  0.74968658  0.37489086  0.16377082  1
  O2-  O219  1  0.75089289  0.37473971  0.66250120  1
  O2-  O220  1  0.75040481  0.62497071  0.16128641  1
  O2-  O221  1  0.74911211  0.62494932  0.66200112  1
  O2-  O222  1  0.74904943  0.87530161  0.16082865  1
  O2-  O223  1  0.75029964  0.87471146  0.66523226  1
  O2-  O224  1  0.12557053  0.00205176  0.34466212  1
  O2-  O225  1  0.12427634  0.00086304  0.85212846  1
  O2-  O226  1  0.12540072  0.25063637  0.34378904  1
  O2-  O227  1  0.12456671  0.24720504  0.85082038  1
  O2-  O228  1  0.12515868  0.49865775  0.34869378  1
  O2-  O229  1  0.12527507  0.50232185  0.84713809  1
  O2-  O230  1  0.12492669  0.74881512  0.35028409  1
  O2-  O231  1  0.12525819  0.74942613  0.84759525  1
  O2-  O232  1  0.37578544  0.00055730  0.34533804  1
  O2-  O233  1  0.37537311  -0.00285414  0.84817023  1
  O2-  O234  1  0.37571448  0.25216333  0.35132426  1
  O2-  O235  1  0.37487629  0.25199858  0.84915949  1
  O2-  O236  1  0.37468158  0.49837645  0.35257848  1
  O2-  O237  1  0.37524214  0.50204990  0.84879990  1
  O2-  O238  1  0.37571159  0.74996731  0.34572513  1
  O2-  O239  1  0.37532545  0.74853737  0.84840286  1
  O2-  O240  1  0.62489393  0.00000558  0.34103597  1
  O2-  O241  1  0.62554855  -0.00176921  0.84913172  1
  O2-  O242  1  0.62422115  0.25052042  0.34612626  1
  O2-  O243  1  0.62567428  0.24831755  0.84811395  1
  O2-  O244  1  0.62521083  0.49958633  0.34652232  1
  O2-  O245  1  0.62462458  0.50191017  0.84699842  1
  O2-  O246  1  0.62488296  0.75010867  0.34142742  1
  O2-  O247  1  0.62511192  0.75115874  0.84725628  1
  O2-  O248  1  0.87431630  -0.00095743  0.34769083  1
  O2-  O249  1  0.87488653  0.00071871  0.85103449  1
  O2-  O250  1  0.87476572  0.25366592  0.34771137  1
  O2-  O251  1  0.87528074  0.24672005  0.84915152  1
  O2-  O252  1  0.87458663  0.49796375  0.34826642  1
  O2-  O253  1  0.87478944  0.50200542  0.84373195  1
  O2-  O254  1  0.87458220  0.74909558  0.34774425  1
  O2-  O255  1  0.87434735  0.74987157  0.84425853  1
  O2-  O256  1  0.00164319  0.12556266  0.34521613  1
  O2-  O257  1  -0.00027662  0.12420197  0.85199479  1
  O2-  O258  1  -0.00137482  0.37491300  0.34875451  1
  O2-  O259  1  -0.00060711  0.37457876  0.84648573  1
  O2-  O260  1  -0.00130317  0.62439230  0.34962305  1
  O2-  O261  1  -0.00000034  0.62553491  0.84454119  1
  O2-  O262  1  -0.00150051  0.87562081  0.35079233  1
  O2-  O263  1  -0.00085304  0.87522236  0.84831679  1
  O2-  O264  1  0.25040264  0.12627595  0.34677838  1
  O2-  O265  1  0.24719996  0.12459516  0.85249734  1
  O2-  O266  1  0.25101517  0.37530382  0.35196426  1
  O2-  O267  1  0.25084825  0.37526946  0.84999271  1
  O2-  O268  1  0.24963575  0.62487693  0.35004976  1
  O2-  O269  1  0.25102866  0.62494392  0.85351410  1
  O2-  O270  1  0.25267333  0.87478836  0.34852762  1
  O2-  O271  1  0.24983491  0.87455223  0.84991362  1
  O2-  O272  1  0.50046403  0.12551102  0.34501444  1
  O2-  O273  1  0.50196701  0.12469946  0.84844369  1
  O2-  O274  1  0.49959894  0.37610313  0.35003108  1
  O2-  O275  1  0.49934097  0.37540797  0.84829950  1
  O2-  O276  1  0.50160871  0.62447474  0.34327473  1
  O2-  O277  1  0.49909020  0.62546121  0.85125840  1
  O2-  O278  1  0.50031794  0.87497551  0.33972524  1
  O2-  O279  1  0.50212636  0.87405713  0.84924090  1
  O2-  O280  1  0.74787080  0.12541355  0.34415499  1
  O2-  O281  1  0.75138197  0.12421551  0.84756935  1
  O2-  O282  1  0.75051279  0.37464920  0.34609011  1
  O2-  O283  1  0.75031975  0.37473714  0.84638015  1
  O2-  O284  1  0.74971753  0.62492144  0.34249524  1
  O2-  O285  1  0.74979418  0.62537731  0.84398587  1
  O2-  O286  1  0.74889440  0.87517043  0.34396878  1
  O2-  O287  1  0.74898043  0.87514381  0.84690315  1
