# generated using pymatgen
data_BaYFeCuO5
_symmetry_space_group_name_H-M   'P 1'
_cell_length_a   15.66525822
_cell_length_b   15.66506696
_cell_length_c   15.47014400
_cell_angle_alpha   90.00171289
_cell_angle_beta   90.00875134
_cell_angle_gamma   90.00276559
_symmetry_Int_Tables_number   1
_chemical_formula_structural   BaYFeCuO5
_chemical_formula_sum   'Ba32 Y32 Fe32 Cu32 O160'
_cell_volume   3796.33181213
_cell_formula_units_Z   32
loop_
 _symmetry_equiv_pos_site_id
 _symmetry_equiv_pos_as_xyz
  1  'x, y, z'
loop_
 _atom_type_symbol
 _atom_type_oxidation_number
  Ba2+  2.0
  Y3+  3.0
  Fe3+  3.0
  Cu2+  2.0
  O2-  -2.0
loop_
 _atom_site_type_symbol
 _atom_site_label
 _atom_site_symmetry_multiplicity
 _atom_site_fract_x
 _atom_site_fract_y
 _atom_site_fract_z
 _atom_site_occupancy
  Ba2+  Ba0  1  -0.00346527  -0.00830724  0.01071895  1
  Ba2+  Ba1  1  -0.00347526  -0.00514138  0.51236698  1
  Ba2+  Ba2  1  -0.00433449  0.25326318  0.01215859  1
  Ba2+  Ba3  1  -0.00275924  0.23803434  0.51164955  1
  Ba2+  Ba4  1  -0.00871239  0.50034018  0.00680820  1
  Ba2+  Ba5  1  0.00119196  0.51226900  0.51236795  1
  Ba2+  Ba6  1  -0.00761662  0.75484592  0.00665341  1
  Ba2+  Ba7  1  0.00055877  0.75433556  0.51349635  1
  Ba2+  Ba8  1  0.25093876  -0.00468704  0.01628946  1
  Ba2+  Ba9  1  0.24284377  -0.00737437  0.51647211  1
  Ba2+  Ba10  1  0.25396486  0.25170131  0.01286437  1
  Ba2+  Ba11  1  0.25014054  0.24959761  0.51602288  1
  Ba2+  Ba12  1  0.24931685  0.49162802  0.00542256  1
  Ba2+  Ba13  1  0.24688893  0.50510951  0.51160631  1
  Ba2+  Ba14  1  0.24711904  0.76026638  0.01123621  1
  Ba2+  Ba15  1  0.24001916  0.75398411  0.51109892  1
  Ba2+  Ba16  1  0.49599711  -0.00360741  0.02197572  1
  Ba2+  Ba17  1  0.50563475  -0.00446955  0.50026202  1
  Ba2+  Ba18  1  0.49645730  0.25445304  0.02295437  1
  Ba2+  Ba19  1  0.50515024  0.25362954  0.51150465  1
  Ba2+  Ba20  1  0.50805606  0.49824665  0.01668377  1
  Ba2+  Ba21  1  0.50386441  0.49693003  0.51318240  1
  Ba2+  Ba22  1  0.50801035  0.75133356  0.01608615  1
  Ba2+  Ba23  1  0.50562848  0.75361115  0.50025600  1
  Ba2+  Ba24  1  0.75548801  -0.00651041  0.01659654  1
  Ba2+  Ba25  1  0.75556921  -0.00201267  0.49696560  1
  Ba2+  Ba26  1  0.75342476  0.25544539  0.02313658  1
  Ba2+  Ba27  1  0.74987074  0.24205760  0.50561704  1
  Ba2+  Ba28  1  0.75026078  0.50542687  0.01538468  1
  Ba2+  Ba29  1  0.74685339  0.50505030  0.51175154  1
  Ba2+  Ba30  1  0.75314441  0.74707706  0.01081462  1
  Ba2+  Ba31  1  0.75395390  0.75406393  0.50115530  1
  Y3+  Y32  1  -0.00221820  -0.00349352  0.25886235  1
  Y3+  Y33  1  -0.00104259  -0.00345667  0.75641522  1
  Y3+  Y34  1  -0.00262990  0.24755077  0.25851988  1
  Y3+  Y35  1  -0.00028863  0.24745329  0.75527330  1
  Y3+  Y36  1  -0.00107752  0.50344634  0.25693599  1
  Y3+  Y37  1  -0.00046949  0.50372982  0.75783761  1
  Y3+  Y38  1  -0.00028155  0.75289208  0.25820532  1
  Y3+  Y39  1  -0.00189453  0.75231323  0.75900424  1
  Y3+  Y40  1  0.24865121  -0.00332441  0.25576474  1
  Y3+  Y41  1  0.24656977  -0.00277825  0.75697498  1
  Y3+  Y42  1  0.25107499  0.24920582  0.25625046  1
  Y3+  Y43  1  0.24876330  0.25000227  0.75625286  1
  Y3+  Y44  1  0.24888500  0.50215021  0.25891658  1
  Y3+  Y45  1  0.24882706  0.50057997  0.75521713  1
  Y3+  Y46  1  0.24606782  0.75154044  0.25851225  1
  Y3+  Y47  1  0.24644400  0.75251627  0.75629327  1
  Y3+  Y48  1  0.50133498  -0.00131002  0.25732807  1
  Y3+  Y49  1  0.49943312  -0.00118570  0.75560936  1
  Y3+  Y50  1  0.50037029  0.24983430  0.25792949  1
  Y3+  Y51  1  0.50045321  0.25134655  0.75328355  1
  Y3+  Y52  1  0.50265999  0.50122491  0.25592716  1
  Y3+  Y53  1  0.50135995  0.50032806  0.75704980  1
  Y3+  Y54  1  0.50368878  0.75003244  0.25596614  1
  Y3+  Y55  1  0.50081936  0.74952755  0.75904126  1
  Y3+  Y56  1  0.75322992  -0.00165387  0.25937146  1
  Y3+  Y57  1  0.75413932  -0.00162677  0.75625725  1
  Y3+  Y58  1  0.75233744  0.24771709  0.25961114  1
  Y3+  Y59  1  0.75012844  0.24914410  0.75285349  1
  Y3+  Y60  1  0.75027214  0.50266731  0.25369131  1
  Y3+  Y61  1  0.74970405  0.50366486  0.75985690  1
  Y3+  Y62  1  0.75120904  0.75087911  0.25461973  1
  Y3+  Y63  1  0.75383459  0.74959568  0.76201974  1
  Fe3+  Fe64  1  0.62569669  0.37375694  0.87628596  1
  Fe3+  Fe65  1  0.87494390  0.62588282  0.37595117  1
  Fe3+  Fe66  1  0.62475324  0.12513472  0.88155493  1
  Fe3+  Fe67  1  0.37526096  0.62523801  0.88041941  1
  Fe3+  Fe68  1  0.87415015  0.37427888  0.87334511  1
  Fe3+  Fe69  1  0.37559938  0.62579037  0.37922976  1
  Fe3+  Fe70  1  0.87369803  0.12527876  0.87825591  1
  Fe3+  Fe71  1  0.12500758  0.62544526  0.88013925  1
  Fe3+  Fe72  1  0.12465335  0.12484396  0.87995423  1
  Fe3+  Fe73  1  0.37476524  0.12420624  0.37873664  1
  Fe3+  Fe74  1  0.37576355  0.37456065  0.87367801  1
  Fe3+  Fe75  1  0.37541107  0.87519882  0.87610151  1
  Fe3+  Fe76  1  0.37419731  0.87441965  0.37682485  1
  Fe3+  Fe77  1  0.62658147  0.37562437  0.37533678  1
  Fe3+  Fe78  1  0.87571118  0.37580306  0.38003162  1
  Fe3+  Fe79  1  0.37593078  0.12491058  0.87659567  1
  Fe3+  Fe80  1  0.12408434  0.37489824  0.38052916  1
  Fe3+  Fe81  1  0.12578453  0.12348767  0.37651317  1
  Fe3+  Fe82  1  0.37487095  0.37554639  0.37774901  1
  Fe3+  Fe83  1  0.62528222  0.87615122  0.87921860  1
  Fe3+  Fe84  1  0.62598708  0.12447595  0.13644501  1
  Fe3+  Fe85  1  0.37516568  0.12296504  0.63322494  1
  Fe3+  Fe86  1  0.87434087  0.37589389  0.63310011  1
  Fe3+  Fe87  1  0.37397064  0.62540690  0.13471640  1
  Fe3+  Fe88  1  0.12409901  0.62580315  0.13423235  1
  Fe3+  Fe89  1  0.12387028  0.37545363  0.13878762  1
  Fe3+  Fe90  1  0.62654275  0.87442462  0.63821657  1
  Fe3+  Fe91  1  0.62597316  0.12292237  0.63624377  1
  Fe3+  Fe92  1  0.12379402  0.12426245  0.13488452  1
  Fe3+  Fe93  1  0.12338800  0.37521581  0.63517694  1
  Fe3+  Fe94  1  0.62600328  0.62708118  0.63870290  1
  Fe3+  Fe95  1  0.37526503  0.62732552  0.63495270  1
  Cu2+  Cu96  1  0.62477023  0.12494395  0.36219926  1
  Cu2+  Cu97  1  0.87632216  0.12396870  0.37174526  1
  Cu2+  Cu98  1  0.12436555  0.87574457  0.87385690  1
  Cu2+  Cu99  1  0.62447789  0.62490863  0.87474463  1
  Cu2+  Cu100  1  0.87594787  0.87410710  0.37140432  1
  Cu2+  Cu101  1  0.12438651  0.87533240  0.37093171  1
  Cu2+  Cu102  1  0.62573571  0.87466370  0.36035479  1
  Cu2+  Cu103  1  0.12452919  0.62605235  0.37267531  1
  Cu2+  Cu104  1  0.87440422  0.87592362  0.87199831  1
  Cu2+  Cu105  1  0.87484725  0.62499803  0.87289664  1
  Cu2+  Cu106  1  0.12420679  0.37426328  0.86173876  1
  Cu2+  Cu107  1  0.62564036  0.62478615  0.36242647  1
  Cu2+  Cu108  1  0.62608140  0.37433040  0.15374683  1
  Cu2+  Cu109  1  0.12311620  0.87458615  0.64578374  1
  Cu2+  Cu110  1  0.37428411  0.37678630  0.15523372  1
  Cu2+  Cu111  1  0.62589456  0.62577450  0.14267090  1
  Cu2+  Cu112  1  0.87580819  0.37547705  0.15635671  1
  Cu2+  Cu113  1  0.87508750  0.87442315  0.14625540  1
  Cu2+  Cu114  1  0.37508320  0.87316141  0.15381246  1
  Cu2+  Cu115  1  0.87562158  0.12417898  0.14863824  1
  Cu2+  Cu116  1  0.12356533  0.87464691  0.14190175  1
  Cu2+  Cu117  1  0.37578054  0.87409340  0.64671863  1
  Cu2+  Cu118  1  0.62640312  0.37564442  0.64949085  1
  Cu2+  Cu119  1  0.12415438  0.62638333  0.64438044  1
  Cu2+  Cu120  1  0.37451634  0.12449141  0.15202221  1
  Cu2+  Cu121  1  0.87363743  0.87404151  0.64337015  1
  Cu2+  Cu122  1  0.62623832  0.87565776  0.15124995  1
  Cu2+  Cu123  1  0.87450035  0.12320747  0.64149432  1
  Cu2+  Cu124  1  0.12468192  0.12400450  0.65142038  1
  Cu2+  Cu125  1  0.37480153  0.37574510  0.64631017  1
  Cu2+  Cu126  1  0.87436768  0.62578974  0.65206206  1
  Cu2+  Cu127  1  0.87629394  0.62611423  0.14215339  1
  O2-  O128  1  0.12522800  0.12668505  0.00670347  1
  O2-  O129  1  0.12768407  0.12492231  0.49694617  1
  O2-  O130  1  0.12480779  0.37397290  0.01840475  1
  O2-  O131  1  0.12460462  0.37488492  0.50690365  1
  O2-  O132  1  0.12612824  0.62344938  0.00753730  1
  O2-  O133  1  0.12587857  0.62510432  0.50814484  1
  O2-  O134  1  0.12566120  0.87665954  0.00761244  1
  O2-  O135  1  0.12358695  0.87539552  0.50781222  1
  O2-  O136  1  0.37669393  0.12661927  -0.00354824  1
  O2-  O137  1  0.37496308  0.12379626  0.50503559  1
  O2-  O138  1  0.37550675  0.37372644  -0.00600909  1
  O2-  O139  1  0.37547248  0.37496977  0.49748426  1
  O2-  O140  1  0.37451749  0.62377800  0.00707936  1
  O2-  O141  1  0.37584182  0.62651978  0.50686879  1
  O2-  O142  1  0.37624625  0.87617042  -0.00357726  1
  O2-  O143  1  0.37518068  0.87443827  0.49706310  1
  O2-  O144  1  0.62399417  0.12658251  0.00741531  1
  O2-  O145  1  0.62433666  0.12289550  0.51602532  1
  O2-  O146  1  0.62492199  0.37214371  -0.00377826  1
  O2-  O147  1  0.62541798  0.37586871  0.49590484  1
  O2-  O148  1  0.62338263  0.62402985  0.00859246  1
  O2-  O149  1  0.62441081  0.62652424  0.51821960  1
  O2-  O150  1  0.62317452  0.87793888  -0.00039291  1
  O2-  O151  1  0.62611298  0.87468409  0.51769489  1
  O2-  O152  1  0.87328253  0.12812344  -0.00145837  1
  O2-  O153  1  0.87443657  0.12417666  0.50632597  1
  O2-  O154  1  0.87399938  0.37358350  -0.00610781  1
  O2-  O155  1  0.87512345  0.37607459  0.50588771  1
  O2-  O156  1  0.87518305  0.62364001  0.00746320  1
  O2-  O157  1  0.87390869  0.62516462  0.49677385  1
  O2-  O158  1  0.87352151  0.87525700  0.00754358  1
  O2-  O159  1  0.87483951  0.87399596  0.50732086  1
  O2-  O160  1  0.12576367  0.00254755  0.16232458  1
  O2-  O161  1  0.12512523  0.00040338  0.66678079  1
  O2-  O162  1  0.12545528  0.24879479  0.16623661  1
  O2-  O163  1  0.12463200  0.25152257  0.66194804  1
  O2-  O164  1  0.12558370  0.50140086  0.16706637  1
  O2-  O165  1  0.12492969  0.49744563  0.66449458  1
  O2-  O166  1  0.12561884  0.74741766  0.16413977  1
  O2-  O167  1  0.12433076  0.75038779  0.66859781  1
  O2-  O168  1  0.37488882  -0.00141030  0.16441843  1
  O2-  O169  1  0.37471185  0.00101450  0.66167741  1
  O2-  O170  1  0.37477781  0.25128237  0.16544089  1
  O2-  O171  1  0.37548890  0.24774974  0.65853423  1
  O2-  O172  1  0.37377801  0.50244865  0.16478779  1
  O2-  O173  1  0.37471035  0.50266194  0.66233772  1
  O2-  O174  1  0.37450114  0.74748809  0.16330814  1
  O2-  O175  1  0.37533996  0.74866126  0.66651209  1
  O2-  O176  1  0.62477809  0.00183125  0.16353134  1
  O2-  O177  1  0.62461116  -0.00052358  0.67009617  1
  O2-  O178  1  0.62444761  0.24835012  0.16410914  1
  O2-  O179  1  0.62416721  0.24926463  0.66242118  1
  O2-  O180  1  0.62513775  0.49813495  0.16403964  1
  O2-  O181  1  0.62490042  0.50133060  0.66528705  1
  O2-  O182  1  0.62487348  0.75199624  0.16521986  1
  O2-  O183  1  0.62435599  0.74997174  0.67177237  1
  O2-  O184  1  0.87517956  -0.00025301  0.16563799  1
  O2-  O185  1  0.87501117  -0.00078160  0.66614507  1
  O2-  O186  1  0.87587632  0.25037083  0.16703865  1
  O2-  O187  1  0.87538433  0.25249133  0.65973978  1
  O2-  O188  1  0.87607981  0.49903561  0.16560561  1
  O2-  O189  1  0.87527126  0.49907360  0.66192036  1
  O2-  O190  1  0.87565074  0.75101778  0.16518746  1
  O2-  O191  1  0.87479395  0.74857603  0.66854161  1
  O2-  O192  1  0.00131529  0.12609773  0.16239289  1
  O2-  O193  1  0.00108227  0.12493219  0.66627360  1
  O2-  O194  1  0.00095543  0.37459451  0.16919412  1
  O2-  O195  1  -0.00057202  0.37516606  0.66107705  1
  O2-  O196  1  0.00318997  0.62405653  0.16314950  1
  O2-  O197  1  -0.00186666  0.62460364  0.66694799  1
  O2-  O198  1  -0.00103434  0.87524756  0.16548048  1
  O2-  O199  1  -0.00129696  0.87453847  0.66657452  1
  O2-  O200  1  0.24868501  0.12600038  0.16195404  1
  O2-  O201  1  0.25167206  0.12532144  0.66339942  1
  O2-  O202  1  0.24854635  0.37544244  0.16755959  1
  O2-  O203  1  0.24779968  0.37469734  0.66225666  1
  O2-  O204  1  0.24925941  0.62448831  0.16355909  1
  O2-  O205  1  0.25265669  0.62525485  0.66539085  1
  O2-  O206  1  0.25089657  0.87421834  0.16447685  1
  O2-  O207  1  0.25052043  0.87458759  0.66462671  1
  O2-  O208  1  0.50111491  0.12517028  0.16459714  1
  O2-  O209  1  0.49908798  0.12444117  0.66403830  1
  O2-  O210  1  0.49948732  0.37547858  0.16417421  1
  O2-  O211  1  0.50045506  0.37578501  0.66123335  1
  O2-  O212  1  0.49706541  0.62460461  0.16457996  1
  O2-  O213  1  0.49922883  0.62494192  0.66566265  1
  O2-  O214  1  0.49990207  0.87484395  0.16540055  1
  O2-  O215  1  0.50143741  0.87492245  0.66498527  1
  O2-  O216  1  0.74910000  0.12571792  0.16355140  1
  O2-  O217  1  0.74802936  0.12516386  0.66744023  1
  O2-  O218  1  0.75138187  0.37414783  0.16542608  1
  O2-  O219  1  0.75208796  0.37516952  0.66085771  1
  O2-  O220  1  0.75080801  0.62498597  0.16444518  1
  O2-  O221  1  0.74958997  0.62475372  0.66752989  1
  O2-  O222  1  0.75046832  0.87582044  0.16576474  1
  O2-  O223  1  0.74837829  0.87429389  0.66864572  1
  O2-  O224  1  0.12628970  0.00123806  0.34498351  1
  O2-  O225  1  0.12508833  0.00343117  0.85025266  1
  O2-  O226  1  0.12625768  0.25130730  0.34863999  1
  O2-  O227  1  0.12594543  0.24777813  0.84649034  1
  O2-  O228  1  0.12547343  0.49678732  0.35036402  1
  O2-  O229  1  0.12589658  0.50132276  0.84933783  1
  O2-  O230  1  0.12569904  0.75041618  0.34801865  1
  O2-  O231  1  0.12659555  0.74758381  0.85235338  1
  O2-  O232  1  0.37582690  0.00077175  0.34850182  1
  O2-  O233  1  0.37526873  0.00070693  0.84354909  1
  O2-  O234  1  0.37469628  0.24918056  0.34930876  1
  O2-  O235  1  0.37450691  0.24972710  0.84059588  1
  O2-  O236  1  0.37503339  0.50101607  0.34877145  1
  O2-  O237  1  0.37409324  0.50043616  0.84650218  1
  O2-  O238  1  0.37608332  0.74895041  0.34756564  1
  O2-  O239  1  0.37414244  0.74892032  0.84974933  1
  O2-  O240  1  0.62397293  0.00022339  0.34836427  1
  O2-  O241  1  0.62315962  0.00221718  0.84992518  1
  O2-  O242  1  0.62489160  0.25114493  0.34699873  1
  O2-  O243  1  0.62444271  0.24838128  0.84410060  1
  O2-  O244  1  0.62499204  0.49907248  0.34627696  1
  O2-  O245  1  0.62402702  0.49766538  0.84733007  1
  O2-  O246  1  0.62437564  0.74935247  0.34971063  1
  O2-  O247  1  0.62359238  0.75211313  0.85206745  1
  O2-  O248  1  0.87546635  -0.00095090  0.34910208  1
  O2-  O249  1  0.87517354  0.00289729  0.84789007  1
  O2-  O250  1  0.87545125  0.25272880  0.35111964  1
  O2-  O251  1  0.87442252  0.24902657  0.84048711  1
  O2-  O252  1  0.87545082  0.49895165  0.34834165  1
  O2-  O253  1  0.87551652  0.49786792  0.84508043  1
  O2-  O254  1  0.87445445  0.74860639  0.34696894  1
  O2-  O255  1  0.87495668  0.75048719  0.85204470  1
  O2-  O256  1  0.00260217  0.12574254  0.34583771  1
  O2-  O257  1  0.00054108  0.12697177  0.85052624  1
  O2-  O258  1  0.00014259  0.37462117  0.35225278  1
  O2-  O259  1  -0.00084375  0.37362475  0.84486413  1
  O2-  O260  1  -0.00181298  0.62432543  0.34582061  1
  O2-  O261  1  0.00286744  0.62406845  0.85154592  1
  O2-  O262  1  0.00026236  0.87490554  0.34798232  1
  O2-  O263  1  -0.00051438  0.87543020  0.85025916  1
  O2-  O264  1  0.25217377  0.12527486  0.34516065  1
  O2-  O265  1  0.24969772  0.12581240  0.84827406  1
  O2-  O266  1  0.24940108  0.37521184  0.34967939  1
  O2-  O267  1  0.25059084  0.37497626  0.84610195  1
  O2-  O268  1  0.25330127  0.62462365  0.34835370  1
  O2-  O269  1  0.25043275  0.62340328  0.85060468  1
  O2-  O270  1  0.25147664  0.87480814  0.34668057  1
  O2-  O271  1  0.25200727  0.87551982  0.84703864  1
  O2-  O272  1  0.49763303  0.12545831  0.34962991  1
  O2-  O273  1  0.50094061  0.12604549  0.84551216  1
  O2-  O274  1  0.49976443  0.37501801  0.34674516  1
  O2-  O275  1  0.49996874  0.37427767  0.84257526  1
  O2-  O276  1  0.49906050  0.62462389  0.34994275  1
  O2-  O277  1  0.49599338  0.62436864  0.84816190  1
  O2-  O278  1  0.49989563  0.87480953  0.34873228  1
  O2-  O279  1  0.49957940  0.87529962  0.84425716  1
  O2-  O280  1  0.74921329  0.12504458  0.34867225  1
  O2-  O281  1  0.74785856  0.12547489  0.84860281  1
  O2-  O282  1  0.75200812  0.37472073  0.34917941  1
  O2-  O283  1  0.74939831  0.37390921  0.84206951  1
  O2-  O284  1  0.75034194  0.62417468  0.34750351  1
  O2-  O285  1  0.74984596  0.62433011  0.85046806  1
  O2-  O286  1  0.74893204  0.87519410  0.34944204  1
  O2-  O287  1  0.74792625  0.87658370  0.84890359  1
