# generated using pymatgen
data_BaYFeCuO5
_symmetry_space_group_name_H-M   'P 1'
_cell_length_a   15.66229509
_cell_length_b   15.66319764
_cell_length_c   15.47331568
_cell_angle_alpha   90.00404430
_cell_angle_beta   89.99983209
_cell_angle_gamma   89.99965225
_symmetry_Int_Tables_number   1
_chemical_formula_structural   BaYFeCuO5
_chemical_formula_sum   'Ba32 Y32 Fe32 Cu32 O160'
_cell_volume   3795.93891544
_cell_formula_units_Z   32
loop_
 _symmetry_equiv_pos_site_id
 _symmetry_equiv_pos_as_xyz
  1  'x, y, z'
loop_
 _atom_type_symbol
 _atom_type_oxidation_number
  Ba2+  2.0
  Y3+  3.0
  Fe3+  3.0
  Cu2+  2.0
  O2-  -2.0
loop_
 _atom_site_type_symbol
 _atom_site_label
 _atom_site_symmetry_multiplicity
 _atom_site_fract_x
 _atom_site_fract_y
 _atom_site_fract_z
 _atom_site_occupancy
  Ba2+  Ba0  1  0.00344567  0.00430083  0.00248035  1
  Ba2+  Ba1  1  0.00526005  0.00494496  0.49726245  1
  Ba2+  Ba2  1  0.00465782  0.25375458  0.01152064  1
  Ba2+  Ba3  1  0.00216479  0.24034472  0.50233859  1
  Ba2+  Ba4  1  0.00156864  0.49270729  0.01636296  1
  Ba2+  Ba5  1  -0.00009159  0.50723833  0.50765483  1
  Ba2+  Ba6  1  -0.00001328  0.74941112  0.00685922  1
  Ba2+  Ba7  1  0.00306304  0.74739192  0.50137117  1
  Ba2+  Ba8  1  0.25374842  0.00703895  0.01738525  1
  Ba2+  Ba9  1  0.24761937  0.00816000  0.50269939  1
  Ba2+  Ba10  1  0.24998843  0.24821981  0.02145035  1
  Ba2+  Ba11  1  0.25441358  0.24300542  0.51077569  1
  Ba2+  Ba12  1  0.24738664  0.49402089  0.02138223  1
  Ba2+  Ba13  1  0.25688387  0.50458392  0.51501117  1
  Ba2+  Ba14  1  0.25193031  0.75092352  0.01607982  1
  Ba2+  Ba15  1  0.25028727  0.74365649  0.50737289  1
  Ba2+  Ba16  1  0.49876753  0.00119870  0.02675605  1
  Ba2+  Ba17  1  0.50337425  0.00373351  0.51018169  1
  Ba2+  Ba18  1  0.50063080  0.25092515  0.01974360  1
  Ba2+  Ba19  1  0.49784987  0.24902656  0.51880791  1
  Ba2+  Ba20  1  0.50483132  0.49276599  0.01512785  1
  Ba2+  Ba21  1  0.50008817  0.50356766  0.51614940  1
  Ba2+  Ba22  1  0.50344653  0.75551168  0.02393300  1
  Ba2+  Ba23  1  0.50543220  0.74398321  0.50617133  1
  Ba2+  Ba24  1  0.74330946  -0.00221656  0.01242623  1
  Ba2+  Ba25  1  0.74364520  0.00081964  0.50775172  1
  Ba2+  Ba26  1  0.74531966  0.25742907  0.00995013  1
  Ba2+  Ba27  1  0.74541976  0.24662445  0.51411357  1
  Ba2+  Ba28  1  0.74589234  0.49149404  0.01030194  1
  Ba2+  Ba29  1  0.74348696  0.50622495  0.50683554  1
  Ba2+  Ba30  1  0.74407724  0.75325346  0.01247863  1
  Ba2+  Ba31  1  0.74190715  0.74688045  0.50302508  1
  Y3+  Y32  1  0.00225016  0.00261598  0.25857970  1
  Y3+  Y33  1  0.00141824  0.00152008  0.76033360  1
  Y3+  Y34  1  0.00052368  0.24837260  0.25584274  1
  Y3+  Y35  1  0.00102932  0.24868313  0.75983926  1
  Y3+  Y36  1  -0.00120357  0.49849291  0.25569233  1
  Y3+  Y37  1  -0.00151715  0.49865153  0.75874282  1
  Y3+  Y38  1  0.00042852  0.74956024  0.25744782  1
  Y3+  Y39  1  -0.00079059  0.75093541  0.75991086  1
  Y3+  Y40  1  0.25017264  0.00337697  0.25996974  1
  Y3+  Y41  1  0.24956539  0.00373630  0.75489164  1
  Y3+  Y42  1  0.24995924  0.24731035  0.25857663  1
  Y3+  Y43  1  0.25070512  0.24688046  0.75306745  1
  Y3+  Y44  1  0.25071980  0.49943320  0.25749788  1
  Y3+  Y45  1  0.25276660  0.50099882  0.75287782  1
  Y3+  Y46  1  0.25127880  0.74988334  0.25889452  1
  Y3+  Y47  1  0.25155157  0.74869784  0.75498235  1
  Y3+  Y48  1  0.49943875  -0.00011600  0.26086665  1
  Y3+  Y49  1  0.50033415  0.00117033  0.75034014  1
  Y3+  Y50  1  0.49898069  0.24970394  0.25585732  1
  Y3+  Y51  1  0.50007095  0.25191882  0.75379082  1
  Y3+  Y52  1  0.50176847  0.50094154  0.25822909  1
  Y3+  Y53  1  0.50108934  0.49912128  0.75370909  1
  Y3+  Y54  1  0.50195918  0.74903016  0.26239995  1
  Y3+  Y55  1  0.50138805  0.74858606  0.75055975  1
  Y3+  Y56  1  0.74810790  -0.00013771  0.25989974  1
  Y3+  Y57  1  0.74926522  -0.00124280  0.75705164  1
  Y3+  Y58  1  0.75008652  0.25163857  0.25418517  1
  Y3+  Y59  1  0.74820357  0.25324168  0.76061960  1
  Y3+  Y60  1  0.74868446  0.49993069  0.25558055  1
  Y3+  Y61  1  0.74700135  0.49746848  0.75940473  1
  Y3+  Y62  1  0.74642935  0.74825978  0.26110089  1
  Y3+  Y63  1  0.74804926  0.75108389  0.75633098  1
  Fe3+  Fe64  1  0.37474947  0.87491331  0.37919498  1
  Fe3+  Fe65  1  0.12549158  0.37470513  0.37957241  1
  Fe3+  Fe66  1  0.12725857  0.87550523  0.88038454  1
  Fe3+  Fe67  1  0.37630031  0.87561734  0.87630332  1
  Fe3+  Fe68  1  0.37642773  0.62503943  0.88016385  1
  Fe3+  Fe69  1  0.12558672  0.62373105  0.37389653  1
  Fe3+  Fe70  1  0.37559005  0.37506371  0.37738350  1
  Fe3+  Fe71  1  0.62460749  0.37464867  0.37759404  1
  Fe3+  Fe72  1  0.62198839  0.87568442  0.87392836  1
  Fe3+  Fe73  1  0.12662978  0.62367693  0.87836754  1
  Fe3+  Fe74  1  0.37465690  0.37445527  0.87588744  1
  Fe3+  Fe75  1  0.87360364  0.62446248  0.88135219  1
  Fe3+  Fe76  1  0.12749218  0.37460386  0.87366951  1
  Fe3+  Fe77  1  0.87446202  0.37470240  0.38046584  1
  Fe3+  Fe78  1  0.62479277  0.12692813  0.37491998  1
  Fe3+  Fe79  1  0.87379998  0.12566982  0.88091792  1
  Fe3+  Fe80  1  0.62242600  0.12501618  0.87639423  1
  Fe3+  Fe81  1  0.62299328  0.62527720  0.87849144  1
  Fe3+  Fe82  1  0.37614309  0.12505973  0.87528201  1
  Fe3+  Fe83  1  0.87507978  0.87510111  0.38017840  1
  Fe3+  Fe84  1  0.12540994  0.87555145  0.13714161  1
  Fe3+  Fe85  1  0.87411924  0.12462983  0.13572039  1
  Fe3+  Fe86  1  0.87493809  0.37495856  0.63482877  1
  Fe3+  Fe87  1  0.12440977  0.87527394  0.63679935  1
  Fe3+  Fe88  1  0.87447145  0.62563645  0.63902601  1
  Fe3+  Fe89  1  0.37599173  0.62454160  0.13589648  1
  Fe3+  Fe90  1  0.87416631  0.62509503  0.13601911  1
  Fe3+  Fe91  1  0.87466430  0.87538498  0.13832309  1
  Fe3+  Fe92  1  0.12454443  0.37486305  0.63277490  1
  Fe3+  Fe93  1  0.37471163  0.87521539  0.63237658  1
  Fe3+  Fe94  1  0.87530509  0.12463883  0.63886966  1
  Fe3+  Fe95  1  0.87550095  0.87529608  0.63507780  1
  Cu2+  Cu96  1  0.87500590  0.62424028  0.36283610  1
  Cu2+  Cu97  1  0.62467145  0.62299969  0.37043657  1
  Cu2+  Cu98  1  0.12577205  0.87486450  0.36460080  1
  Cu2+  Cu99  1  0.87376208  0.12579475  0.36318055  1
  Cu2+  Cu100  1  0.87532362  0.37506265  0.87419924  1
  Cu2+  Cu101  1  0.12529066  0.12639282  0.36945888  1
  Cu2+  Cu102  1  0.12740988  0.12612908  0.87424524  1
  Cu2+  Cu103  1  0.37646538  0.12620121  0.37218869  1
  Cu2+  Cu104  1  0.37533541  0.62372327  0.37096336  1
  Cu2+  Cu105  1  0.87412596  0.87511739  0.86855124  1
  Cu2+  Cu106  1  0.62451934  0.87552738  0.37362479  1
  Cu2+  Cu107  1  0.62232229  0.37471465  0.87048436  1
  Cu2+  Cu108  1  0.62671873  0.12568367  0.65144894  1
  Cu2+  Cu109  1  0.12323891  0.12468365  0.64304732  1
  Cu2+  Cu110  1  0.37494620  0.37502378  0.15252822  1
  Cu2+  Cu111  1  0.62589666  0.37518814  0.64571535  1
  Cu2+  Cu112  1  0.37573184  0.62619930  0.64124403  1
  Cu2+  Cu113  1  0.37487795  0.87467629  0.15566563  1
  Cu2+  Cu114  1  0.12533868  0.37438968  0.15638062  1
  Cu2+  Cu115  1  0.62586598  0.87470196  0.63846340  1
  Cu2+  Cu116  1  0.62507254  0.62466880  0.14853825  1
  Cu2+  Cu117  1  0.37567348  0.12503152  0.15494330  1
  Cu2+  Cu118  1  0.12451098  0.12439644  0.14220355  1
  Cu2+  Cu119  1  0.12348150  0.62528643  0.65292170  1
  Cu2+  Cu120  1  0.62674072  0.62475782  0.64432577  1
  Cu2+  Cu121  1  0.62545920  0.12486540  0.15181595  1
  Cu2+  Cu122  1  0.37513012  0.12395156  0.63939792  1
  Cu2+  Cu123  1  0.12486957  0.62540084  0.14906118  1
  Cu2+  Cu124  1  0.62522719  0.87509725  0.15844943  1
  Cu2+  Cu125  1  0.62458028  0.37469830  0.14565741  1
  Cu2+  Cu126  1  0.87489947  0.37417846  0.14202836  1
  Cu2+  Cu127  1  0.37461265  0.37499870  0.64643339  1
  O2-  O128  1  0.12643128  0.12514726  0.00793938  1
  O2-  O129  1  0.12370465  0.12512449  0.50696268  1
  O2-  O130  1  0.12774288  0.37503241  -0.00569774  1
  O2-  O131  1  0.12416701  0.37547464  0.50554659  1
  O2-  O132  1  0.12777709  0.62321076  -0.00206692  1
  O2-  O133  1  0.12432503  0.62443385  0.49507387  1
  O2-  O134  1  0.12640781  0.87527929  0.00843188  1
  O2-  O135  1  0.12283272  0.87436849  0.51695197  1
  O2-  O136  1  0.37637261  0.12479352  -0.00414077  1
  O2-  O137  1  0.37607977  0.12456084  0.50582123  1
  O2-  O138  1  0.37328483  0.37384788  -0.00398475  1
  O2-  O139  1  0.37546849  0.37590843  0.49766552  1
  O2-  O140  1  0.37608437  0.62566913  0.00639974  1
  O2-  O141  1  0.37478639  0.62528257  0.50628992  1
  O2-  O142  1  0.37692825  0.87561091  -0.00370295  1
  O2-  O143  1  0.37307865  0.87415889  0.50606843  1
  O2-  O144  1  0.62153266  0.12314287  -0.00330302  1
  O2-  O145  1  0.62589132  0.12740880  0.49620545  1
  O2-  O146  1  0.62298128  0.37390664  0.00638469  1
  O2-  O147  1  0.62591843  0.37448078  0.49794985  1
  O2-  O148  1  0.62199796  0.62689346  -0.00130317  1
  O2-  O149  1  0.62584126  0.62371579  0.50650926  1
  O2-  O150  1  0.62183005  0.87617843  -0.00533660  1
  O2-  O151  1  0.62628472  0.87521906  0.50613242  1
  O2-  O152  1  0.87377211  0.12479971  0.00843907  1
  O2-  O153  1  0.87502623  0.12382259  0.51857519  1
  O2-  O154  1  0.87632113  0.37507683  0.00789314  1
  O2-  O155  1  0.87448484  0.37492785  0.50772255  1
  O2-  O156  1  0.87396978  0.62497039  0.00846473  1
  O2-  O157  1  0.87578845  0.62640797  0.51847945  1
  O2-  O158  1  0.87414498  0.87469198  0.01836215  1
  O2-  O159  1  0.87646026  0.87475900  0.50894553  1
  O2-  O160  1  0.12528491  -0.00306697  0.16524295  1
  O2-  O161  1  0.12369294  -0.00192874  0.66944728  1
  O2-  O162  1  0.12474559  0.25048152  0.16590367  1
  O2-  O163  1  0.12351211  0.25313023  0.66159387  1
  O2-  O164  1  0.12415921  0.49965815  0.16386665  1
  O2-  O165  1  0.12371426  0.49897203  0.65942992  1
  O2-  O166  1  0.12475531  0.75213189  0.16274240  1
  O2-  O167  1  0.12353030  0.75068163  0.66920399  1
  O2-  O168  1  0.37513120  -0.00049639  0.16743353  1
  O2-  O169  1  0.37441583  -0.00299833  0.66212106  1
  O2-  O170  1  0.37453656  0.25002713  0.16378648  1
  O2-  O171  1  0.37489611  0.25061647  0.66148267  1
  O2-  O172  1  0.37436468  0.50139233  0.16161537  1
  O2-  O173  1  0.37497664  0.49944316  0.66468313  1
  O2-  O174  1  0.37488367  0.74834793  0.16465589  1
  O2-  O175  1  0.37418770  0.75313726  0.66499478  1
  O2-  O176  1  0.62537666  -0.00017712  0.16675391  1
  O2-  O177  1  0.62702950  0.00223903  0.66168875  1
  O2-  O178  1  0.62560748  0.24877321  0.16361922  1
  O2-  O179  1  0.62653911  0.24980848  0.66320965  1
  O2-  O180  1  0.62523849  0.50055390  0.16463016  1
  O2-  O181  1  0.62612252  0.49902098  0.66542915  1
  O2-  O182  1  0.62507716  0.75016934  0.16706739  1
  O2-  O183  1  0.62662632  0.74941095  0.66452644  1
  O2-  O184  1  0.87449212  0.00062108  0.16740507  1
  O2-  O185  1  0.87532930  -0.00132234  0.66787472  1
  O2-  O186  1  0.87501614  0.24665078  0.16485229  1
  O2-  O187  1  0.87561602  0.25171580  0.66480303  1
  O2-  O188  1  0.87585304  0.50284050  0.16451332  1
  O2-  O189  1  0.87543215  0.49835412  0.66454402  1
  O2-  O190  1  0.87520756  0.74927662  0.16621998  1
  O2-  O191  1  0.87578678  0.75187613  0.66832336  1
  O2-  O192  1  -0.00318929  0.12395873  0.16468038  1
  O2-  O193  1  -0.00245865  0.12487604  0.67229033  1
  O2-  O194  1  0.00148980  0.37447673  0.16824259  1
  O2-  O195  1  -0.00052694  0.37619754  0.66326335  1
  O2-  O196  1  -0.00168975  0.62600121  0.16227776  1
  O2-  O197  1  -0.00197133  0.62507638  0.67090041  1
  O2-  O198  1  0.00074722  0.87482859  0.16686965  1
  O2-  O199  1  -0.00158191  0.87483123  0.67053782  1
  O2-  O200  1  0.25154148  0.12451621  0.16592990  1
  O2-  O201  1  0.24906331  0.12447377  0.66220245  1
  O2-  O202  1  0.24991886  0.37546287  0.16556549  1
  O2-  O203  1  0.24793990  0.37616286  0.65825462  1
  O2-  O204  1  0.25177882  0.62516135  0.16179375  1
  O2-  O205  1  0.24808258  0.62590482  0.66356827  1
  O2-  O206  1  0.24864965  0.87418888  0.16346263  1
  O2-  O207  1  0.25026157  0.87414933  0.66449720  1
  O2-  O208  1  0.50026137  0.12466306  0.16382000  1
  O2-  O209  1  0.50302621  0.12489904  0.65937453  1
  O2-  O210  1  0.49883535  0.37500391  0.16423608  1
  O2-  O211  1  0.50010753  0.37530497  0.66080619  1
  O2-  O212  1  0.49854239  0.62519865  0.16339167  1
  O2-  O213  1  0.50100120  0.62498609  0.66293201  1
  O2-  O214  1  0.50032770  0.87455281  0.16633923  1
  O2-  O215  1  0.49802840  0.87499646  0.65748204  1
  O2-  O216  1  0.75120410  0.12387247  0.16267006  1
  O2-  O217  1  0.75115653  0.12577363  0.66880592  1
  O2-  O218  1  0.74946078  0.37521399  0.16622771  1
  O2-  O219  1  0.75250304  0.37464538  0.66597323  1
  O2-  O220  1  0.75133298  0.62573193  0.16365370  1
  O2-  O221  1  0.75283388  0.62459823  0.67096918  1
  O2-  O222  1  0.75037196  0.87461972  0.16775664  1
  O2-  O223  1  0.75326773  0.87528094  0.66445632  1
  O2-  O224  1  0.12463170  -0.00022647  0.34892352  1
  O2-  O225  1  0.12526656  -0.00297379  0.85179299  1
  O2-  O226  1  0.12355996  0.25331569  0.34965520  1
  O2-  O227  1  0.12599040  0.25172397  0.84361413  1
  O2-  O228  1  0.12418270  0.49793921  0.34695211  1
  O2-  O229  1  0.12562785  0.50095045  0.84164441  1
  O2-  O230  1  0.12444724  0.74898691  0.34623261  1
  O2-  O231  1  0.12523675  0.75049828  0.85164563  1
  O2-  O232  1  0.37433437  -0.00192285  0.35190961  1
  O2-  O233  1  0.37508907  -0.00025183  0.84258180  1
  O2-  O234  1  0.37473311  0.25219935  0.34647626  1
  O2-  O235  1  0.37484973  0.24972702  0.84280521  1
  O2-  O236  1  0.37412282  0.49775137  0.34412704  1
  O2-  O237  1  0.37445225  0.50212227  0.84806706  1
  O2-  O238  1  0.37411583  0.75192586  0.34967175  1
  O2-  O239  1  0.37439581  0.74861921  0.84772892  1
  O2-  O240  1  0.62592530  0.00200060  0.34973957  1
  O2-  O241  1  0.62447242  -0.00005340  0.84255314  1
  O2-  O242  1  0.62620986  0.25147815  0.34405065  1
  O2-  O243  1  0.62440594  0.24828730  0.84601420  1
  O2-  O244  1  0.62644402  0.49721362  0.34634348  1
  O2-  O245  1  0.62421213  0.50206219  0.84804879  1
  O2-  O246  1  0.62516039  0.74921916  0.35117133  1
  O2-  O247  1  0.62432878  0.74999255  0.84480058  1
  O2-  O248  1  0.87568755  -0.00139434  0.35159002  1
  O2-  O249  1  0.87528144  0.00178755  0.85153306  1
  O2-  O250  1  0.87603538  0.25251408  0.34971223  1
  O2-  O251  1  0.87464350  0.24692792  0.84813771  1
  O2-  O252  1  0.87556598  0.49752142  0.34963599  1
  O2-  O253  1  0.87494004  0.50379864  0.84788840  1
  O2-  O254  1  0.87646686  0.75124981  0.35088048  1
  O2-  O255  1  0.87532862  0.74777834  0.85202895  1
  O2-  O256  1  -0.00159117  0.12499998  0.34852097  1
  O2-  O257  1  -0.00215594  0.12505671  0.85472412  1
  O2-  O258  1  -0.00034850  0.37578154  0.35334950  1
  O2-  O259  1  0.00266252  0.37550889  0.84603305  1
  O2-  O260  1  0.00079698  0.62448713  0.34618035  1
  O2-  O261  1  -0.00036866  0.62564663  0.85333801  1
  O2-  O262  1  -0.00110170  0.87487346  0.35066950  1
  O2-  O263  1  0.00199029  0.87433158  0.85454514  1
  O2-  O264  1  0.24998677  0.12556861  0.34970843  1
  O2-  O265  1  0.25272527  0.12447243  0.84398277  1
  O2-  O266  1  0.24844168  0.37515063  0.34916276  1
  O2-  O267  1  0.25108019  0.37610995  0.83903761  1
  O2-  O268  1  0.24821911  0.62482491  0.34464004  1
  O2-  O269  1  0.25195340  0.62583357  0.84669822  1
  O2-  O270  1  0.25128488  0.87457009  0.34840303  1
  O2-  O271  1  0.24992896  0.87400587  0.84695777  1
  O2-  O272  1  0.50220756  0.12548938  0.34605726  1
  O2-  O273  1  0.49945105  0.12477692  0.83984946  1
  O2-  O274  1  0.50063130  0.37531487  0.34575985  1
  O2-  O275  1  0.49699870  0.37586468  0.84332033  1
  O2-  O276  1  0.50018424  0.62418595  0.34694323  1
  O2-  O277  1  0.49837174  0.62551932  0.84500661  1
  O2-  O278  1  0.49715351  0.87486398  0.35057136  1
  O2-  O279  1  0.49936942  0.87427052  0.83808237  1
  O2-  O280  1  0.74942799  0.12589553  0.34575291  1
  O2-  O281  1  0.74984782  0.12424584  0.85127875  1
  O2-  O282  1  0.75144526  0.37483682  0.34908032  1
  O2-  O283  1  0.74899262  0.37531282  0.85064747  1
  O2-  O284  1  0.75154221  0.62446628  0.34823509  1
  O2-  O285  1  0.74965286  0.62585186  0.85264623  1
  O2-  O286  1  0.75316243  0.87460866  0.35144724  1
  O2-  O287  1  0.74804618  0.87498755  0.84776437  1
