# generated using pymatgen
data_BaYFeCuO5
_symmetry_space_group_name_H-M   'P 1'
_cell_length_a   15.68268917
_cell_length_b   15.67379372
_cell_length_c   15.51606627
_cell_angle_alpha   90.00374977
_cell_angle_beta   90.00136184
_cell_angle_gamma   90.00413115
_symmetry_Int_Tables_number   1
_chemical_formula_structural   BaYFeCuO5
_chemical_formula_sum   'Ba32 Y32 Fe32 Cu32 O160'
_cell_volume   3813.96133008
_cell_formula_units_Z   32
loop_
 _symmetry_equiv_pos_site_id
 _symmetry_equiv_pos_as_xyz
  1  'x, y, z'
loop_
 _atom_type_symbol
 _atom_type_oxidation_number
  Ba2+  2.0
  Y3+  3.0
  Fe3+  3.0
  Cu2+  2.0
  O2-  -2.0
loop_
 _atom_site_type_symbol
 _atom_site_label
 _atom_site_symmetry_multiplicity
 _atom_site_fract_x
 _atom_site_fract_y
 _atom_site_fract_z
 _atom_site_occupancy
  Ba2+  Ba0  1  0.00285448  -0.00497994  -0.00301159  1
  Ba2+  Ba1  1  0.00239811  0.00255506  0.50121919  1
  Ba2+  Ba2  1  0.00573907  0.25283381  0.01326381  1
  Ba2+  Ba3  1  -0.00050891  0.25162891  0.51681539  1
  Ba2+  Ba4  1  0.00482222  0.49656727  0.01981187  1
  Ba2+  Ba5  1  -0.00210649  0.49867901  0.52098166  1
  Ba2+  Ba6  1  0.00157611  0.75728836  0.00736669  1
  Ba2+  Ba7  1  -0.00043906  0.74897826  0.50424780  1
  Ba2+  Ba8  1  0.25268130  0.00127827  -0.00902747  1
  Ba2+  Ba9  1  0.23839172  0.00152303  0.50265660  1
  Ba2+  Ba10  1  0.25412050  0.24573873  0.00082644  1
  Ba2+  Ba11  1  0.24197589  0.25379484  0.51629813  1
  Ba2+  Ba12  1  0.25020964  0.49985684  0.01606502  1
  Ba2+  Ba13  1  0.24935164  0.49973773  0.52529791  1
  Ba2+  Ba14  1  0.25036623  0.75102548  0.00768509  1
  Ba2+  Ba15  1  0.24445115  0.74328863  0.51225909  1
  Ba2+  Ba16  1  0.49889255  0.00093156  0.00805568  1
  Ba2+  Ba17  1  0.50027868  -0.00009058  0.50693769  1
  Ba2+  Ba18  1  0.49860781  0.24857147  0.00704068  1
  Ba2+  Ba19  1  0.50034141  0.26188706  0.51775504  1
  Ba2+  Ba20  1  0.50129222  0.49707258  0.01000143  1
  Ba2+  Ba21  1  0.50076259  0.50038672  0.52693983  1
  Ba2+  Ba22  1  0.50192773  0.75274535  0.01287462  1
  Ba2+  Ba23  1  0.50038269  0.73788500  0.51734203  1
  Ba2+  Ba24  1  0.74541764  -0.00687379  0.01232800  1
  Ba2+  Ba25  1  0.76030193  0.00038685  0.50689077  1
  Ba2+  Ba26  1  0.74299656  0.25377067  0.01580856  1
  Ba2+  Ba27  1  0.75744282  0.25844899  0.51421024  1
  Ba2+  Ba28  1  0.74311582  0.49487790  0.01440354  1
  Ba2+  Ba29  1  0.75230676  0.49846855  0.52204650  1
  Ba2+  Ba30  1  0.74575354  0.75846238  0.01132764  1
  Ba2+  Ba31  1  0.75507404  0.74245597  0.51380027  1
  Y3+  Y32  1  -0.00052978  -0.00152865  0.25999261  1
  Y3+  Y33  1  0.00091977  0.00152549  0.75831228  1
  Y3+  Y34  1  -0.00028265  0.25153501  0.25877697  1
  Y3+  Y35  1  0.00077894  0.24872649  0.75488185  1
  Y3+  Y36  1  -0.00108824  0.49743297  0.25430941  1
  Y3+  Y37  1  -0.00078649  0.49958229  0.75528629  1
  Y3+  Y38  1  -0.00090084  0.75174468  0.25556088  1
  Y3+  Y39  1  -0.00095592  0.75067040  0.76010026  1
  Y3+  Y40  1  0.24853094  0.00219651  0.26203059  1
  Y3+  Y41  1  0.24886494  0.00222526  0.75748557  1
  Y3+  Y42  1  0.24918209  0.24867356  0.25728057  1
  Y3+  Y43  1  0.24978038  0.24874774  0.75739708  1
  Y3+  Y44  1  0.24926050  0.50099605  0.25278880  1
  Y3+  Y45  1  0.25097350  0.49900310  0.75716614  1
  Y3+  Y46  1  0.24894380  0.74805402  0.25694020  1
  Y3+  Y47  1  0.24998199  0.75018955  0.75833551  1
  Y3+  Y48  1  0.50068453  0.00103727  0.25674910  1
  Y3+  Y49  1  0.49921325  -0.00010208  0.75974869  1
  Y3+  Y50  1  0.50008682  0.24939116  0.25345266  1
  Y3+  Y51  1  0.49871896  0.25281272  0.76108581  1
  Y3+  Y52  1  0.50129318  0.50090071  0.25056914  1
  Y3+  Y53  1  0.50065781  0.49757388  0.76003867  1
  Y3+  Y54  1  0.50117246  0.74865451  0.25434454  1
  Y3+  Y55  1  0.50093367  0.74973130  0.75949845  1
  Y3+  Y56  1  0.75088141  -0.00185975  0.25505569  1
  Y3+  Y57  1  0.75205760  -0.00160016  0.76092906  1
  Y3+  Y58  1  0.75015734  0.25273928  0.25530589  1
  Y3+  Y59  1  0.75110497  0.25229153  0.75674786  1
  Y3+  Y60  1  0.74996492  0.49728187  0.25281716  1
  Y3+  Y61  1  0.74965525  0.49851552  0.75774722  1
  Y3+  Y62  1  0.75011973  0.75186546  0.25295348  1
  Y3+  Y63  1  0.75051084  0.75111160  0.76134957  1
  Fe3+  Fe64  1  0.37519237  0.37700197  0.37676226  1
  Fe3+  Fe65  1  0.87469547  0.12683400  0.37577775  1
  Fe3+  Fe66  1  0.37513264  0.12728155  0.38204109  1
  Fe3+  Fe67  1  0.12406324  0.62282284  0.37447358  1
  Fe3+  Fe68  1  0.62575612  0.12664158  0.38027332  1
  Fe3+  Fe69  1  0.62572483  0.62319695  0.37467678  1
  Fe3+  Fe70  1  0.12471024  0.62438123  0.87717103  1
  Fe3+  Fe71  1  0.62539605  0.62469495  0.87723814  1
  Fe3+  Fe72  1  0.37480496  0.87305514  0.38217771  1
  Fe3+  Fe73  1  0.87506790  0.62430123  0.88093544  1
  Fe3+  Fe74  1  0.37513179  0.62454941  0.87720835  1
  Fe3+  Fe75  1  0.62575328  0.12536464  0.87524833  1
  Fe3+  Fe76  1  0.87499790  0.12600799  0.88064104  1
  Fe3+  Fe77  1  0.87416914  0.62319445  0.37327122  1
  Fe3+  Fe78  1  0.62466135  0.37685040  0.37575146  1
  Fe3+  Fe79  1  0.12538879  0.37521763  0.87544820  1
  Fe3+  Fe80  1  0.12467777  0.37648985  0.37615043  1
  Fe3+  Fe81  1  0.87568944  0.37489977  0.87845326  1
  Fe3+  Fe82  1  0.62560613  0.87335703  0.38092749  1
  Fe3+  Fe83  1  0.37559528  0.62248110  0.37567991  1
  Fe3+  Fe84  1  0.12611877  0.87688683  0.14020487  1
  Fe3+  Fe85  1  0.37358318  0.87661795  0.14060837  1
  Fe3+  Fe86  1  0.12419278  0.87471457  0.63966477  1
  Fe3+  Fe87  1  0.87558955  0.12451018  0.13416277  1
  Fe3+  Fe88  1  0.62580392  0.87457716  0.63458639  1
  Fe3+  Fe89  1  0.37519666  0.12519272  0.63483726  1
  Fe3+  Fe90  1  0.87470394  0.62554487  0.13277329  1
  Fe3+  Fe91  1  0.62634685  0.12543250  0.63390446  1
  Fe3+  Fe92  1  0.37399839  0.37345177  0.13617178  1
  Fe3+  Fe93  1  0.87601867  0.87503999  0.63940664  1
  Fe3+  Fe94  1  0.12589755  0.12364875  0.13793113  1
  Fe3+  Fe95  1  0.37459116  0.87460118  0.63479052  1
  Cu2+  Cu96  1  0.37410955  0.37556826  0.86457768  1
  Cu2+  Cu97  1  0.37516807  0.87431727  0.86039375  1
  Cu2+  Cu98  1  0.87419785  0.87384345  0.36315865  1
  Cu2+  Cu99  1  0.62418906  0.87552046  0.87152408  1
  Cu2+  Cu100  1  0.12571488  0.87464411  0.86151432  1
  Cu2+  Cu101  1  0.87462539  0.37647159  0.37068486  1
  Cu2+  Cu102  1  0.12432338  0.12582315  0.86314374  1
  Cu2+  Cu103  1  0.37586691  0.12525185  0.87116671  1
  Cu2+  Cu104  1  0.12384559  0.12727274  0.37420625  1
  Cu2+  Cu105  1  0.62541952  0.37448310  0.87213134  1
  Cu2+  Cu106  1  0.87483750  0.87502647  0.87443249  1
  Cu2+  Cu107  1  0.12503832  0.87341408  0.36502114  1
  Cu2+  Cu108  1  0.62351716  0.87598721  0.14551948  1
  Cu2+  Cu109  1  0.87517483  0.37386369  0.14525464  1
  Cu2+  Cu110  1  0.12417650  0.62589110  0.65445145  1
  Cu2+  Cu111  1  0.87608285  0.87645853  0.14117147  1
  Cu2+  Cu112  1  0.62549512  0.37471585  0.65465138  1
  Cu2+  Cu113  1  0.62306067  0.37388214  0.14130367  1
  Cu2+  Cu114  1  0.12419651  0.62610530  0.14712792  1
  Cu2+  Cu115  1  0.37385128  0.12338529  0.14327088  1
  Cu2+  Cu116  1  0.37483101  0.62604783  0.14560098  1
  Cu2+  Cu117  1  0.37452785  0.37460484  0.65421123  1
  Cu2+  Cu118  1  0.62600277  0.62543728  0.65541710  1
  Cu2+  Cu119  1  0.12484031  0.37523778  0.65370933  1
  Cu2+  Cu120  1  0.87458186  0.12400107  0.65267266  1
  Cu2+  Cu121  1  0.12440970  0.12407358  0.64222759  1
  Cu2+  Cu122  1  0.87573937  0.37506548  0.64370036  1
  Cu2+  Cu123  1  0.62496351  0.12449174  0.15183101  1
  Cu2+  Cu124  1  0.37491965  0.62541866  0.65491329  1
  Cu2+  Cu125  1  0.87519925  0.62634175  0.65616374  1
  Cu2+  Cu126  1  0.12616462  0.37352494  0.15056533  1
  Cu2+  Cu127  1  0.62551629  0.62549875  0.14584670  1
  O2-  O128  1  0.12679891  0.12218032  0.01791471  1
  O2-  O129  1  0.12370735  0.12643398  0.50842403  1
  O2-  O130  1  0.12597508  0.37526141  -0.00451833  1
  O2-  O131  1  0.12471195  0.37849132  0.49617617  1
  O2-  O132  1  0.12563859  0.62455237  -0.00311089  1
  O2-  O133  1  0.12365190  0.62237801  0.49435058  1
  O2-  O134  1  0.12847257  0.87783210  0.02018936  1
  O2-  O135  1  0.12291645  0.87257423  0.51943590  1
  O2-  O136  1  0.37484004  0.12345028  0.00744831  1
  O2-  O137  1  0.37538451  0.12752794  0.50835441  1
  O2-  O138  1  0.37363895  0.37293525  0.01569687  1
  O2-  O139  1  0.37584201  0.37883174  0.49661878  1
  O2-  O140  1  0.37440669  0.62614500  -0.00274482  1
  O2-  O141  1  0.37532606  0.62191778  0.49539719  1
  O2-  O142  1  0.37344284  0.87688154  0.02053845  1
  O2-  O143  1  0.37482179  0.87218692  0.50875332  1
  O2-  O144  1  0.62506337  0.12385270  -0.00463982  1
  O2-  O145  1  0.62636824  0.12719050  0.50641646  1
  O2-  O146  1  0.62349715  0.37348300  0.00577552  1
  O2-  O147  1  0.62463880  0.37837272  0.49590630  1
  O2-  O148  1  0.62438182  0.62616464  -0.00288927  1
  O2-  O149  1  0.62635741  0.62260849  0.49444245  1
  O2-  O150  1  0.62218886  0.87641291  0.00666485  1
  O2-  O151  1  0.62702874  0.87201105  0.50760380  1
  O2-  O152  1  0.87523983  0.12523915  0.00690703  1
  O2-  O153  1  0.87464619  0.12689655  0.49622715  1
  O2-  O154  1  0.87623946  0.37389765  -0.00172204  1
  O2-  O155  1  0.87554872  0.37691044  0.50717418  1
  O2-  O156  1  0.87519839  0.62528439  0.00578268  1
  O2-  O157  1  0.87488710  0.62305911  0.49348213  1
  O2-  O158  1  0.87595747  0.87617455  0.00807192  1
  O2-  O159  1  0.87550044  0.87351243  0.51922322  1
  O2-  O160  1  0.12479130  0.00042466  0.17589832  1
  O2-  O161  1  0.12511436  -0.00219350  0.66766294  1
  O2-  O162  1  0.12500763  0.24869247  0.16581565  1
  O2-  O163  1  0.12512378  0.25085366  0.66384474  1
  O2-  O164  1  0.12516663  0.49960381  0.15755108  1
  O2-  O165  1  0.12451841  0.50096429  0.66390828  1
  O2-  O166  1  0.12512503  0.75123370  0.16574635  1
  O2-  O167  1  0.12541450  0.75074728  0.66812129  1
  O2-  O168  1  0.37479984  -0.00173359  0.17693821  1
  O2-  O169  1  0.37691149  -0.00044964  0.66114377  1
  O2-  O170  1  0.37472407  0.25047308  0.16718333  1
  O2-  O171  1  0.37572472  0.24831060  0.66352420  1
  O2-  O172  1  0.37448017  0.50030008  0.15894359  1
  O2-  O173  1  0.37523647  0.50026548  0.66553601  1
  O2-  O174  1  0.37464825  0.75077990  0.16693757  1
  O2-  O175  1  0.37540952  0.75184750  0.66355999  1
  O2-  O176  1  0.62475819  0.00125102  0.17287662  1
  O2-  O177  1  0.62415051  -0.00064638  0.65855473  1
  O2-  O178  1  0.62417821  0.24833184  0.16591088  1
  O2-  O179  1  0.62539863  0.24831540  0.66157295  1
  O2-  O180  1  0.62462013  0.50071181  0.15843210  1
  O2-  O181  1  0.62550409  0.50012939  0.66562519  1
  O2-  O182  1  0.62503497  0.74942782  0.16580258  1
  O2-  O183  1  0.62538232  0.75211413  0.66283072  1
  O2-  O184  1  0.87475733  0.00348386  0.16801879  1
  O2-  O185  1  0.87438256  -0.00128188  0.66837468  1
  O2-  O186  1  0.87494012  0.24814042  0.16236350  1
  O2-  O187  1  0.87463391  0.24818149  0.66543926  1
  O2-  O188  1  0.87467576  0.50067214  0.15801685  1
  O2-  O189  1  0.87521293  0.50239605  0.66631228  1
  O2-  O190  1  0.87468769  0.74788839  0.16291785  1
  O2-  O191  1  0.87410374  0.75107217  0.66867442  1
  O2-  O192  1  -0.00070350  0.12542589  0.16367813  1
  O2-  O193  1  -0.00195814  0.12436469  0.66794379  1
  O2-  O194  1  0.00117607  0.37416212  0.16235618  1
  O2-  O195  1  0.00128998  0.37485940  0.66587291  1
  O2-  O196  1  -0.00212875  0.62502259  0.16060696  1
  O2-  O197  1  -0.00031508  0.62613598  0.66691689  1
  O2-  O198  1  0.00233202  0.87543629  0.16749394  1
  O2-  O199  1  -0.00029517  0.87452783  0.67154261  1
  O2-  O200  1  0.24785920  0.12422074  0.17202926  1
  O2-  O201  1  0.25380464  0.12422258  0.66378914  1
  O2-  O202  1  0.25059007  0.37485148  0.16664363  1
  O2-  O203  1  0.24958694  0.37517258  0.66343263  1
  O2-  O204  1  0.24882577  0.62599103  0.16396784  1
  O2-  O205  1  0.24976411  0.62572608  0.66361144  1
  O2-  O206  1  0.24950497  0.87503264  0.17499808  1
  O2-  O207  1  0.25164923  0.87500144  0.66450278  1
  O2-  O208  1  0.50120335  0.12353574  0.16760459  1
  O2-  O209  1  0.50061352  0.12457615  0.65926744  1
  O2-  O210  1  0.49733080  0.37449158  0.16514534  1
  O2-  O211  1  0.50038337  0.37473574  0.66507868  1
  O2-  O212  1  0.50082523  0.62645150  0.16259104  1
  O2-  O213  1  0.50059047  0.62581454  0.66362873  1
  O2-  O214  1  0.49822078  0.87545634  0.17053193  1
  O2-  O215  1  0.50032032  0.87457631  0.65927288  1
  O2-  O216  1  0.75132036  0.12484761  0.16150399  1
  O2-  O217  1  0.74801729  0.12365367  0.66323027  1
  O2-  O218  1  0.74991027  0.37373920  0.16275039  1
  O2-  O219  1  0.74935550  0.37517281  0.66575961  1
  O2-  O220  1  0.75153421  0.62512823  0.15963434  1
  O2-  O221  1  0.75032537  0.62575284  0.66612078  1
  O2-  O222  1  0.74929190  0.87619747  0.16369026  1
  O2-  O223  1  0.74889774  0.87521690  0.66637403  1
  O2-  O224  1  0.12499044  -0.00159394  0.35671214  1
  O2-  O225  1  0.12570958  -0.00010420  0.85003181  1
  O2-  O226  1  0.12504295  0.25263518  0.34651387  1
  O2-  O227  1  0.12513833  0.25077995  0.84682731  1
  O2-  O228  1  0.12476589  0.50016616  0.33831566  1
  O2-  O229  1  0.12496110  0.50021123  0.84474198  1
  O2-  O230  1  0.12495737  0.74848295  0.34773553  1
  O2-  O231  1  0.12513003  0.74916720  0.84957577  1
  O2-  O232  1  0.37578435  0.00009355  0.36034903  1
  O2-  O233  1  0.37473135  -0.00169737  0.84532285  1
  O2-  O234  1  0.37593565  0.24983037  0.34900542  1
  O2-  O235  1  0.37460068  0.25151005  0.84774131  1
  O2-  O236  1  0.37548451  0.50024236  0.33867021  1
  O2-  O237  1  0.37468619  0.50079062  0.84825025  1
  O2-  O238  1  0.37552449  0.74985363  0.34906341  1
  O2-  O239  1  0.37534162  0.74909175  0.84679433  1
  O2-  O240  1  0.62426528  0.00003578  0.35830636  1
  O2-  O241  1  0.62522899  0.00232011  0.84206102  1
  O2-  O242  1  0.62467137  0.24897843  0.34844433  1
  O2-  O243  1  0.62532385  0.24835353  0.84441638  1
  O2-  O244  1  0.62486193  0.50020562  0.33885527  1
  O2-  O245  1  0.62549843  0.50146250  0.84820467  1
  O2-  O246  1  0.62449457  0.75074856  0.34841795  1
  O2-  O247  1  0.62492031  0.74782697  0.84574069  1
  O2-  O248  1  0.87398654  -0.00040045  0.35134730  1
  O2-  O249  1  0.87530426  0.00315853  0.85119406  1
  O2-  O250  1  0.87358913  0.24935981  0.34515268  1
  O2-  O251  1  0.87579177  0.24902693  0.84816086  1
  O2-  O252  1  0.87412293  0.50166839  0.33960953  1
  O2-  O253  1  0.87543865  0.50080508  0.84873588  1
  O2-  O254  1  0.87451215  0.74944776  0.34619352  1
  O2-  O255  1  0.87530793  0.74711412  0.85132621  1
  O2-  O256  1  -0.00232140  0.12462925  0.34529061  1
  O2-  O257  1  -0.00125863  0.12495519  0.85216308  1
  O2-  O258  1  0.00099800  0.37577017  0.34514028  1
  O2-  O259  1  -0.00010280  0.37486068  0.84624730  1
  O2-  O260  1  -0.00038429  0.62553492  0.34218462  1
  O2-  O261  1  -0.00103993  0.62490281  0.84966882  1
  O2-  O262  1  -0.00006669  0.87417997  0.35020084  1
  O2-  O263  1  0.00174074  0.87501252  0.85291357  1
  O2-  O264  1  0.25335970  0.12529712  0.35349769  1
  O2-  O265  1  0.24850275  0.12504113  0.84746409  1
  O2-  O266  1  0.25067490  0.37539735  0.34608930  1
  O2-  O267  1  0.24917006  0.37470189  0.84609455  1
  O2-  O268  1  0.25019567  0.62473437  0.34533268  1
  O2-  O269  1  0.24995953  0.62553943  0.84583318  1
  O2-  O270  1  0.25242758  0.87454078  0.35583344  1
  O2-  O271  1  0.25022547  0.87485395  0.84776939  1
  O2-  O272  1  0.50039077  0.12439471  0.35258421  1
  O2-  O273  1  0.50156632  0.12472933  0.84335904  1
  O2-  O274  1  0.50012906  0.37467294  0.34437147  1
  O2-  O275  1  0.49841199  0.37487202  0.84944419  1
  O2-  O276  1  0.50055320  0.62526696  0.34375151  1
  O2-  O277  1  0.49977953  0.62489287  0.84600875  1
  O2-  O278  1  0.50013779  0.87547355  0.35421173  1
  O2-  O279  1  0.49857349  0.87552211  0.84359351  1
  O2-  O280  1  0.74799227  0.12412412  0.34601268  1
  O2-  O281  1  0.75214171  0.12540988  0.84681171  1
  O2-  O282  1  0.74758201  0.37497489  0.34493308  1
  O2-  O283  1  0.75295909  0.37456885  0.84736247  1
  O2-  O284  1  0.74920484  0.62606043  0.34080391  1
  O2-  O285  1  0.75174792  0.62484706  0.84914275  1
  O2-  O286  1  0.74686610  0.87518741  0.34781640  1
  O2-  O287  1  0.75021528  0.87521055  0.84882147  1
