# generated using pymatgen
data_BaYFeCuO5
_symmetry_space_group_name_H-M   'P 1'
_cell_length_a   15.68700898
_cell_length_b   15.68296120
_cell_length_c   15.53450879
_cell_angle_alpha   90.00286397
_cell_angle_beta   89.99738260
_cell_angle_gamma   90.00296180
_symmetry_Int_Tables_number   1
_chemical_formula_structural   BaYFeCuO5
_chemical_formula_sum   'Ba32 Y32 Fe32 Cu32 O160'
_cell_volume   3821.78047032
_cell_formula_units_Z   32
loop_
 _symmetry_equiv_pos_site_id
 _symmetry_equiv_pos_as_xyz
  1  'x, y, z'
loop_
 _atom_type_symbol
 _atom_type_oxidation_number
  Ba2+  2.0
  Y3+  3.0
  Fe3+  3.0
  Cu2+  2.0
  O2-  -2.0
loop_
 _atom_site_type_symbol
 _atom_site_label
 _atom_site_symmetry_multiplicity
 _atom_site_fract_x
 _atom_site_fract_y
 _atom_site_fract_z
 _atom_site_occupancy
  Ba2+  Ba0  1  -0.00280262  -0.00020357  0.01210312  1
  Ba2+  Ba1  1  0.00106622  -0.01174779  0.50719976  1
  Ba2+  Ba2  1  -0.00041120  0.24855354  0.02822417  1
  Ba2+  Ba3  1  0.00147979  0.26001675  0.50639040  1
  Ba2+  Ba4  1  0.00500937  0.49329309  0.01221079  1
  Ba2+  Ba5  1  0.00292194  0.50667645  0.51342123  1
  Ba2+  Ba6  1  0.00269903  0.75684221  -0.00304175  1
  Ba2+  Ba7  1  0.00307994  0.74521115  0.51400855  1
  Ba2+  Ba8  1  0.25077851  0.00204585  0.01657035  1
  Ba2+  Ba9  1  0.25435553  -0.00707478  0.52105638  1
  Ba2+  Ba10  1  0.25052867  0.24990815  0.02733600  1
  Ba2+  Ba11  1  0.25238379  0.25643406  0.50173534  1
  Ba2+  Ba12  1  0.25329091  0.50079995  0.01186426  1
  Ba2+  Ba13  1  0.24918558  0.50694339  0.49510036  1
  Ba2+  Ba14  1  0.25201554  0.74796269  0.00139621  1
  Ba2+  Ba15  1  0.25083757  0.74514938  0.51957479  1
  Ba2+  Ba16  1  0.49977491  0.00289329  0.01804261  1
  Ba2+  Ba17  1  0.49807894  -0.00993588  0.51620135  1
  Ba2+  Ba18  1  0.50027247  0.24913707  0.02859561  1
  Ba2+  Ba19  1  0.49175768  0.25060387  0.50706457  1
  Ba2+  Ba20  1  0.49286790  0.49641699  0.01750912  1
  Ba2+  Ba21  1  0.49546392  0.51100197  0.50248153  1
  Ba2+  Ba22  1  0.49205320  0.75211329  0.00755590  1
  Ba2+  Ba23  1  0.50104723  0.74734439  0.51335882  1
  Ba2+  Ba24  1  0.75253702  0.00041791  0.01255404  1
  Ba2+  Ba25  1  0.74732679  -0.01336478  0.50173173  1
  Ba2+  Ba26  1  0.74966700  0.24729891  0.02877613  1
  Ba2+  Ba27  1  0.75435169  0.25529239  0.51038576  1
  Ba2+  Ba28  1  0.74954054  0.48864649  0.01732623  1
  Ba2+  Ba29  1  0.75264121  0.51000954  0.51894771  1
  Ba2+  Ba30  1  0.75171751  0.76103547  0.00212184  1
  Ba2+  Ba31  1  0.74377330  0.74890064  0.50719214  1
  Y3+  Y32  1  -0.00146667  -0.00224595  0.25570779  1
  Y3+  Y33  1  0.00046606  -0.00334537  0.75938361  1
  Y3+  Y34  1  0.00143699  0.25097690  0.25978634  1
  Y3+  Y35  1  -0.00004327  0.25087709  0.75203833  1
  Y3+  Y36  1  0.00353358  0.50069693  0.25866290  1
  Y3+  Y37  1  0.00113158  0.50278662  0.75718594  1
  Y3+  Y38  1  -0.00045194  0.75070017  0.25717660  1
  Y3+  Y39  1  0.00361849  0.74963292  0.75957014  1
  Y3+  Y40  1  0.25086777  -0.00026532  0.25518879  1
  Y3+  Y41  1  0.25046886  -0.00128254  0.75653770  1
  Y3+  Y42  1  0.24975714  0.25262475  0.26008869  1
  Y3+  Y43  1  0.25141507  0.24888260  0.75267129  1
  Y3+  Y44  1  0.25140039  0.50180836  0.25810143  1
  Y3+  Y45  1  0.25044397  0.50495379  0.75911630  1
  Y3+  Y46  1  0.25250742  0.74643760  0.25647516  1
  Y3+  Y47  1  0.24991162  0.74700022  0.75961462  1
  Y3+  Y48  1  0.50017982  -0.00182793  0.25846748  1
  Y3+  Y49  1  0.50047110  -0.00227841  0.75471664  1
  Y3+  Y50  1  0.49858070  0.25123547  0.26061205  1
  Y3+  Y51  1  0.49864697  0.24904019  0.75147404  1
  Y3+  Y52  1  0.49683455  0.50292525  0.25905440  1
  Y3+  Y53  1  0.49871435  0.50422908  0.75715650  1
  Y3+  Y54  1  0.49947747  0.74780516  0.25970107  1
  Y3+  Y55  1  0.49956933  0.74890401  0.75649119  1
  Y3+  Y56  1  0.75058268  -0.00370938  0.25734161  1
  Y3+  Y57  1  0.74884095  -0.00414475  0.75861830  1
  Y3+  Y58  1  0.75001344  0.24984326  0.25979671  1
  Y3+  Y59  1  0.75048642  0.25068038  0.75163080  1
  Y3+  Y60  1  0.74795688  0.50186216  0.25767959  1
  Y3+  Y61  1  0.75010031  0.50207833  0.75651039  1
  Y3+  Y62  1  0.74873305  0.75232767  0.25931793  1
  Y3+  Y63  1  0.74768937  0.75121529  0.75841017  1
  Fe3+  Fe64  1  0.37536028  0.87685012  0.87545173  1
  Fe3+  Fe65  1  0.87484834  0.37240923  0.87446718  1
  Fe3+  Fe66  1  0.12510245  0.12687060  0.87525733  1
  Fe3+  Fe67  1  0.37419087  0.87321869  0.37572729  1
  Fe3+  Fe68  1  0.12657772  0.87297654  0.37666418  1
  Fe3+  Fe69  1  0.62460622  0.37717615  0.37994925  1
  Fe3+  Fe70  1  0.37576182  0.12667522  0.87451530  1
  Fe3+  Fe71  1  0.62413742  0.37265820  0.87462650  1
  Fe3+  Fe72  1  0.87467314  0.62403478  0.88087651  1
  Fe3+  Fe73  1  0.62442413  0.62407876  0.88173417  1
  Fe3+  Fe74  1  0.87548849  0.12367296  0.38018751  1
  Fe3+  Fe75  1  0.62477909  0.12636655  0.87427774  1
  Fe3+  Fe76  1  0.87498046  0.37799663  0.37666691  1
  Fe3+  Fe77  1  0.12522980  0.12314906  0.37977502  1
  Fe3+  Fe78  1  0.62463889  0.12395143  0.38035304  1
  Fe3+  Fe79  1  0.87520720  0.62640825  0.37486861  1
  Fe3+  Fe80  1  0.37546543  0.37298929  0.87588821  1
  Fe3+  Fe81  1  0.37406218  0.12301995  0.37784246  1
  Fe3+  Fe82  1  0.12596054  0.37247479  0.87611868  1
  Fe3+  Fe83  1  0.87472852  0.12672097  0.87389063  1
  Fe3+  Fe84  1  0.12489378  0.62553846  0.13622903  1
  Fe3+  Fe85  1  0.62391123  0.87438739  0.13798855  1
  Fe3+  Fe86  1  0.12642986  0.37762624  0.63574623  1
  Fe3+  Fe87  1  0.62470750  0.62537420  0.13431068  1
  Fe3+  Fe88  1  0.87498169  0.62548620  0.13328222  1
  Fe3+  Fe89  1  0.87501556  0.87276933  0.63970873  1
  Fe3+  Fe90  1  0.12489123  0.12406582  0.63156731  1
  Fe3+  Fe91  1  0.37405089  0.37797802  0.63486289  1
  Fe3+  Fe92  1  0.87560061  0.12287104  0.63135313  1
  Fe3+  Fe93  1  0.12594917  0.87419876  0.13664375  1
  Fe3+  Fe94  1  0.62407133  0.37731118  0.63200926  1
  Fe3+  Fe95  1  0.62548563  0.12373367  0.63106983  1
  Cu2+  Cu96  1  0.12467546  0.62681819  0.37046777  1
  Cu2+  Cu97  1  0.37582971  0.62401707  0.87398981  1
  Cu2+  Cu98  1  0.12476444  0.62373585  0.86919608  1
  Cu2+  Cu99  1  0.62346052  0.87583250  0.86545820  1
  Cu2+  Cu100  1  0.87556383  0.87395119  0.36354997  1
  Cu2+  Cu101  1  0.12665196  0.87654379  0.86430777  1
  Cu2+  Cu102  1  0.62526814  0.62549305  0.37202284  1
  Cu2+  Cu103  1  0.62323006  0.87408820  0.37187951  1
  Cu2+  Cu104  1  0.87496491  0.87636439  0.87249447  1
  Cu2+  Cu105  1  0.37500073  0.37601963  0.36488737  1
  Cu2+  Cu106  1  0.37440285  0.62682949  0.37084762  1
  Cu2+  Cu107  1  0.12483587  0.37633402  0.36472603  1
  Cu2+  Cu108  1  0.62518794  0.87361123  0.64320693  1
  Cu2+  Cu109  1  0.62503333  0.12430737  0.15864271  1
  Cu2+  Cu110  1  0.12545166  0.87420646  0.65340709  1
  Cu2+  Cu111  1  0.37478616  0.62456483  0.64415679  1
  Cu2+  Cu112  1  0.37470481  0.87347915  0.65417651  1
  Cu2+  Cu113  1  0.62412742  0.37553619  0.15758923  1
  Cu2+  Cu114  1  0.37470484  0.37513119  0.15762829  1
  Cu2+  Cu115  1  0.12579785  0.37552806  0.15572637  1
  Cu2+  Cu116  1  0.37489852  0.87462203  0.15101716  1
  Cu2+  Cu117  1  0.87515350  0.62694923  0.65726764  1
  Cu2+  Cu118  1  0.87562231  0.37677426  0.64739853  1
  Cu2+  Cu119  1  0.37497795  0.62562404  0.14160351  1
  Cu2+  Cu120  1  0.87541028  0.37609531  0.15667398  1
  Cu2+  Cu121  1  0.37471485  0.12461024  0.64351082  1
  Cu2+  Cu122  1  0.62448521  0.62556952  0.64465259  1
  Cu2+  Cu123  1  0.87491491  0.12438155  0.15849148  1
  Cu2+  Cu124  1  0.12610661  0.62480936  0.64440541  1
  Cu2+  Cu125  1  0.87522727  0.87352497  0.14164790  1
  Cu2+  Cu126  1  0.12485353  0.12461887  0.15640582  1
  Cu2+  Cu127  1  0.37510310  0.12504386  0.15700761  1
  O2-  O128  1  0.12439419  0.12878815  -0.00511337  1
  O2-  O129  1  0.12513037  0.12278647  0.50521319  1
  O2-  O130  1  0.12472022  0.36862445  -0.00421833  1
  O2-  O131  1  0.12564271  0.37898339  0.51558015  1
  O2-  O132  1  0.12398776  0.62383940  0.01612066  1
  O2-  O133  1  0.12471297  0.62605310  0.50851164  1
  O2-  O134  1  0.12547688  0.87768724  0.01654429  1
  O2-  O135  1  0.12690951  0.87318331  0.49670726  1
  O2-  O136  1  0.37642589  0.12798964  -0.00594075  1
  O2-  O137  1  0.37307373  0.12272388  0.49750379  1
  O2-  O138  1  0.37645060  0.36949216  -0.00439924  1
  O2-  O139  1  0.37354940  0.37836970  0.51469962  1
  O2-  O140  1  0.37561803  0.62324029  0.00810075  1
  O2-  O141  1  0.37409447  0.62643368  0.50819351  1
  O2-  O142  1  0.37544177  0.88027303  -0.00454274  1
  O2-  O143  1  0.37340616  0.87317325  0.49570412  1
  O2-  O144  1  0.62509943  0.12872017  -0.00611774  1
  O2-  O145  1  0.62509049  0.12309313  0.50523424  1
  O2-  O146  1  0.62534105  0.36877527  -0.00582112  1
  O2-  O147  1  0.62533323  0.37860300  0.50567126  1
  O2-  O148  1  0.62469870  0.62344015  0.00785809  1
  O2-  O149  1  0.62589123  0.62471694  0.50726155  1
  O2-  O150  1  0.62436339  0.87780312  0.01793070  1
  O2-  O151  1  0.62393404  0.87389385  0.50794462  1
  O2-  O152  1  0.87419951  0.12905929  -0.00621593  1
  O2-  O153  1  0.87614712  0.12202788  0.50554832  1
  O2-  O154  1  0.87347255  0.36876879  -0.00610338  1
  O2-  O155  1  0.87507742  0.37972405  0.49632218  1
  O2-  O156  1  0.87530927  0.62277568  0.00701577  1
  O2-  O157  1  0.87512449  0.62655816  0.49478276  1
  O2-  O158  1  0.87506857  0.87798811  0.00766890  1
  O2-  O159  1  0.87545047  0.87215698  0.51938557  1
  O2-  O160  1  0.12486194  -0.00034577  0.16698308  1
  O2-  O161  1  0.12437312  0.00104015  0.66045434  1
  O2-  O162  1  0.12473574  0.24992960  0.17028985  1
  O2-  O163  1  0.12416262  0.24901516  0.65585415  1
  O2-  O164  1  0.12451056  0.50041595  0.16476596  1
  O2-  O165  1  0.12479529  0.49886855  0.66998470  1
  O2-  O166  1  0.12536932  0.74972501  0.16574467  1
  O2-  O167  1  0.12542840  0.75089949  0.66920669  1
  O2-  O168  1  0.37546145  0.00067232  0.16411220  1
  O2-  O169  1  0.37518663  -0.00149947  0.66102399  1
  O2-  O170  1  0.37497027  0.24996219  0.16978929  1
  O2-  O171  1  0.37488438  0.25133178  0.65811628  1
  O2-  O172  1  0.37564522  0.49880405  0.16488246  1
  O2-  O173  1  0.37544112  0.49834563  0.67055050  1
  O2-  O174  1  0.37520359  0.75103145  0.16327624  1
  O2-  O175  1  0.37494255  0.75123355  0.66894887  1
  O2-  O176  1  0.62462015  -0.00059936  0.16819986  1
  O2-  O177  1  0.62578234  0.00263268  0.66231180  1
  O2-  O178  1  0.62555562  0.24982860  0.17165129  1
  O2-  O179  1  0.62574231  0.25044113  0.65271537  1
  O2-  O180  1  0.62478309  0.50134530  0.16231670  1
  O2-  O181  1  0.62573951  0.49724259  0.66682259  1
  O2-  O182  1  0.62496051  0.74866606  0.16483373  1
  O2-  O183  1  0.62472237  0.74984590  0.67024319  1
  O2-  O184  1  0.87483423  0.00050864  0.16723085  1
  O2-  O185  1  0.87528246  0.00052207  0.66490219  1
  O2-  O186  1  0.87452331  0.25052005  0.17122088  1
  O2-  O187  1  0.87559783  0.24762521  0.65368223  1
  O2-  O188  1  0.87446185  0.50164520  0.15976290  1
  O2-  O189  1  0.87463399  0.50224643  0.66703029  1
  O2-  O190  1  0.87385796  0.74611316  0.16314675  1
  O2-  O191  1  0.87554514  0.75063698  0.67350991  1
  O2-  O192  1  -0.00051617  0.12555171  0.16846630  1
  O2-  O193  1  0.00001980  0.12457583  0.65932960  1
  O2-  O194  1  0.00019921  0.37427620  0.16563649  1
  O2-  O195  1  0.00068779  0.37565551  0.66318599  1
  O2-  O196  1  -0.00078614  0.62440847  0.16539493  1
  O2-  O197  1  -0.00082807  0.62575717  0.66688025  1
  O2-  O198  1  0.00230712  0.87499062  0.16710375  1
  O2-  O199  1  -0.00003874  0.87446737  0.66694684  1
  O2-  O200  1  0.25019302  0.12530676  0.16508291  1
  O2-  O201  1  0.24743251  0.12428489  0.66166009  1
  O2-  O202  1  0.25030735  0.37421875  0.16613713  1
  O2-  O203  1  0.24992414  0.37428357  0.66649720  1
  O2-  O204  1  0.24831507  0.62410177  0.16575980  1
  O2-  O205  1  0.25067412  0.62559694  0.66850694  1
  O2-  O206  1  0.25038697  0.87641439  0.16338801  1
  O2-  O207  1  0.25062521  0.87519131  0.66391044  1
  O2-  O208  1  0.49987655  0.12590541  0.16731166  1
  O2-  O209  1  0.50221702  0.12543152  0.65823415  1
  O2-  O210  1  0.49954641  0.37382807  0.16819169  1
  O2-  O211  1  0.50092177  0.37434740  0.66030640  1
  O2-  O212  1  0.50280203  0.62457714  0.16448553  1
  O2-  O213  1  0.49971933  0.62502405  0.66604721  1
  O2-  O214  1  0.49966741  0.87559557  0.16556103  1
  O2-  O215  1  0.49794531  0.87465529  0.66308656  1
  O2-  O216  1  0.75028540  0.12511463  0.16965037  1
  O2-  O217  1  0.75067497  0.12612822  0.65782650  1
  O2-  O218  1  0.74986584  0.37496499  0.16648288  1
  O2-  O219  1  0.74900235  0.37516146  0.65860376  1
  O2-  O220  1  0.74921437  0.62328012  0.16151824  1
  O2-  O221  1  0.75096196  0.62561801  0.66794142  1
  O2-  O222  1  0.74753704  0.87524262  0.16781049  1
  O2-  O223  1  0.75173216  0.87423776  0.66837621  1
  O2-  O224  1  0.12446326  0.00050124  0.34854988  1
  O2-  O225  1  0.12527206  0.00265122  0.84383828  1
  O2-  O226  1  0.12441585  0.24780871  0.35498448  1
  O2-  O227  1  0.12500291  0.24977238  0.83463131  1
  O2-  O228  1  0.12508818  0.50047036  0.34795198  1
  O2-  O229  1  0.12437191  0.49781643  0.85060859  1
  O2-  O230  1  0.12415942  0.75170640  0.34433667  1
  O2-  O231  1  0.12535452  0.74988960  0.85388296  1
  O2-  O232  1  0.37450919  -0.00007825  0.34510305  1
  O2-  O233  1  0.37550420  0.00182318  0.84195219  1
  O2-  O234  1  0.37465731  0.24893459  0.35269168  1
  O2-  O235  1  0.37560665  0.24953443  0.83651416  1
  O2-  O236  1  0.37473940  0.50002470  0.34889618  1
  O2-  O237  1  0.37585967  0.49769627  0.85052117  1
  O2-  O238  1  0.37501004  0.75120838  0.34438728  1
  O2-  O239  1  0.37520903  0.75128543  0.85235476  1
  O2-  O240  1  0.62582782  0.00263292  0.35057965  1
  O2-  O241  1  0.62468269  0.00154725  0.84518012  1
  O2-  O242  1  0.62516186  0.25013141  0.35598283  1
  O2-  O243  1  0.62524198  0.24993674  0.83324503  1
  O2-  O244  1  0.62507921  0.49749359  0.34653985  1
  O2-  O245  1  0.62545269  0.49984855  0.84956820  1
  O2-  O246  1  0.62501390  0.75032026  0.34713608  1
  O2-  O247  1  0.62567761  0.74837689  0.85502751  1
  O2-  O248  1  0.87470811  0.00100545  0.35182436  1
  O2-  O249  1  0.87496855  0.00235373  0.84577092  1
  O2-  O250  1  0.87531707  0.24918418  0.35463915  1
  O2-  O251  1  0.87467466  0.25009645  0.83391993  1
  O2-  O252  1  0.87435255  0.50031772  0.34142500  1
  O2-  O253  1  0.87453814  0.49976981  0.85012024  1
  O2-  O254  1  0.87512560  0.75046779  0.34449796  1
  O2-  O255  1  0.87405886  0.74733759  0.85664958  1
  O2-  O256  1  -0.00012890  0.12460014  0.35249869  1
  O2-  O257  1  -0.00013684  0.12568511  0.84094212  1
  O2-  O258  1  -0.00084662  0.37511000  0.34835381  1
  O2-  O259  1  -0.00024127  0.37413003  0.84344155  1
  O2-  O260  1  -0.00156957  0.62522936  0.34614060  1
  O2-  O261  1  -0.00197427  0.62463731  0.85099176  1
  O2-  O262  1  0.00082412  0.87589475  0.34876055  1
  O2-  O263  1  0.00219882  0.87567355  0.84966398  1
  O2-  O264  1  0.24839336  0.12496286  0.34826234  1
  O2-  O265  1  0.25045547  0.12572429  0.84308767  1
  O2-  O266  1  0.24958193  0.37492424  0.35070721  1
  O2-  O267  1  0.25060706  0.37373706  0.84475313  1
  O2-  O268  1  0.24978979  0.62524715  0.34772518  1
  O2-  O269  1  0.24902616  0.62435583  0.85164570  1
  O2-  O270  1  0.25000616  0.87530950  0.34251631  1
  O2-  O271  1  0.25112338  0.87623450  0.84663543  1
  O2-  O272  1  0.50064894  0.12528201  0.35061287  1
  O2-  O273  1  0.50034516  0.12567835  0.83958505  1
  O2-  O274  1  0.50170230  0.37473696  0.35249037  1
  O2-  O275  1  0.50030343  0.37412731  0.84025463  1
  O2-  O276  1  0.49946347  0.62480890  0.34821649  1
  O2-  O277  1  0.50348025  0.62462397  0.84917703  1
  O2-  O278  1  0.49774258  0.87560421  0.34629087  1
  O2-  O279  1  0.49931007  0.87553599  0.84511873  1
  O2-  O280  1  0.75052562  0.12569405  0.35372005  1
  O2-  O281  1  0.74984882  0.12560574  0.83939907  1
  O2-  O282  1  0.74895826  0.37437697  0.34913117  1
  O2-  O283  1  0.74974729  0.37445858  0.84010648  1
  O2-  O284  1  0.75186020  0.62562598  0.34412288  1
  O2-  O285  1  0.74958284  0.62394566  0.85169121  1
  O2-  O286  1  0.75107464  0.87482153  0.35082414  1
  O2-  O287  1  0.74778229  0.87606307  0.85027402  1
