# generated using pymatgen
data_BaYFeCuO5
_symmetry_space_group_name_H-M   'P 1'
_cell_length_a   15.67729705
_cell_length_b   15.67574085
_cell_length_c   15.50142316
_cell_angle_alpha   89.99571681
_cell_angle_beta   89.99694483
_cell_angle_gamma   89.99521145
_symmetry_Int_Tables_number   1
_chemical_formula_structural   BaYFeCuO5
_chemical_formula_sum   'Ba32 Y32 Fe32 Cu32 O160'
_cell_volume   3809.52502505
_cell_formula_units_Z   32
loop_
 _symmetry_equiv_pos_site_id
 _symmetry_equiv_pos_as_xyz
  1  'x, y, z'
loop_
 _atom_type_symbol
 _atom_type_oxidation_number
  Ba2+  2.0
  Y3+  3.0
  Fe3+  3.0
  Cu2+  2.0
  O2-  -2.0
loop_
 _atom_site_type_symbol
 _atom_site_label
 _atom_site_symmetry_multiplicity
 _atom_site_fract_x
 _atom_site_fract_y
 _atom_site_fract_z
 _atom_site_occupancy
  Ba2+  Ba0  1  0.00409657  -0.00342528  0.01281106  1
  Ba2+  Ba1  1  -0.00236700  0.00558659  0.51144266  1
  Ba2+  Ba2  1  0.00456686  0.24401599  0.00271481  1
  Ba2+  Ba3  1  0.00256375  0.25116121  0.51961301  1
  Ba2+  Ba4  1  0.00961867  0.50070344  0.00586112  1
  Ba2+  Ba5  1  0.00675599  0.49446632  0.52297680  1
  Ba2+  Ba6  1  0.00683308  0.75688208  0.01569198  1
  Ba2+  Ba7  1  0.00197123  0.74919432  0.51586656  1
  Ba2+  Ba8  1  0.24941630  -0.00336102  0.00107865  1
  Ba2+  Ba9  1  0.25491215  0.00310391  0.51719919  1
  Ba2+  Ba10  1  0.25509441  0.25170239  0.00073775  1
  Ba2+  Ba11  1  0.25010518  0.25275812  0.52276324  1
  Ba2+  Ba12  1  0.25539525  0.49870888  0.01246783  1
  Ba2+  Ba13  1  0.25362910  0.49960686  0.51655624  1
  Ba2+  Ba14  1  0.24946724  0.75126035  0.01404490  1
  Ba2+  Ba15  1  0.25695710  0.74501826  0.51121152  1
  Ba2+  Ba16  1  0.49863906  -0.00109130  -0.00595321  1
  Ba2+  Ba17  1  0.49344578  0.00187662  0.51573661  1
  Ba2+  Ba18  1  0.49719346  0.25281575  0.01300070  1
  Ba2+  Ba19  1  0.49285910  0.24840068  0.51669244  1
  Ba2+  Ba20  1  0.49850839  0.50121842  0.01904847  1
  Ba2+  Ba21  1  0.49020381  0.50271348  0.51020092  1
  Ba2+  Ba22  1  0.50101170  0.74852408  -0.00085334  1
  Ba2+  Ba23  1  0.49072029  0.74655951  0.51052114  1
  Ba2+  Ba24  1  0.74910254  -0.00091138  0.00744527  1
  Ba2+  Ba25  1  0.75359125  0.00462117  0.51156923  1
  Ba2+  Ba26  1  0.74318930  0.24536015  0.01321717  1
  Ba2+  Ba27  1  0.75470326  0.24676005  0.51173239  1
  Ba2+  Ba28  1  0.73736341  0.50317305  0.01134530  1
  Ba2+  Ba29  1  0.75050379  0.49822265  0.51641196  1
  Ba2+  Ba30  1  0.74134483  0.75301862  0.00619356  1
  Ba2+  Ba31  1  0.74994781  0.75055883  0.51626522  1
  Y3+  Y32  1  0.00144945  -0.00058352  0.25509790  1
  Y3+  Y33  1  0.00073005  -0.00053181  0.75947202  1
  Y3+  Y34  1  0.00070320  0.24785529  0.25534336  1
  Y3+  Y35  1  0.00174881  0.25063028  0.75989808  1
  Y3+  Y36  1  0.00160746  0.50062695  0.25381572  1
  Y3+  Y37  1  0.00230982  0.49832297  0.75840314  1
  Y3+  Y38  1  0.00237246  0.75201038  0.25408891  1
  Y3+  Y39  1  0.00156216  0.75148491  0.75751539  1
  Y3+  Y40  1  0.24916849  -0.00148285  0.25707871  1
  Y3+  Y41  1  0.25211317  -0.00107369  0.75806794  1
  Y3+  Y42  1  0.25212922  0.25172557  0.25469678  1
  Y3+  Y43  1  0.25239605  0.25209708  0.75950563  1
  Y3+  Y44  1  0.25450486  0.50051858  0.25730259  1
  Y3+  Y45  1  0.25203389  0.49775513  0.75720258  1
  Y3+  Y46  1  0.25173228  0.74928284  0.25896717  1
  Y3+  Y47  1  0.25190166  0.75097723  0.75604224  1
  Y3+  Y48  1  0.49833509  -0.00025414  0.26147687  1
  Y3+  Y49  1  0.49735563  -0.00060710  0.75492785  1
  Y3+  Y50  1  0.49861923  0.25280535  0.25665084  1
  Y3+  Y51  1  0.49600825  0.25015952  0.75750556  1
  Y3+  Y52  1  0.49652123  0.50037173  0.25793397  1
  Y3+  Y53  1  0.49823888  0.50151929  0.75630755  1
  Y3+  Y54  1  0.49681597  0.74718860  0.26032877  1
  Y3+  Y55  1  0.49943820  0.74881158  0.75467936  1
  Y3+  Y56  1  0.75072907  0.00045572  0.25790737  1
  Y3+  Y57  1  0.74987629  -0.00000420  0.75735124  1
  Y3+  Y58  1  0.74833638  0.24918552  0.25657380  1
  Y3+  Y59  1  0.74996778  0.24902445  0.75759152  1
  Y3+  Y60  1  0.74668684  0.50068715  0.25454136  1
  Y3+  Y61  1  0.74755974  0.50153664  0.75770296  1
  Y3+  Y62  1  0.74922078  0.75016868  0.25522412  1
  Y3+  Y63  1  0.74698821  0.74914206  0.75810156  1
  Fe3+  Fe64  1  0.12587555  0.37484010  0.37535219  1
  Fe3+  Fe65  1  0.12644084  0.62579241  0.87536018  1
  Fe3+  Fe66  1  0.12593545  0.87524646  0.38081831  1
  Fe3+  Fe67  1  0.37522143  0.62485851  0.87602865  1
  Fe3+  Fe68  1  0.12606948  0.12403740  0.87550851  1
  Fe3+  Fe69  1  0.87481267  0.62551341  0.87911198  1
  Fe3+  Fe70  1  0.87503661  0.87489253  0.87662041  1
  Fe3+  Fe71  1  0.87622566  0.37513845  0.37565447  1
  Fe3+  Fe72  1  0.62414418  0.12515647  0.87457329  1
  Fe3+  Fe73  1  0.62433221  0.87482115  0.38214310  1
  Fe3+  Fe74  1  0.87370768  0.37495308  0.88009264  1
  Fe3+  Fe75  1  0.37332213  0.12640283  0.37715591  1
  Fe3+  Fe76  1  0.87562493  0.87484186  0.37775674  1
  Fe3+  Fe77  1  0.62409120  0.37502778  0.38002361  1
  Fe3+  Fe78  1  0.87607768  0.62398627  0.37853914  1
  Fe3+  Fe79  1  0.62310174  0.37545371  0.87548319  1
  Fe3+  Fe80  1  0.12527416  0.12631056  0.37711403  1
  Fe3+  Fe81  1  0.62471689  0.12562974  0.37912696  1
  Fe3+  Fe82  1  0.62541095  0.62472553  0.37922570  1
  Fe3+  Fe83  1  0.12479954  0.62382333  0.37665710  1
  Fe3+  Fe84  1  0.87438896  0.37525074  0.13231985  1
  Fe3+  Fe85  1  0.62466030  0.87536043  0.63575598  1
  Fe3+  Fe86  1  0.87579300  0.12517329  0.64183433  1
  Fe3+  Fe87  1  0.62419114  0.37447747  0.63475520  1
  Fe3+  Fe88  1  0.87487627  0.12429116  0.13648526  1
  Fe3+  Fe89  1  0.12584322  0.37394922  0.13470757  1
  Fe3+  Fe90  1  0.87575428  0.62469316  0.63617137  1
  Fe3+  Fe91  1  0.87494515  0.62617014  0.13250662  1
  Fe3+  Fe92  1  0.37624095  0.87498608  0.13916930  1
  Fe3+  Fe93  1  0.37522243  0.12351842  0.13637797  1
  Fe3+  Fe94  1  0.12529451  0.87556502  0.63528861  1
  Fe3+  Fe95  1  0.62254616  0.87585454  0.14047666  1
  Cu2+  Cu96  1  0.62381754  0.62453478  0.87152854  1
  Cu2+  Cu97  1  0.87578373  0.12562570  0.36120679  1
  Cu2+  Cu98  1  0.37389132  0.62424877  0.37161164  1
  Cu2+  Cu99  1  0.37547578  0.12468408  0.86362347  1
  Cu2+  Cu100  1  0.37404609  0.37433185  0.37350169  1
  Cu2+  Cu101  1  0.12575268  0.87412875  0.87036971  1
  Cu2+  Cu102  1  0.87455519  0.12484022  0.86635750  1
  Cu2+  Cu103  1  0.62459564  0.87536941  0.85806241  1
  Cu2+  Cu104  1  0.37398125  0.87558789  0.37586218  1
  Cu2+  Cu105  1  0.12601245  0.37540358  0.86658976  1
  Cu2+  Cu106  1  0.37525220  0.87377456  0.86134549  1
  Cu2+  Cu107  1  0.37644070  0.37634761  0.87239811  1
  Cu2+  Cu108  1  0.12678854  0.12502812  0.14842821  1
  Cu2+  Cu109  1  0.62326061  0.62709310  0.14317889  1
  Cu2+  Cu110  1  0.87466208  0.37512310  0.65514849  1
  Cu2+  Cu111  1  0.87522371  0.87490244  0.65025234  1
  Cu2+  Cu112  1  0.12556706  0.62520075  0.65151154  1
  Cu2+  Cu113  1  0.12575670  0.37458817  0.65671044  1
  Cu2+  Cu114  1  0.37542070  0.37539522  0.64279919  1
  Cu2+  Cu115  1  0.62435570  0.62461549  0.64564762  1
  Cu2+  Cu116  1  0.37497371  0.37505850  0.14158202  1
  Cu2+  Cu117  1  0.62312094  0.12363463  0.15303586  1
  Cu2+  Cu118  1  0.12591870  0.62454498  0.15075760  1
  Cu2+  Cu119  1  0.62475358  0.12528424  0.64861665  1
  Cu2+  Cu120  1  0.87427503  0.87501869  0.14964612  1
  Cu2+  Cu121  1  0.37421177  0.12531484  0.65466325  1
  Cu2+  Cu122  1  0.37499315  0.62600130  0.15086950  1
  Cu2+  Cu123  1  0.62452930  0.37501142  0.15226536  1
  Cu2+  Cu124  1  0.12518914  0.12475148  0.65435084  1
  Cu2+  Cu125  1  0.37437064  0.62461504  0.64646322  1
  Cu2+  Cu126  1  0.37461061  0.87442106  0.64182731  1
  Cu2+  Cu127  1  0.12727833  0.87569595  0.14306060  1
  O2-  O128  1  0.12567693  0.12279540  -0.00365918  1
  O2-  O129  1  0.12411778  0.12742806  0.49692882  1
  O2-  O130  1  0.12538816  0.37388330  0.01403695  1
  O2-  O131  1  0.12366851  0.37405610  0.49538873  1
  O2-  O132  1  0.12541689  0.62679706  -0.00456640  1
  O2-  O133  1  0.12205166  0.62263949  0.49654984  1
  O2-  O134  1  0.12626168  0.87502932  0.00676339  1
  O2-  O135  1  0.12412778  0.87568442  0.50662410  1
  O2-  O136  1  0.37686210  0.12248436  0.01615267  1
  O2-  O137  1  0.37235607  0.12730713  0.49770193  1
  O2-  O138  1  0.37657501  0.37590123  0.00739178  1
  O2-  O139  1  0.37401799  0.37388983  0.50810222  1
  O2-  O140  1  0.37526662  0.62580896  -0.00352246  1
  O2-  O141  1  0.37343257  0.62370075  0.50698869  1
  O2-  O142  1  0.37764111  0.87480361  0.01906575  1
  O2-  O143  1  0.37390641  0.87613332  0.50894803  1
  O2-  O144  1  0.62415506  0.12386311  -0.00502404  1
  O2-  O145  1  0.62683937  0.12664517  0.49883394  1
  O2-  O146  1  0.62431670  0.37465985  -0.00421327  1
  O2-  O147  1  0.62579073  0.37444883  0.50598148  1
  O2-  O148  1  0.62400710  0.62649036  0.00717043  1
  O2-  O149  1  0.62910759  0.62404556  0.49913935  1
  O2-  O150  1  0.62234995  0.87669165  0.02017803  1
  O2-  O151  1  0.62632328  0.87507930  0.50803425  1
  O2-  O152  1  0.87326534  0.12415673  0.01621810  1
  O2-  O153  1  0.87654238  0.12688252  0.52044882  1
  O2-  O154  1  0.87293215  0.37545420  0.00638583  1
  O2-  O155  1  0.87749423  0.37553657  0.49549590  1
  O2-  O156  1  0.87466997  0.62648330  0.00546665  1
  O2-  O157  1  0.87629987  0.62284305  0.50556351  1
  O2-  O158  1  0.87428439  0.87413781  -0.00329461  1
  O2-  O159  1  0.87627281  0.87439215  0.49766372  1
  O2-  O160  1  0.12498459  0.00137311  0.16795324  1
  O2-  O161  1  0.12384646  -0.00135822  0.66185005  1
  O2-  O162  1  0.12413474  0.25053193  0.16349639  1
  O2-  O163  1  0.12431491  0.24988148  0.66641054  1
  O2-  O164  1  0.12319292  0.49902346  0.16182023  1
  O2-  O165  1  0.12382135  0.49982162  0.66480576  1
  O2-  O166  1  0.12507666  0.74841737  0.16714684  1
  O2-  O167  1  0.12377709  0.75155959  0.66054527  1
  O2-  O168  1  0.37550038  -0.00026150  0.17112998  1
  O2-  O169  1  0.37478828  0.00142421  0.66510087  1
  O2-  O170  1  0.37588326  0.24819782  0.16388958  1
  O2-  O171  1  0.37459450  0.24897735  0.66680435  1
  O2-  O172  1  0.37555585  0.50190729  0.16401333  1
  O2-  O173  1  0.37487889  0.50095403  0.66476939  1
  O2-  O174  1  0.37490439  0.75007235  0.16851862  1
  O2-  O175  1  0.37494538  0.74846594  0.66419050  1
  O2-  O176  1  0.62488491  -0.00105016  0.17238244  1
  O2-  O177  1  0.62568141  -0.00109030  0.66184665  1
  O2-  O178  1  0.62536866  0.24963470  0.16364841  1
  O2-  O179  1  0.62629394  0.25134709  0.66217663  1
  O2-  O180  1  0.62546433  0.49981606  0.16499052  1
  O2-  O181  1  0.62633608  0.49843248  0.66194177  1
  O2-  O182  1  0.62509130  0.75230613  0.17018786  1
  O2-  O183  1  0.62613498  0.75106292  0.66283034  1
  O2-  O184  1  0.87470950  0.00044083  0.16755530  1
  O2-  O185  1  0.87540471  0.00004978  0.66540404  1
  O2-  O186  1  0.87373334  0.25143196  0.16267975  1
  O2-  O187  1  0.87505659  0.25036741  0.66883241  1
  O2-  O188  1  0.87473777  0.50013728  0.16005109  1
  O2-  O189  1  0.87530444  0.50098285  0.66480506  1
  O2-  O190  1  0.87530263  0.74863819  0.16472347  1
  O2-  O191  1  0.87524658  0.74834313  0.66065313  1
  O2-  O192  1  -0.00000734  0.12482212  0.16309045  1
  O2-  O193  1  -0.00014788  0.12559672  0.66833234  1
  O2-  O194  1  -0.00196016  0.37532407  0.16059094  1
  O2-  O195  1  0.00036993  0.37497524  0.66758274  1
  O2-  O196  1  -0.00191866  0.62536272  0.16119134  1
  O2-  O197  1  -0.00158889  0.62467234  0.66447540  1
  O2-  O198  1  -0.00054145  0.87488512  0.16339919  1
  O2-  O199  1  0.00159680  0.87456450  0.66337238  1
  O2-  O200  1  0.25094201  0.12442310  0.16474977  1
  O2-  O201  1  0.24920631  0.12470295  0.66574935  1
  O2-  O202  1  0.24838175  0.37561529  0.16492103  1
  O2-  O203  1  0.24926260  0.37485836  0.66635764  1
  O2-  O204  1  0.25015735  0.62498351  0.16371597  1
  O2-  O205  1  0.24910481  0.62515614  0.66398177  1
  O2-  O206  1  0.25280180  0.87464607  0.16839542  1
  O2-  O207  1  0.24696874  0.87530891  0.66380979  1
  O2-  O208  1  0.49923861  0.12479389  0.16945074  1
  O2-  O209  1  0.49953065  0.12515932  0.66222118  1
  O2-  O210  1  0.50128758  0.37555484  0.16754268  1
  O2-  O211  1  0.50279046  0.37458525  0.66225064  1
  O2-  O212  1  0.49824850  0.62504078  0.16854264  1
  O2-  O213  1  0.49982466  0.62492855  0.66291593  1
  O2-  O214  1  0.49908181  0.87473882  0.17564655  1
  O2-  O215  1  0.50252081  0.87502362  0.66246786  1
  O2-  O216  1  0.74945818  0.12475303  0.16594658  1
  O2-  O217  1  0.75110857  0.12499436  0.66624430  1
  O2-  O218  1  0.75152409  0.37565348  0.16366682  1
  O2-  O219  1  0.74818394  0.37552653  0.66259914  1
  O2-  O220  1  0.75312728  0.62530882  0.16384762  1
  O2-  O221  1  0.75260220  0.62469316  0.66394317  1
  O2-  O222  1  0.74886593  0.87498581  0.16707651  1
  O2-  O223  1  0.74868500  0.87459651  0.66320269  1
  O2-  O224  1  0.12393214  -0.00093496  0.35045650  1
  O2-  O225  1  0.12539938  0.00106806  0.84489223  1
  O2-  O226  1  0.12387483  0.25013979  0.34273332  1
  O2-  O227  1  0.12489767  0.24953080  0.84971359  1
  O2-  O228  1  0.12361358  0.49996713  0.34236495  1
  O2-  O229  1  0.12406857  0.50080957  0.84776858  1
  O2-  O230  1  0.12317584  0.75093033  0.35033532  1
  O2-  O231  1  0.12446096  0.74803603  0.84296897  1
  O2-  O232  1  0.37461074  0.00251832  0.35020451  1
  O2-  O233  1  0.37550638  -0.00174611  0.84934938  1
  O2-  O234  1  0.37519229  0.24829183  0.34425513  1
  O2-  O235  1  0.37558196  0.24963383  0.85056815  1
  O2-  O236  1  0.37493455  0.49970671  0.34811002  1
  O2-  O237  1  0.37537044  0.50196352  0.84618268  1
  O2-  O238  1  0.37467395  0.74981753  0.35154197  1
  O2-  O239  1  0.37570391  0.74964936  0.84637558  1
  O2-  O240  1  0.62640965  -0.00077662  0.35292509  1
  O2-  O241  1  0.62509387  0.00034741  0.84546179  1
  O2-  O242  1  0.62589112  0.25130349  0.34733146  1
  O2-  O243  1  0.62527535  0.25012865  0.84406512  1
  O2-  O244  1  0.62677129  0.49911635  0.34842195  1
  O2-  O245  1  0.62603134  0.49848241  0.84456084  1
  O2-  O246  1  0.62687484  0.75061218  0.35128337  1
  O2-  O247  1  0.62546037  0.75155680  0.84759034  1
  O2-  O248  1  0.87514117  -0.00045903  0.35053482  1
  O2-  O249  1  0.87421646  -0.00083221  0.84712847  1
  O2-  O250  1  0.87471867  0.25102743  0.34450246  1
  O2-  O251  1  0.87446249  0.25196827  0.85219660  1
  O2-  O252  1  0.87467075  0.50124464  0.34354842  1
  O2-  O253  1  0.87456514  0.50019083  0.85067595  1
  O2-  O254  1  0.87520780  0.74846667  0.34863774  1
  O2-  O255  1  0.87463520  0.74842773  0.84489539  1
  O2-  O256  1  0.00069318  0.12482803  0.34509527  1
  O2-  O257  1  0.00020958  0.12522792  0.84969933  1
  O2-  O258  1  0.00012303  0.37556943  0.34033001  1
  O2-  O259  1  -0.00253355  0.37567420  0.85258553  1
  O2-  O260  1  -0.00157708  0.62495696  0.34413161  1
  O2-  O261  1  -0.00142757  0.62446464  0.84792567  1
  O2-  O262  1  0.00128470  0.87465449  0.34666151  1
  O2-  O263  1  -0.00170559  0.87433197  0.84574627  1
  O2-  O264  1  0.24895011  0.12503615  0.34427135  1
  O2-  O265  1  0.25092231  0.12455063  0.84925303  1
  O2-  O266  1  0.24817414  0.37495029  0.34542444  1
  O2-  O267  1  0.25030097  0.37523995  0.85024865  1
  O2-  O268  1  0.24749954  0.62512530  0.34654407  1
  O2-  O269  1  0.25051201  0.62522616  0.84497846  1
  O2-  O270  1  0.24652294  0.87480016  0.35024185  1
  O2-  O271  1  0.25157430  0.87465247  0.84744891  1
  O2-  O272  1  0.50029791  0.12535036  0.34991742  1
  O2-  O273  1  0.49998181  0.12401067  0.84540743  1
  O2-  O274  1  0.50283181  0.37523498  0.35155392  1
  O2-  O275  1  0.50150254  0.37500545  0.84367568  1
  O2-  O276  1  0.50229066  0.62452417  0.35088561  1
  O2-  O277  1  0.49844114  0.62601454  0.84501178  1
  O2-  O278  1  0.50291016  0.87520945  0.35564318  1
  O2-  O279  1  0.50038578  0.87500985  0.84700673  1
  O2-  O280  1  0.74976325  0.12565896  0.34862570  1
  O2-  O281  1  0.74917134  0.12510029  0.84709813  1
  O2-  O282  1  0.74914994  0.37546126  0.34757728  1
  O2-  O283  1  0.75075287  0.37543188  0.84623573  1
  O2-  O284  1  0.75168886  0.62469287  0.34691887  1
  O2-  O285  1  0.75269832  0.62496750  0.84857773  1
  O2-  O286  1  0.74953719  0.87441934  0.34928151  1
  O2-  O287  1  0.75022954  0.87428249  0.84665830  1
