# generated using pymatgen
data_BaYFeCuO5
_symmetry_space_group_name_H-M   'P 1'
_cell_length_a   15.67833995
_cell_length_b   15.68016824
_cell_length_c   15.51284680
_cell_angle_alpha   90.00245224
_cell_angle_beta   90.00374531
_cell_angle_gamma   90.00004058
_symmetry_Int_Tables_number   1
_chemical_formula_structural   BaYFeCuO5
_chemical_formula_sum   'Ba32 Y32 Fe32 Cu32 O160'
_cell_volume   3813.66286112
_cell_formula_units_Z   32
loop_
 _symmetry_equiv_pos_site_id
 _symmetry_equiv_pos_as_xyz
  1  'x, y, z'
loop_
 _atom_type_symbol
 _atom_type_oxidation_number
  Ba2+  2.0
  Y3+  3.0
  Fe3+  3.0
  Cu2+  2.0
  O2-  -2.0
loop_
 _atom_site_type_symbol
 _atom_site_label
 _atom_site_symmetry_multiplicity
 _atom_site_fract_x
 _atom_site_fract_y
 _atom_site_fract_z
 _atom_site_occupancy
  Ba2+  Ba0  1  -0.00480473  0.00433041  0.00017373  1
  Ba2+  Ba1  1  -0.00606826  0.00495168  0.51275627  1
  Ba2+  Ba2  1  -0.00387783  0.24443961  0.01215488  1
  Ba2+  Ba3  1  -0.00358093  0.25568773  0.51161458  1
  Ba2+  Ba4  1  -0.00909702  0.49886738  0.01541622  1
  Ba2+  Ba5  1  -0.00284708  0.49799080  0.52306590  1
  Ba2+  Ba6  1  -0.00885400  0.75154584  0.00618671  1
  Ba2+  Ba7  1  -0.00500363  0.74296146  0.52407752  1
  Ba2+  Ba8  1  0.25598255  0.00546168  0.02529966  1
  Ba2+  Ba9  1  0.25163309  0.00965806  0.50203907  1
  Ba2+  Ba10  1  0.25842043  0.24739613  0.01804255  1
  Ba2+  Ba11  1  0.24735941  0.24641405  0.50502982  1
  Ba2+  Ba12  1  0.26296893  0.49885605  0.00693056  1
  Ba2+  Ba13  1  0.24666907  0.50414959  0.51956479  1
  Ba2+  Ba14  1  0.26246135  0.74914956  0.01209260  1
  Ba2+  Ba15  1  0.25209896  0.73826735  0.51119746  1
  Ba2+  Ba16  1  0.50067429  0.00107714  0.02967166  1
  Ba2+  Ba17  1  0.50309680  0.00544656  0.49831187  1
  Ba2+  Ba18  1  0.50075807  0.25355329  0.01798430  1
  Ba2+  Ba19  1  0.50308443  0.24518336  0.50570715  1
  Ba2+  Ba20  1  0.49944364  0.49676058  0.00058280  1
  Ba2+  Ba21  1  0.50351089  0.50553954  0.51856400  1
  Ba2+  Ba22  1  0.49909406  0.74810853  0.01334641  1
  Ba2+  Ba23  1  0.50329331  0.74290667  0.50663010  1
  Ba2+  Ba24  1  0.74675001  0.00117558  0.00569613  1
  Ba2+  Ba25  1  0.75024277  0.00038815  0.50656973  1
  Ba2+  Ba26  1  0.74439468  0.25140099  0.01240791  1
  Ba2+  Ba27  1  0.75355763  0.25495398  0.51232107  1
  Ba2+  Ba28  1  0.74411824  0.49628995  0.01091463  1
  Ba2+  Ba29  1  0.75284339  0.49892484  0.52272485  1
  Ba2+  Ba30  1  0.74589244  0.75070163  0.00682807  1
  Ba2+  Ba31  1  0.75140224  0.74693733  0.51885327  1
  Y3+  Y32  1  0.00174628  0.00205140  0.25837590  1
  Y3+  Y33  1  -0.00363306  0.00009179  0.75752498  1
  Y3+  Y34  1  -0.00068318  0.25098709  0.25841706  1
  Y3+  Y35  1  -0.00216914  0.25065396  0.75585347  1
  Y3+  Y36  1  -0.00336843  0.49814247  0.25420763  1
  Y3+  Y37  1  0.00004174  0.49834814  0.75749790  1
  Y3+  Y38  1  -0.00094276  0.74899870  0.25367149  1
  Y3+  Y39  1  -0.00163149  0.75072029  0.75937250  1
  Y3+  Y40  1  0.25100802  0.00313138  0.26148780  1
  Y3+  Y41  1  0.25105204  0.00154587  0.75235839  1
  Y3+  Y42  1  0.25160273  0.24918608  0.25853595  1
  Y3+  Y43  1  0.25229734  0.25116446  0.75530208  1
  Y3+  Y44  1  0.25434447  0.50061980  0.25503883  1
  Y3+  Y45  1  0.25366237  0.50036720  0.75957676  1
  Y3+  Y46  1  0.25341700  0.74775513  0.25712711  1
  Y3+  Y47  1  0.25233697  0.74694384  0.75715008  1
  Y3+  Y48  1  0.50158908  0.00108892  0.26317838  1
  Y3+  Y49  1  0.49937245  0.00176433  0.75099652  1
  Y3+  Y50  1  0.50056030  0.25066848  0.25798991  1
  Y3+  Y51  1  0.50017049  0.25293629  0.75689293  1
  Y3+  Y52  1  0.49859315  0.49952476  0.25414853  1
  Y3+  Y53  1  0.49997811  0.49985545  0.76097381  1
  Y3+  Y54  1  0.49955355  0.74930055  0.25865182  1
  Y3+  Y55  1  0.49927396  0.74527354  0.75727315  1
  Y3+  Y56  1  0.74603963  -0.00029419  0.25941342  1
  Y3+  Y57  1  0.75279408  0.00006470  0.75700711  1
  Y3+  Y58  1  0.74887095  0.25286130  0.25759224  1
  Y3+  Y59  1  0.74978606  0.25201173  0.75750895  1
  Y3+  Y60  1  0.75119749  0.49718241  0.25363802  1
  Y3+  Y61  1  0.74638145  0.49796385  0.75938596  1
  Y3+  Y62  1  0.74827191  0.75010902  0.25611880  1
  Y3+  Y63  1  0.74945156  0.74975585  0.75898012  1
  Fe3+  Fe64  1  0.12658067  0.12520484  0.87695228  1
  Fe3+  Fe65  1  0.37538869  0.37690737  0.38048320  1
  Fe3+  Fe66  1  0.12383595  0.87344042  0.38037901  1
  Fe3+  Fe67  1  0.12721356  0.87615151  0.87984638  1
  Fe3+  Fe68  1  0.37496828  0.87361295  0.37964538  1
  Fe3+  Fe69  1  0.62588838  0.37713176  0.37806695  1
  Fe3+  Fe70  1  0.87556039  0.87304638  0.37776337  1
  Fe3+  Fe71  1  0.12595479  0.37374437  0.88041298  1
  Fe3+  Fe72  1  0.87445564  0.37362342  0.87783402  1
  Fe3+  Fe73  1  0.12358935  0.62363642  0.37384672  1
  Fe3+  Fe74  1  0.62326466  0.12479889  0.87583200  1
  Fe3+  Fe75  1  0.12445049  0.37728651  0.37557693  1
  Fe3+  Fe76  1  0.37639439  0.12433410  0.87471701  1
  Fe3+  Fe77  1  0.87344938  0.62398811  0.87711435  1
  Fe3+  Fe78  1  0.87493359  0.62362292  0.37447058  1
  Fe3+  Fe79  1  0.62221052  0.87620366  0.87549286  1
  Fe3+  Fe80  1  0.12538757  0.62486125  0.88041806  1
  Fe3+  Fe81  1  0.87452024  0.12659711  0.37710673  1
  Fe3+  Fe82  1  0.62670252  0.62340859  0.37575051  1
  Fe3+  Fe83  1  0.37606554  0.87754392  0.87483753  1
  Fe3+  Fe84  1  0.12557173  0.87576208  0.13413589  1
  Fe3+  Fe85  1  0.87366595  0.87657720  0.13724241  1
  Fe3+  Fe86  1  0.62455908  0.62449392  0.13685280  1
  Fe3+  Fe87  1  0.62638563  0.12580910  0.63661059  1
  Fe3+  Fe88  1  0.12524543  0.62497213  0.13164510  1
  Fe3+  Fe89  1  0.12577000  0.37413531  0.13326951  1
  Fe3+  Fe90  1  0.37523062  0.87461161  0.63148979  1
  Fe3+  Fe91  1  0.12503332  0.87454194  0.63380508  1
  Fe3+  Fe92  1  0.87343380  0.12407394  0.13972010  1
  Fe3+  Fe93  1  0.12396829  0.12601737  0.63708028  1
  Fe3+  Fe94  1  0.62502533  0.87472024  0.63540583  1
  Fe3+  Fe95  1  0.37559716  0.37476895  0.63481436  1
  Cu2+  Cu96  1  0.37575302  0.62558495  0.87229982  1
  Cu2+  Cu97  1  0.87409410  0.87521106  0.86433692  1
  Cu2+  Cu98  1  0.62467053  0.62510665  0.86476375  1
  Cu2+  Cu99  1  0.37510772  0.37288129  0.87122122  1
  Cu2+  Cu100  1  0.62692145  0.12665974  0.36416409  1
  Cu2+  Cu101  1  0.87403071  0.12570551  0.86250878  1
  Cu2+  Cu102  1  0.62600784  0.87336976  0.36843582  1
  Cu2+  Cu103  1  0.12337873  0.12606173  0.36379065  1
  Cu2+  Cu104  1  0.62420206  0.37360391  0.87245635  1
  Cu2+  Cu105  1  0.87499757  0.37674700  0.37124130  1
  Cu2+  Cu106  1  0.37573636  0.12702415  0.37269797  1
  Cu2+  Cu107  1  0.37550283  0.62310434  0.37284496  1
  Cu2+  Cu108  1  0.37519011  0.87537916  0.15788970  1
  Cu2+  Cu109  1  0.37627999  0.12518134  0.15963528  1
  Cu2+  Cu110  1  0.37556982  0.12586915  0.63806532  1
  Cu2+  Cu111  1  0.87384464  0.62568860  0.14674730  1
  Cu2+  Cu112  1  0.62434660  0.87487731  0.15451400  1
  Cu2+  Cu113  1  0.62431470  0.37510037  0.64977295  1
  Cu2+  Cu114  1  0.87428557  0.12571578  0.65184313  1
  Cu2+  Cu115  1  0.37578975  0.62472389  0.64301005  1
  Cu2+  Cu116  1  0.87432431  0.62424557  0.65860828  1
  Cu2+  Cu117  1  0.87482944  0.87470754  0.65178947  1
  Cu2+  Cu118  1  0.62513842  0.12521306  0.15574312  1
  Cu2+  Cu119  1  0.62401640  0.37503896  0.14261086  1
  Cu2+  Cu120  1  0.12464142  0.62490120  0.65760394  1
  Cu2+  Cu121  1  0.87454156  0.37507733  0.64416019  1
  Cu2+  Cu122  1  0.37634787  0.62460504  0.14263123  1
  Cu2+  Cu123  1  0.37552144  0.37503349  0.14341103  1
  Cu2+  Cu124  1  0.87481775  0.37331351  0.14810607  1
  Cu2+  Cu125  1  0.62553369  0.62491798  0.65498031  1
  Cu2+  Cu126  1  0.12601189  0.37498228  0.65307475  1
  Cu2+  Cu127  1  0.12479623  0.12497939  0.15214930  1
  O2-  O128  1  0.12780166  0.12299642  -0.00329976  1
  O2-  O129  1  0.12229584  0.12547401  0.51666271  1
  O2-  O130  1  0.12587248  0.37178258  0.00612034  1
  O2-  O131  1  0.12403395  0.37907984  0.49548475  1
  O2-  O132  1  0.12607513  0.62728892  0.00568001  1
  O2-  O133  1  0.12139603  0.62318778  0.49385135  1
  O2-  O134  1  0.12782488  0.87761120  0.00612101  1
  O2-  O135  1  0.12258115  0.87251600  0.50649828  1
  O2-  O136  1  0.37675995  0.12228513  -0.00540226  1
  O2-  O137  1  0.37480423  0.12652263  0.50551467  1
  O2-  O138  1  0.37489282  0.37247377  0.00727923  1
  O2-  O139  1  0.37454412  0.37690238  0.50693359  1
  O2-  O140  1  0.37619214  0.62620066  0.00716424  1
  O2-  O141  1  0.37450266  0.62369295  0.50810404  1
  O2-  O142  1  0.37595462  0.88002964  -0.00542099  1
  O2-  O143  1  0.37366712  0.87241594  0.50576411  1
  O2-  O144  1  0.62130215  0.12329795  -0.00427823  1
  O2-  O145  1  0.62864036  0.12502370  0.51623846  1
  O2-  O146  1  0.62422810  0.37343869  0.00702291  1
  O2-  O147  1  0.62632115  0.37833595  0.49811339  1
  O2-  O148  1  0.62388505  0.62632736  0.01627570  1
  O2-  O149  1  0.62899768  0.62364978  0.49609293  1
  O2-  O150  1  0.62089963  0.87749426  -0.00466637  1
  O2-  O151  1  0.62781745  0.87321268  0.51544577  1
  O2-  O152  1  0.87375318  0.12257633  0.01932763  1
  O2-  O153  1  0.87500335  0.12679359  0.49774070  1
  O2-  O154  1  0.87548666  0.37213399  -0.00201117  1
  O2-  O155  1  0.87570443  0.37720466  0.50817664  1
  O2-  O156  1  0.87374681  0.62604276  -0.00278229  1
  O2-  O157  1  0.87631756  0.62385903  0.49452382  1
  O2-  O158  1  0.87399987  0.87840084  0.01705108  1
  O2-  O159  1  0.87739797  0.87085963  0.49767920  1
  O2-  O160  1  0.12648645  -0.00172922  0.16787687  1
  O2-  O161  1  0.12439284  -0.00172069  0.66291804  1
  O2-  O162  1  0.12512774  0.25085367  0.16219010  1
  O2-  O163  1  0.12448412  0.24971751  0.66564630  1
  O2-  O164  1  0.12411420  0.50015332  0.15430702  1
  O2-  O165  1  0.12521266  0.50030104  0.66885411  1
  O2-  O166  1  0.12468680  0.75070676  0.16022854  1
  O2-  O167  1  0.12447443  0.75159474  0.66574887  1
  O2-  O168  1  0.37437671  0.00044018  0.17006364  1
  O2-  O169  1  0.37338065  -0.00321056  0.65846570  1
  O2-  O170  1  0.37475753  0.24842489  0.16731408  1
  O2-  O171  1  0.37498749  0.25303671  0.66276130  1
  O2-  O172  1  0.37455816  0.50022086  0.16430977  1
  O2-  O173  1  0.37437794  0.49728545  0.66611190  1
  O2-  O174  1  0.37454846  0.75120745  0.16531988  1
  O2-  O175  1  0.37425702  0.75300271  0.66454098  1
  O2-  O176  1  0.62399013  -0.00049144  0.16876446  1
  O2-  O177  1  0.62652112  -0.00043178  0.66406563  1
  O2-  O178  1  0.62467859  0.24921542  0.16575322  1
  O2-  O179  1  0.62505787  0.24993847  0.66435152  1
  O2-  O180  1  0.62543761  0.50110502  0.16298947  1
  O2-  O181  1  0.62518443  0.50045055  0.66656212  1
  O2-  O182  1  0.62453598  0.75006010  0.16466143  1
  O2-  O183  1  0.62503406  0.75047369  0.66640848  1
  O2-  O184  1  0.87498406  -0.00041355  0.17326900  1
  O2-  O185  1  0.87542202  0.00007872  0.66377086  1
  O2-  O186  1  0.87560490  0.24833909  0.16716094  1
  O2-  O187  1  0.87547574  0.24977352  0.66472854  1
  O2-  O188  1  0.87559030  0.49926348  0.15864696  1
  O2-  O189  1  0.87545935  0.50101292  0.66828982  1
  O2-  O190  1  0.87597152  0.75227955  0.16336844  1
  O2-  O191  1  0.87609395  0.74878112  0.66612529  1
  O2-  O192  1  -0.00083933  0.12377185  0.16486499  1
  O2-  O193  1  -0.00011068  0.12419641  0.66789082  1
  O2-  O194  1  0.00198906  0.37422320  0.16086333  1
  O2-  O195  1  0.00199305  0.37559595  0.66748615  1
  O2-  O196  1  0.00127330  0.62611909  0.15781887  1
  O2-  O197  1  -0.00028388  0.62504491  0.66813301  1
  O2-  O198  1  0.00153445  0.87583229  0.16238477  1
  O2-  O199  1  0.00173498  0.87440424  0.66651801  1
  O2-  O200  1  0.25066757  0.12451902  0.16618314  1
  O2-  O201  1  0.24807984  0.12505831  0.66326053  1
  O2-  O202  1  0.24698519  0.37484437  0.16487782  1
  O2-  O203  1  0.25148652  0.37553208  0.66323400  1
  O2-  O204  1  0.24685008  0.62586772  0.16386350  1
  O2-  O205  1  0.24886141  0.62522070  0.66619071  1
  O2-  O206  1  0.24844157  0.87486622  0.16594203  1
  O2-  O207  1  0.24913178  0.87418284  0.66018749  1
  O2-  O208  1  0.50082889  0.12447005  0.16872278  1
  O2-  O209  1  0.50213981  0.12442458  0.66111053  1
  O2-  O210  1  0.49948841  0.37428248  0.16854827  1
  O2-  O211  1  0.49879109  0.37591794  0.66260468  1
  O2-  O212  1  0.50184970  0.62599449  0.16928351  1
  O2-  O213  1  0.50156803  0.62486650  0.66422544  1
  O2-  O214  1  0.49963705  0.87540943  0.16953366  1
  O2-  O215  1  0.49909995  0.87544213  0.65905547  1
  O2-  O216  1  0.74946477  0.12435646  0.16570814  1
  O2-  O217  1  0.74991852  0.12534696  0.66796126  1
  O2-  O218  1  0.75119233  0.37397266  0.16346470  1
  O2-  O219  1  0.74804873  0.37528304  0.66651722  1
  O2-  O220  1  0.74957642  0.62601701  0.16366867  1
  O2-  O221  1  0.75016368  0.62542842  0.66581613  1
  O2-  O222  1  0.74966321  0.87554715  0.16476426  1
  O2-  O223  1  0.74992198  0.87389424  0.66653818  1
  O2-  O224  1  0.12457200  -0.00222588  0.35319299  1
  O2-  O225  1  0.12459986  -0.00120128  0.84535203  1
  O2-  O226  1  0.12524661  0.25188470  0.34658876  1
  O2-  O227  1  0.12511015  0.25033551  0.84766477  1
  O2-  O228  1  0.12508380  0.50055097  0.33649399  1
  O2-  O229  1  0.12459047  0.49976861  0.85430716  1
  O2-  O230  1  0.12519839  0.75066881  0.34372152  1
  O2-  O231  1  0.12512578  0.75091445  0.85152415  1
  O2-  O232  1  0.37428412  -0.00264588  0.35385982  1
  O2-  O233  1  0.37444632  0.00055778  0.83718290  1
  O2-  O234  1  0.37443927  0.25419624  0.35072378  1
  O2-  O235  1  0.37412471  0.24735658  0.84414512  1
  O2-  O236  1  0.37481329  0.49705574  0.34588776  1
  O2-  O237  1  0.37469473  0.49960172  0.85064078  1
  O2-  O238  1  0.37406551  0.75200555  0.34895424  1
  O2-  O239  1  0.37385600  0.75244769  0.84712849  1
  O2-  O240  1  0.62567254  0.00016717  0.35359824  1
  O2-  O241  1  0.62458942  0.00025077  0.84156959  1
  O2-  O242  1  0.62531494  0.25203699  0.34885185  1
  O2-  O243  1  0.62496930  0.24757474  0.84544497  1
  O2-  O244  1  0.62519772  0.50007151  0.34155321  1
  O2-  O245  1  0.62422580  0.50091837  0.85124790  1
  O2-  O246  1  0.62530426  0.74819027  0.34620196  1
  O2-  O247  1  0.62456888  0.75080617  0.84846792  1
  O2-  O248  1  0.87647632  -0.00064911  0.35213118  1
  O2-  O249  1  0.87571013  0.00018302  0.84856516  1
  O2-  O250  1  0.87556217  0.24984053  0.34887763  1
  O2-  O251  1  0.87549498  0.25063330  0.84677180  1
  O2-  O252  1  0.87563580  0.50163657  0.34132679  1
  O2-  O253  1  0.87626110  0.49922577  0.84908595  1
  O2-  O254  1  0.87610257  0.74947781  0.34269181  1
  O2-  O255  1  0.87548211  0.74911373  0.84897802  1
  O2-  O256  1  -0.00132311  0.12515892  0.34594301  1
  O2-  O257  1  0.00040044  0.12423342  0.85055319  1
  O2-  O258  1  0.00139563  0.37585047  0.34343799  1
  O2-  O259  1  0.00153904  0.37429251  0.84979941  1
  O2-  O260  1  -0.00005915  0.62523744  0.33827766  1
  O2-  O261  1  0.00123880  0.62602206  0.85100684  1
  O2-  O262  1  0.00160896  0.87420269  0.34413018  1
  O2-  O263  1  0.00217266  0.87516687  0.85278884  1
  O2-  O264  1  0.24816282  0.12545264  0.35029075  1
  O2-  O265  1  0.25018205  0.12400160  0.84227878  1
  O2-  O266  1  0.25098430  0.37580555  0.34789360  1
  O2-  O267  1  0.24690560  0.37489270  0.84728094  1
  O2-  O268  1  0.24832145  0.62504685  0.34641017  1
  O2-  O269  1  0.24679633  0.62535565  0.84931764  1
  O2-  O270  1  0.24887353  0.87477431  0.35185361  1
  O2-  O271  1  0.24914081  0.87539933  0.84330545  1
  O2-  O272  1  0.50258064  0.12531802  0.35261747  1
  O2-  O273  1  0.49948870  0.12466138  0.83953496  1
  O2-  O274  1  0.49939825  0.37535131  0.35098482  1
  O2-  O275  1  0.49968179  0.37436528  0.84684354  1
  O2-  O276  1  0.50189790  0.62498803  0.35070024  1
  O2-  O277  1  0.50100431  0.62524943  0.84783102  1
  O2-  O278  1  0.49879956  0.87456862  0.35458490  1
  O2-  O279  1  0.49916720  0.87511941  0.83844707  1
  O2-  O280  1  0.75140152  0.12466104  0.34670795  1
  O2-  O281  1  0.74948443  0.12380241  0.85011172  1
  O2-  O282  1  0.74878034  0.37570617  0.34607999  1
  O2-  O283  1  0.75149338  0.37493390  0.84883622  1
  O2-  O284  1  0.75076890  0.62517974  0.34289802  1
  O2-  O285  1  0.75022298  0.62508008  0.84864984  1
  O2-  O286  1  0.75168216  0.87469127  0.34694971  1
  O2-  O287  1  0.74844830  0.87542888  0.84939070  1
