# generated using pymatgen
data_BaYFeCuO5
_symmetry_space_group_name_H-M   'P 1'
_cell_length_a   15.64930505
_cell_length_b   15.65001039
_cell_length_c   15.44361308
_cell_angle_alpha   90.00230029
_cell_angle_beta   89.99777372
_cell_angle_gamma   90.00001381
_symmetry_Int_Tables_number   1
_chemical_formula_structural   BaYFeCuO5
_chemical_formula_sum   'Ba32 Y32 Fe32 Cu32 O160'
_cell_volume   3782.32286381
_cell_formula_units_Z   32
loop_
 _symmetry_equiv_pos_site_id
 _symmetry_equiv_pos_as_xyz
  1  'x, y, z'
loop_
 _atom_type_symbol
 _atom_type_oxidation_number
  Ba2+  2.0
  Y3+  3.0
  Fe3+  3.0
  Cu2+  2.0
  O2-  -2.0
loop_
 _atom_site_type_symbol
 _atom_site_label
 _atom_site_symmetry_multiplicity
 _atom_site_fract_x
 _atom_site_fract_y
 _atom_site_fract_z
 _atom_site_occupancy
  Ba2+  Ba0  1  0.00423006  0.00869659  0.01113603  1
  Ba2+  Ba1  1  -0.00316135  -0.00296486  0.51213779  1
  Ba2+  Ba2  1  -0.00404234  0.24138187  0.01121883  1
  Ba2+  Ba3  1  0.00068947  0.26204389  0.50645944  1
  Ba2+  Ba4  1  -0.00048494  0.49838401  0.01620241  1
  Ba2+  Ba5  1  0.00505013  0.49228210  0.51082928  1
  Ba2+  Ba6  1  0.00803503  0.75145235  0.01683102  1
  Ba2+  Ba7  1  0.00163887  0.74774114  0.51601282  1
  Ba2+  Ba8  1  0.25108985  0.00583077  0.00732648  1
  Ba2+  Ba9  1  0.26008823  -0.00128835  0.51244985  1
  Ba2+  Ba10  1  0.25389173  0.24109496  0.00255773  1
  Ba2+  Ba11  1  0.25430104  0.25947199  0.51111427  1
  Ba2+  Ba12  1  0.25065685  0.49950103  0.00656740  1
  Ba2+  Ba13  1  0.25113472  0.49567301  0.51679769  1
  Ba2+  Ba14  1  0.24685379  0.75522710  0.01226868  1
  Ba2+  Ba15  1  0.25668070  0.74654601  0.51690922  1
  Ba2+  Ba16  1  0.50017486  0.00649454  0.00704657  1
  Ba2+  Ba17  1  0.49370377  0.00172372  0.50718884  1
  Ba2+  Ba18  1  0.50103826  0.24435008  0.00671136  1
  Ba2+  Ba19  1  0.49658758  0.25398224  0.51259880  1
  Ba2+  Ba20  1  0.50494840  0.49459442  0.01184226  1
  Ba2+  Ba21  1  0.49882012  0.49918611  0.51642517  1
  Ba2+  Ba22  1  0.50385663  0.75485084  0.01304890  1
  Ba2+  Ba23  1  0.49552477  0.74539009  0.51150509  1
  Ba2+  Ba24  1  0.74574838  0.00989503  0.01039659  1
  Ba2+  Ba25  1  0.74800753  0.00096232  0.50682695  1
  Ba2+  Ba26  1  0.74889766  0.24595290  0.01732230  1
  Ba2+  Ba27  1  0.74713758  0.25749576  0.50719546  1
  Ba2+  Ba28  1  0.74530067  0.49392179  0.02250068  1
  Ba2+  Ba29  1  0.74458247  0.49565435  0.51053639  1
  Ba2+  Ba30  1  0.74160720  0.75084161  0.01837263  1
  Ba2+  Ba31  1  0.74490778  0.74592069  0.51032636  1
  Y3+  Y32  1  0.00139553  0.00299465  0.25519410  1
  Y3+  Y33  1  -0.00111433  0.00266849  0.75949203  1
  Y3+  Y34  1  -0.00124431  0.25136612  0.25752680  1
  Y3+  Y35  1  0.00039751  0.24991764  0.75798692  1
  Y3+  Y36  1  -0.00017894  0.49634784  0.25918565  1
  Y3+  Y37  1  0.00094741  0.49729983  0.75347533  1
  Y3+  Y38  1  0.00239985  0.74989557  0.25564717  1
  Y3+  Y39  1  -0.00050883  0.75015193  0.75583647  1
  Y3+  Y40  1  0.25101575  0.00188608  0.25583043  1
  Y3+  Y41  1  0.25454140  0.00135704  0.75962251  1
  Y3+  Y42  1  0.25011872  0.24976772  0.25778331  1
  Y3+  Y43  1  0.25273199  0.24982820  0.75843703  1
  Y3+  Y44  1  0.24946460  0.49723257  0.25877733  1
  Y3+  Y45  1  0.25126833  0.49758834  0.75547318  1
  Y3+  Y46  1  0.25044098  0.75152396  0.25717526  1
  Y3+  Y47  1  0.25316199  0.75031097  0.75654795  1
  Y3+  Y48  1  0.50002827  0.00234359  0.25699706  1
  Y3+  Y49  1  0.49676986  0.00144855  0.75951964  1
  Y3+  Y50  1  0.50061486  0.24802524  0.25632654  1
  Y3+  Y51  1  0.49692616  0.24972484  0.75975911  1
  Y3+  Y52  1  0.50129735  0.49961521  0.25876512  1
  Y3+  Y53  1  0.49905742  0.49823227  0.75516292  1
  Y3+  Y54  1  0.50064118  0.75062268  0.26009899  1
  Y3+  Y55  1  0.49862893  0.75003167  0.75480474  1
  Y3+  Y56  1  0.74751197  0.00343309  0.25598211  1
  Y3+  Y57  1  0.75056566  0.00238293  0.75895578  1
  Y3+  Y58  1  0.74981498  0.24984485  0.25692137  1
  Y3+  Y59  1  0.75047032  0.24934036  0.75812728  1
  Y3+  Y60  1  0.74867938  0.49811750  0.25977994  1
  Y3+  Y61  1  0.74902645  0.49801293  0.75194907  1
  Y3+  Y62  1  0.74577398  0.74888839  0.25912956  1
  Y3+  Y63  1  0.74938364  0.74972135  0.75353134  1
  Fe3+  Fe64  1  0.12547149  0.87574341  0.87508054  1
  Fe3+  Fe65  1  0.87514973  0.62433388  0.37826957  1
  Fe3+  Fe66  1  0.12525760  0.12578688  0.38125790  1
  Fe3+  Fe67  1  0.37622894  0.62529633  0.87960970  1
  Fe3+  Fe68  1  0.12600543  0.87536716  0.37966622  1
  Fe3+  Fe69  1  0.87440913  0.37536161  0.87796901  1
  Fe3+  Fe70  1  0.37450778  0.62369679  0.37565247  1
  Fe3+  Fe71  1  0.87529594  0.87424730  0.37637871  1
  Fe3+  Fe72  1  0.62353442  0.87586146  0.37920272  1
  Fe3+  Fe73  1  0.12568188  0.62443471  0.37677603  1
  Fe3+  Fe74  1  0.62561207  0.37433284  0.87543523  1
  Fe3+  Fe75  1  0.87408278  0.62435665  0.87983600  1
  Fe3+  Fe76  1  0.37493843  0.12630143  0.37712214  1
  Fe3+  Fe77  1  0.12506545  0.37402053  0.87948147  1
  Fe3+  Fe78  1  0.87463950  0.12575417  0.37985240  1
  Fe3+  Fe79  1  0.62298246  0.37428120  0.37532422  1
  Fe3+  Fe80  1  0.62501320  0.87530879  0.87559181  1
  Fe3+  Fe81  1  0.62599652  0.62427783  0.87564593  1
  Fe3+  Fe82  1  0.12445522  0.62482700  0.87564976  1
  Fe3+  Fe83  1  0.87453996  0.87470656  0.87997581  1
  Fe3+  Fe84  1  0.87437524  0.87648427  0.13466094  1
  Fe3+  Fe85  1  0.62371763  0.12573442  0.63659373  1
  Fe3+  Fe86  1  0.37545999  0.37381943  0.13610206  1
  Fe3+  Fe87  1  0.87518280  0.62354533  0.63424005  1
  Fe3+  Fe88  1  0.12635271  0.12580104  0.63463747  1
  Fe3+  Fe89  1  0.37532517  0.62483595  0.13463553  1
  Fe3+  Fe90  1  0.12591934  0.87559768  0.63559361  1
  Fe3+  Fe91  1  0.87504288  0.12611634  0.63476720  1
  Fe3+  Fe92  1  0.62422118  0.87616582  0.63536950  1
  Fe3+  Fe93  1  0.12548986  0.37335823  0.13494684  1
  Fe3+  Fe94  1  0.87472970  0.62494444  0.13568755  1
  Fe3+  Fe95  1  0.37573609  0.87639230  0.13740539  1
  Cu2+  Cu96  1  0.87454967  0.12555386  0.87229824  1
  Cu2+  Cu97  1  0.37423950  0.87489431  0.37275118  1
  Cu2+  Cu98  1  0.62533467  0.12555875  0.86974347  1
  Cu2+  Cu99  1  0.62398300  0.62426404  0.37383261  1
  Cu2+  Cu100  1  0.62468432  0.12539814  0.36883761  1
  Cu2+  Cu101  1  0.37567808  0.87399353  0.86794348  1
  Cu2+  Cu102  1  0.37538284  0.37537221  0.37045967  1
  Cu2+  Cu103  1  0.87412233  0.37553823  0.37276106  1
  Cu2+  Cu104  1  0.12592733  0.37486514  0.37079419  1
  Cu2+  Cu105  1  0.37533215  0.37589674  0.86872433  1
  Cu2+  Cu106  1  0.37566356  0.12478133  0.87206737  1
  Cu2+  Cu107  1  0.12514069  0.12502711  0.86993232  1
  Cu2+  Cu108  1  0.62433253  0.37336754  0.65164059  1
  Cu2+  Cu109  1  0.62426048  0.37408987  0.15315099  1
  Cu2+  Cu110  1  0.87488696  0.12493366  0.14537066  1
  Cu2+  Cu111  1  0.12558214  0.62464007  0.64961602  1
  Cu2+  Cu112  1  0.87487992  0.37396259  0.64075518  1
  Cu2+  Cu113  1  0.12586168  0.12635322  0.14414006  1
  Cu2+  Cu114  1  0.87447924  0.87564738  0.64866604  1
  Cu2+  Cu115  1  0.87476900  0.37471546  0.14955263  1
  Cu2+  Cu116  1  0.62400510  0.62454975  0.15223349  1
  Cu2+  Cu117  1  0.12585940  0.37355976  0.64609221  1
  Cu2+  Cu118  1  0.37509911  0.12562657  0.65066898  1
  Cu2+  Cu119  1  0.37602436  0.87532799  0.64209991  1
  Cu2+  Cu120  1  0.37504053  0.12541226  0.14386168  1
  Cu2+  Cu121  1  0.37546342  0.37446700  0.64394599  1
  Cu2+  Cu122  1  0.62456713  0.87609881  0.15310813  1
  Cu2+  Cu123  1  0.62399495  0.12548456  0.14400347  1
  Cu2+  Cu124  1  0.12591343  0.62365833  0.15022652  1
  Cu2+  Cu125  1  0.12553330  0.87634718  0.15186652  1
  Cu2+  Cu126  1  0.62421726  0.62427248  0.63984180  1
  Cu2+  Cu127  1  0.37486053  0.62403430  0.65319087  1
  O2-  O128  1  0.12493884  0.12521009  0.00674316  1
  O2-  O129  1  0.12547147  0.12565941  0.50754589  1
  O2-  O130  1  0.12469882  0.37424837  0.00708547  1
  O2-  O131  1  0.12618966  0.37540194  0.50733378  1
  O2-  O132  1  0.12287621  0.62575731  -0.00396418  1
  O2-  O133  1  0.12587111  0.62542956  0.49704864  1
  O2-  O134  1  0.12406374  0.87522929  -0.00414145  1
  O2-  O135  1  0.12510820  0.87405372  0.50639598  1
  O2-  O136  1  0.37567452  0.12396106  0.00728636  1
  O2-  O137  1  0.37432293  0.12631542  0.49830994  1
  O2-  O138  1  0.37435601  0.37579022  0.01552379  1
  O2-  O139  1  0.37607690  0.37661287  0.50817967  1
  O2-  O140  1  0.37628202  0.62604093  0.00692870  1
  O2-  O141  1  0.37352267  0.62332616  0.49657594  1
  O2-  O142  1  0.37552587  0.87431931  0.01639608  1
  O2-  O143  1  0.37472615  0.87382477  0.50774735  1
  O2-  O144  1  0.62499168  0.12595447  0.00794556  1
  O2-  O145  1  0.62494357  0.12419825  0.51603167  1
  O2-  O146  1  0.62705864  0.37487213  -0.00383849  1
  O2-  O147  1  0.62247505  0.37536626  0.49684672  1
  O2-  O148  1  0.62702188  0.62476182  -0.00385408  1
  O2-  O149  1  0.62433532  0.62535985  0.50679545  1
  O2-  O150  1  0.62649773  0.87414585  -0.00358735  1
  O2-  O151  1  0.62412222  0.87546710  0.50720874  1
  O2-  O152  1  0.87454632  0.12398790  0.00757415  1
  O2-  O153  1  0.87491360  0.12496359  0.50738750  1
  O2-  O154  1  0.87420473  0.37642957  -0.00153158  1
  O2-  O155  1  0.87429188  0.37655154  0.50667179  1
  O2-  O156  1  0.87406005  0.62488759  0.00597077  1
  O2-  O157  1  0.87590994  0.62512068  0.50547407  1
  O2-  O158  1  0.87433706  0.87517453  0.00676891  1
  O2-  O159  1  0.87696715  0.87277518  0.49665135  1
  O2-  O160  1  0.12471495  -0.00006427  0.16933098  1
  O2-  O161  1  0.12420416  0.00050592  0.65859805  1
  O2-  O162  1  0.12445789  0.25318708  0.16705752  1
  O2-  O163  1  0.12532988  0.24626607  0.66569855  1
  O2-  O164  1  0.12472971  0.49748197  0.16119677  1
  O2-  O165  1  0.12516099  0.50063009  0.66634019  1
  O2-  O166  1  0.12456151  0.74957729  0.16315205  1
  O2-  O167  1  0.12421439  0.75166231  0.66104048  1
  O2-  O168  1  0.37490683  -0.00117055  0.16789262  1
  O2-  O169  1  0.37542059  0.00153733  0.66514278  1
  O2-  O170  1  0.37478307  0.25175505  0.16688439  1
  O2-  O171  1  0.37457286  0.24886860  0.66636657  1
  O2-  O172  1  0.37462858  0.50094902  0.16222397  1
  O2-  O173  1  0.37480836  0.50064067  0.66717490  1
  O2-  O174  1  0.37503600  0.74916000  0.16406494  1
  O2-  O175  1  0.37495898  0.74829996  0.66503009  1
  O2-  O176  1  0.62541687  -0.00053566  0.16845513  1
  O2-  O177  1  0.62565763  -0.00011790  0.66455475  1
  O2-  O178  1  0.62537414  0.25109813  0.16646964  1
  O2-  O179  1  0.62525364  0.24940793  0.66441663  1
  O2-  O180  1  0.62551650  0.49974526  0.16314959  1
  O2-  O181  1  0.62486031  0.49707895  0.66283104  1
  O2-  O182  1  0.62511903  0.74994071  0.16540669  1
  O2-  O183  1  0.62592072  0.75293379  0.66235073  1
  O2-  O184  1  0.87503705  -0.00308755  0.16719286  1
  O2-  O185  1  0.87529303  0.00269604  0.66298849  1
  O2-  O186  1  0.87505691  0.25122268  0.16738989  1
  O2-  O187  1  0.87548796  0.24676593  0.66379877  1
  O2-  O188  1  0.87480461  0.50191863  0.16221242  1
  O2-  O189  1  0.87578241  0.50185915  0.66388955  1
  O2-  O190  1  0.87561000  0.75036084  0.15961048  1
  O2-  O191  1  0.87532691  0.74813391  0.66405323  1
  O2-  O192  1  0.00008118  0.12519481  0.16773160  1
  O2-  O193  1  0.00040418  0.12414724  0.66234986  1
  O2-  O194  1  0.00145249  0.37559616  0.16374741  1
  O2-  O195  1  0.00081691  0.37423149  0.66598905  1
  O2-  O196  1  -0.00151623  0.62528611  0.16293989  1
  O2-  O197  1  -0.00138647  0.62550253  0.66266371  1
  O2-  O198  1  -0.00126689  0.87470040  0.16291296  1
  O2-  O199  1  0.00151330  0.87510338  0.66267975  1
  O2-  O200  1  0.25023115  0.12533702  0.16591590  1
  O2-  O201  1  0.24908799  0.12389792  0.66398712  1
  O2-  O202  1  0.24940524  0.37525206  0.16485884  1
  O2-  O203  1  0.25004111  0.37472391  0.66797336  1
  O2-  O204  1  0.25204414  0.62535696  0.15985474  1
  O2-  O205  1  0.25013026  0.62504313  0.66680784  1
  O2-  O206  1  0.25053823  0.87467784  0.16585106  1
  O2-  O207  1  0.24752323  0.87496274  0.66424000  1
  O2-  O208  1  0.49960887  0.12467208  0.16554995  1
  O2-  O209  1  0.50006170  0.12510519  0.66652471  1
  O2-  O210  1  0.49950212  0.37579815  0.16408024  1
  O2-  O211  1  0.50148494  0.37443809  0.66630143  1
  O2-  O212  1  0.49816708  0.62529249  0.16201091  1
  O2-  O213  1  0.49865235  0.62475932  0.66592234  1
  O2-  O214  1  0.49980570  0.87443787  0.16733707  1
  O2-  O215  1  0.50281192  0.87505184  0.66460576  1
  O2-  O216  1  0.74991490  0.12486362  0.16710932  1
  O2-  O217  1  0.75072425  0.12461408  0.66404315  1
  O2-  O218  1  0.74923283  0.37530753  0.16507757  1
  O2-  O219  1  0.74802876  0.37457925  0.66147683  1
  O2-  O220  1  0.75129668  0.62611085  0.16496248  1
  O2-  O221  1  0.75273904  0.62486528  0.66153087  1
  O2-  O222  1  0.75126806  0.87387212  0.16487232  1
  O2-  O223  1  0.74858241  0.87551887  0.66162390  1
  O2-  O224  1  0.12370261  0.00054849  0.35401067  1
  O2-  O225  1  0.12464006  -0.00224405  0.84241349  1
  O2-  O226  1  0.12405657  0.24675087  0.35067093  1
  O2-  O227  1  0.12472398  0.25314469  0.84937819  1
  O2-  O228  1  0.12413297  0.50174466  0.34458213  1
  O2-  O229  1  0.12464709  0.49921132  0.84944212  1
  O2-  O230  1  0.12440847  0.75124463  0.34719753  1
  O2-  O231  1  0.12423831  0.74973037  0.84322403  1
  O2-  O232  1  0.37422338  0.00225469  0.35004835  1
  O2-  O233  1  0.37520726  -0.00170313  0.84931830  1
  O2-  O234  1  0.37422418  0.24870015  0.34837996  1
  O2-  O235  1  0.37480217  0.25139908  0.85029610  1
  O2-  O236  1  0.37443430  0.50112162  0.34380939  1
  O2-  O237  1  0.37470447  0.50292154  0.85154152  1
  O2-  O238  1  0.37399866  0.74832554  0.34615058  1
  O2-  O239  1  0.37535233  0.74739143  0.84909007  1
  O2-  O240  1  0.62578273  -0.00102638  0.35243294  1
  O2-  O241  1  0.62618934  -0.00173867  0.84645861  1
  O2-  O242  1  0.62549497  0.24972185  0.34912334  1
  O2-  O243  1  0.62519079  0.25171768  0.84606539  1
  O2-  O244  1  0.62511008  0.49835682  0.34642189  1
  O2-  O245  1  0.62577228  0.50036492  0.84416246  1
  O2-  O246  1  0.62522373  0.75309448  0.35026270  1
  O2-  O247  1  0.62617496  0.74930512  0.84372628  1
  O2-  O248  1  0.87547001  0.00070489  0.35091179  1
  O2-  O249  1  0.87491998  -0.00359816  0.84834353  1
  O2-  O250  1  0.87515600  0.24707282  0.35164971  1
  O2-  O251  1  0.87586521  0.25290913  0.84648972  1
  O2-  O252  1  0.87528338  0.50308116  0.34687427  1
  O2-  O253  1  0.87560940  0.50141224  0.84738774  1
  O2-  O254  1  0.87547013  0.74914100  0.34404583  1
  O2-  O255  1  0.87552564  0.74939093  0.84975205  1
  O2-  O256  1  -0.00021987  0.12408074  0.35233113  1
  O2-  O257  1  -0.00001664  0.12460442  0.84655341  1
  O2-  O258  1  0.00003687  0.37513249  0.34828377  1
  O2-  O259  1  0.00086203  0.37622902  0.84864053  1
  O2-  O260  1  -0.00061049  0.62600215  0.34710467  1
  O2-  O261  1  -0.00171810  0.62525670  0.84632718  1
  O2-  O262  1  0.00152825  0.87482976  0.34712262  1
  O2-  O263  1  -0.00178235  0.87409318  0.84677697  1
  O2-  O264  1  0.24830851  0.12461224  0.34847652  1
  O2-  O265  1  0.25026180  0.12467049  0.84851584  1
  O2-  O266  1  0.25021106  0.37488295  0.34733314  1
  O2-  O267  1  0.24870686  0.37597354  0.85233158  1
  O2-  O268  1  0.24909770  0.62524657  0.34221892  1
  O2-  O269  1  0.25074323  0.62549586  0.85123127  1
  O2-  O270  1  0.24640532  0.87548654  0.34891228  1
  O2-  O271  1  0.25007197  0.87382737  0.84799825  1
  O2-  O272  1  0.49944924  0.12466129  0.34854201  1
  O2-  O273  1  0.50053549  0.12446975  0.84986134  1
  O2-  O274  1  0.50085878  0.37459317  0.34527605  1
  O2-  O275  1  0.50043723  0.37628036  0.84959294  1
  O2-  O276  1  0.49806537  0.62552351  0.34566890  1
  O2-  O277  1  0.50005955  0.62533466  0.84938366  1
  O2-  O278  1  0.50193048  0.87537796  0.35077875  1
  O2-  O279  1  0.50089092  0.87368845  0.84786866  1
  O2-  O280  1  0.75164320  0.12390838  0.35178581  1
  O2-  O281  1  0.75002316  0.12481194  0.84652310  1
  O2-  O282  1  0.74768567  0.37507704  0.34838600  1
  O2-  O283  1  0.75060863  0.37610777  0.84293950  1
  O2-  O284  1  0.75253876  0.62614418  0.35042756  1
  O2-  O285  1  0.75173708  0.62557522  0.84384554  1
  O2-  O286  1  0.74924570  0.87489675  0.34959979  1
  O2-  O287  1  0.75168647  0.87347291  0.84563384  1
