# generated using pymatgen
data_BaYFeCuO5
_symmetry_space_group_name_H-M   'P 1'
_cell_length_a   15.66607907
_cell_length_b   15.66965658
_cell_length_c   15.48162553
_cell_angle_alpha   89.99425717
_cell_angle_beta   89.99326173
_cell_angle_gamma   90.00329900
_symmetry_Int_Tables_number   1
_chemical_formula_structural   BaYFeCuO5
_chemical_formula_sum   'Ba32 Y32 Fe32 Cu32 O160'
_cell_volume   3800.46156723
_cell_formula_units_Z   32
loop_
 _symmetry_equiv_pos_site_id
 _symmetry_equiv_pos_as_xyz
  1  'x, y, z'
loop_
 _atom_type_symbol
 _atom_type_oxidation_number
  Ba2+  2.0
  Y3+  3.0
  Fe3+  3.0
  Cu2+  2.0
  O2-  -2.0
loop_
 _atom_site_type_symbol
 _atom_site_label
 _atom_site_symmetry_multiplicity
 _atom_site_fract_x
 _atom_site_fract_y
 _atom_site_fract_z
 _atom_site_occupancy
  Ba2+  Ba0  1  -0.00513902  0.00196379  0.00578434  1
  Ba2+  Ba1  1  -0.00067559  -0.00152841  0.51555708  1
  Ba2+  Ba2  1  -0.00298873  0.25414691  0.01261477  1
  Ba2+  Ba3  1  -0.01020727  0.25041818  0.50660631  1
  Ba2+  Ba4  1  -0.00191318  0.49764047  0.02436063  1
  Ba2+  Ba5  1  -0.00474349  0.50859428  0.50242061  1
  Ba2+  Ba6  1  -0.00447472  0.74651528  0.01849786  1
  Ba2+  Ba7  1  0.00365771  0.74209555  0.51074263  1
  Ba2+  Ba8  1  0.25498294  0.00089425  0.00566375  1
  Ba2+  Ba9  1  0.25355547  -0.01208711  0.51123000  1
  Ba2+  Ba10  1  0.24327873  0.24709855  0.01455870  1
  Ba2+  Ba11  1  0.25617408  0.25482634  0.51116520  1
  Ba2+  Ba12  1  0.24378829  0.50374688  0.01378625  1
  Ba2+  Ba13  1  0.25253269  0.50866818  0.51601220  1
  Ba2+  Ba14  1  0.25527523  0.74863139  0.00578727  1
  Ba2+  Ba15  1  0.25117991  0.74968086  0.51704956  1
  Ba2+  Ba16  1  0.49433784  0.00091121  0.00598332  1
  Ba2+  Ba17  1  0.50286808  -0.00735801  0.51784169  1
  Ba2+  Ba18  1  0.50524963  0.24659809  0.01211516  1
  Ba2+  Ba19  1  0.50805247  0.25594826  0.51607727  1
  Ba2+  Ba20  1  0.50433203  0.50418944  0.00085663  1
  Ba2+  Ba21  1  0.50302042  0.50002461  0.52242187  1
  Ba2+  Ba22  1  0.49468506  0.74808485  -0.00246757  1
  Ba2+  Ba23  1  0.49860380  0.75086626  0.52291496  1
  Ba2+  Ba24  1  0.75619460  0.00199141  0.00580966  1
  Ba2+  Ba25  1  0.74384172  0.00423615  0.52388854  1
  Ba2+  Ba26  1  0.75407130  0.25327534  0.01170344  1
  Ba2+  Ba27  1  0.74496600  0.25337013  0.51165274  1
  Ba2+  Ba28  1  0.75484515  0.49672317  0.01307440  1
  Ba2+  Ba29  1  0.74886096  0.49996567  0.50530458  1
  Ba2+  Ba30  1  0.75678761  0.74757762  0.00689578  1
  Ba2+  Ba31  1  0.74649835  0.74297208  0.51775706  1
  Y3+  Y32  1  -0.00030173  -0.00166075  0.25518572  1
  Y3+  Y33  1  -0.00222007  -0.00084778  0.75793244  1
  Y3+  Y34  1  -0.00104068  0.25259375  0.25749806  1
  Y3+  Y35  1  -0.00393677  0.25022934  0.75797755  1
  Y3+  Y36  1  -0.00236793  0.50206323  0.26100359  1
  Y3+  Y37  1  -0.00155634  0.50164453  0.75366800  1
  Y3+  Y38  1  -0.00134706  0.74704583  0.25896757  1
  Y3+  Y39  1  -0.00020172  0.74902474  0.75429233  1
  Y3+  Y40  1  0.25181957  -0.00292305  0.25655574  1
  Y3+  Y41  1  0.25203449  -0.00338755  0.75787540  1
  Y3+  Y42  1  0.24882522  0.25001266  0.25808225  1
  Y3+  Y43  1  0.25165559  0.25038294  0.75660143  1
  Y3+  Y44  1  0.24681688  0.50229326  0.25916778  1
  Y3+  Y45  1  0.25110134  0.50242925  0.75553618  1
  Y3+  Y46  1  0.25040006  0.75063850  0.25797608  1
  Y3+  Y47  1  0.25138637  0.75002944  0.75644637  1
  Y3+  Y48  1  0.49882564  -0.00193529  0.25514086  1
  Y3+  Y49  1  0.49865584  -0.00219282  0.75913091  1
  Y3+  Y50  1  0.50397722  0.25091642  0.25698744  1
  Y3+  Y51  1  0.50146395  0.25138036  0.75614647  1
  Y3+  Y52  1  0.50326632  0.49831751  0.25676657  1
  Y3+  Y53  1  0.50101569  0.50147273  0.75743362  1
  Y3+  Y54  1  0.49777814  0.75291305  0.25535021  1
  Y3+  Y55  1  0.49816547  0.74925488  0.75955549  1
  Y3+  Y56  1  0.74919154  -0.00066570  0.25267815  1
  Y3+  Y57  1  0.75181313  0.00013811  0.76001667  1
  Y3+  Y58  1  0.74849371  0.25408058  0.25727293  1
  Y3+  Y59  1  0.75141571  0.25064226  0.75754416  1
  Y3+  Y60  1  0.75174584  0.49780320  0.25902291  1
  Y3+  Y61  1  0.74966729  0.50085220  0.75644523  1
  Y3+  Y62  1  0.75269602  0.74903672  0.25560238  1
  Y3+  Y63  1  0.75032847  0.74794993  0.75878557  1
  Fe3+  Fe64  1  0.12361302  0.37604400  0.87534654  1
  Fe3+  Fe65  1  0.37652171  0.12428928  0.38098213  1
  Fe3+  Fe66  1  0.37404886  0.37465823  0.87972995  1
  Fe3+  Fe67  1  0.12392571  0.87385300  0.87863753  1
  Fe3+  Fe68  1  0.87301685  0.12375501  0.37774755  1
  Fe3+  Fe69  1  0.37652707  0.37638390  0.37730174  1
  Fe3+  Fe70  1  0.12483685  0.37584243  0.38026540  1
  Fe3+  Fe71  1  0.62526254  0.87435272  0.37607577  1
  Fe3+  Fe72  1  0.12467798  0.12555129  0.87479483  1
  Fe3+  Fe73  1  0.12382460  0.62440708  0.87643916  1
  Fe3+  Fe74  1  0.87307510  0.87503976  0.38046931  1
  Fe3+  Fe75  1  0.62590172  0.87420206  0.87860288  1
  Fe3+  Fe76  1  0.87644806  0.62330527  0.87584958  1
  Fe3+  Fe77  1  0.62475367  0.12381956  0.37565588  1
  Fe3+  Fe78  1  0.12524421  0.12416691  0.38023774  1
  Fe3+  Fe79  1  0.37663681  0.62589253  0.37711366  1
  Fe3+  Fe80  1  0.62652220  0.37541621  0.87718240  1
  Fe3+  Fe81  1  0.12464347  0.87412023  0.37650192  1
  Fe3+  Fe82  1  0.62544829  0.12530354  0.87662411  1
  Fe3+  Fe83  1  0.62365567  0.62596056  0.37605357  1
  Fe3+  Fe84  1  0.37540193  0.62442947  0.13695410  1
  Fe3+  Fe85  1  0.62540653  0.62534755  0.13557313  1
  Fe3+  Fe86  1  0.12519305  0.87476818  0.13396350  1
  Fe3+  Fe87  1  0.87505670  0.12571147  0.13943191  1
  Fe3+  Fe88  1  0.37612487  0.12464968  0.63550856  1
  Fe3+  Fe89  1  0.37499173  0.12570728  0.13886463  1
  Fe3+  Fe90  1  0.87429520  0.87395482  0.63556073  1
  Fe3+  Fe91  1  0.87430000  0.37608198  0.63709753  1
  Fe3+  Fe92  1  0.12444352  0.37539008  0.63336632  1
  Fe3+  Fe93  1  0.37500749  0.37570698  0.13429211  1
  Fe3+  Fe94  1  0.62498822  0.87471012  0.13197027  1
  Fe3+  Fe95  1  0.12521567  0.12499108  0.63356413  1
  Cu2+  Cu96  1  0.37496365  0.12653890  0.86156680  1
  Cu2+  Cu97  1  0.87285726  0.62626285  0.37293438  1
  Cu2+  Cu98  1  0.87632759  0.87314750  0.87263004  1
  Cu2+  Cu99  1  0.12595951  0.62599669  0.37311667  1
  Cu2+  Cu100  1  0.62461264  0.37580218  0.37283133  1
  Cu2+  Cu101  1  0.87443918  0.37458716  0.36575740  1
  Cu2+  Cu102  1  0.62586320  0.62473705  0.86590932  1
  Cu2+  Cu103  1  0.87526717  0.12594792  0.86292116  1
  Cu2+  Cu104  1  0.37602814  0.87444267  0.37282239  1
  Cu2+  Cu105  1  0.87588070  0.37638820  0.87186619  1
  Cu2+  Cu106  1  0.37385609  0.62339586  0.86327863  1
  Cu2+  Cu107  1  0.37420978  0.87488612  0.87256351  1
  Cu2+  Cu108  1  0.87457312  0.62431084  0.15383671  1
  Cu2+  Cu109  1  0.62533479  0.12487045  0.14732456  1
  Cu2+  Cu110  1  0.62509307  0.62528131  0.65455935  1
  Cu2+  Cu111  1  0.87535995  0.87504563  0.14072360  1
  Cu2+  Cu112  1  0.12471737  0.12434440  0.15333671  1
  Cu2+  Cu113  1  0.62490835  0.37581084  0.14685994  1
  Cu2+  Cu114  1  0.12492841  0.62499711  0.64154062  1
  Cu2+  Cu115  1  0.12452814  0.87515196  0.65186752  1
  Cu2+  Cu116  1  0.87438171  0.62465154  0.64129140  1
  Cu2+  Cu117  1  0.62625705  0.37612611  0.64453328  1
  Cu2+  Cu118  1  0.37478438  0.87438992  0.13971268  1
  Cu2+  Cu119  1  0.12534649  0.37533901  0.15507027  1
  Cu2+  Cu120  1  0.87500757  0.37490685  0.14504878  1
  Cu2+  Cu121  1  0.12504124  0.62580879  0.15243485  1
  Cu2+  Cu122  1  0.37548207  0.87449947  0.64451241  1
  Cu2+  Cu123  1  0.87466633  0.12519924  0.65039009  1
  Cu2+  Cu124  1  0.62458423  0.12489840  0.65506483  1
  Cu2+  Cu125  1  0.62578161  0.87433447  0.65687740  1
  Cu2+  Cu126  1  0.37516567  0.37540038  0.65213848  1
  Cu2+  Cu127  1  0.37570153  0.62525295  0.65393349  1
  O2-  O128  1  0.12432663  0.12642163  -0.00526919  1
  O2-  O129  1  0.12569836  0.12381106  0.50635837  1
  O2-  O130  1  0.12463726  0.37513348  -0.00460177  1
  O2-  O131  1  0.12553258  0.37498437  0.50664003  1
  O2-  O132  1  0.12240368  0.62319044  -0.00358942  1
  O2-  O133  1  0.12700356  0.62539476  0.50670160  1
  O2-  O134  1  0.12423322  0.87506937  0.00566942  1
  O2-  O135  1  0.12444515  0.87505053  0.49695482  1
  O2-  O136  1  0.37286706  0.12755004  0.01813583  1
  O2-  O137  1  0.37731111  0.12420053  0.50728890  1
  O2-  O138  1  0.37302055  0.37395479  0.00691095  1
  O2-  O139  1  0.37680380  0.37634887  0.49752358  1
  O2-  O140  1  0.37412758  0.62281452  0.01640809  1
  O2-  O141  1  0.37783334  0.62559201  0.49760672  1
  O2-  O142  1  0.37372591  0.87562517  0.00613867  1
  O2-  O143  1  0.37654349  0.87403284  0.50861533  1
  O2-  O144  1  0.62528107  0.12566962  -0.00324448  1
  O2-  O145  1  0.62365439  0.12288969  0.49562749  1
  O2-  O146  1  0.62543690  0.37434954  -0.00220981  1
  O2-  O147  1  0.62470239  0.37603973  0.50833157  1
  O2-  O148  1  0.62530148  0.62537668  0.01530579  1
  O2-  O149  1  0.62190719  0.62670501  0.49644584  1
  O2-  O150  1  0.62547228  0.87485540  0.00528802  1
  O2-  O151  1  0.62605118  0.87467309  0.49600279  1
  O2-  O152  1  0.87734452  0.12636727  0.01812351  1
  O2-  O153  1  0.87224722  0.12229498  0.49806578  1
  O2-  O154  1  0.87639465  0.37537425  0.00876133  1
  O2-  O155  1  0.87337499  0.37466493  0.51653133  1
  O2-  O156  1  0.87779689  0.62291068  -0.00330585  1
  O2-  O157  1  0.87263383  0.62648716  0.50656210  1
  O2-  O158  1  0.87654944  0.87491465  0.00632765  1
  O2-  O159  1  0.87246571  0.87546285  0.50661999  1
  O2-  O160  1  0.12557317  -0.00181186  0.16301667  1
  O2-  O161  1  0.12553606  0.00229243  0.66361446  1
  O2-  O162  1  0.12547685  0.24992709  0.16782849  1
  O2-  O163  1  0.12602498  0.24976510  0.65892714  1
  O2-  O164  1  0.12540868  0.50058806  0.16644688  1
  O2-  O165  1  0.12588771  0.49662253  0.66174200  1
  O2-  O166  1  0.12467771  0.75139992  0.16095823  1
  O2-  O167  1  0.12499786  0.75143320  0.66629488  1
  O2-  O168  1  0.37445898  0.00177144  0.16676100  1
  O2-  O169  1  0.37493108  0.00263573  0.66518953  1
  O2-  O170  1  0.37422040  0.25187751  0.16763417  1
  O2-  O171  1  0.37530710  0.24808777  0.66240917  1
  O2-  O172  1  0.37395130  0.49840769  0.16395670  1
  O2-  O173  1  0.37505377  0.50036416  0.66563391  1
  O2-  O174  1  0.37475680  0.74785192  0.16418174  1
  O2-  O175  1  0.37531151  0.74901409  0.66715081  1
  O2-  O176  1  0.62491426  -0.00198546  0.16058370  1
  O2-  O177  1  0.62498917  -0.00022239  0.66623759  1
  O2-  O178  1  0.62456858  0.25083670  0.16475134  1
  O2-  O179  1  0.62453989  0.24904101  0.66381463  1
  O2-  O180  1  0.62510123  0.50079167  0.16528000  1
  O2-  O181  1  0.62440148  0.50176052  0.66599309  1
  O2-  O182  1  0.62507856  0.75093483  0.16274424  1
  O2-  O183  1  0.62512596  0.74979460  0.66725902  1
  O2-  O184  1  0.87537501  0.00207337  0.16657536  1
  O2-  O185  1  0.87476597  -0.00146187  0.66406073  1
  O2-  O186  1  0.87575725  0.24867740  0.16841095  1
  O2-  O187  1  0.87515830  0.25043781  0.66527902  1
  O2-  O188  1  0.87559044  0.50075637  0.16713093  1
  O2-  O189  1  0.87529822  0.49879827  0.66478230  1
  O2-  O190  1  0.87544333  0.74844362  0.16463340  1
  O2-  O191  1  0.87470062  0.75234873  0.66343646  1
  O2-  O192  1  0.00012657  0.12503295  0.17000612  1
  O2-  O193  1  0.00222019  0.12497959  0.66038928  1
  O2-  O194  1  0.00190991  0.37500248  0.16924631  1
  O2-  O195  1  0.00093663  0.37356861  0.66296115  1
  O2-  O196  1  -0.00009710  0.62478578  0.16691401  1
  O2-  O197  1  -0.00008166  0.62515689  0.66142739  1
  O2-  O198  1  0.00294996  0.87527900  0.16533339  1
  O2-  O199  1  -0.00189705  0.87613269  0.66146363  1
  O2-  O200  1  0.25012876  0.12594111  0.16993675  1
  O2-  O201  1  0.25029673  0.12581634  0.65993441  1
  O2-  O202  1  0.25134381  0.37422605  0.16409055  1
  O2-  O203  1  0.24868000  0.37381112  0.66276563  1
  O2-  O204  1  0.25042016  0.62437283  0.16613089  1
  O2-  O205  1  0.25143010  0.62521790  0.66458825  1
  O2-  O206  1  0.24736851  0.87512537  0.16371031  1
  O2-  O207  1  0.24868425  0.87526946  0.66603249  1
  O2-  O208  1  0.49985789  0.12577668  0.16420661  1
  O2-  O209  1  0.49862688  0.12488092  0.66446370  1
  O2-  O210  1  0.49791623  0.37450719  0.16048124  1
  O2-  O211  1  0.49910524  0.37530133  0.66795612  1
  O2-  O212  1  0.50014771  0.62415876  0.16470122  1
  O2-  O213  1  0.50022132  0.62529550  0.66738845  1
  O2-  O214  1  0.50244707  0.87554680  0.16124016  1
  O2-  O215  1  0.50186765  0.87503321  0.66834204  1
  O2-  O216  1  0.74992876  0.12522012  0.16322427  1
  O2-  O217  1  0.74911414  0.12446556  0.66584160  1
  O2-  O218  1  0.74879780  0.37500511  0.16528438  1
  O2-  O219  1  0.75185726  0.37472271  0.66820129  1
  O2-  O220  1  0.74958014  0.62509786  0.16479538  1
  O2-  O221  1  0.74865929  0.62557836  0.66573999  1
  O2-  O222  1  0.74750418  0.87488773  0.16137744  1
  O2-  O223  1  0.75143004  0.87536623  0.66545457  1
  O2-  O224  1  0.12495636  0.00127923  0.34646190  1
  O2-  O225  1  0.12471489  -0.00082533  0.84805795  1
  O2-  O226  1  0.12554538  0.24958130  0.35302726  1
  O2-  O227  1  0.12552855  0.25050186  0.84123931  1
  O2-  O228  1  0.12499895  0.49721632  0.35113003  1
  O2-  O229  1  0.12561610  0.50001465  0.84239399  1
  O2-  O230  1  0.12445653  0.75235353  0.34391522  1
  O2-  O231  1  0.12523113  0.75021220  0.84942274  1
  O2-  O232  1  0.37464095  0.00306710  0.34992126  1
  O2-  O233  1  0.37443760  0.00188014  0.84905135  1
  O2-  O234  1  0.37393905  0.24846613  0.35050614  1
  O2-  O235  1  0.37431155  0.25262134  0.84660173  1
  O2-  O236  1  0.37501767  0.50021968  0.34408077  1
  O2-  O237  1  0.37454222  0.49706936  0.85044068  1
  O2-  O238  1  0.37529495  0.74892814  0.34493497  1
  O2-  O239  1  0.37419299  0.74799589  0.85111283  1
  O2-  O240  1  0.62469524  -0.00034101  0.34183688  1
  O2-  O241  1  0.62513203  -0.00088461  0.84945091  1
  O2-  O242  1  0.62487970  0.24815325  0.34825360  1
  O2-  O243  1  0.62492936  0.25021777  0.84518866  1
  O2-  O244  1  0.62463658  0.50170736  0.34722982  1
  O2-  O245  1  0.62431180  0.49936233  0.84846761  1
  O2-  O246  1  0.62505909  0.75070886  0.34217829  1
  O2-  O247  1  0.62496976  0.75078351  0.85182388  1
  O2-  O248  1  0.87544880  -0.00133026  0.34688592  1
  O2-  O249  1  0.87600048  0.00106826  0.84913914  1
  O2-  O250  1  0.87516194  0.24875213  0.35005807  1
  O2-  O251  1  0.87545929  0.24952013  0.84859266  1
  O2-  O252  1  0.87465663  0.49854552  0.35121497  1
  O2-  O253  1  0.87567016  0.50165682  0.84438628  1
  O2-  O254  1  0.87453181  0.75408848  0.34811556  1
  O2-  O255  1  0.87559191  0.74691679  0.84598978  1
  O2-  O256  1  0.00108994  0.12475871  0.35304047  1
  O2-  O257  1  0.00044811  0.12491970  0.84410116  1
  O2-  O258  1  0.00140420  0.37385019  0.35381069  1
  O2-  O259  1  0.00151300  0.37440326  0.84387205  1
  O2-  O260  1  -0.00072059  0.62566575  0.35159372  1
  O2-  O261  1  0.00100153  0.62491403  0.84110549  1
  O2-  O262  1  -0.00187829  0.87620405  0.34905464  1
  O2-  O263  1  0.00338801  0.87518589  0.84535633  1
  O2-  O264  1  0.24978829  0.12536387  0.35364236  1
  O2-  O265  1  0.24927985  0.12528080  0.84357117  1
  O2-  O266  1  0.24906504  0.37420552  0.34830557  1
  O2-  O267  1  0.25042473  0.37444309  0.84674548  1
  O2-  O268  1  0.25243480  0.62506257  0.34745332  1
  O2-  O269  1  0.24862761  0.62430771  0.84756022  1
  O2-  O270  1  0.24863677  0.87600470  0.34691738  1
  O2-  O271  1  0.24663636  0.87559372  0.84983302  1
  O2-  O272  1  0.49905049  0.12503919  0.34547775  1
  O2-  O273  1  0.50048682  0.12538935  0.84843759  1
  O2-  O274  1  0.49810090  0.37409003  0.34277465  1
  O2-  O275  1  0.49899900  0.37455423  0.85182893  1
  O2-  O276  1  0.50003711  0.62537368  0.34139595  1
  O2-  O277  1  0.49921971  0.62436390  0.85256345  1
  O2-  O278  1  0.50186910  0.87585247  0.34362003  1
  O2-  O279  1  0.50239321  0.87510457  0.85208551  1
  O2-  O280  1  0.74953806  0.12390568  0.34361501  1
  O2-  O281  1  0.75011734  0.12450563  0.84931257  1
  O2-  O282  1  0.75096517  0.37479140  0.34928662  1
  O2-  O283  1  0.74906790  0.37514481  0.84923268  1
  O2-  O284  1  0.74748142  0.62578062  0.34665835  1
  O2-  O285  1  0.75125822  0.62492208  0.84862439  1
  O2-  O286  1  0.75086725  0.87589078  0.34379584  1
  O2-  O287  1  0.74787585  0.87481768  0.84981903  1
