# generated using pymatgen
data_BaYFeCuO5
_symmetry_space_group_name_H-M   'P 1'
_cell_length_a   15.66986175
_cell_length_b   15.66864986
_cell_length_c   15.47866783
_cell_angle_alpha   90.00315501
_cell_angle_beta   90.00202128
_cell_angle_gamma   89.98848806
_symmetry_Int_Tables_number   1
_chemical_formula_structural   BaYFeCuO5
_chemical_formula_sum   'Ba32 Y32 Fe32 Cu32 O160'
_cell_volume   3800.40876859
_cell_formula_units_Z   32
loop_
 _symmetry_equiv_pos_site_id
 _symmetry_equiv_pos_as_xyz
  1  'x, y, z'
loop_
 _atom_type_symbol
 _atom_type_oxidation_number
  Ba2+  2.0
  Y3+  3.0
  Fe3+  3.0
  Cu2+  2.0
  O2-  -2.0
loop_
 _atom_site_type_symbol
 _atom_site_label
 _atom_site_symmetry_multiplicity
 _atom_site_fract_x
 _atom_site_fract_y
 _atom_site_fract_z
 _atom_site_occupancy
  Ba2+  Ba0  1  -0.00630631  0.00144859  0.01662549  1
  Ba2+  Ba1  1  -0.00332267  -0.01192259  0.51057270  1
  Ba2+  Ba2  1  -0.00283637  0.24465571  0.02339812  1
  Ba2+  Ba3  1  0.00046045  0.26166612  0.50156622  1
  Ba2+  Ba4  1  -0.00138374  0.50591703  0.01602490  1
  Ba2+  Ba5  1  -0.00015803  0.50147602  0.51402197  1
  Ba2+  Ba6  1  -0.00396874  0.74706168  0.00978534  1
  Ba2+  Ba7  1  -0.00370235  0.74893836  0.52366049  1
  Ba2+  Ba8  1  0.25468048  0.00417721  0.02376424  1
  Ba2+  Ba9  1  0.25318096  0.00246784  0.50917352  1
  Ba2+  Ba10  1  0.25397424  0.24547158  0.01475457  1
  Ba2+  Ba11  1  0.25076796  0.25022533  0.50736314  1
  Ba2+  Ba12  1  0.25392658  0.50716803  0.00178590  1
  Ba2+  Ba13  1  0.23876201  0.49862481  0.51229681  1
  Ba2+  Ba14  1  0.25415796  0.74245346  0.01056914  1
  Ba2+  Ba15  1  0.23993839  0.74945606  0.51862218  1
  Ba2+  Ba16  1  0.50006167  -0.00128651  0.01837321  1
  Ba2+  Ba17  1  0.50313686  0.00543550  0.51535315  1
  Ba2+  Ba18  1  0.49649045  0.24560593  -0.00024681  1
  Ba2+  Ba19  1  0.50466915  0.24660209  0.51276445  1
  Ba2+  Ba20  1  0.49713573  0.50854566  0.00228355  1
  Ba2+  Ba21  1  0.51082661  0.49771691  0.50278580  1
  Ba2+  Ba22  1  0.50026730  0.74689980  0.01667304  1
  Ba2+  Ba23  1  0.51036320  0.74969989  0.50691797  1
  Ba2+  Ba24  1  0.75123371  -0.00332482  0.01029781  1
  Ba2+  Ba25  1  0.74840487  -0.00716907  0.51681081  1
  Ba2+  Ba26  1  0.75371392  0.24528015  0.01321530  1
  Ba2+  Ba27  1  0.74398705  0.25714402  0.50743674  1
  Ba2+  Ba28  1  0.75055791  0.50666070  0.01594013  1
  Ba2+  Ba29  1  0.74949243  0.49971699  0.49888741  1
  Ba2+  Ba30  1  0.74870836  0.75096826  0.01537745  1
  Ba2+  Ba31  1  0.75470670  0.75062293  0.51286252  1
  Y3+  Y32  1  -0.00258827  -0.00157132  0.25637287  1
  Y3+  Y33  1  -0.00230949  -0.00373213  0.75632909  1
  Y3+  Y34  1  -0.00057855  0.25214691  0.25913859  1
  Y3+  Y35  1  0.00131548  0.25154660  0.75431642  1
  Y3+  Y36  1  -0.00074568  0.49931897  0.25639239  1
  Y3+  Y37  1  0.00257239  0.50152740  0.75845243  1
  Y3+  Y38  1  -0.00282040  0.75005198  0.25229887  1
  Y3+  Y39  1  -0.00092751  0.75048090  0.75994407  1
  Y3+  Y40  1  0.25192949  0.00162818  0.25931635  1
  Y3+  Y41  1  0.24984534  0.00018807  0.75176951  1
  Y3+  Y42  1  0.24994647  0.24967574  0.26196502  1
  Y3+  Y43  1  0.25115519  0.25164356  0.75397153  1
  Y3+  Y44  1  0.24878870  0.50116989  0.25599845  1
  Y3+  Y45  1  0.24898730  0.50053390  0.76012785  1
  Y3+  Y46  1  0.25121535  0.74804824  0.25251197  1
  Y3+  Y47  1  0.24765095  0.74771755  0.76055950  1
  Y3+  Y48  1  0.49838286  -0.00026130  0.25897911  1
  Y3+  Y49  1  0.50240805  0.00194521  0.75387623  1
  Y3+  Y50  1  0.49964191  0.24999384  0.26248495  1
  Y3+  Y51  1  0.50103607  0.24971488  0.75424292  1
  Y3+  Y52  1  0.50266214  0.50190961  0.25727371  1
  Y3+  Y53  1  0.49999579  0.49996300  0.76104082  1
  Y3+  Y54  1  0.50109885  0.74889841  0.25392436  1
  Y3+  Y55  1  0.50144254  0.74810219  0.76041530  1
  Y3+  Y56  1  0.75224003  -0.00373181  0.25582388  1
  Y3+  Y57  1  0.74971929  -0.00206871  0.75711431  1
  Y3+  Y58  1  0.75125537  0.25310086  0.25930833  1
  Y3+  Y59  1  0.74634607  0.24978745  0.75637272  1
  Y3+  Y60  1  0.74948082  0.50046486  0.25659569  1
  Y3+  Y61  1  0.74817690  0.50100730  0.75881979  1
  Y3+  Y62  1  0.75021277  0.75013359  0.25423902  1
  Y3+  Y63  1  0.75165994  0.75162782  0.75949323  1
  Fe3+  Fe64  1  0.87521354  0.12543955  0.87393859  1
  Fe3+  Fe65  1  0.12400108  0.87272307  0.37501247  1
  Fe3+  Fe66  1  0.37447035  0.12342808  0.87228695  1
  Fe3+  Fe67  1  0.37496184  0.62564883  0.38149314  1
  Fe3+  Fe68  1  0.87426356  0.62477727  0.87641682  1
  Fe3+  Fe69  1  0.62523876  0.37447167  0.88129908  1
  Fe3+  Fe70  1  0.62652370  0.12387246  0.37687091  1
  Fe3+  Fe71  1  0.62620669  0.87440986  0.37543557  1
  Fe3+  Fe72  1  0.62422963  0.87551184  0.87705204  1
  Fe3+  Fe73  1  0.12500821  0.12448902  0.87567741  1
  Fe3+  Fe74  1  0.87426870  0.12432296  0.38005584  1
  Fe3+  Fe75  1  0.12353231  0.12410271  0.37881854  1
  Fe3+  Fe76  1  0.37492547  0.87334686  0.37944648  1
  Fe3+  Fe77  1  0.37512417  0.37635698  0.38127705  1
  Fe3+  Fe78  1  0.37461922  0.87615770  0.87581244  1
  Fe3+  Fe79  1  0.12506310  0.37352303  0.88128597  1
  Fe3+  Fe80  1  0.12357714  0.62638854  0.37416643  1
  Fe3+  Fe81  1  0.12544885  0.87651101  0.87985991  1
  Fe3+  Fe82  1  0.87567240  0.37401365  0.87923375  1
  Fe3+  Fe83  1  0.87544596  0.62625902  0.37476160  1
  Fe3+  Fe84  1  0.62630305  0.62452105  0.63954844  1
  Fe3+  Fe85  1  0.12312732  0.12506610  0.63244101  1
  Fe3+  Fe86  1  0.37573230  0.37655282  0.63573620  1
  Fe3+  Fe87  1  0.62414682  0.37439712  0.13558424  1
  Fe3+  Fe88  1  0.37597138  0.87343002  0.63362732  1
  Fe3+  Fe89  1  0.87358869  0.37668428  0.63813175  1
  Fe3+  Fe90  1  0.62499387  0.12540267  0.13872414  1
  Fe3+  Fe91  1  0.37620808  0.37520893  0.13853958  1
  Fe3+  Fe92  1  0.12590289  0.87524700  0.13400973  1
  Fe3+  Fe93  1  0.12594803  0.37493658  0.13578841  1
  Fe3+  Fe94  1  0.87446372  0.12584055  0.63281484  1
  Fe3+  Fe95  1  0.37534773  0.62460845  0.63479165  1
  Cu2+  Cu96  1  0.12405700  0.62529152  0.87400085  1
  Cu2+  Cu97  1  0.62589090  0.62591637  0.87405676  1
  Cu2+  Cu98  1  0.12538756  0.37695578  0.37260622  1
  Cu2+  Cu99  1  0.37577592  0.12455772  0.37588798  1
  Cu2+  Cu100  1  0.87520627  0.87336154  0.37079051  1
  Cu2+  Cu101  1  0.62569689  0.62617128  0.36148332  1
  Cu2+  Cu102  1  0.62472882  0.37513462  0.37145233  1
  Cu2+  Cu103  1  0.62497698  0.12446465  0.86339633  1
  Cu2+  Cu104  1  0.37537773  0.62620843  0.86967152  1
  Cu2+  Cu105  1  0.37462639  0.37401437  0.86436139  1
  Cu2+  Cu106  1  0.87506999  0.87569374  0.87348390  1
  Cu2+  Cu107  1  0.87498093  0.37640956  0.36258996  1
  Cu2+  Cu108  1  0.37631419  0.12680622  0.15821918  1
  Cu2+  Cu109  1  0.87471627  0.62482508  0.15096905  1
  Cu2+  Cu110  1  0.37512503  0.12562500  0.63921207  1
  Cu2+  Cu111  1  0.87435603  0.87406907  0.64328206  1
  Cu2+  Cu112  1  0.62501454  0.37700553  0.64443599  1
  Cu2+  Cu113  1  0.87460086  0.62415369  0.65400220  1
  Cu2+  Cu114  1  0.62415957  0.87566911  0.15039848  1
  Cu2+  Cu115  1  0.12530562  0.87515636  0.65194463  1
  Cu2+  Cu116  1  0.12495831  0.12512584  0.15504888  1
  Cu2+  Cu117  1  0.37551424  0.62313226  0.14553803  1
  Cu2+  Cu118  1  0.12539511  0.62469516  0.13938063  1
  Cu2+  Cu119  1  0.62668715  0.12498434  0.64987298  1
  Cu2+  Cu120  1  0.12466354  0.62497766  0.65549911  1
  Cu2+  Cu121  1  0.87456610  0.37521653  0.14787017  1
  Cu2+  Cu122  1  0.37486554  0.87500457  0.15183939  1
  Cu2+  Cu123  1  0.87386479  0.12514147  0.15685139  1
  Cu2+  Cu124  1  0.87461785  0.87459714  0.13923395  1
  Cu2+  Cu125  1  0.62446667  0.87348153  0.65196710  1
  Cu2+  Cu126  1  0.12470853  0.37507997  0.64228773  1
  Cu2+  Cu127  1  0.62470411  0.62468810  0.14183363  1
  O2-  O128  1  0.12622587  0.12468301  -0.00465452  1
  O2-  O129  1  0.12266695  0.12450634  0.50527230  1
  O2-  O130  1  0.12606884  0.37180616  0.00761927  1
  O2-  O131  1  0.12436892  0.37611019  0.50695473  1
  O2-  O132  1  0.12516717  0.62406573  0.00650206  1
  O2-  O133  1  0.12253269  0.62704173  0.49460659  1
  O2-  O134  1  0.12744297  0.87875654  0.00604834  1
  O2-  O135  1  0.12320382  0.87151559  0.49531652  1
  O2-  O136  1  0.37400995  0.12326075  -0.00708426  1
  O2-  O137  1  0.37488024  0.12443599  0.50701852  1
  O2-  O138  1  0.37545160  0.37303222  0.01830460  1
  O2-  O139  1  0.37524778  0.37698854  0.50852705  1
  O2-  O140  1  0.37569075  0.62543519  0.00732241  1
  O2-  O141  1  0.37447856  0.62546474  0.50798051  1
  O2-  O142  1  0.37430203  0.87807653  -0.00436995  1
  O2-  O143  1  0.37515098  0.87239778  0.50586096  1
  O2-  O144  1  0.62368457  0.12595201  0.01825988  1
  O2-  O145  1  0.62778556  0.12360190  0.49761119  1
  O2-  O146  1  0.62392954  0.37265766  0.00871479  1
  O2-  O147  1  0.62537144  0.37595528  0.50813144  1
  O2-  O148  1  0.62523227  0.62521266  0.00840074  1
  O2-  O149  1  0.62657234  0.62427950  0.51860119  1
  O2-  O150  1  0.62262395  0.87713328  -0.00262269  1
  O2-  O151  1  0.62612012  0.87421700  0.49606651  1
  O2-  O152  1  0.87612112  0.12587924  -0.00552194  1
  O2-  O153  1  0.87440655  0.12502213  0.50625672  1
  O2-  O154  1  0.87684415  0.37125630  -0.00092950  1
  O2-  O155  1  0.87385926  0.37766528  0.51739339  1
  O2-  O156  1  0.87411068  0.62473861  -0.00263009  1
  O2-  O157  1  0.87646468  0.62549897  0.49515294  1
  O2-  O158  1  0.87519807  0.87680622  0.00666817  1
  O2-  O159  1  0.87504679  0.87294951  0.50757083  1
  O2-  O160  1  0.12576869  -0.00047524  0.16450539  1
  O2-  O161  1  0.12351532  0.00155623  0.65978935  1
  O2-  O162  1  0.12531082  0.25095922  0.16649134  1
  O2-  O163  1  0.12494701  0.24682980  0.66311687  1
  O2-  O164  1  0.12488594  0.49680216  0.16296353  1
  O2-  O165  1  0.12505361  0.50131186  0.66795816  1
  O2-  O166  1  0.12678468  0.75284068  0.15851035  1
  O2-  O167  1  0.12581401  0.75001351  0.66603037  1
  O2-  O168  1  0.37519080  0.00169184  0.16614403  1
  O2-  O169  1  0.37569610  -0.00328981  0.65815558  1
  O2-  O170  1  0.37446850  0.25141124  0.17101532  1
  O2-  O171  1  0.37482043  0.25296863  0.66210375  1
  O2-  O172  1  0.37548527  0.49689625  0.17170035  1
  O2-  O173  1  0.37511763  0.50125931  0.66452222  1
  O2-  O174  1  0.37493277  0.75041761  0.16488828  1
  O2-  O175  1  0.37354186  0.74900241  0.66130114  1
  O2-  O176  1  0.62383578  0.00045002  0.16569768  1
  O2-  O177  1  0.62478700  -0.00126082  0.66128081  1
  O2-  O178  1  0.62592768  0.25127813  0.16780974  1
  O2-  O179  1  0.62516473  0.24978497  0.66527646  1
  O2-  O180  1  0.62480461  0.49650432  0.16450350  1
  O2-  O181  1  0.62375210  0.50263200  0.67215433  1
  O2-  O182  1  0.62394912  0.75192898  0.16277454  1
  O2-  O183  1  0.62473826  0.74864079  0.66641857  1
  O2-  O184  1  0.87508772  0.00132410  0.16651551  1
  O2-  O185  1  0.87538691  0.00271495  0.66113401  1
  O2-  O186  1  0.87478104  0.24950866  0.16843590  1
  O2-  O187  1  0.87444666  0.24929328  0.66224903  1
  O2-  O188  1  0.87509439  0.50097154  0.16375362  1
  O2-  O189  1  0.87552831  0.50008412  0.66828160  1
  O2-  O190  1  0.87466881  0.74811976  0.16154859  1
  O2-  O191  1  0.87523630  0.74806690  0.66588872  1
  O2-  O192  1  -0.00116074  0.12541632  0.16562396  1
  O2-  O193  1  -0.00085282  0.12572363  0.66058044  1
  O2-  O194  1  0.00164311  0.37365570  0.16238588  1
  O2-  O195  1  -0.00220486  0.37487317  0.66716778  1
  O2-  O196  1  -0.00198417  0.62511686  0.16068649  1
  O2-  O197  1  0.00008428  0.62490399  0.66498879  1
  O2-  O198  1  0.00309176  0.87594610  0.16115658  1
  O2-  O199  1  0.00144617  0.87424000  0.66706765  1
  O2-  O200  1  0.25140018  0.12579695  0.16746710  1
  O2-  O201  1  0.24636782  0.12428034  0.65913493  1
  O2-  O202  1  0.24917642  0.37387274  0.16724161  1
  O2-  O203  1  0.25287907  0.37609106  0.66427470  1
  O2-  O204  1  0.25070508  0.62382172  0.16684236  1
  O2-  O205  1  0.25144534  0.62456499  0.66333057  1
  O2-  O206  1  0.24928491  0.87676424  0.16540011  1
  O2-  O207  1  0.25160323  0.87537402  0.66089274  1
  O2-  O208  1  0.50086010  0.12612592  0.16853518  1
  O2-  O209  1  0.50229054  0.12578261  0.66293725  1
  O2-  O210  1  0.50151987  0.37385731  0.16877809  1
  O2-  O211  1  0.49729019  0.37570793  0.66589554  1
  O2-  O212  1  0.49975810  0.62434584  0.16887517  1
  O2-  O213  1  0.49844763  0.62568136  0.66529767  1
  O2-  O214  1  0.49873585  0.87532196  0.16619207  1
  O2-  O215  1  0.49853497  0.87328453  0.66066213  1
  O2-  O216  1  0.74919106  0.12522980  0.16618687  1
  O2-  O217  1  0.75182393  0.12499796  0.66384591  1
  O2-  O218  1  0.74840239  0.37459153  0.16251439  1
  O2-  O219  1  0.75124638  0.37552168  0.67010386  1
  O2-  O220  1  0.75173729  0.62469246  0.16386073  1
  O2-  O221  1  0.75001881  0.62479327  0.66702037  1
  O2-  O222  1  0.74853093  0.87530937  0.16304824  1
  O2-  O223  1  0.74822151  0.87455637  0.66607480  1
  O2-  O224  1  0.12475169  0.00023252  0.34855824  1
  O2-  O225  1  0.12551301  -0.00039389  0.84273285  1
  O2-  O226  1  0.12423042  0.24745745  0.35146031  1
  O2-  O227  1  0.12544716  0.25069258  0.84537391  1
  O2-  O228  1  0.12597603  0.50334050  0.34493735  1
  O2-  O229  1  0.12597015  0.49612749  0.85214748  1
  O2-  O230  1  0.12572838  0.74936430  0.33893811  1
  O2-  O231  1  0.12508687  0.75350893  0.85127954  1
  O2-  O232  1  0.37402133  -0.00398915  0.35053836  1
  O2-  O233  1  0.37392085  0.00007177  0.83814474  1
  O2-  O234  1  0.37489795  0.25306122  0.35377800  1
  O2-  O235  1  0.37497747  0.24833560  0.84522616  1
  O2-  O236  1  0.37502846  0.50175536  0.35416625  1
  O2-  O237  1  0.37437557  0.49848861  0.84910313  1
  O2-  O238  1  0.37554292  0.74925285  0.34948586  1
  O2-  O239  1  0.37439959  0.75300786  0.84419520  1
  O2-  O240  1  0.62565070  -0.00064109  0.34544807  1
  O2-  O241  1  0.62501025  -0.00014549  0.84484426  1
  O2-  O242  1  0.62537951  0.24814752  0.34918134  1
  O2-  O243  1  0.62372521  0.25127282  0.85024996  1
  O2-  O244  1  0.62521098  0.50176985  0.34879628  1
  O2-  O245  1  0.62482589  0.49684886  0.85401526  1
  O2-  O246  1  0.62411059  0.75065299  0.34600776  1
  O2-  O247  1  0.62440975  0.75207693  0.84762945  1
  O2-  O248  1  0.87573413  0.00187955  0.35037147  1
  O2-  O249  1  0.87506743  0.00240905  0.84381305  1
  O2-  O250  1  0.87577966  0.24933604  0.35329278  1
  O2-  O251  1  0.87554531  0.25050198  0.84174971  1
  O2-  O252  1  0.87443561  0.50086689  0.34702411  1
  O2-  O253  1  0.87486588  0.49812751  0.84835465  1
  O2-  O254  1  0.87497577  0.74849044  0.34292302  1
  O2-  O255  1  0.87567417  0.74900345  0.84850755  1
  O2-  O256  1  -0.00072918  0.12500495  0.35047096  1
  O2-  O257  1  0.00090951  0.12531560  0.84152776  1
  O2-  O258  1  -0.00098075  0.37577984  0.34662003  1
  O2-  O259  1  0.00154087  0.37388543  0.84862736  1
  O2-  O260  1  -0.00007614  0.62496870  0.34136850  1
  O2-  O261  1  -0.00206873  0.62413852  0.84791254  1
  O2-  O262  1  0.00149926  0.87499137  0.34315637  1
  O2-  O263  1  0.00272271  0.87669328  0.85096325  1
  O2-  O264  1  0.24665323  0.12463333  0.35212681  1
  O2-  O265  1  0.24931463  0.12533903  0.84012220  1
  O2-  O266  1  0.25348765  0.37582138  0.35029962  1
  O2-  O267  1  0.24835497  0.37360097  0.84914347  1
  O2-  O268  1  0.25144572  0.62595184  0.34893326  1
  O2-  O269  1  0.25005002  0.62522668  0.84818240  1
  O2-  O270  1  0.25093682  0.87407711  0.34862361  1
  O2-  O271  1  0.24865137  0.87578635  0.84423367  1
  O2-  O272  1  0.50247259  0.12414872  0.34978838  1
  O2-  O273  1  0.49924366  0.12486074  0.84591217  1
  O2-  O274  1  0.49688348  0.37635532  0.35115481  1
  O2-  O275  1  0.50134170  0.37421544  0.85116842  1
  O2-  O276  1  0.49889722  0.62513954  0.35364771  1
  O2-  O277  1  0.50004949  0.62463823  0.84797059  1
  O2-  O278  1  0.49890891  0.87437346  0.34973107  1
  O2-  O279  1  0.49940927  0.87623070  0.84270944  1
  O2-  O280  1  0.75190555  0.12543026  0.34761726  1
  O2-  O281  1  0.75030951  0.12617996  0.84730637  1
  O2-  O282  1  0.75083991  0.37551565  0.34754778  1
  O2-  O283  1  0.74914031  0.37315906  0.85178311  1
  O2-  O284  1  0.75003912  0.62490377  0.34711688  1
  O2-  O285  1  0.75166467  0.62458667  0.84752558  1
  O2-  O286  1  0.74901606  0.87447098  0.34566100  1
  O2-  O287  1  0.74854944  0.87615455  0.84884309  1
