# generated using pymatgen
data_BaYFeCuO5
_symmetry_space_group_name_H-M   'P 1'
_cell_length_a   15.67650838
_cell_length_b   15.68106133
_cell_length_c   15.51541839
_cell_angle_alpha   89.99734760
_cell_angle_beta   89.99374558
_cell_angle_gamma   90.00010127
_symmetry_Int_Tables_number   1
_chemical_formula_structural   BaYFeCuO5
_chemical_formula_sum   'Ba32 Y32 Fe32 Cu32 O160'
_cell_volume   3814.06667173
_cell_formula_units_Z   32
loop_
 _symmetry_equiv_pos_site_id
 _symmetry_equiv_pos_as_xyz
  1  'x, y, z'
loop_
 _atom_type_symbol
 _atom_type_oxidation_number
  Ba2+  2.0
  Y3+  3.0
  Fe3+  3.0
  Cu2+  2.0
  O2-  -2.0
loop_
 _atom_site_type_symbol
 _atom_site_label
 _atom_site_symmetry_multiplicity
 _atom_site_fract_x
 _atom_site_fract_y
 _atom_site_fract_z
 _atom_site_occupancy
  Ba2+  Ba0  1  0.00348038  0.00327390  0.01299006  1
  Ba2+  Ba1  1  -0.01061368  0.00143041  0.50195571  1
  Ba2+  Ba2  1  0.00381494  0.24621516  0.01263329  1
  Ba2+  Ba3  1  -0.00685585  0.25322652  0.51725082  1
  Ba2+  Ba4  1  -0.00303480  0.49449750  0.01966183  1
  Ba2+  Ba5  1  -0.00006964  0.49984863  0.52499199  1
  Ba2+  Ba6  1  -0.00377908  0.75592571  0.02271258  1
  Ba2+  Ba7  1  -0.00451161  0.74445484  0.51171592  1
  Ba2+  Ba8  1  0.25186453  0.00284238  0.01108042  1
  Ba2+  Ba9  1  0.26039586  -0.00083021  0.51847596  1
  Ba2+  Ba10  1  0.24893460  0.24392868  0.01592632  1
  Ba2+  Ba11  1  0.25006019  0.25180762  0.51653927  1
  Ba2+  Ba12  1  0.25385674  0.49727371  0.01551836  1
  Ba2+  Ba13  1  0.24641271  0.50453229  0.52283762  1
  Ba2+  Ba14  1  0.25702405  0.75584091  0.00969819  1
  Ba2+  Ba15  1  0.25545949  0.74469139  0.52339092  1
  Ba2+  Ba16  1  0.49418676  -0.00004720  0.00660191  1
  Ba2+  Ba17  1  0.50388237  -0.00387772  0.51323235  1
  Ba2+  Ba18  1  0.49382052  0.24167871  0.00675744  1
  Ba2+  Ba19  1  0.50549589  0.24592191  0.50026710  1
  Ba2+  Ba20  1  0.49105756  0.50236005  0.01074547  1
  Ba2+  Ba21  1  0.50483282  0.50473752  0.49800542  1
  Ba2+  Ba22  1  0.49256623  0.75589052  0.01102489  1
  Ba2+  Ba23  1  0.50248074  0.75326102  0.51382938  1
  Ba2+  Ba24  1  0.75005758  -0.00001534  0.00695438  1
  Ba2+  Ba25  1  0.74713454  -0.00017254  0.49742293  1
  Ba2+  Ba26  1  0.75435800  0.24361236  0.00043786  1
  Ba2+  Ba27  1  0.75175761  0.24687115  0.50200810  1
  Ba2+  Ba28  1  0.75873146  0.49989202  0.01697946  1
  Ba2+  Ba29  1  0.75054795  0.50007472  0.50651496  1
  Ba2+  Ba30  1  0.75433655  0.75632977  0.02263740  1
  Ba2+  Ba31  1  0.74504823  0.75289455  0.50040997  1
  Y3+  Y32  1  -0.00020717  0.00058619  0.25891808  1
  Y3+  Y33  1  -0.00048985  0.00373568  0.75671664  1
  Y3+  Y34  1  0.00076538  0.24877060  0.25697108  1
  Y3+  Y35  1  -0.00060251  0.24764496  0.75648829  1
  Y3+  Y36  1  -0.00041268  0.49834773  0.25289350  1
  Y3+  Y37  1  -0.00007080  0.49961429  0.75527878  1
  Y3+  Y38  1  -0.00115544  0.75266195  0.25783698  1
  Y3+  Y39  1  0.00013216  0.74875184  0.75406640  1
  Y3+  Y40  1  0.25035103  0.00037353  0.25227210  1
  Y3+  Y41  1  0.25279943  0.00094645  0.76124044  1
  Y3+  Y42  1  0.24989259  0.24939938  0.25302054  1
  Y3+  Y43  1  0.24975950  0.24712116  0.75927596  1
  Y3+  Y44  1  0.25165348  0.49924616  0.25214129  1
  Y3+  Y45  1  0.25040070  0.50177830  0.75865750  1
  Y3+  Y46  1  0.25176397  0.75157379  0.25105050  1
  Y3+  Y47  1  0.25377194  0.74940053  0.76030560  1
  Y3+  Y48  1  0.50039074  -0.00193162  0.25643975  1
  Y3+  Y49  1  0.49824096  -0.00054820  0.75946714  1
  Y3+  Y50  1  0.49925827  0.24921006  0.25623799  1
  Y3+  Y51  1  0.49945494  0.24636125  0.76003355  1
  Y3+  Y52  1  0.49940295  0.50075469  0.25412151  1
  Y3+  Y53  1  0.49866189  0.50172760  0.76054404  1
  Y3+  Y54  1  0.50056156  0.75265877  0.25512511  1
  Y3+  Y55  1  0.49773154  0.75187868  0.75977232  1
  Y3+  Y56  1  0.74904100  -0.00144921  0.26229023  1
  Y3+  Y57  1  0.74924145  0.00155241  0.75587466  1
  Y3+  Y58  1  0.74945487  0.24853687  0.26118606  1
  Y3+  Y59  1  0.75213295  0.24682329  0.75657830  1
  Y3+  Y60  1  0.74895718  0.49984077  0.25671384  1
  Y3+  Y61  1  0.75134367  0.49975300  0.75792176  1
  Y3+  Y62  1  0.74887168  0.75383695  0.25937608  1
  Y3+  Y63  1  0.74851819  0.75133323  0.75476112  1
  Fe3+  Fe64  1  0.62607932  0.62579526  0.88277867  1
  Fe3+  Fe65  1  0.87590676  0.87554858  0.87512219  1
  Fe3+  Fe66  1  0.37405064  0.87419887  0.37590277  1
  Fe3+  Fe67  1  0.12589193  0.62450442  0.37417352  1
  Fe3+  Fe68  1  0.37418325  0.37580886  0.37861360  1
  Fe3+  Fe69  1  0.87555771  0.62413636  0.37424176  1
  Fe3+  Fe70  1  0.87605647  0.37410533  0.87624766  1
  Fe3+  Fe71  1  0.37399638  0.62586928  0.37408465  1
  Fe3+  Fe72  1  0.12479452  0.37441744  0.87652554  1
  Fe3+  Fe73  1  0.12398067  0.87519509  0.87592570  1
  Fe3+  Fe74  1  0.12407911  0.62546155  0.88009216  1
  Fe3+  Fe75  1  0.12607868  0.12528989  0.38074921  1
  Fe3+  Fe76  1  0.37433472  0.12450471  0.37686913  1
  Fe3+  Fe77  1  0.37398653  0.37410151  0.87696820  1
  Fe3+  Fe78  1  0.87611999  0.37595112  0.37530385  1
  Fe3+  Fe79  1  0.87558251  0.62639931  0.87753785  1
  Fe3+  Fe80  1  0.12556795  0.37627317  0.37670600  1
  Fe3+  Fe81  1  0.62527500  0.37430272  0.88225162  1
  Fe3+  Fe82  1  0.62562580  0.87507362  0.87822613  1
  Fe3+  Fe83  1  0.12687772  0.87417067  0.38047546  1
  Fe3+  Fe84  1  0.62532428  0.37316540  0.13464368  1
  Fe3+  Fe85  1  0.12518337  0.12417341  0.63442083  1
  Fe3+  Fe86  1  0.62484913  0.62511909  0.63993993  1
  Fe3+  Fe87  1  0.62480888  0.37476299  0.63932379  1
  Fe3+  Fe88  1  0.87344268  0.87524545  0.63546961  1
  Fe3+  Fe89  1  0.87412644  0.12458375  0.14109498  1
  Fe3+  Fe90  1  0.12522448  0.87496319  0.63359559  1
  Fe3+  Fe91  1  0.37725149  0.37519243  0.63491592  1
  Fe3+  Fe92  1  0.12469857  0.62592294  0.13302943  1
  Fe3+  Fe93  1  0.62525985  0.62650759  0.13517330  1
  Fe3+  Fe94  1  0.62517358  0.12388443  0.13895028  1
  Fe3+  Fe95  1  0.62479423  0.12444550  0.63965333  1
  Cu2+  Cu96  1  0.87570336  0.87445790  0.36534624  1
  Cu2+  Cu97  1  0.62440569  0.37532245  0.36162969  1
  Cu2+  Cu98  1  0.62335028  0.12473915  0.36296755  1
  Cu2+  Cu99  1  0.37415230  0.12488900  0.87162424  1
  Cu2+  Cu100  1  0.12484282  0.12475376  0.87179169  1
  Cu2+  Cu101  1  0.62424734  0.62539965  0.35851656  1
  Cu2+  Cu102  1  0.37456039  0.87566958  0.87104991  1
  Cu2+  Cu103  1  0.62265346  0.87480493  0.37267440  1
  Cu2+  Cu104  1  0.87547529  0.12424506  0.86291878  1
  Cu2+  Cu105  1  0.37457488  0.62483182  0.87452095  1
  Cu2+  Cu106  1  0.62506570  0.12426850  0.86639891  1
  Cu2+  Cu107  1  0.87565212  0.12590624  0.37342518  1
  Cu2+  Cu108  1  0.12465330  0.87573912  0.15099681  1
  Cu2+  Cu109  1  0.37575917  0.12425246  0.14360885  1
  Cu2+  Cu110  1  0.62487830  0.87534905  0.64402608  1
  Cu2+  Cu111  1  0.87386664  0.12384692  0.64081547  1
  Cu2+  Cu112  1  0.12576686  0.37438957  0.65160310  1
  Cu2+  Cu113  1  0.37532531  0.87679503  0.14218048  1
  Cu2+  Cu114  1  0.87467254  0.62574742  0.15170941  1
  Cu2+  Cu115  1  0.62516038  0.87648833  0.14944964  1
  Cu2+  Cu116  1  0.37624561  0.37380518  0.14921697  1
  Cu2+  Cu117  1  0.37714406  0.62408208  0.65482755  1
  Cu2+  Cu118  1  0.87312007  0.62540260  0.65084872  1
  Cu2+  Cu119  1  0.37586435  0.12579619  0.65148329  1
  Cu2+  Cu120  1  0.12501029  0.37443179  0.14866529  1
  Cu2+  Cu121  1  0.12460494  0.12433231  0.14409235  1
  Cu2+  Cu122  1  0.37549807  0.62614169  0.14016561  1
  Cu2+  Cu123  1  0.87360381  0.37485416  0.65238135  1
  Cu2+  Cu124  1  0.87470134  0.87748367  0.15678638  1
  Cu2+  Cu125  1  0.37515864  0.87493033  0.65391133  1
  Cu2+  Cu126  1  0.87347841  0.37252478  0.15148180  1
  Cu2+  Cu127  1  0.12535780  0.62585804  0.65458073  1
  O2-  O128  1  0.12392456  0.12456686  0.00704648  1
  O2-  O129  1  0.12653513  0.12539894  0.50653002  1
  O2-  O130  1  0.12433084  0.37457007  -0.00386051  1
  O2-  O131  1  0.12556632  0.37827384  0.49619250  1
  O2-  O132  1  0.12288308  0.62633250  0.00511753  1
  O2-  O133  1  0.12598498  0.62395659  0.49371890  1
  O2-  O134  1  0.12189230  0.87461208  -0.00420638  1
  O2-  O135  1  0.12718432  0.87318508  0.50643289  1
  O2-  O136  1  0.37413193  0.12472487  0.00765721  1
  O2-  O137  1  0.37409589  0.12632467  0.49680565  1
  O2-  O138  1  0.37399910  0.37366543  -0.00271603  1
  O2-  O139  1  0.37619900  0.37706259  0.50611362  1
  O2-  O140  1  0.37417947  0.62433827  0.00669959  1
  O2-  O141  1  0.37393766  0.62406572  0.49392457  1
  O2-  O142  1  0.37450265  0.87713579  0.00662835  1
  O2-  O143  1  0.37381339  0.87224954  0.49605018  1
  O2-  O144  1  0.62712184  0.12518405  0.01891477  1
  O2-  O145  1  0.62439366  0.12595475  0.51923181  1
  O2-  O146  1  0.62579822  0.37328540  0.00844788  1
  O2-  O147  1  0.62402407  0.37638476  0.51972693  1
  O2-  O148  1  0.62715757  0.62687699  0.00830685  1
  O2-  O149  1  0.62486542  0.62346484  0.51976401  1
  O2-  O150  1  0.62723591  0.87411753  -0.00183922  1
  O2-  O151  1  0.62372475  0.87416123  0.50709342  1
  O2-  O152  1  0.87474822  0.12387739  0.02055651  1
  O2-  O153  1  0.87463829  0.12627953  0.50746895  1
  O2-  O154  1  0.87588400  0.37396057  -0.00398993  1
  O2-  O155  1  0.87595846  0.37848823  0.49541626  1
  O2-  O156  1  0.87646210  0.62678749  -0.00292031  1
  O2-  O157  1  0.87610604  0.62208821  0.49432926  1
  O2-  O158  1  0.87649896  0.87553471  -0.00503679  1
  O2-  O159  1  0.87320578  0.87354009  0.51520062  1
  O2-  O160  1  0.12402101  -0.00139071  0.16970177  1
  O2-  O161  1  0.12542822  -0.00047348  0.66068933  1
  O2-  O162  1  0.12502537  0.25146441  0.16692174  1
  O2-  O163  1  0.12604744  0.24803941  0.66145912  1
  O2-  O164  1  0.12444889  0.50110859  0.15804539  1
  O2-  O165  1  0.12499993  0.50067285  0.66594659  1
  O2-  O166  1  0.12373148  0.74911517  0.16270864  1
  O2-  O167  1  0.12607387  0.75137867  0.66298964  1
  O2-  O168  1  0.37499657  0.00002359  0.16678825  1
  O2-  O169  1  0.37507335  0.00034793  0.66387297  1
  O2-  O170  1  0.37565262  0.25070179  0.16727512  1
  O2-  O171  1  0.37476521  0.25242016  0.66298802  1
  O2-  O172  1  0.37574321  0.49881453  0.16242581  1
  O2-  O173  1  0.37615678  0.49814107  0.66497422  1
  O2-  O174  1  0.37491286  0.75109281  0.16182852  1
  O2-  O175  1  0.37508564  0.74903388  0.66569342  1
  O2-  O176  1  0.62558622  0.00015293  0.16813249  1
  O2-  O177  1  0.62346211  0.00113449  0.66745214  1
  O2-  O178  1  0.62505315  0.25045006  0.16765980  1
  O2-  O179  1  0.62473161  0.25017256  0.67184571  1
  O2-  O180  1  0.62566321  0.49998522  0.15892945  1
  O2-  O181  1  0.62478022  0.49959114  0.67374121  1
  O2-  O182  1  0.62623781  0.74989184  0.16201675  1
  O2-  O183  1  0.62443576  0.74877430  0.66689188  1
  O2-  O184  1  0.87520486  0.00111233  0.17101505  1
  O2-  O185  1  0.87616151  -0.00245030  0.66667664  1
  O2-  O186  1  0.87409660  0.24866056  0.16916237  1
  O2-  O187  1  0.87459206  0.25093170  0.66510621  1
  O2-  O188  1  0.87419607  0.49852947  0.15907681  1
  O2-  O189  1  0.87426270  0.50049666  0.66526304  1
  O2-  O190  1  0.87503839  0.75223992  0.16399720  1
  O2-  O191  1  0.87468186  0.75028364  0.66382214  1
  O2-  O192  1  -0.00147150  0.12515470  0.16834125  1
  O2-  O193  1  0.00309335  0.12524783  0.66218314  1
  O2-  O194  1  -0.00106578  0.37418572  0.16166912  1
  O2-  O195  1  -0.00045283  0.37515345  0.66151960  1
  O2-  O196  1  0.00067375  0.62505697  0.16126242  1
  O2-  O197  1  -0.00077148  0.62534458  0.66175451  1
  O2-  O198  1  -0.00028250  0.87556213  0.16735902  1
  O2-  O199  1  0.00151220  0.87325269  0.65960820  1
  O2-  O200  1  0.24978132  0.12520299  0.16432199  1
  O2-  O201  1  0.24915163  0.12484462  0.66261117  1
  O2-  O202  1  0.25070737  0.37488069  0.16312212  1
  O2-  O203  1  0.25254637  0.37628222  0.66050069  1
  O2-  O204  1  0.24675454  0.62484985  0.15996562  1
  O2-  O205  1  0.25172653  0.62412575  0.66444327  1
  O2-  O206  1  0.24832234  0.87554017  0.16306460  1
  O2-  O207  1  0.24890593  0.87486426  0.66237308  1
  O2-  O208  1  0.50198136  0.12538540  0.16693903  1
  O2-  O209  1  0.49997636  0.12574900  0.66869937  1
  O2-  O210  1  0.50302491  0.37536487  0.16513637  1
  O2-  O211  1  0.49941948  0.37492320  0.66968806  1
  O2-  O212  1  0.50368881  0.62492638  0.16339322  1
  O2-  O213  1  0.50099678  0.62460637  0.67113389  1
  O2-  O214  1  0.50140823  0.87525601  0.16490081  1
  O2-  O215  1  0.49819282  0.87432494  0.66664285  1
  O2-  O216  1  0.74948845  0.12462382  0.17149518  1
  O2-  O217  1  0.74799560  0.12485079  0.66901665  1
  O2-  O218  1  0.74721164  0.37492914  0.16483713  1
  O2-  O219  1  0.74892739  0.37549223  0.66927900  1
  O2-  O220  1  0.74877318  0.62511087  0.16398910  1
  O2-  O221  1  0.74874685  0.62419519  0.66950770  1
  O2-  O222  1  0.75029110  0.87576951  0.16693126  1
  O2-  O223  1  0.75098387  0.87493779  0.66758745  1
  O2-  O224  1  0.12594020  -0.00030663  0.35434106  1
  O2-  O225  1  0.12445893  -0.00168566  0.84402904  1
  O2-  O226  1  0.12616504  0.24989996  0.34980012  1
  O2-  O227  1  0.12441866  0.25163297  0.84490918  1
  O2-  O228  1  0.12574158  0.49988807  0.33923259  1
  O2-  O229  1  0.12439120  0.50115505  0.84870812  1
  O2-  O230  1  0.12493402  0.75091641  0.34609989  1
  O2-  O231  1  0.12394419  0.74850042  0.84606660  1
  O2-  O232  1  0.37362618  -0.00017628  0.34781742  1
  O2-  O233  1  0.37454777  -0.00004410  0.84830874  1
  O2-  O234  1  0.37495561  0.25162124  0.35017623  1
  O2-  O235  1  0.37521984  0.25176161  0.84554076  1
  O2-  O236  1  0.37514520  0.49908141  0.34497450  1
  O2-  O237  1  0.37487401  0.49755388  0.84728360  1
  O2-  O238  1  0.37422814  0.74981770  0.34206931  1
  O2-  O239  1  0.37513125  0.75022669  0.85001707  1
  O2-  O240  1  0.62388912  0.00122746  0.35084602  1
  O2-  O241  1  0.62610168  -0.00019741  0.84926695  1
  O2-  O242  1  0.62381911  0.25017097  0.35101154  1
  O2-  O243  1  0.62483355  0.25101935  0.85399456  1
  O2-  O244  1  0.62400735  0.50028962  0.34420290  1
  O2-  O245  1  0.62620893  0.49943307  0.85552218  1
  O2-  O246  1  0.62445200  0.74891405  0.34597580  1
  O2-  O247  1  0.62574661  0.74906137  0.84811014  1
  O2-  O248  1  0.87559241  -0.00102059  0.35349398  1
  O2-  O249  1  0.87522584  -0.00003308  0.84763208  1
  O2-  O250  1  0.87502573  0.25241842  0.34933782  1
  O2-  O251  1  0.87534043  0.24959853  0.84835909  1
  O2-  O252  1  0.87471909  0.49996075  0.33998470  1
  O2-  O253  1  0.87490873  0.50021469  0.84706862  1
  O2-  O254  1  0.87547773  0.74904481  0.34725064  1
  O2-  O255  1  0.87533293  0.74993189  0.84306815  1
  O2-  O256  1  0.00438495  0.12486367  0.35040386  1
  O2-  O257  1  -0.00139560  0.12481928  0.84537893  1
  O2-  O258  1  0.00108803  0.37541820  0.34305567  1
  O2-  O259  1  -0.00022583  0.37529930  0.84307762  1
  O2-  O260  1  0.00073916  0.62493814  0.34213774  1
  O2-  O261  1  0.00058120  0.62478452  0.84435416  1
  O2-  O262  1  0.00300609  0.87502783  0.35199321  1
  O2-  O263  1  -0.00051150  0.87492543  0.83961570  1
  O2-  O264  1  0.24900061  0.12569149  0.34619821  1
  O2-  O265  1  0.25009922  0.12528865  0.84630425  1
  O2-  O266  1  0.25120880  0.37551350  0.34629012  1
  O2-  O267  1  0.24921842  0.37526391  0.84311321  1
  O2-  O268  1  0.25003646  0.62492667  0.33970236  1
  O2-  O269  1  0.24628238  0.62497726  0.84882909  1
  O2-  O270  1  0.24890274  0.87450731  0.34455473  1
  O2-  O271  1  0.24792913  0.87398712  0.84563445  1
  O2-  O272  1  0.49817774  0.12614654  0.34791154  1
  O2-  O273  1  0.50086632  0.12502864  0.85160526  1
  O2-  O274  1  0.49786248  0.37607175  0.35053532  1
  O2-  O275  1  0.50174656  0.37534039  0.85138165  1
  O2-  O276  1  0.49884307  0.62389265  0.34613346  1
  O2-  O277  1  0.50410934  0.62368752  0.85359240  1
  O2-  O278  1  0.49676364  0.87456138  0.34635027  1
  O2-  O279  1  0.50210159  0.87510318  0.84925491  1
  O2-  O280  1  0.74781328  0.12555536  0.35267757  1
  O2-  O281  1  0.75060230  0.12549460  0.85171829  1
  O2-  O282  1  0.75001474  0.37601647  0.34837193  1
  O2-  O283  1  0.74940684  0.37399054  0.85088379  1
  O2-  O284  1  0.74994888  0.62444410  0.34790625  1
  O2-  O285  1  0.74947904  0.62464254  0.84992763  1
  O2-  O286  1  0.75032936  0.87456546  0.35150543  1
  O2-  O287  1  0.75055375  0.87518546  0.84643462  1
