# generated using pymatgen
data_BaYFeCuO5
_symmetry_space_group_name_H-M   'P 1'
_cell_length_a   15.66005624
_cell_length_b   15.66146195
_cell_length_c   15.45870706
_cell_angle_alpha   89.99981846
_cell_angle_beta   90.00438886
_cell_angle_gamma   90.00356562
_symmetry_Int_Tables_number   1
_chemical_formula_structural   BaYFeCuO5
_chemical_formula_sum   'Ba32 Y32 Fe32 Cu32 O160'
_cell_volume   3791.39281108
_cell_formula_units_Z   32
loop_
 _symmetry_equiv_pos_site_id
 _symmetry_equiv_pos_as_xyz
  1  'x, y, z'
loop_
 _atom_type_symbol
 _atom_type_oxidation_number
  Ba2+  2.0
  Y3+  3.0
  Fe3+  3.0
  Cu2+  2.0
  O2-  -2.0
loop_
 _atom_site_type_symbol
 _atom_site_label
 _atom_site_symmetry_multiplicity
 _atom_site_fract_x
 _atom_site_fract_y
 _atom_site_fract_z
 _atom_site_occupancy
  Ba2+  Ba0  1  0.00242367  -0.00807093  0.00728630  1
  Ba2+  Ba1  1  0.00689563  0.00512762  0.51613243  1
  Ba2+  Ba2  1  0.00582176  0.25597239  0.01379224  1
  Ba2+  Ba3  1  0.00961200  0.24778343  0.51024698  1
  Ba2+  Ba4  1  0.00189887  0.50486097  0.01792340  1
  Ba2+  Ba5  1  0.00926497  0.50281456  0.50277736  1
  Ba2+  Ba6  1  -0.00105001  0.74587867  0.01166279  1
  Ba2+  Ba7  1  0.00749975  0.74456922  0.50750891  1
  Ba2+  Ba8  1  0.24510607  0.00399490  0.01137229  1
  Ba2+  Ba9  1  0.24725378  0.00236164  0.51194052  1
  Ba2+  Ba10  1  0.24843530  0.25173614  0.00515520  1
  Ba2+  Ba11  1  0.24640921  0.25116333  0.51563240  1
  Ba2+  Ba12  1  0.24469558  0.50241898  0.01310822  1
  Ba2+  Ba13  1  0.24882110  0.50222663  0.51206449  1
  Ba2+  Ba14  1  0.24206331  0.74371622  0.01626589  1
  Ba2+  Ba15  1  0.25090791  0.74468686  0.50563614  1
  Ba2+  Ba16  1  0.49856503  0.00013343  0.01527639  1
  Ba2+  Ba17  1  0.49484515  -0.00551185  0.51086784  1
  Ba2+  Ba18  1  0.48970064  0.25057065  0.00657929  1
  Ba2+  Ba19  1  0.49620325  0.25645932  0.51639770  1
  Ba2+  Ba20  1  0.48993398  0.50005514  0.00681041  1
  Ba2+  Ba21  1  0.49799632  0.50136778  0.51732149  1
  Ba2+  Ba22  1  0.49966438  0.74973739  0.01588682  1
  Ba2+  Ba23  1  0.49618947  0.74604766  0.51126829  1
  Ba2+  Ba24  1  0.75328054  -0.01113983  0.01126544  1
  Ba2+  Ba25  1  0.74955942  -0.00140868  0.51727902  1
  Ba2+  Ba26  1  0.75574430  0.25460302  0.01165689  1
  Ba2+  Ba27  1  0.74785822  0.25363874  0.51124713  1
  Ba2+  Ba28  1  0.76172146  0.50334131  0.01182710  1
  Ba2+  Ba29  1  0.74319206  0.50186291  0.50701177  1
  Ba2+  Ba30  1  0.76072428  0.75200453  0.01055064  1
  Ba2+  Ba31  1  0.74409678  0.74589497  0.51409450  1
  Y3+  Y32  1  0.00104093  -0.00159978  0.25756985  1
  Y3+  Y33  1  0.00154890  0.00054683  0.75705231  1
  Y3+  Y34  1  0.00257988  0.25213359  0.26151006  1
  Y3+  Y35  1  0.00333647  0.24850483  0.75357229  1
  Y3+  Y36  1  0.00198758  0.50239350  0.25910772  1
  Y3+  Y37  1  0.00309011  0.50293818  0.75725166  1
  Y3+  Y38  1  0.00055713  0.74722489  0.25558952  1
  Y3+  Y39  1  0.00104110  0.74787122  0.76041651  1
  Y3+  Y40  1  0.24934393  0.00024042  0.25862827  1
  Y3+  Y41  1  0.24703572  0.00189725  0.75522900  1
  Y3+  Y42  1  0.24734406  0.25035115  0.26057912  1
  Y3+  Y43  1  0.24883954  0.25097634  0.75381042  1
  Y3+  Y44  1  0.24692018  0.50286496  0.26108459  1
  Y3+  Y45  1  0.24904603  0.50065283  0.75415318  1
  Y3+  Y46  1  0.24908326  0.74646569  0.25914847  1
  Y3+  Y47  1  0.24674134  0.74625791  0.75414185  1
  Y3+  Y48  1  0.49870270  -0.00089219  0.25573257  1
  Y3+  Y49  1  0.49944764  -0.00018625  0.75588843  1
  Y3+  Y50  1  0.49973935  0.25108812  0.25805331  1
  Y3+  Y51  1  0.49776712  0.25250844  0.75553828  1
  Y3+  Y52  1  0.49836291  0.50090306  0.25961199  1
  Y3+  Y53  1  0.49828764  0.49953195  0.75449751  1
  Y3+  Y54  1  0.49708423  0.74951200  0.25776886  1
  Y3+  Y55  1  0.50034982  0.74801953  0.75448520  1
  Y3+  Y56  1  0.75084591  -0.00278170  0.25469051  1
  Y3+  Y57  1  0.75266559  -0.00134013  0.75835303  1
  Y3+  Y58  1  0.75006076  0.25274430  0.25922633  1
  Y3+  Y59  1  0.75051451  0.25048774  0.75481116  1
  Y3+  Y60  1  0.75280730  0.50085678  0.25853723  1
  Y3+  Y61  1  0.74968978  0.50053932  0.75679858  1
  Y3+  Y62  1  0.75330235  0.74961060  0.25443133  1
  Y3+  Y63  1  0.75209261  0.74956734  0.76046026  1
  Fe3+  Fe64  1  0.87665057  0.12543176  0.87967292  1
  Fe3+  Fe65  1  0.87703402  0.37560638  0.87539228  1
  Fe3+  Fe66  1  0.37376919  0.87419601  0.87927608  1
  Fe3+  Fe67  1  0.87540981  0.87382197  0.38067152  1
  Fe3+  Fe68  1  0.12553562  0.87504337  0.37725410  1
  Fe3+  Fe69  1  0.62547150  0.12538602  0.87932403  1
  Fe3+  Fe70  1  0.12539574  0.37597956  0.87522113  1
  Fe3+  Fe71  1  0.37395815  0.12465171  0.87543698  1
  Fe3+  Fe72  1  0.87491502  0.12392575  0.37842253  1
  Fe3+  Fe73  1  0.62408663  0.87455262  0.87702845  1
  Fe3+  Fe74  1  0.62483219  0.12479522  0.37847848  1
  Fe3+  Fe75  1  0.62474374  0.87444309  0.37571587  1
  Fe3+  Fe76  1  0.37483595  0.12499897  0.37776075  1
  Fe3+  Fe77  1  0.62452607  0.62524978  0.37384604  1
  Fe3+  Fe78  1  0.87560692  0.37610674  0.37988180  1
  Fe3+  Fe79  1  0.37448635  0.37577302  0.37758321  1
  Fe3+  Fe80  1  0.62472597  0.37531439  0.87993098  1
  Fe3+  Fe81  1  0.12591966  0.87406421  0.87614937  1
  Fe3+  Fe82  1  0.62520620  0.62453595  0.87994411  1
  Fe3+  Fe83  1  0.37369537  0.62534246  0.87666102  1
  Fe3+  Fe84  1  0.62520915  0.62476055  0.13403811  1
  Fe3+  Fe85  1  0.62477801  0.37614606  0.13400102  1
  Fe3+  Fe86  1  0.62416943  0.12469430  0.63547211  1
  Fe3+  Fe87  1  0.87662336  0.87387748  0.63544982  1
  Fe3+  Fe88  1  0.87621440  0.12533517  0.13490482  1
  Fe3+  Fe89  1  0.87546879  0.62446073  0.63647852  1
  Fe3+  Fe90  1  0.62519791  0.12560986  0.13352696  1
  Fe3+  Fe91  1  0.12495875  0.12555695  0.13862936  1
  Fe3+  Fe92  1  0.37275869  0.37524443  0.13877816  1
  Fe3+  Fe93  1  0.37306356  0.87410412  0.63837071  1
  Fe3+  Fe94  1  0.87643838  0.37565285  0.63428067  1
  Fe3+  Fe95  1  0.37269378  0.87468503  0.13517371  1
  Cu2+  Cu96  1  0.37539055  0.62481126  0.37292749  1
  Cu2+  Cu97  1  0.37398703  0.37560524  0.86193011  1
  Cu2+  Cu98  1  0.62385921  0.37566076  0.37362384  1
  Cu2+  Cu99  1  0.12490222  0.12413848  0.37173554  1
  Cu2+  Cu100  1  0.87650871  0.87461257  0.87109383  1
  Cu2+  Cu101  1  0.87597829  0.62418254  0.87237310  1
  Cu2+  Cu102  1  0.37458875  0.87496580  0.36231499  1
  Cu2+  Cu103  1  0.12530314  0.62439356  0.87159814  1
  Cu2+  Cu104  1  0.12592895  0.37535236  0.37372276  1
  Cu2+  Cu105  1  0.12514790  0.62587691  0.37117434  1
  Cu2+  Cu106  1  0.12472478  0.12569035  0.86423838  1
  Cu2+  Cu107  1  0.87470702  0.62604434  0.36837662  1
  Cu2+  Cu108  1  0.62529293  0.87456094  0.65194715  1
  Cu2+  Cu109  1  0.37396552  0.37550435  0.65060326  1
  Cu2+  Cu110  1  0.12535507  0.87486799  0.15216625  1
  Cu2+  Cu111  1  0.87593875  0.37453804  0.15398527  1
  Cu2+  Cu112  1  0.12466365  0.62460345  0.14443309  1
  Cu2+  Cu113  1  0.62586303  0.62510695  0.65432944  1
  Cu2+  Cu114  1  0.12458254  0.87397345  0.64913986  1
  Cu2+  Cu115  1  0.62559776  0.37563229  0.64193324  1
  Cu2+  Cu116  1  0.37426928  0.12590843  0.15106084  1
  Cu2+  Cu117  1  0.62455154  0.87412062  0.14923034  1
  Cu2+  Cu118  1  0.87562593  0.62462852  0.14496212  1
  Cu2+  Cu119  1  0.12447026  0.37636631  0.64153325  1
  Cu2+  Cu120  1  0.12569146  0.12493723  0.64362027  1
  Cu2+  Cu121  1  0.87703077  0.87498565  0.14321952  1
  Cu2+  Cu122  1  0.12441152  0.62511164  0.64287095  1
  Cu2+  Cu123  1  0.37437139  0.62523536  0.64240924  1
  Cu2+  Cu124  1  0.37464434  0.62428365  0.15149914  1
  Cu2+  Cu125  1  0.12509395  0.37507612  0.15462534  1
  Cu2+  Cu126  1  0.37512760  0.12467987  0.64904320  1
  Cu2+  Cu127  1  0.87488315  0.12510158  0.64816593  1
  O2-  O128  1  0.12435326  0.12669043  0.01764896  1
  O2-  O129  1  0.12604949  0.12403544  0.50763537  1
  O2-  O130  1  0.12483804  0.37559052  -0.00384943  1
  O2-  O131  1  0.12525704  0.37476988  0.50724160  1
  O2-  O132  1  0.12458985  0.62395446  0.00870522  1
  O2-  O133  1  0.12586402  0.62581504  0.50717813  1
  O2-  O134  1  0.12644582  0.87479578  -0.00304054  1
  O2-  O135  1  0.12558443  0.87600588  0.49776968  1
  O2-  O136  1  0.37451295  0.12457559  -0.00369548  1
  O2-  O137  1  0.37766312  0.12420284  0.49793967  1
  O2-  O138  1  0.37333275  0.37459457  0.01752861  1
  O2-  O139  1  0.37591041  0.37497536  0.49840728  1
  O2-  O140  1  0.37461019  0.62589337  -0.00265327  1
  O2-  O141  1  0.37660021  0.62509126  0.50725447  1
  O2-  O142  1  0.37381193  0.87486176  0.00595726  1
  O2-  O143  1  0.37484998  0.87469962  0.51747604  1
  O2-  O144  1  0.62535111  0.12554212  0.00572825  1
  O2-  O145  1  0.62471489  0.12426477  0.50602048  1
  O2-  O146  1  0.62549249  0.37454879  0.00686204  1
  O2-  O147  1  0.62474109  0.37475001  0.50676594  1
  O2-  O148  1  0.62516812  0.62445901  0.00630273  1
  O2-  O149  1  0.62379724  0.62559049  0.49494145  1
  O2-  O150  1  0.62305080  0.87602862  -0.00280588  1
  O2-  O151  1  0.62498032  0.87529561  0.49568846  1
  O2-  O152  1  0.87623365  0.12567396  0.00705137  1
  O2-  O153  1  0.87206536  0.12313370  0.49840720  1
  O2-  O154  1  0.87655809  0.37402031  -0.00406785  1
  O2-  O155  1  0.87444654  0.37531046  0.50699691  1
  O2-  O156  1  0.87544157  0.62455061  0.00802178  1
  O2-  O157  1  0.87319800  0.62607997  0.51611026  1
  O2-  O158  1  0.87673938  0.87577523  0.00715843  1
  O2-  O159  1  0.87432531  0.87471186  0.50696139  1
  O2-  O160  1  0.12502428  0.00096606  0.16488800  1
  O2-  O161  1  0.12449476  -0.00117280  0.66584396  1
  O2-  O162  1  0.12433205  0.24978248  0.16784039  1
  O2-  O163  1  0.12508426  0.25023433  0.66442337  1
  O2-  O164  1  0.12438708  0.49824280  0.16695381  1
  O2-  O165  1  0.12443319  0.50067817  0.66469331  1
  O2-  O166  1  0.12523598  0.75117247  0.16525782  1
  O2-  O167  1  0.12389000  0.75046622  0.66526784  1
  O2-  O168  1  0.37549377  -0.00075663  0.16116127  1
  O2-  O169  1  0.37565421  -0.00110976  0.66712448  1
  O2-  O170  1  0.37617455  0.25083243  0.16628404  1
  O2-  O171  1  0.37591167  0.24994177  0.66414012  1
  O2-  O172  1  0.37577603  0.49929603  0.16573780  1
  O2-  O173  1  0.37575256  0.49946838  0.66476637  1
  O2-  O174  1  0.37495362  0.75082910  0.16231093  1
  O2-  O175  1  0.37556608  0.75130531  0.66773084  1
  O2-  O176  1  0.62522782  0.00204635  0.16192639  1
  O2-  O177  1  0.62513467  0.00151093  0.66358556  1
  O2-  O178  1  0.62570788  0.25057065  0.16257129  1
  O2-  O179  1  0.62519772  0.24703755  0.66541493  1
  O2-  O180  1  0.62524296  0.49954598  0.15991047  1
  O2-  O181  1  0.62570836  0.50115979  0.66775177  1
  O2-  O182  1  0.62451015  0.74786388  0.16010831  1
  O2-  O183  1  0.62592235  0.75002205  0.66553103  1
  O2-  O184  1  0.87420885  0.00357846  0.16410353  1
  O2-  O185  1  0.87447861  -0.00192434  0.66434663  1
  O2-  O186  1  0.87379391  0.24794883  0.16446405  1
  O2-  O187  1  0.87391905  0.25130593  0.66320733  1
  O2-  O188  1  0.87480294  0.49808839  0.16729689  1
  O2-  O189  1  0.87389883  0.49934048  0.66450585  1
  O2-  O190  1  0.87546832  0.75006266  0.16618615  1
  O2-  O191  1  0.87408129  0.75082857  0.66572881  1
  O2-  O192  1  -0.00102815  0.12560483  0.16617601  1
  O2-  O193  1  -0.00088153  0.12471652  0.66556583  1
  O2-  O194  1  0.00042389  0.37360250  0.16670827  1
  O2-  O195  1  -0.00301421  0.37459183  0.66280374  1
  O2-  O196  1  -0.00011437  0.62437646  0.16704092  1
  O2-  O197  1  -0.00218132  0.62541004  0.66662490  1
  O2-  O198  1  0.00213554  0.87618344  0.16769892  1
  O2-  O199  1  -0.00144755  0.87542992  0.66177096  1
  O2-  O200  1  0.24941197  0.12532038  0.16588900  1
  O2-  O201  1  0.25153888  0.12462381  0.66451620  1
  O2-  O202  1  0.24964936  0.37463309  0.16601272  1
  O2-  O203  1  0.25068503  0.37505123  0.66352135  1
  O2-  O204  1  0.25084011  0.62449244  0.16618304  1
  O2-  O205  1  0.24933950  0.62510540  0.66417282  1
  O2-  O206  1  0.25125536  0.87588029  0.16248951  1
  O2-  O207  1  0.24927182  0.87525611  0.66659136  1
  O2-  O208  1  0.50196487  0.12552510  0.16078296  1
  O2-  O209  1  0.50171234  0.12470301  0.66465517  1
  O2-  O210  1  0.50148534  0.37445607  0.16215769  1
  O2-  O211  1  0.49859384  0.37483656  0.66722047  1
  O2-  O212  1  0.50171620  0.62465274  0.16085784  1
  O2-  O213  1  0.50200750  0.62498346  0.66562134  1
  O2-  O214  1  0.49754414  0.87555183  0.16113456  1
  O2-  O215  1  0.49992396  0.87521251  0.66672388  1
  O2-  O216  1  0.74964261  0.12572386  0.16048304  1
  O2-  O217  1  0.74768348  0.12434925  0.66577607  1
  O2-  O218  1  0.74794532  0.37430434  0.16352829  1
  O2-  O219  1  0.75361390  0.37431725  0.66544491  1
  O2-  O220  1  0.74749482  0.62440921  0.16342501  1
  O2-  O221  1  0.75096423  0.62523549  0.66764350  1
  O2-  O222  1  0.74899374  0.87532467  0.16475258  1
  O2-  O223  1  0.75186650  0.87578294  0.66311767  1
  O2-  O224  1  0.12461000  -0.00194576  0.34605191  1
  O2-  O225  1  0.12525781  0.00040707  0.84913520  1
  O2-  O226  1  0.12444218  0.24931283  0.35038531  1
  O2-  O227  1  0.12496863  0.25034587  0.84753238  1
  O2-  O228  1  0.12469284  0.50101186  0.35054842  1
  O2-  O229  1  0.12545504  0.49886082  0.84641636  1
  O2-  O230  1  0.12475196  0.75201093  0.34770992  1
  O2-  O231  1  0.12570475  0.75063814  0.84769916  1
  O2-  O232  1  0.37651066  0.00087817  0.34518978  1
  O2-  O233  1  0.37612383  -0.00119597  0.84899266  1
  O2-  O234  1  0.37604815  0.24936219  0.34657867  1
  O2-  O235  1  0.37612503  0.24964757  0.84817789  1
  O2-  O236  1  0.37548078  0.49883435  0.34750493  1
  O2-  O237  1  0.37623577  0.50055259  0.84815522  1
  O2-  O238  1  0.37563896  0.75136572  0.34755710  1
  O2-  O239  1  0.37627626  0.75118689  0.84869706  1
  O2-  O240  1  0.62522806  0.00083500  0.34589258  1
  O2-  O241  1  0.62527654  0.00185322  0.84774838  1
  O2-  O242  1  0.62596617  0.24626263  0.34743883  1
  O2-  O243  1  0.62543373  0.24998448  0.85103939  1
  O2-  O244  1  0.62569977  0.50202831  0.34338347  1
  O2-  O245  1  0.62502217  0.49921021  0.85246952  1
  O2-  O246  1  0.62522466  0.75084512  0.34269542  1
  O2-  O247  1  0.62423096  0.74876115  0.84936823  1
  O2-  O248  1  0.87368190  -0.00216153  0.34690502  1
  O2-  O249  1  0.87425412  0.00338864  0.84956728  1
  O2-  O250  1  0.87369628  0.25075911  0.34900826  1
  O2-  O251  1  0.87372837  0.24902363  0.84720900  1
  O2-  O252  1  0.87414205  0.49943177  0.35237244  1
  O2-  O253  1  0.87375346  0.49756409  0.84562779  1
  O2-  O254  1  0.87413418  0.75227339  0.35004189  1
  O2-  O255  1  0.87461167  0.74969306  0.84879485  1
  O2-  O256  1  -0.00254382  0.12441680  0.34812635  1
  O2-  O257  1  -0.00167108  0.12543714  0.84978864  1
  O2-  O258  1  -0.00252485  0.37492058  0.35177363  1
  O2-  O259  1  0.00037589  0.37388291  0.84331482  1
  O2-  O260  1  -0.00109353  0.62581882  0.35073105  1
  O2-  O261  1  0.00061679  0.62456634  0.84878459  1
  O2-  O262  1  -0.00174141  0.87531613  0.35057902  1
  O2-  O263  1  0.00249006  0.87601779  0.84509324  1
  O2-  O264  1  0.25162876  0.12401045  0.34791539  1
  O2-  O265  1  0.25057695  0.12509674  0.84770002  1
  O2-  O266  1  0.25175766  0.37438299  0.34743361  1
  O2-  O267  1  0.24946709  0.37421390  0.84658824  1
  O2-  O268  1  0.24982892  0.62604519  0.34980251  1
  O2-  O269  1  0.25160755  0.62504008  0.84644491  1
  O2-  O270  1  0.25011795  0.87545418  0.34648095  1
  O2-  O271  1  0.25164693  0.87575438  0.84797192  1
  O2-  O272  1  0.50156435  0.12438213  0.34525570  1
  O2-  O273  1  0.50172529  0.12528819  0.84847239  1
  O2-  O274  1  0.49777359  0.37422060  0.34361459  1
  O2-  O275  1  0.50184265  0.37434414  0.85242912  1
  O2-  O276  1  0.50153285  0.62595479  0.34359232  1
  O2-  O277  1  0.50128086  0.62454596  0.84916627  1
  O2-  O278  1  0.50041603  0.87580955  0.34486853  1
  O2-  O279  1  0.49866667  0.87598106  0.84880767  1
  O2-  O280  1  0.74907520  0.12433219  0.34518819  1
  O2-  O281  1  0.74991609  0.12578894  0.85119684  1
  O2-  O282  1  0.75311674  0.37480387  0.34877462  1
  O2-  O283  1  0.74849505  0.37380098  0.84870147  1
  O2-  O284  1  0.74940932  0.62580029  0.34630905  1
  O2-  O285  1  0.74680981  0.62456407  0.85068202  1
  O2-  O286  1  0.75109943  0.87557783  0.34753548  1
  O2-  O287  1  0.74782061  0.87562014  0.84696419  1
