# generated using pymatgen
data_BaYFeCuO5
_symmetry_space_group_name_H-M   'P 1'
_cell_length_a   15.66259532
_cell_length_b   15.65907960
_cell_length_c   15.45832677
_cell_angle_alpha   90.00710481
_cell_angle_beta   90.00080883
_cell_angle_gamma   90.00110916
_symmetry_Int_Tables_number   1
_chemical_formula_structural   BaYFeCuO5
_chemical_formula_sum   'Ba32 Y32 Fe32 Cu32 O160'
_cell_volume   3791.33743207
_cell_formula_units_Z   32
loop_
 _symmetry_equiv_pos_site_id
 _symmetry_equiv_pos_as_xyz
  1  'x, y, z'
loop_
 _atom_type_symbol
 _atom_type_oxidation_number
  Ba2+  2.0
  Y3+  3.0
  Fe3+  3.0
  Cu2+  2.0
  O2-  -2.0
loop_
 _atom_site_type_symbol
 _atom_site_label
 _atom_site_symmetry_multiplicity
 _atom_site_fract_x
 _atom_site_fract_y
 _atom_site_fract_z
 _atom_site_occupancy
  Ba2+  Ba0  1  -0.01240533  -0.00189541  0.01220149  1
  Ba2+  Ba1  1  -0.00453591  -0.01049094  0.51003236  1
  Ba2+  Ba2  1  -0.00159860  0.24950546  0.01675341  1
  Ba2+  Ba3  1  -0.01025684  0.24941555  0.51578270  1
  Ba2+  Ba4  1  -0.00009732  0.50009205  0.00761502  1
  Ba2+  Ba5  1  -0.00440943  0.51036416  0.51084081  1
  Ba2+  Ba6  1  -0.01105624  0.75182084  0.00050879  1
  Ba2+  Ba7  1  -0.00130091  0.75021376  0.50700762  1
  Ba2+  Ba8  1  0.25478493  0.00438531  0.01120329  1
  Ba2+  Ba9  1  0.25287498  -0.00841408  0.51711781  1
  Ba2+  Ba10  1  0.24988578  0.25110416  0.01641943  1
  Ba2+  Ba11  1  0.26095553  0.24931421  0.51637108  1
  Ba2+  Ba12  1  0.25227362  0.50198630  0.01219248  1
  Ba2+  Ba13  1  0.25216478  0.50890743  0.50534790  1
  Ba2+  Ba14  1  0.25614537  0.74325441  0.00754630  1
  Ba2+  Ba15  1  0.24386115  0.75044973  0.50705765  1
  Ba2+  Ba16  1  0.51001830  0.00246401  0.00919016  1
  Ba2+  Ba17  1  0.50068943  -0.00006841  0.52692616  1
  Ba2+  Ba18  1  0.50604323  0.24366622  0.01512826  1
  Ba2+  Ba19  1  0.50404588  0.25166632  0.52045420  1
  Ba2+  Ba20  1  0.49799587  0.50268298  0.01148550  1
  Ba2+  Ba21  1  0.50383304  0.49859726  0.50098133  1
  Ba2+  Ba22  1  0.50235737  0.75106819  0.00733181  1
  Ba2+  Ba23  1  0.50069867  0.75041978  0.50613626  1
  Ba2+  Ba24  1  0.74752297  -0.00243313  0.01113881  1
  Ba2+  Ba25  1  0.75060538  -0.00217481  0.52194835  1
  Ba2+  Ba26  1  0.74545580  0.24286394  0.01525223  1
  Ba2+  Ba27  1  0.74549098  0.25162130  0.51964167  1
  Ba2+  Ba28  1  0.75055792  0.50045564  0.00696965  1
  Ba2+  Ba29  1  0.74901604  0.50119458  0.50682414  1
  Ba2+  Ba30  1  0.75250224  0.75901266  0.00301768  1
  Ba2+  Ba31  1  0.75504252  0.74993593  0.50653370  1
  Y3+  Y32  1  -0.00281318  -0.00394016  0.25893176  1
  Y3+  Y33  1  -0.00293461  -0.00347060  0.75445064  1
  Y3+  Y34  1  -0.00044466  0.24970712  0.25682109  1
  Y3+  Y35  1  -0.00246372  0.25011422  0.75431551  1
  Y3+  Y36  1  0.00058473  0.50239234  0.26103192  1
  Y3+  Y37  1  -0.00169946  0.50344421  0.75416617  1
  Y3+  Y38  1  -0.00178117  0.75137033  0.26417837  1
  Y3+  Y39  1  -0.00276563  0.75050110  0.75306283  1
  Y3+  Y40  1  0.24914893  -0.00130492  0.25742202  1
  Y3+  Y41  1  0.25024150  -0.00176410  0.75523098  1
  Y3+  Y42  1  0.25028242  0.24984356  0.25610408  1
  Y3+  Y43  1  0.25196963  0.25054734  0.75481593  1
  Y3+  Y44  1  0.25010322  0.50277746  0.25758948  1
  Y3+  Y45  1  0.25067414  0.50251936  0.75718261  1
  Y3+  Y46  1  0.24910541  0.74771002  0.26016935  1
  Y3+  Y47  1  0.24891836  0.74948008  0.75617934  1
  Y3+  Y48  1  0.50317782  0.00069334  0.25060314  1
  Y3+  Y49  1  0.50393105  -0.00012760  0.76065187  1
  Y3+  Y50  1  0.50365833  0.24972505  0.25532355  1
  Y3+  Y51  1  0.50239502  0.24957975  0.75550976  1
  Y3+  Y52  1  0.50176543  0.50090389  0.25772268  1
  Y3+  Y53  1  0.49984802  0.49946318  0.75797513  1
  Y3+  Y54  1  0.50085259  0.74819606  0.25545239  1
  Y3+  Y55  1  0.50092763  0.75162558  0.76144866  1
  Y3+  Y56  1  0.75059116  -0.00212497  0.25265715  1
  Y3+  Y57  1  0.74895257  -0.00197571  0.76016020  1
  Y3+  Y58  1  0.74652995  0.24924240  0.25634592  1
  Y3+  Y59  1  0.74806200  0.24911366  0.75453641  1
  Y3+  Y60  1  0.74753744  0.50051147  0.26139577  1
  Y3+  Y61  1  0.75161480  0.50034639  0.75475701  1
  Y3+  Y62  1  0.75150971  0.75176805  0.25929278  1
  Y3+  Y63  1  0.75269662  0.75284952  0.75815092  1
  Fe3+  Fe64  1  0.87439968  0.12557778  0.87539783  1
  Fe3+  Fe65  1  0.37533089  0.37448787  0.87906693  1
  Fe3+  Fe66  1  0.37707170  0.12366885  0.37549233  1
  Fe3+  Fe67  1  0.87287708  0.12422001  0.37670484  1
  Fe3+  Fe68  1  0.12457118  0.37435790  0.87644127  1
  Fe3+  Fe69  1  0.12505474  0.12406936  0.37995639  1
  Fe3+  Fe70  1  0.87490913  0.37449317  0.87839126  1
  Fe3+  Fe71  1  0.87379972  0.37420963  0.37659699  1
  Fe3+  Fe72  1  0.12518231  0.37447527  0.37966382  1
  Fe3+  Fe73  1  0.62624256  0.62494883  0.88018506  1
  Fe3+  Fe74  1  0.62456324  0.87679894  0.37663817  1
  Fe3+  Fe75  1  0.37594459  0.37423477  0.37533451  1
  Fe3+  Fe76  1  0.37546359  0.12608616  0.87628092  1
  Fe3+  Fe77  1  0.37682255  0.87577595  0.37450471  1
  Fe3+  Fe78  1  0.12411680  0.62539253  0.87919622  1
  Fe3+  Fe79  1  0.12435916  0.87557617  0.88066012  1
  Fe3+  Fe80  1  0.62465449  0.12354929  0.37737507  1
  Fe3+  Fe81  1  0.62547348  0.37441423  0.87855300  1
  Fe3+  Fe82  1  0.12398868  0.12514151  0.87776325  1
  Fe3+  Fe83  1  0.37474531  0.87555229  0.87948956  1
  Fe3+  Fe84  1  0.37507885  0.87478365  0.13442698  1
  Fe3+  Fe85  1  0.12525952  0.37666531  0.63306203  1
  Fe3+  Fe86  1  0.37594667  0.37494624  0.13560990  1
  Fe3+  Fe87  1  0.87442581  0.37559655  0.13591239  1
  Fe3+  Fe88  1  0.12356309  0.62585861  0.13593328  1
  Fe3+  Fe89  1  0.12403243  0.87346191  0.13380687  1
  Fe3+  Fe90  1  0.12382879  0.12365264  0.13483927  1
  Fe3+  Fe91  1  0.12441442  0.12399418  0.63362381  1
  Fe3+  Fe92  1  0.62509781  0.62613582  0.63999428  1
  Fe3+  Fe93  1  0.87492650  0.62550682  0.13892793  1
  Fe3+  Fe94  1  0.37635652  0.62608451  0.63944838  1
  Fe3+  Fe95  1  0.62644506  0.62551249  0.13638285  1
  Cu2+  Cu96  1  0.87311763  0.87596484  0.37203909  1
  Cu2+  Cu97  1  0.62604109  0.12601604  0.87059119  1
  Cu2+  Cu98  1  0.87537097  0.87612423  0.87010999  1
  Cu2+  Cu99  1  0.37522723  0.62442375  0.87472167  1
  Cu2+  Cu100  1  0.62472489  0.37355075  0.37268251  1
  Cu2+  Cu101  1  0.62498054  0.62613461  0.36367387  1
  Cu2+  Cu102  1  0.87486175  0.62455018  0.86414789  1
  Cu2+  Cu103  1  0.62567635  0.87525822  0.87353732  1
  Cu2+  Cu104  1  0.87402301  0.62496328  0.37262531  1
  Cu2+  Cu105  1  0.12549143  0.87566932  0.37275081  1
  Cu2+  Cu106  1  0.12456401  0.62533319  0.37287483  1
  Cu2+  Cu107  1  0.37577758  0.62544122  0.36272858  1
  Cu2+  Cu108  1  0.87544728  0.87325545  0.14362712  1
  Cu2+  Cu109  1  0.37474839  0.12473044  0.14856529  1
  Cu2+  Cu110  1  0.87393853  0.87423402  0.64319911  1
  Cu2+  Cu111  1  0.87448852  0.12405858  0.65023768  1
  Cu2+  Cu112  1  0.87483125  0.37595947  0.64985421  1
  Cu2+  Cu113  1  0.87544882  0.12475820  0.15104062  1
  Cu2+  Cu114  1  0.37526764  0.37693219  0.65112693  1
  Cu2+  Cu115  1  0.62526233  0.12413704  0.65218931  1
  Cu2+  Cu116  1  0.37532061  0.12418268  0.65299453  1
  Cu2+  Cu117  1  0.62591027  0.87304475  0.14055912  1
  Cu2+  Cu118  1  0.62481436  0.37740014  0.64273122  1
  Cu2+  Cu119  1  0.12492214  0.62569726  0.64358640  1
  Cu2+  Cu120  1  0.37596689  0.87347639  0.65567528  1
  Cu2+  Cu121  1  0.12453963  0.87390041  0.64360865  1
  Cu2+  Cu122  1  0.37530009  0.62527676  0.14239940  1
  Cu2+  Cu123  1  0.12453738  0.37598939  0.15074779  1
  Cu2+  Cu124  1  0.62631691  0.12410792  0.14198736  1
  Cu2+  Cu125  1  0.62573963  0.37610253  0.14617743  1
  Cu2+  Cu126  1  0.62500201  0.87345633  0.65293515  1
  Cu2+  Cu127  1  0.87366987  0.62619828  0.64378090  1
  O2-  O128  1  0.12408544  0.12591392  0.00532786  1
  O2-  O129  1  0.12572650  0.12402404  0.50630407  1
  O2-  O130  1  0.12391245  0.37298724  -0.00373705  1
  O2-  O131  1  0.12571120  0.37498608  0.50594596  1
  O2-  O132  1  0.12358313  0.62458124  0.00768771  1
  O2-  O133  1  0.12608466  0.62485582  0.50794263  1
  O2-  O134  1  0.12452405  0.87517027  0.00711980  1
  O2-  O135  1  0.12647429  0.87601728  0.50747012  1
  O2-  O136  1  0.37251627  0.12792869  -0.00349524  1
  O2-  O137  1  0.37631098  0.12347034  0.49578514  1
  O2-  O138  1  0.37442550  0.37388596  0.00635092  1
  O2-  O139  1  0.37589970  0.37388270  0.49581649  1
  O2-  O140  1  0.37409306  0.62320566  0.00821116  1
  O2-  O141  1  0.37722113  0.62595010  0.51885423  1
  O2-  O142  1  0.37366994  0.87547203  0.00631511  1
  O2-  O143  1  0.37769550  0.87665690  0.49478793  1
  O2-  O144  1  0.62626136  0.12545885  0.00621450  1
  O2-  O145  1  0.62356564  0.12325937  0.49776305  1
  O2-  O146  1  0.62595823  0.37442838  -0.00111782  1
  O2-  O147  1  0.62416501  0.37525210  0.50713305  1
  O2-  O148  1  0.62698345  0.62440642  0.00850907  1
  O2-  O149  1  0.62302265  0.62556572  0.51944644  1
  O2-  O150  1  0.62495851  0.87419490  0.00685037  1
  O2-  O151  1  0.62237870  0.87789427  0.49704376  1
  O2-  O152  1  0.87648494  0.12759946  -0.00409645  1
  O2-  O153  1  0.87339412  0.12536822  0.49705568  1
  O2-  O154  1  0.87591773  0.37465810  0.00625241  1
  O2-  O155  1  0.87402069  0.37357029  0.49718535  1
  O2-  O156  1  0.87583412  0.62378905  0.01826498  1
  O2-  O157  1  0.87320303  0.62526690  0.50817663  1
  O2-  O158  1  0.87578343  0.87520732  0.00734431  1
  O2-  O159  1  0.87289769  0.87512284  0.50762911  1
  O2-  O160  1  0.12524493  -0.00074312  0.15988772  1
  O2-  O161  1  0.12554939  0.00279967  0.66576253  1
  O2-  O162  1  0.12464731  0.24834046  0.16280893  1
  O2-  O163  1  0.12554868  0.25022132  0.65944463  1
  O2-  O164  1  0.12459212  0.50220332  0.16370682  1
  O2-  O165  1  0.12509465  0.49733796  0.66578112  1
  O2-  O166  1  0.12578937  0.74987142  0.16309550  1
  O2-  O167  1  0.12547606  0.74991576  0.66994312  1
  O2-  O168  1  0.37298995  -0.00143461  0.15862455  1
  O2-  O169  1  0.37436484  -0.00139072  0.66635879  1
  O2-  O170  1  0.37348149  0.25126061  0.16099227  1
  O2-  O171  1  0.37425459  0.25057914  0.66198537  1
  O2-  O172  1  0.37463191  0.49709404  0.16391417  1
  O2-  O173  1  0.37467261  0.50167421  0.66963069  1
  O2-  O174  1  0.37347813  0.75290908  0.16384754  1
  O2-  O175  1  0.37544918  0.74941425  0.67106653  1
  O2-  O176  1  0.62565104  -0.00090349  0.16066116  1
  O2-  O177  1  0.62441777  -0.00087432  0.66615026  1
  O2-  O178  1  0.62561025  0.25110097  0.16336226  1
  O2-  O179  1  0.62466689  0.24920011  0.66240667  1
  O2-  O180  1  0.62515265  0.50180039  0.16491713  1
  O2-  O181  1  0.62464726  0.50252006  0.67024395  1
  O2-  O182  1  0.62559557  0.74676098  0.16560731  1
  O2-  O183  1  0.62421476  0.74962971  0.67100867  1
  O2-  O184  1  0.87673305  0.00056934  0.16215636  1
  O2-  O185  1  0.87546746  0.00056699  0.66509869  1
  O2-  O186  1  0.87681453  0.25159507  0.16063447  1
  O2-  O187  1  0.87583337  0.24983317  0.66240632  1
  O2-  O188  1  0.87628332  0.49930058  0.16527208  1
  O2-  O189  1  0.87559091  0.49951777  0.66732190  1
  O2-  O190  1  0.87592510  0.74746797  0.16967792  1
  O2-  O191  1  0.87430772  0.75053159  0.66747118  1
  O2-  O192  1  0.00204952  0.12502113  0.16433140  1
  O2-  O193  1  0.00185245  0.12594668  0.66299986  1
  O2-  O194  1  -0.00155598  0.37484152  0.16387657  1
  O2-  O195  1  0.00194392  0.37436181  0.66282280  1
  O2-  O196  1  0.00112948  0.62444520  0.16686819  1
  O2-  O197  1  -0.00061813  0.62516222  0.66599170  1
  O2-  O198  1  0.00335289  0.87455984  0.16592208  1
  O2-  O199  1  -0.00063010  0.87497550  0.66612822  1
  O2-  O200  1  0.24713041  0.12508355  0.16264661  1
  O2-  O201  1  0.24845209  0.12530386  0.66367557  1
  O2-  O202  1  0.25098260  0.37466785  0.16222598  1
  O2-  O203  1  0.24824677  0.37475542  0.66391680  1
  O2-  O204  1  0.24677082  0.62448377  0.16323286  1
  O2-  O205  1  0.25201097  0.62512823  0.66878004  1
  O2-  O206  1  0.24869393  0.87565221  0.16073321  1
  O2-  O207  1  0.25144021  0.87467540  0.66771347  1
  O2-  O208  1  0.49893425  0.12521356  0.16108399  1
  O2-  O209  1  0.49973184  0.12485772  0.66608942  1
  O2-  O210  1  0.49887986  0.37470450  0.16024455  1
  O2-  O211  1  0.49854970  0.37552712  0.66851398  1
  O2-  O212  1  0.50273616  0.62467913  0.16197856  1
  O2-  O213  1  0.49991678  0.62580279  0.67387228  1
  O2-  O214  1  0.49734840  0.87449819  0.15906367  1
  O2-  O215  1  0.50036036  0.87443467  0.66891966  1
  O2-  O216  1  0.75227833  0.12533582  0.16385810  1
  O2-  O217  1  0.74983444  0.12512846  0.66402907  1
  O2-  O218  1  0.75232344  0.37547691  0.16180488  1
  O2-  O219  1  0.75137113  0.37546298  0.66677389  1
  O2-  O220  1  0.74996907  0.62356220  0.16606648  1
  O2-  O221  1  0.74833181  0.62535302  0.66967810  1
  O2-  O222  1  0.75093030  0.87383440  0.16400919  1
  O2-  O223  1  0.74831356  0.87511720  0.66679768  1
  O2-  O224  1  0.12540275  0.00364945  0.34495838  1
  O2-  O225  1  0.12558463  0.00054092  0.85119100  1
  O2-  O226  1  0.12553960  0.24955564  0.34842585  1
  O2-  O227  1  0.12487293  0.24888545  0.84375009  1
  O2-  O228  1  0.12569294  0.49643076  0.34897800  1
  O2-  O229  1  0.12448182  0.50048442  0.84980932  1
  O2-  O230  1  0.12562962  0.75015373  0.34790696  1
  O2-  O231  1  0.12548448  0.75054407  0.85524362  1
  O2-  O232  1  0.37469098  0.00060572  0.33944192  1
  O2-  O233  1  0.37289090  -0.00027088  0.85018440  1
  O2-  O234  1  0.37406102  0.24891760  0.34252125  1
  O2-  O235  1  0.37395165  0.25166399  0.84539958  1
  O2-  O236  1  0.37423928  0.49989698  0.34783520  1
  O2-  O237  1  0.37378731  0.49652374  0.85183864  1
  O2-  O238  1  0.37575900  0.74998610  0.34721452  1
  O2-  O239  1  0.37377590  0.75288437  0.85379964  1
  O2-  O240  1  0.62439199  0.00036529  0.34083496  1
  O2-  O241  1  0.62530226  0.00038777  0.85039762  1
  O2-  O242  1  0.62436501  0.24725702  0.34553800  1
  O2-  O243  1  0.62526564  0.25279273  0.84477982  1
  O2-  O244  1  0.62441521  0.50171630  0.34988752  1
  O2-  O245  1  0.62538632  0.50000129  0.85148088  1
  O2-  O246  1  0.62356021  0.75082568  0.34902183  1
  O2-  O247  1  0.62540501  0.74743311  0.85395225  1
  O2-  O248  1  0.87535071  0.00197724  0.34470544  1
  O2-  O249  1  0.87670882  0.00219023  0.84722936  1
  O2-  O250  1  0.87585300  0.24932766  0.34247202  1
  O2-  O251  1  0.87610993  0.25182258  0.84564972  1
  O2-  O252  1  0.87544870  0.49786589  0.34701705  1
  O2-  O253  1  0.87661512  0.49792939  0.85198420  1
  O2-  O254  1  0.87446446  0.75040874  0.35178978  1
  O2-  O255  1  0.87594600  0.74889786  0.85136204  1
  O2-  O256  1  0.00111579  0.12587058  0.34869918  1
  O2-  O257  1  0.00139111  0.12601832  0.84630287  1
  O2-  O258  1  0.00156655  0.37361593  0.34799017  1
  O2-  O259  1  -0.00076668  0.37457253  0.84684247  1
  O2-  O260  1  -0.00055310  0.62449455  0.34925943  1
  O2-  O261  1  0.00165982  0.62480584  0.85056957  1
  O2-  O262  1  -0.00085665  0.87590398  0.35018111  1
  O2-  O263  1  0.00327552  0.87544395  0.84984128  1
  O2-  O264  1  0.24927801  0.12534594  0.34664786  1
  O2-  O265  1  0.24833722  0.12578936  0.84750339  1
  O2-  O266  1  0.24897754  0.37416214  0.34635540  1
  O2-  O267  1  0.25019279  0.37424791  0.84780509  1
  O2-  O268  1  0.25125499  0.62462059  0.34747802  1
  O2-  O269  1  0.24646043  0.62448041  0.85145230  1
  O2-  O270  1  0.25286257  0.87537265  0.34381307  1
  O2-  O271  1  0.24895134  0.87598832  0.85187516  1
  O2-  O272  1  0.50025995  0.12474179  0.34185709  1
  O2-  O273  1  0.49849692  0.12563351  0.84914195  1
  O2-  O274  1  0.49797376  0.37531165  0.34336541  1
  O2-  O275  1  0.49916579  0.37511521  0.85141727  1
  O2-  O276  1  0.50040053  0.62453231  0.34650736  1
  O2-  O277  1  0.50314601  0.62415672  0.85506307  1
  O2-  O278  1  0.50026063  0.87475225  0.33984444  1
  O2-  O279  1  0.49696532  0.87576248  0.85278647  1
  O2-  O280  1  0.74915285  0.12513557  0.34464287  1
  O2-  O281  1  0.75197364  0.12650966  0.84661901  1
  O2-  O282  1  0.75122330  0.37453025  0.34532558  1
  O2-  O283  1  0.75160811  0.37580899  0.85027668  1
  O2-  O284  1  0.74844162  0.62468309  0.34863446  1
  O2-  O285  1  0.74923801  0.62348849  0.85315468  1
  O2-  O286  1  0.74744026  0.87520454  0.34608791  1
  O2-  O287  1  0.75105900  0.87523687  0.85006161  1
