# generated using pymatgen
data_BaYFeCuO5
_symmetry_space_group_name_H-M   'P 1'
_cell_length_a   15.66553907
_cell_length_b   15.66553733
_cell_length_c   15.46787318
_cell_angle_alpha   89.99849304
_cell_angle_beta   90.00029651
_cell_angle_gamma   90.00352988
_symmetry_Int_Tables_number   1
_chemical_formula_structural   BaYFeCuO5
_chemical_formula_sum   'Ba32 Y32 Fe32 Cu32 O160'
_cell_volume   3795.95662579
_cell_formula_units_Z   32
loop_
 _symmetry_equiv_pos_site_id
 _symmetry_equiv_pos_as_xyz
  1  'x, y, z'
loop_
 _atom_type_symbol
 _atom_type_oxidation_number
  Ba2+  2.0
  Y3+  3.0
  Fe3+  3.0
  Cu2+  2.0
  O2-  -2.0
loop_
 _atom_site_type_symbol
 _atom_site_label
 _atom_site_symmetry_multiplicity
 _atom_site_fract_x
 _atom_site_fract_y
 _atom_site_fract_z
 _atom_site_occupancy
  Ba2+  Ba0  1  0.00094884  0.00809478  0.01785438  1
  Ba2+  Ba1  1  -0.01261111  -0.00203171  0.51079068  1
  Ba2+  Ba2  1  0.00669790  0.25034738  0.01607949  1
  Ba2+  Ba3  1  -0.01153104  0.25023092  0.51777543  1
  Ba2+  Ba4  1  0.01006014  0.50239480  0.00262524  1
  Ba2+  Ba5  1  -0.00387415  0.50635848  0.51707079  1
  Ba2+  Ba6  1  0.00325348  0.73959435  0.00221167  1
  Ba2+  Ba7  1  -0.00620973  0.74612291  0.51219859  1
  Ba2+  Ba8  1  0.25839504  0.00059423  0.00641511  1
  Ba2+  Ba9  1  0.26032669  -0.00020046  0.51762068  1
  Ba2+  Ba10  1  0.24964497  0.25388663  0.01286864  1
  Ba2+  Ba11  1  0.25502235  0.24578426  0.51070969  1
  Ba2+  Ba12  1  0.24954512  0.50308186  0.01301801  1
  Ba2+  Ba13  1  0.24315924  0.50537566  0.50652999  1
  Ba2+  Ba14  1  0.25722348  0.74286692  0.00707305  1
  Ba2+  Ba15  1  0.24649317  0.74799028  0.51115125  1
  Ba2+  Ba16  1  0.49955858  -0.00076421  -0.00314203  1
  Ba2+  Ba17  1  0.50506830  -0.00044167  0.52255072  1
  Ba2+  Ba18  1  0.50312892  0.25009351  0.00567622  1
  Ba2+  Ba19  1  0.50693303  0.24390770  0.52331883  1
  Ba2+  Ba20  1  0.49748261  0.50034973  0.01821580  1
  Ba2+  Ba21  1  0.50659969  0.49485471  0.51137695  1
  Ba2+  Ba22  1  0.49372875  0.74950228  0.00757541  1
  Ba2+  Ba23  1  0.50371131  0.76121442  0.51135180  1
  Ba2+  Ba24  1  0.74287355  0.00571180  0.00735868  1
  Ba2+  Ba25  1  0.74811241  -0.00282010  0.51779800  1
  Ba2+  Ba26  1  0.74160958  0.24741014  0.00947969  1
  Ba2+  Ba27  1  0.74899303  0.24799512  0.52848975  1
  Ba2+  Ba28  1  0.74248996  0.50058629  0.00716646  1
  Ba2+  Ba29  1  0.75531735  0.49497278  0.52348645  1
  Ba2+  Ba30  1  0.74414181  0.74597029  0.00190013  1
  Ba2+  Ba31  1  0.75332828  0.75964320  0.51038449  1
  Y3+  Y32  1  -0.00168558  0.00010354  0.25744143  1
  Y3+  Y33  1  -0.00223321  -0.00182810  0.75647348  1
  Y3+  Y34  1  0.00066214  0.24962010  0.25329089  1
  Y3+  Y35  1  -0.00043258  0.25215432  0.75961632  1
  Y3+  Y36  1  0.00358081  0.50127417  0.25573772  1
  Y3+  Y37  1  0.00141202  0.50305110  0.75974614  1
  Y3+  Y38  1  0.00096911  0.74880732  0.26024504  1
  Y3+  Y39  1  -0.00013819  0.74672657  0.75665753  1
  Y3+  Y40  1  0.25074536  -0.00128196  0.25500896  1
  Y3+  Y41  1  0.25431432  -0.00145912  0.75893176  1
  Y3+  Y42  1  0.24895443  0.25175455  0.25560319  1
  Y3+  Y43  1  0.25096390  0.24983305  0.75824534  1
  Y3+  Y44  1  0.24827130  0.50245256  0.25521587  1
  Y3+  Y45  1  0.24744196  0.50323416  0.76000894  1
  Y3+  Y46  1  0.25012875  0.74759440  0.25548247  1
  Y3+  Y47  1  0.25106672  0.74841384  0.75997664  1
  Y3+  Y48  1  0.50169808  -0.00164925  0.25476057  1
  Y3+  Y49  1  0.50061803  -0.00105366  0.76001264  1
  Y3+  Y50  1  0.50215655  0.25087928  0.25146678  1
  Y3+  Y51  1  0.50219085  0.24753194  0.76156980  1
  Y3+  Y52  1  0.50013510  0.50037457  0.25457421  1
  Y3+  Y53  1  0.50047633  0.49914688  0.75890699  1
  Y3+  Y54  1  0.49918979  0.75069832  0.25593744  1
  Y3+  Y55  1  0.49897778  0.75406461  0.75939611  1
  Y3+  Y56  1  0.74902323  -0.00075139  0.25698031  1
  Y3+  Y57  1  0.74749850  -0.00119070  0.75830511  1
  Y3+  Y58  1  0.74768738  0.24814774  0.24841219  1
  Y3+  Y59  1  0.74747497  0.25004488  0.76244016  1
  Y3+  Y60  1  0.74775455  0.49976732  0.25290459  1
  Y3+  Y61  1  0.75123744  0.49935122  0.76066265  1
  Y3+  Y62  1  0.74923514  0.75283980  0.26011069  1
  Y3+  Y63  1  0.75094011  0.75147519  0.75626617  1
  Fe3+  Fe64  1  0.37735837  0.12527959  0.37678806  1
  Fe3+  Fe65  1  0.62596701  0.62501464  0.38058495  1
  Fe3+  Fe66  1  0.62680128  0.37307413  0.37580703  1
  Fe3+  Fe67  1  0.87332821  0.37420895  0.37388691  1
  Fe3+  Fe68  1  0.87348929  0.62350085  0.37633545  1
  Fe3+  Fe69  1  0.37446966  0.37600920  0.87596034  1
  Fe3+  Fe70  1  0.37598711  0.62490944  0.38030564  1
  Fe3+  Fe71  1  0.62301264  0.62507454  0.87462276  1
  Fe3+  Fe72  1  0.37549869  0.87590520  0.37696987  1
  Fe3+  Fe73  1  0.87569209  0.12509754  0.87749892  1
  Fe3+  Fe74  1  0.12517543  0.87494337  0.87981820  1
  Fe3+  Fe75  1  0.87229783  0.12660832  0.37402750  1
  Fe3+  Fe76  1  0.12464050  0.12470676  0.38038026  1
  Fe3+  Fe77  1  0.37605560  0.37425594  0.37996066  1
  Fe3+  Fe78  1  0.12464822  0.87550086  0.38032548  1
  Fe3+  Fe79  1  0.12563733  0.12465213  0.87517484  1
  Fe3+  Fe80  1  0.12334829  0.37442109  0.38037297  1
  Fe3+  Fe81  1  0.87533480  0.87475667  0.88089412  1
  Fe3+  Fe82  1  0.87572323  0.37553949  0.87992141  1
  Fe3+  Fe83  1  0.62530148  0.12523993  0.37563054  1
  Fe3+  Fe84  1  0.37576922  0.12485492  0.13666430  1
  Fe3+  Fe85  1  0.87503086  0.87417246  0.13386874  1
  Fe3+  Fe86  1  0.87542082  0.37577011  0.13243972  1
  Fe3+  Fe87  1  0.37507041  0.37522855  0.63470584  1
  Fe3+  Fe88  1  0.87458861  0.62547129  0.13581512  1
  Fe3+  Fe89  1  0.12487597  0.87476821  0.63567546  1
  Fe3+  Fe90  1  0.12562781  0.87384240  0.13427539  1
  Fe3+  Fe91  1  0.12422657  0.12422946  0.63398708  1
  Fe3+  Fe92  1  0.62434185  0.87435707  0.13609466  1
  Fe3+  Fe93  1  0.37590062  0.62508014  0.63445685  1
  Fe3+  Fe94  1  0.62582052  0.62558491  0.63522254  1
  Fe3+  Fe95  1  0.12439688  0.37501351  0.63466216  1
  Cu2+  Cu96  1  0.87436835  0.62503744  0.86650860  1
  Cu2+  Cu97  1  0.37614862  0.62394894  0.86909951  1
  Cu2+  Cu98  1  0.62491318  0.12429477  0.87218222  1
  Cu2+  Cu99  1  0.37471315  0.12564795  0.86319409  1
  Cu2+  Cu100  1  0.12633688  0.62573680  0.87110559  1
  Cu2+  Cu101  1  0.87467739  0.87586092  0.37164997  1
  Cu2+  Cu102  1  0.37459293  0.87413247  0.87319156  1
  Cu2+  Cu103  1  0.12616673  0.37481033  0.87130444  1
  Cu2+  Cu104  1  0.62546475  0.87419748  0.86578776  1
  Cu2+  Cu105  1  0.62464357  0.87649322  0.37241344  1
  Cu2+  Cu106  1  0.12433287  0.62516978  0.37469664  1
  Cu2+  Cu107  1  0.62405696  0.37595040  0.87270735  1
  Cu2+  Cu108  1  0.12449825  0.62637559  0.14391639  1
  Cu2+  Cu109  1  0.37536652  0.12553952  0.65373206  1
  Cu2+  Cu110  1  0.37478193  0.87476470  0.14152983  1
  Cu2+  Cu111  1  0.87564752  0.37504914  0.65810237  1
  Cu2+  Cu112  1  0.62514389  0.62687555  0.15273546  1
  Cu2+  Cu113  1  0.87534051  0.87467589  0.64549535  1
  Cu2+  Cu114  1  0.37467457  0.87407528  0.65271892  1
  Cu2+  Cu115  1  0.87443326  0.12457086  0.14591815  1
  Cu2+  Cu116  1  0.62432579  0.37568033  0.13900026  1
  Cu2+  Cu117  1  0.87401051  0.62516578  0.65441451  1
  Cu2+  Cu118  1  0.62556211  0.12439068  0.65825968  1
  Cu2+  Cu119  1  0.87482095  0.12463478  0.65626650  1
  Cu2+  Cu120  1  0.62326336  0.12323460  0.14011359  1
  Cu2+  Cu121  1  0.12525001  0.62558026  0.64248088  1
  Cu2+  Cu122  1  0.62527834  0.87436281  0.64585654  1
  Cu2+  Cu123  1  0.12650305  0.12406861  0.15259173  1
  Cu2+  Cu124  1  0.62496330  0.37542680  0.65558401  1
  Cu2+  Cu125  1  0.12522161  0.37635225  0.14183394  1
  Cu2+  Cu126  1  0.37521084  0.62531522  0.14420262  1
  Cu2+  Cu127  1  0.37444120  0.37545114  0.15240906  1
  O2-  O128  1  0.12578193  0.12499481  -0.00428535  1
  O2-  O129  1  0.12389712  0.12466114  0.50637321  1
  O2-  O130  1  0.12640911  0.37466886  0.00657533  1
  O2-  O131  1  0.12173040  0.37375851  0.50709700  1
  O2-  O132  1  0.12642380  0.62621589  0.00717095  1
  O2-  O133  1  0.12369912  0.62492018  0.50803076  1
  O2-  O134  1  0.12518494  0.87499597  0.00682225  1
  O2-  O135  1  0.12432404  0.87669560  0.50741124  1
  O2-  O136  1  0.37424313  0.12598516  0.01601380  1
  O2-  O137  1  0.37798895  0.12556968  0.49733814  1
  O2-  O138  1  0.37308651  0.37614884  -0.00362032  1
  O2-  O139  1  0.37692940  0.37359892  0.50609146  1
  O2-  O140  1  0.37635302  0.62314136  0.00781560  1
  O2-  O141  1  0.37569628  0.62513882  0.50703725  1
  O2-  O142  1  0.37399325  0.87499890  0.00629790  1
  O2-  O143  1  0.37548059  0.87669960  0.49756961  1
  O2-  O144  1  0.62286399  0.12414693  0.00576165  1
  O2-  O145  1  0.62714958  0.12614338  0.49587533  1
  O2-  O146  1  0.62363018  0.37670911  0.00584494  1
  O2-  O147  1  0.62838183  0.37215940  0.49589650  1
  O2-  O148  1  0.62187247  0.62507238  -0.00432377  1
  O2-  O149  1  0.62774126  0.62390517  0.50686762  1
  O2-  O150  1  0.62545565  0.87357995  0.01557109  1
  O2-  O151  1  0.62522600  0.87678921  0.50894744  1
  O2-  O152  1  0.87807454  0.12511229  -0.00258337  1
  O2-  O153  1  0.87150779  0.12725657  0.49429537  1
  O2-  O154  1  0.87690302  0.37586366  0.00602562  1
  O2-  O155  1  0.87226412  0.37286675  0.49397036  1
  O2-  O156  1  0.87456756  0.62578175  0.01545610  1
  O2-  O157  1  0.87218167  0.62285845  0.49689963  1
  O2-  O158  1  0.87547126  0.87443730  0.00770130  1
  O2-  O159  1  0.87540522  0.87571765  0.50760532  1
  O2-  O160  1  0.12481953  -0.00230327  0.16439157  1
  O2-  O161  1  0.12575424  0.00019909  0.66225594  1
  O2-  O162  1  0.12543400  0.24849061  0.16575325  1
  O2-  O163  1  0.12389517  0.24961832  0.66005979  1
  O2-  O164  1  0.12515414  0.50149827  0.16677129  1
  O2-  O165  1  0.12512534  0.49695177  0.66309500  1
  O2-  O166  1  0.12396087  0.75302947  0.16741378  1
  O2-  O167  1  0.12522241  0.75270106  0.66431185  1
  O2-  O168  1  0.37348554  0.00112927  0.16542929  1
  O2-  O169  1  0.37392504  0.00019228  0.66479927  1
  O2-  O170  1  0.37370464  0.25009518  0.16547503  1
  O2-  O171  1  0.37500284  0.25222844  0.66288119  1
  O2-  O172  1  0.37469017  0.49904996  0.16864583  1
  O2-  O173  1  0.37438218  0.49961383  0.65941258  1
  O2-  O174  1  0.37465922  0.74998162  0.16748099  1
  O2-  O175  1  0.37573804  0.74762068  0.66344245  1
  O2-  O176  1  0.62551995  -0.00280991  0.16558453  1
  O2-  O177  1  0.62539065  0.00069438  0.66701180  1
  O2-  O178  1  0.62390857  0.24960114  0.15944261  1
  O2-  O179  1  0.62506994  0.25011072  0.66670502  1
  O2-  O180  1  0.62479499  0.50244040  0.16528870  1
  O2-  O181  1  0.62591144  0.50152496  0.66147381  1
  O2-  O182  1  0.62555195  0.75138539  0.17013690  1
  O2-  O183  1  0.62440510  0.74680278  0.66408578  1
  O2-  O184  1  0.87584589  -0.00214631  0.16186019  1
  O2-  O185  1  0.87525695  0.00100492  0.66714610  1
  O2-  O186  1  0.87610598  0.25118324  0.15826165  1
  O2-  O187  1  0.87631751  0.24969088  0.66622785  1
  O2-  O188  1  0.87436194  0.49969607  0.16366223  1
  O2-  O189  1  0.87510960  0.49987982  0.66555787  1
  O2-  O190  1  0.87588920  0.75168355  0.16685164  1
  O2-  O191  1  0.87571862  0.74893085  0.66750348  1
  O2-  O192  1  0.00089236  0.12426597  0.16436887  1
  O2-  O193  1  0.00154187  0.12390077  0.66101914  1
  O2-  O194  1  -0.00286495  0.37505625  0.16453285  1
  O2-  O195  1  0.00177681  0.37463625  0.66410874  1
  O2-  O196  1  -0.00216479  0.62570245  0.16693881  1
  O2-  O197  1  -0.00152330  0.62495344  0.66525341  1
  O2-  O198  1  -0.00008462  0.87609889  0.16265069  1
  O2-  O199  1  0.00301791  0.87562528  0.66635582  1
  O2-  O200  1  0.25098986  0.12519324  0.17019566  1
  O2-  O201  1  0.24776379  0.12572033  0.66084660  1
  O2-  O202  1  0.25067099  0.37549315  0.17073180  1
  O2-  O203  1  0.24947207  0.37352288  0.65703129  1
  O2-  O204  1  0.24937051  0.62543126  0.16809980  1
  O2-  O205  1  0.25353558  0.62531159  0.66284674  1
  O2-  O206  1  0.24727377  0.87476199  0.16538517  1
  O2-  O207  1  0.24874826  0.87483090  0.66318077  1
  O2-  O208  1  0.49801691  0.12480886  0.16647419  1
  O2-  O209  1  0.50045945  0.12503033  0.66495412  1
  O2-  O210  1  0.49860898  0.37647890  0.16589647  1
  O2-  O211  1  0.49840552  0.37596663  0.66094422  1
  O2-  O212  1  0.50177456  0.62522337  0.16893502  1
  O2-  O213  1  0.50011672  0.62297475  0.65814719  1
  O2-  O214  1  0.50105725  0.87393345  0.16583887  1
  O2-  O215  1  0.49839850  0.87533441  0.66548396  1
  O2-  O216  1  0.75007979  0.12424347  0.15900720  1
  O2-  O217  1  0.75037945  0.12533145  0.66764797  1
  O2-  O218  1  0.75270660  0.37542566  0.15810588  1
  O2-  O219  1  0.75050083  0.37475586  0.66864217  1
  O2-  O220  1  0.75048758  0.62628566  0.16369962  1
  O2-  O221  1  0.74860370  0.62479621  0.66482899  1
  O2-  O222  1  0.75165505  0.87434884  0.16412326  1
  O2-  O223  1  0.75026245  0.87451887  0.66812562  1
  O2-  O224  1  0.12478352  0.00094645  0.34950242  1
  O2-  O225  1  0.12432968  -0.00153680  0.84638035  1
  O2-  O226  1  0.12527175  0.24969849  0.35055966  1
  O2-  O227  1  0.12549137  0.24774395  0.84317352  1
  O2-  O228  1  0.12518424  0.49621101  0.35058867  1
  O2-  O229  1  0.12507152  0.50095532  0.84750783  1
  O2-  O230  1  0.12542713  0.75315294  0.35133428  1
  O2-  O231  1  0.12470029  0.75292548  0.84922147  1
  O2-  O232  1  0.37405984  0.00077360  0.34500425  1
  O2-  O233  1  0.37467207  0.00141781  0.85025322  1
  O2-  O234  1  0.37407838  0.25132257  0.34753595  1
  O2-  O235  1  0.37389762  0.25036052  0.84645429  1
  O2-  O236  1  0.37538965  0.49921912  0.35348383  1
  O2-  O237  1  0.37501269  0.49905947  0.84211346  1
  O2-  O238  1  0.37458969  0.74891454  0.35027190  1
  O2-  O239  1  0.37469121  0.74926632  0.84790266  1
  O2-  O240  1  0.62458924  0.00209501  0.34593009  1
  O2-  O241  1  0.62510909  -0.00208068  0.85078365  1
  O2-  O242  1  0.62489572  0.25010695  0.34004907  1
  O2-  O243  1  0.62504411  0.25004682  0.85087006  1
  O2-  O244  1  0.62443486  0.50039777  0.34894438  1
  O2-  O245  1  0.62485900  0.50172878  0.84429246  1
  O2-  O246  1  0.62512307  0.74743289  0.35365359  1
  O2-  O247  1  0.62565471  0.74983291  0.84650986  1
  O2-  O248  1  0.87579463  0.00332023  0.34461502  1
  O2-  O249  1  0.87620557  -0.00169570  0.85018622  1
  O2-  O250  1  0.87531160  0.25008630  0.33886542  1
  O2-  O251  1  0.87577565  0.25116360  0.84948098  1
  O2-  O252  1  0.87489301  0.49901341  0.34339579  1
  O2-  O253  1  0.87563832  0.49891404  0.85064547  1
  O2-  O254  1  0.87462461  0.74779719  0.34852786  1
  O2-  O255  1  0.87557563  0.75189666  0.85176565  1
  O2-  O256  1  0.00119678  0.12569741  0.34855167  1
  O2-  O257  1  -0.00018191  0.12456153  0.84271056  1
  O2-  O258  1  0.00059695  0.37384317  0.34708545  1
  O2-  O259  1  -0.00213008  0.37519515  0.84877648  1
  O2-  O260  1  -0.00203810  0.62445802  0.34790899  1
  O2-  O261  1  -0.00081637  0.62559848  0.84957166  1
  O2-  O262  1  0.00294157  0.87612012  0.34766044  1
  O2-  O263  1  -0.00011507  0.87481040  0.85090323  1
  O2-  O264  1  0.24896188  0.12557421  0.35285915  1
  O2-  O265  1  0.24935785  0.12392034  0.84425923  1
  O2-  O266  1  0.24999602  0.37411610  0.35668212  1
  O2-  O267  1  0.25180642  0.37509783  0.84057831  1
  O2-  O268  1  0.25337914  0.62438076  0.35244984  1
  O2-  O269  1  0.25079765  0.62534378  0.84669183  1
  O2-  O270  1  0.24918585  0.87575743  0.34882901  1
  O2-  O271  1  0.24692328  0.87558075  0.84815176  1
  O2-  O272  1  0.50016338  0.12611353  0.34469615  1
  O2-  O273  1  0.49867701  0.12492432  0.84955880  1
  O2-  O274  1  0.49958859  0.37515975  0.34907222  1
  O2-  O275  1  0.49788205  0.37470709  0.84452327  1
  O2-  O276  1  0.50008945  0.62434608  0.35348135  1
  O2-  O277  1  0.50125108  0.62551635  0.84115614  1
  O2-  O278  1  0.49779109  0.87452844  0.34673377  1
  O2-  O279  1  0.50114467  0.87466599  0.84976084  1
  O2-  O280  1  0.74910409  0.12572952  0.33975621  1
  O2-  O281  1  0.75261467  0.12429955  0.85003564  1
  O2-  O282  1  0.74944313  0.37506661  0.33817951  1
  O2-  O283  1  0.75280168  0.37575215  0.85296746  1
  O2-  O284  1  0.74838224  0.62410640  0.34480265  1
  O2-  O285  1  0.74890312  0.62538463  0.84847609  1
  O2-  O286  1  0.74971874  0.87565920  0.34714331  1
  O2-  O287  1  0.75251842  0.87442859  0.85230866  1
