# generated using pymatgen
data_BaYFeCuO5
_symmetry_space_group_name_H-M   'P 1'
_cell_length_a   15.67635708
_cell_length_b   15.67351464
_cell_length_c   15.50417105
_cell_angle_alpha   90.00647168
_cell_angle_beta   90.00029344
_cell_angle_gamma   89.99632737
_symmetry_Int_Tables_number   1
_chemical_formula_structural   BaYFeCuO5
_chemical_formula_sum   'Ba32 Y32 Fe32 Cu32 O160'
_cell_volume   3809.43079948
_cell_formula_units_Z   32
loop_
 _symmetry_equiv_pos_site_id
 _symmetry_equiv_pos_as_xyz
  1  'x, y, z'
loop_
 _atom_type_symbol
 _atom_type_oxidation_number
  Ba2+  2.0
  Y3+  3.0
  Fe3+  3.0
  Cu2+  2.0
  O2-  -2.0
loop_
 _atom_site_type_symbol
 _atom_site_label
 _atom_site_symmetry_multiplicity
 _atom_site_fract_x
 _atom_site_fract_y
 _atom_site_fract_z
 _atom_site_occupancy
  Ba2+  Ba0  1  -0.00503332  0.00708908  0.00622170  1
  Ba2+  Ba1  1  -0.00171150  0.00072574  0.51750659  1
  Ba2+  Ba2  1  -0.00193655  0.24972175  0.01164851  1
  Ba2+  Ba3  1  -0.00278401  0.25735095  0.51733607  1
  Ba2+  Ba4  1  0.00072830  0.49824280  0.01785787  1
  Ba2+  Ba5  1  0.00233567  0.49667933  0.51056020  1
  Ba2+  Ba6  1  -0.00335314  0.74488033  0.01102975  1
  Ba2+  Ba7  1  0.00191670  0.74464192  0.51179313  1
  Ba2+  Ba8  1  0.25435893  0.00478749  -0.00983510  1
  Ba2+  Ba9  1  0.25067747  0.00067530  0.51637692  1
  Ba2+  Ba10  1  0.25073466  0.25169751  0.00552441  1
  Ba2+  Ba11  1  0.25311242  0.25872524  0.51047886  1
  Ba2+  Ba12  1  0.25086606  0.49908783  0.02830205  1
  Ba2+  Ba13  1  0.24950773  0.49474099  0.50507657  1
  Ba2+  Ba14  1  0.25478239  0.74370071  0.01254601  1
  Ba2+  Ba15  1  0.24647773  0.74496765  0.51129253  1
  Ba2+  Ba16  1  0.49580738  -0.00403829  -0.00945217  1
  Ba2+  Ba17  1  0.50712303  0.00635216  0.51635818  1
  Ba2+  Ba18  1  0.49836703  0.25849196  0.00706421  1
  Ba2+  Ba19  1  0.49718520  0.24664950  0.51244681  1
  Ba2+  Ba20  1  0.50037176  0.49944820  0.02400148  1
  Ba2+  Ba21  1  0.49601379  0.50278304  0.51058291  1
  Ba2+  Ba22  1  0.49936821  0.74810468  0.00590895  1
  Ba2+  Ba23  1  0.50656859  0.74419826  0.51565926  1
  Ba2+  Ba24  1  0.75578255  -0.00059457  0.00824060  1
  Ba2+  Ba25  1  0.74396974  0.00598202  0.51750268  1
  Ba2+  Ba26  1  0.75373750  0.25512595  0.01194439  1
  Ba2+  Ba27  1  0.75194838  0.24445267  0.51877010  1
  Ba2+  Ba28  1  0.74676151  0.49716051  0.01142715  1
  Ba2+  Ba29  1  0.75296390  0.50478725  0.51681226  1
  Ba2+  Ba30  1  0.74811717  0.74825842  0.00604964  1
  Ba2+  Ba31  1  0.74512659  0.74409290  0.51608581  1
  Y3+  Y32  1  -0.00308975  0.00058822  0.25390526  1
  Y3+  Y33  1  -0.00033776  0.00221983  0.75949489  1
  Y3+  Y34  1  -0.00058557  0.25184606  0.25539201  1
  Y3+  Y35  1  -0.00105026  0.24993226  0.75833623  1
  Y3+  Y36  1  0.00305915  0.49827244  0.25887888  1
  Y3+  Y37  1  -0.00150483  0.49850245  0.75400444  1
  Y3+  Y38  1  0.00009842  0.74945824  0.25597869  1
  Y3+  Y39  1  -0.00052859  0.74895527  0.75718140  1
  Y3+  Y40  1  0.24968718  0.00028737  0.25966263  1
  Y3+  Y41  1  0.25104438  0.00144449  0.75630545  1
  Y3+  Y42  1  0.24985826  0.25442206  0.26031585  1
  Y3+  Y43  1  0.25146320  0.25109003  0.75391966  1
  Y3+  Y44  1  0.24915450  0.49765238  0.26254699  1
  Y3+  Y45  1  0.25132815  0.49750991  0.74946207  1
  Y3+  Y46  1  0.24902000  0.74733773  0.25727976  1
  Y3+  Y47  1  0.25093927  0.75007494  0.75655995  1
  Y3+  Y48  1  0.50233785  0.00178345  0.26108727  1
  Y3+  Y49  1  0.50131837  0.00069733  0.75562003  1
  Y3+  Y50  1  0.50117333  0.25224493  0.25961115  1
  Y3+  Y51  1  0.49979388  0.25056859  0.75642509  1
  Y3+  Y52  1  0.50085756  0.49874764  0.26048687  1
  Y3+  Y53  1  0.50062318  0.49950954  0.75295167  1
  Y3+  Y54  1  0.50186514  0.74666542  0.25798179  1
  Y3+  Y55  1  0.50186686  0.74951464  0.75593999  1
  Y3+  Y56  1  0.75071769  0.00182951  0.25602369  1
  Y3+  Y57  1  0.74878316  0.00174676  0.75905216  1
  Y3+  Y58  1  0.74913421  0.24980678  0.25432334  1
  Y3+  Y59  1  0.75018825  0.24985656  0.76062616  1
  Y3+  Y60  1  0.74658526  0.49929661  0.25647243  1
  Y3+  Y61  1  0.74996385  0.50034243  0.75715826  1
  Y3+  Y62  1  0.74833325  0.74894111  0.25697170  1
  Y3+  Y63  1  0.74826124  0.74815789  0.75670765  1
  Fe3+  Fe64  1  0.12568256  0.62251800  0.87685538  1
  Fe3+  Fe65  1  0.12530690  0.87432781  0.87908073  1
  Fe3+  Fe66  1  0.87525809  0.37647146  0.87577485  1
  Fe3+  Fe67  1  0.12391497  0.87566323  0.37824552  1
  Fe3+  Fe68  1  0.12610322  0.37625642  0.87563200  1
  Fe3+  Fe69  1  0.87495900  0.62459546  0.37650241  1
  Fe3+  Fe70  1  0.37436778  0.62259258  0.87434777  1
  Fe3+  Fe71  1  0.62486658  0.12633362  0.87976537  1
  Fe3+  Fe72  1  0.87482982  0.87391894  0.87562902  1
  Fe3+  Fe73  1  0.37493023  0.12498745  0.37987379  1
  Fe3+  Fe74  1  0.37595334  0.87465332  0.38208846  1
  Fe3+  Fe75  1  0.87415906  0.87498314  0.38036997  1
  Fe3+  Fe76  1  0.37497721  0.37766651  0.87459170  1
  Fe3+  Fe77  1  0.87483434  0.12545733  0.37679720  1
  Fe3+  Fe78  1  0.12354023  0.12587144  0.38120514  1
  Fe3+  Fe79  1  0.87368570  0.37476746  0.37615093  1
  Fe3+  Fe80  1  0.62581010  0.87520730  0.37926388  1
  Fe3+  Fe81  1  0.37495837  0.62560071  0.37726655  1
  Fe3+  Fe82  1  0.62601130  0.37423813  0.38072003  1
  Fe3+  Fe83  1  0.62418443  0.62312166  0.87583117  1
  Fe3+  Fe84  1  0.12526146  0.62410586  0.63776716  1
  Fe3+  Fe85  1  0.37519622  0.87617715  0.13908713  1
  Fe3+  Fe86  1  0.37540298  0.12493380  0.13876648  1
  Fe3+  Fe87  1  0.12561197  0.87593558  0.13325421  1
  Fe3+  Fe88  1  0.87387627  0.62421880  0.13842239  1
  Fe3+  Fe89  1  0.62393473  0.87560016  0.13641252  1
  Fe3+  Fe90  1  0.87426582  0.87473300  0.63554317  1
  Fe3+  Fe91  1  0.12684032  0.12514082  0.13770958  1
  Fe3+  Fe92  1  0.37590440  0.87442442  0.63562107  1
  Fe3+  Fe93  1  0.62332692  0.12492211  0.13391872  1
  Fe3+  Fe94  1  0.12480723  0.12611080  0.63629852  1
  Fe3+  Fe95  1  0.62577691  0.37447253  0.63529210  1
  Cu2+  Cu96  1  0.37611025  0.37472041  0.37342455  1
  Cu2+  Cu97  1  0.87475077  0.12613943  0.87253969  1
  Cu2+  Cu98  1  0.62641169  0.12606726  0.37244788  1
  Cu2+  Cu99  1  0.62581359  0.62433238  0.37355682  1
  Cu2+  Cu100  1  0.12341574  0.37383002  0.37346811  1
  Cu2+  Cu101  1  0.37576340  0.12672930  0.85919413  1
  Cu2+  Cu102  1  0.37485234  0.87349295  0.85854268  1
  Cu2+  Cu103  1  0.87547499  0.62422212  0.86259820  1
  Cu2+  Cu104  1  0.62522801  0.87450647  0.86353552  1
  Cu2+  Cu105  1  0.12548981  0.12654178  0.86190079  1
  Cu2+  Cu106  1  0.12426714  0.62529476  0.36274776  1
  Cu2+  Cu107  1  0.62396737  0.37625918  0.87175313  1
  Cu2+  Cu108  1  0.12493877  0.62487495  0.15222948  1
  Cu2+  Cu109  1  0.87450489  0.12560783  0.14026488  1
  Cu2+  Cu110  1  0.37627550  0.37489859  0.63955728  1
  Cu2+  Cu111  1  0.87521423  0.12480012  0.65344882  1
  Cu2+  Cu112  1  0.62508057  0.62370366  0.64258910  1
  Cu2+  Cu113  1  0.12458775  0.37455509  0.64096332  1
  Cu2+  Cu114  1  0.62568916  0.87510321  0.65093439  1
  Cu2+  Cu115  1  0.62450996  0.62513348  0.15117971  1
  Cu2+  Cu116  1  0.87396011  0.37486004  0.65139003  1
  Cu2+  Cu117  1  0.62457148  0.37445926  0.14160872  1
  Cu2+  Cu118  1  0.37494176  0.37451868  0.15613234  1
  Cu2+  Cu119  1  0.87563034  0.62509886  0.65169935  1
  Cu2+  Cu120  1  0.62535067  0.12642267  0.64737251  1
  Cu2+  Cu121  1  0.37508822  0.12498259  0.65014272  1
  Cu2+  Cu122  1  0.37532818  0.62482811  0.15592316  1
  Cu2+  Cu123  1  0.12528277  0.37421504  0.15231772  1
  Cu2+  Cu124  1  0.37483993  0.62535159  0.64725105  1
  Cu2+  Cu125  1  0.12455557  0.87510634  0.65126048  1
  Cu2+  Cu126  1  0.87451799  0.87413033  0.14967862  1
  Cu2+  Cu127  1  0.87504101  0.37603162  0.15186774  1
  O2-  O128  1  0.12847699  0.12433227  0.01765033  1
  O2-  O129  1  0.12324274  0.12499146  0.50762161  1
  O2-  O130  1  0.12697908  0.37669826  -0.00426202  1
  O2-  O131  1  0.12327626  0.37381900  0.50670313  1
  O2-  O132  1  0.12683220  0.62278855  -0.00302270  1
  O2-  O133  1  0.12395442  0.62584776  0.51702196  1
  O2-  O134  1  0.12690653  0.87571566  0.00654748  1
  O2-  O135  1  0.12270343  0.87538849  0.49792441  1
  O2-  O136  1  0.37440882  0.12314100  0.01927419  1
  O2-  O137  1  0.37468968  0.12332121  0.50016837  1
  O2-  O138  1  0.37354400  0.37852929  -0.00520357  1
  O2-  O139  1  0.37656571  0.37446382  0.50624526  1
  O2-  O140  1  0.37453971  0.62217171  -0.00554204  1
  O2-  O141  1  0.37441891  0.62843097  0.49750156  1
  O2-  O142  1  0.37405394  0.87655473  0.01928855  1
  O2-  O143  1  0.37553708  0.87446237  0.50732814  1
  O2-  O144  1  0.62244319  0.12450498  0.00743711  1
  O2-  O145  1  0.62634654  0.12612538  0.50774247  1
  O2-  O146  1  0.62324513  0.37571548  0.00740747  1
  O2-  O147  1  0.62733887  0.37353354  0.50750799  1
  O2-  O148  1  0.62294026  0.62397081  -0.00367215  1
  O2-  O149  1  0.62610054  0.62410838  0.50712848  1
  O2-  O150  1  0.62205656  0.87522656  0.01633367  1
  O2-  O151  1  0.62671207  0.87529784  0.49936737  1
  O2-  O152  1  0.87518048  0.12563318  0.00671466  1
  O2-  O153  1  0.87524621  0.12431965  0.49688963  1
  O2-  O154  1  0.87695449  0.37703562  -0.00370490  1
  O2-  O155  1  0.87287038  0.37442147  0.49620735  1
  O2-  O156  1  0.87422267  0.62536534  0.01794839  1
  O2-  O157  1  0.87581606  0.62559236  0.49666785  1
  O2-  O158  1  0.87580298  0.87315292  -0.00395553  1
  O2-  O159  1  0.87464072  0.87520027  0.50619279  1
  O2-  O160  1  0.12532786  -0.00131485  0.16752924  1
  O2-  O161  1  0.12491084  0.00158481  0.66440949  1
  O2-  O162  1  0.12554136  0.24972872  0.16647702  1
  O2-  O163  1  0.12413761  0.24748571  0.66389748  1
  O2-  O164  1  0.12486440  0.49898698  0.16583897  1
  O2-  O165  1  0.12459230  0.50087303  0.66248096  1
  O2-  O166  1  0.12568081  0.75238719  0.16149411  1
  O2-  O167  1  0.12478764  0.74971097  0.66735755  1
  O2-  O168  1  0.37490502  0.00017341  0.17359118  1
  O2-  O169  1  0.37498189  -0.00189932  0.66341594  1
  O2-  O170  1  0.37473910  0.24946449  0.16587599  1
  O2-  O171  1  0.37582046  0.24858844  0.66533066  1
  O2-  O172  1  0.37510912  0.49990064  0.16633744  1
  O2-  O173  1  0.37503618  0.50148170  0.65857578  1
  O2-  O174  1  0.37423568  0.75061127  0.16548569  1
  O2-  O175  1  0.37513894  0.75196000  0.66349879  1
  O2-  O176  1  0.62419450  0.00127823  0.16648180  1
  O2-  O177  1  0.62574983  0.00006207  0.66724884  1
  O2-  O178  1  0.62447204  0.24695356  0.16356704  1
  O2-  O179  1  0.62571230  0.25257219  0.66676982  1
  O2-  O180  1  0.62402716  0.50127757  0.16633876  1
  O2-  O181  1  0.62629214  0.49700115  0.66124302  1
  O2-  O182  1  0.62482681  0.75053453  0.16520094  1
  O2-  O183  1  0.62518631  0.75033324  0.66496967  1
  O2-  O184  1  0.87509338  -0.00179979  0.16554041  1
  O2-  O185  1  0.87477312  -0.00168400  0.66319072  1
  O2-  O186  1  0.87493970  0.25279546  0.16309875  1
  O2-  O187  1  0.87515837  0.24922362  0.66488354  1
  O2-  O188  1  0.87535136  0.50011449  0.16620852  1
  O2-  O189  1  0.87480439  0.50031336  0.66157458  1
  O2-  O190  1  0.87474175  0.74900125  0.16776767  1
  O2-  O191  1  0.87552579  0.75169401  0.66192465  1
  O2-  O192  1  0.00229910  0.12463946  0.16545244  1
  O2-  O193  1  0.00103734  0.12367536  0.66372647  1
  O2-  O194  1  -0.00034039  0.37492085  0.16353484  1
  O2-  O195  1  -0.00240701  0.37468268  0.66330831  1
  O2-  O196  1  -0.00023277  0.62571704  0.16475298  1
  O2-  O197  1  0.00057563  0.62589816  0.66619265  1
  O2-  O198  1  0.00205556  0.87481672  0.16201750  1
  O2-  O199  1  -0.00230147  0.87557831  0.66400243  1
  O2-  O200  1  0.25043218  0.12475243  0.17349050  1
  O2-  O201  1  0.24827050  0.12416344  0.66202041  1
  O2-  O202  1  0.25043352  0.37503622  0.16819461  1
  O2-  O203  1  0.25053139  0.37396125  0.66107122  1
  O2-  O204  1  0.24969236  0.62532972  0.16641298  1
  O2-  O205  1  0.24966303  0.62654791  0.66376842  1
  O2-  O206  1  0.24890551  0.87516341  0.16920193  1
  O2-  O207  1  0.25166278  0.87529339  0.66241694  1
  O2-  O208  1  0.50056992  0.12497283  0.16914159  1
  O2-  O209  1  0.49945682  0.12456282  0.66619099  1
  O2-  O210  1  0.49831067  0.37462917  0.16875574  1
  O2-  O211  1  0.50310494  0.37460418  0.66207875  1
  O2-  O212  1  0.49995378  0.62538896  0.16612977  1
  O2-  O213  1  0.49864995  0.62527485  0.66268098  1
  O2-  O214  1  0.49983263  0.87486009  0.17198259  1
  O2-  O215  1  0.49944339  0.87548979  0.66219610  1
  O2-  O216  1  0.74684546  0.12425870  0.16067827  1
  O2-  O217  1  0.75160726  0.12511107  0.66834265  1
  O2-  O218  1  0.75151874  0.37560169  0.16350556  1
  O2-  O219  1  0.74918632  0.37419153  0.66476735  1
  O2-  O220  1  0.74958729  0.62481627  0.16503994  1
  O2-  O221  1  0.75181683  0.62541626  0.66528577  1
  O2-  O222  1  0.74841352  0.87554587  0.16511477  1
  O2-  O223  1  0.75156414  0.87497685  0.66289451  1
  O2-  O224  1  0.12430383  0.00098948  0.34871313  1
  O2-  O225  1  0.12543601  -0.00116648  0.85013684  1
  O2-  O226  1  0.12424827  0.24608983  0.34893982  1
  O2-  O227  1  0.12617907  0.25122289  0.84689206  1
  O2-  O228  1  0.12451958  0.50085757  0.35081229  1
  O2-  O229  1  0.12508621  0.49956339  0.84098027  1
  O2-  O230  1  0.12419474  0.75210696  0.34541364  1
  O2-  O231  1  0.12542097  0.75068021  0.84977924  1
  O2-  O232  1  0.37401741  -0.00156494  0.35155713  1
  O2-  O233  1  0.37466494  -0.00023381  0.84858868  1
  O2-  O234  1  0.37477300  0.24746824  0.34797758  1
  O2-  O235  1  0.37464634  0.25161546  0.84845454  1
  O2-  O236  1  0.37454286  0.50171218  0.34991131  1
  O2-  O237  1  0.37470522  0.50037658  0.83807273  1
  O2-  O238  1  0.37456675  0.75227782  0.34709726  1
  O2-  O239  1  0.37440068  0.74852232  0.84678043  1
  O2-  O240  1  0.62637230  -0.00190578  0.34722032  1
  O2-  O241  1  0.62413517  0.00139981  0.85141682  1
  O2-  O242  1  0.62560761  0.25265418  0.34719382  1
  O2-  O243  1  0.62441770  0.24791133  0.85064379  1
  O2-  O244  1  0.62580433  0.49666769  0.35000155  1
  O2-  O245  1  0.62480159  0.50170797  0.84240444  1
  O2-  O246  1  0.62509629  0.75237884  0.34684788  1
  O2-  O247  1  0.62500832  0.74876046  0.84785566  1
  O2-  O248  1  0.87513439  -0.00143828  0.34803260  1
  O2-  O249  1  0.87592762  -0.00177362  0.84704831  1
  O2-  O250  1  0.87525444  0.24972465  0.34422607  1
  O2-  O251  1  0.87513512  0.25234895  0.84758399  1
  O2-  O252  1  0.87469328  0.49973350  0.34668465  1
  O2-  O253  1  0.87563502  0.49964775  0.84436323  1
  O2-  O254  1  0.87626021  0.75179577  0.34922797  1
  O2-  O255  1  0.87562137  0.75028818  0.84524644  1
  O2-  O256  1  0.00020057  0.12346256  0.34716239  1
  O2-  O257  1  0.00134583  0.12509451  0.84777783  1
  O2-  O258  1  -0.00248412  0.37459732  0.34646831  1
  O2-  O259  1  0.00090893  0.37490835  0.84471021  1
  O2-  O260  1  -0.00074047  0.62598961  0.34629681  1
  O2-  O261  1  0.00113493  0.62591002  0.84800234  1
  O2-  O262  1  -0.00186358  0.87588498  0.34645532  1
  O2-  O263  1  0.00200779  0.87486121  0.84767148  1
  O2-  O264  1  0.24823762  0.12319248  0.35347228  1
  O2-  O265  1  0.25105378  0.12443927  0.84662720  1
  O2-  O266  1  0.24967339  0.37439126  0.35233361  1
  O2-  O267  1  0.25038681  0.37485873  0.84139041  1
  O2-  O268  1  0.24964032  0.62669690  0.34957296  1
  O2-  O269  1  0.24963238  0.62583274  0.84311108  1
  O2-  O270  1  0.25089528  0.87558315  0.35152647  1
  O2-  O271  1  0.24807569  0.87574962  0.84752851  1
  O2-  O272  1  0.49843641  0.12385210  0.35018279  1
  O2-  O273  1  0.50130397  0.12454844  0.84992695  1
  O2-  O274  1  0.50321801  0.37459746  0.35198535  1
  O2-  O275  1  0.49784793  0.37508463  0.84424870  1
  O2-  O276  1  0.49861193  0.62550993  0.34889989  1
  O2-  O277  1  0.49940908  0.62560383  0.84353441  1
  O2-  O278  1  0.49889586  0.87600609  0.35208520  1
  O2-  O279  1  0.49944537  0.87461799  0.84732029  1
  O2-  O280  1  0.75278545  0.12495121  0.34326998  1
  O2-  O281  1  0.74703877  0.12444368  0.85159040  1
  O2-  O282  1  0.74911672  0.37424634  0.34535522  1
  O2-  O283  1  0.75120716  0.37572153  0.84814529  1
  O2-  O284  1  0.75238727  0.62602131  0.34592118  1
  O2-  O285  1  0.74983813  0.62516922  0.84848655  1
  O2-  O286  1  0.75193114  0.87477037  0.34756751  1
  O2-  O287  1  0.75072441  0.87475482  0.84646925  1
