# generated using pymatgen
data_BaYFeCuO5
_symmetry_space_group_name_H-M   'P 1'
_cell_length_a   15.66055043
_cell_length_b   15.65897491
_cell_length_c   15.46244091
_cell_angle_alpha   90.00256969
_cell_angle_beta   89.99120901
_cell_angle_gamma   90.00145223
_symmetry_Int_Tables_number   1
_chemical_formula_structural   BaYFeCuO5
_chemical_formula_sum   'Ba32 Y32 Fe32 Cu32 O160'
_cell_volume   3791.82597987
_cell_formula_units_Z   32
loop_
 _symmetry_equiv_pos_site_id
 _symmetry_equiv_pos_as_xyz
  1  'x, y, z'
loop_
 _atom_type_symbol
 _atom_type_oxidation_number
  Ba2+  2.0
  Y3+  3.0
  Fe3+  3.0
  Cu2+  2.0
  O2-  -2.0
loop_
 _atom_site_type_symbol
 _atom_site_label
 _atom_site_symmetry_multiplicity
 _atom_site_fract_x
 _atom_site_fract_y
 _atom_site_fract_z
 _atom_site_occupancy
  Ba2+  Ba0  1  -0.00036729  0.00766598  0.00567133  1
  Ba2+  Ba1  1  -0.00507179  -0.00246451  0.51105208  1
  Ba2+  Ba2  1  -0.00480293  0.25009051  -0.00354510  1
  Ba2+  Ba3  1  -0.00150613  0.25004711  0.51773488  1
  Ba2+  Ba4  1  -0.00591781  0.49297538  0.00669522  1
  Ba2+  Ba5  1  0.00240062  0.50033104  0.51606107  1
  Ba2+  Ba6  1  -0.00052473  0.74993277  0.01760770  1
  Ba2+  Ba7  1  0.00026623  0.75220327  0.51060217  1
  Ba2+  Ba8  1  0.24006971  -0.00089537  0.00735211  1
  Ba2+  Ba9  1  0.23804857  -0.00174930  0.51173306  1
  Ba2+  Ba10  1  0.23961905  0.25006447  -0.00432696  1
  Ba2+  Ba11  1  0.24221850  0.25744768  0.50685949  1
  Ba2+  Ba12  1  0.24852966  0.50005430  0.00702027  1
  Ba2+  Ba13  1  0.24338314  0.50027715  0.50579914  1
  Ba2+  Ba14  1  0.25017824  0.74941687  0.01791436  1
  Ba2+  Ba15  1  0.24036164  0.74538300  0.50994923  1
  Ba2+  Ba16  1  0.50870161  -0.00184807  0.00624119  1
  Ba2+  Ba17  1  0.51098350  0.00054484  0.51724612  1
  Ba2+  Ba18  1  0.50542614  0.24605460  0.01183232  1
  Ba2+  Ba19  1  0.50607061  0.25558233  0.51270409  1
  Ba2+  Ba20  1  0.50050475  0.50894292  0.01783880  1
  Ba2+  Ba21  1  0.50335265  0.50275227  0.51068206  1
  Ba2+  Ba22  1  0.50413212  0.74633501  0.01219379  1
  Ba2+  Ba23  1  0.50712059  0.74283556  0.51414096  1
  Ba2+  Ba24  1  0.75125416  0.00682353  0.00741578  1
  Ba2+  Ba25  1  0.75649028  -0.00013549  0.51555721  1
  Ba2+  Ba26  1  0.76005320  0.24733347  0.01054687  1
  Ba2+  Ba27  1  0.75314710  0.24781107  0.52147096  1
  Ba2+  Ba28  1  0.75761575  0.50150074  0.01632503  1
  Ba2+  Ba29  1  0.74929396  0.50149110  0.52010571  1
  Ba2+  Ba30  1  0.74727718  0.74614391  0.01253354  1
  Ba2+  Ba31  1  0.75199912  0.74995553  0.51588049  1
  Y3+  Y32  1  -0.00245847  -0.00063224  0.26130569  1
  Y3+  Y33  1  -0.00147275  0.00176171  0.75446191  1
  Y3+  Y34  1  -0.00340656  0.24966271  0.25881503  1
  Y3+  Y35  1  -0.00158744  0.25016113  0.75769759  1
  Y3+  Y36  1  -0.00027482  0.49925607  0.25884250  1
  Y3+  Y37  1  -0.00030279  0.49734773  0.75579986  1
  Y3+  Y38  1  0.00045225  0.75194422  0.26226825  1
  Y3+  Y39  1  -0.00033848  0.75025868  0.75140079  1
  Y3+  Y40  1  0.24732841  -0.00160150  0.25975780  1
  Y3+  Y41  1  0.24643954  -0.00050492  0.75542384  1
  Y3+  Y42  1  0.24894919  0.25267474  0.26202275  1
  Y3+  Y43  1  0.24496818  0.25082396  0.75543659  1
  Y3+  Y44  1  0.24859999  0.49954329  0.26148207  1
  Y3+  Y45  1  0.24713945  0.50050949  0.75388525  1
  Y3+  Y46  1  0.24689430  0.74987312  0.26098347  1
  Y3+  Y47  1  0.24829669  0.74851724  0.75221897  1
  Y3+  Y48  1  0.50092515  0.00084441  0.25680734  1
  Y3+  Y49  1  0.50260626  -0.00174416  0.75707422  1
  Y3+  Y50  1  0.50013693  0.25079057  0.25748555  1
  Y3+  Y51  1  0.50188546  0.25042825  0.75681099  1
  Y3+  Y52  1  0.50033720  0.50182797  0.25901896  1
  Y3+  Y53  1  0.50132783  0.50192769  0.75374421  1
  Y3+  Y54  1  0.50098161  0.74661501  0.25809213  1
  Y3+  Y55  1  0.50226461  0.74909611  0.75435454  1
  Y3+  Y56  1  0.75415349  0.00216170  0.25838410  1
  Y3+  Y57  1  0.75226985  -0.00013659  0.75570042  1
  Y3+  Y58  1  0.75442900  0.24792977  0.25425590  1
  Y3+  Y59  1  0.75451971  0.24982838  0.75818724  1
  Y3+  Y60  1  0.75189959  0.50161360  0.25538234  1
  Y3+  Y61  1  0.75202886  0.49911388  0.75577181  1
  Y3+  Y62  1  0.75130487  0.74863598  0.25931022  1
  Y3+  Y63  1  0.74983747  0.75108332  0.75391195  1
  Fe3+  Fe64  1  0.62747484  0.37543344  0.37482719  1
  Fe3+  Fe65  1  0.87584170  0.62596483  0.87556884  1
  Fe3+  Fe66  1  0.37479702  0.87404611  0.87885854  1
  Fe3+  Fe67  1  0.12278783  0.12564720  0.37912791  1
  Fe3+  Fe68  1  0.62578253  0.37625423  0.87974693  1
  Fe3+  Fe69  1  0.87415376  0.37475774  0.37834257  1
  Fe3+  Fe70  1  0.87481291  0.62447799  0.37762753  1
  Fe3+  Fe71  1  0.87464660  0.87439087  0.87903206  1
  Fe3+  Fe72  1  0.37570583  0.37555930  0.88021881  1
  Fe3+  Fe73  1  0.37451568  0.62555789  0.87597749  1
  Fe3+  Fe74  1  0.12416062  0.62530954  0.87880374  1
  Fe3+  Fe75  1  0.37600674  0.87505679  0.38084286  1
  Fe3+  Fe76  1  0.37437230  0.12424475  0.87927826  1
  Fe3+  Fe77  1  0.62605445  0.12520634  0.87491674  1
  Fe3+  Fe78  1  0.37480772  0.62492987  0.37789763  1
  Fe3+  Fe79  1  0.62600657  0.62481186  0.87526975  1
  Fe3+  Fe80  1  0.12390816  0.87329014  0.87643348  1
  Fe3+  Fe81  1  0.62679301  0.12589818  0.37647577  1
  Fe3+  Fe82  1  0.62614060  0.87469366  0.37719993  1
  Fe3+  Fe83  1  0.37535771  0.12530876  0.38149484  1
  Fe3+  Fe84  1  0.37326532  0.12486808  0.13426071  1
  Fe3+  Fe85  1  0.62637404  0.87539580  0.13791556  1
  Fe3+  Fe86  1  0.12396452  0.37382114  0.13821929  1
  Fe3+  Fe87  1  0.12423432  0.62421666  0.13648011  1
  Fe3+  Fe88  1  0.12421359  0.12586216  0.13980350  1
  Fe3+  Fe89  1  0.62627879  0.37485323  0.13402578  1
  Fe3+  Fe90  1  0.37379935  0.37488808  0.13474476  1
  Fe3+  Fe91  1  0.37488045  0.87432036  0.63371106  1
  Fe3+  Fe92  1  0.37454449  0.37575311  0.63755822  1
  Fe3+  Fe93  1  0.37473315  0.87523788  0.13516182  1
  Fe3+  Fe94  1  0.37434877  0.12550972  0.63507302  1
  Fe3+  Fe95  1  0.87580154  0.87550290  0.13537681  1
  Cu2+  Cu96  1  0.87504672  0.12406736  0.87017711  1
  Cu2+  Cu97  1  0.12488928  0.37614358  0.86306615  1
  Cu2+  Cu98  1  0.12273262  0.37501994  0.37285014  1
  Cu2+  Cu99  1  0.12459094  0.12419629  0.86019672  1
  Cu2+  Cu100  1  0.87381861  0.87500830  0.37209607  1
  Cu2+  Cu101  1  0.12324520  0.62445392  0.37103387  1
  Cu2+  Cu102  1  0.62669133  0.62439805  0.37187451  1
  Cu2+  Cu103  1  0.87414383  0.37593217  0.87128311  1
  Cu2+  Cu104  1  0.87440248  0.12561577  0.37423113  1
  Cu2+  Cu105  1  0.37609718  0.37519455  0.36675895  1
  Cu2+  Cu106  1  0.62576622  0.87407916  0.86407596  1
  Cu2+  Cu107  1  0.12395355  0.87554925  0.37357457  1
  Cu2+  Cu108  1  0.12448007  0.87561485  0.15179902  1
  Cu2+  Cu109  1  0.62544139  0.87509612  0.65048482  1
  Cu2+  Cu110  1  0.87534886  0.62459354  0.64987723  1
  Cu2+  Cu111  1  0.87674366  0.62596890  0.15100239  1
  Cu2+  Cu112  1  0.87521159  0.87470227  0.64257314  1
  Cu2+  Cu113  1  0.62522473  0.12498765  0.15038754  1
  Cu2+  Cu114  1  0.87508363  0.37514800  0.64937800  1
  Cu2+  Cu115  1  0.62561646  0.37461394  0.65347978  1
  Cu2+  Cu116  1  0.37343651  0.62496018  0.15197361  1
  Cu2+  Cu117  1  0.12455124  0.12525348  0.64998895  1
  Cu2+  Cu118  1  0.62615190  0.62441439  0.64217417  1
  Cu2+  Cu119  1  0.62588170  0.62505242  0.15248645  1
  Cu2+  Cu120  1  0.87635745  0.37427966  0.14179663  1
  Cu2+  Cu121  1  0.62538523  0.12534245  0.65301914  1
  Cu2+  Cu122  1  0.12406468  0.87506321  0.64253019  1
  Cu2+  Cu123  1  0.87567857  0.12491352  0.64368147  1
  Cu2+  Cu124  1  0.12392530  0.62430716  0.64249438  1
  Cu2+  Cu125  1  0.37447770  0.62470315  0.64601737  1
  Cu2+  Cu126  1  0.87704101  0.12441740  0.14215659  1
  Cu2+  Cu127  1  0.12427358  0.37504492  0.64366239  1
  O2-  O128  1  0.12592898  0.12601798  0.01872026  1
  O2-  O129  1  0.12465286  0.12574823  0.49990302  1
  O2-  O130  1  0.12600037  0.37454956  0.01779702  1
  O2-  O131  1  0.12373315  0.37557408  0.50826458  1
  O2-  O132  1  0.12508716  0.62542852  0.00681955  1
  O2-  O133  1  0.12360178  0.62387885  0.50711472  1
  O2-  O134  1  0.12596882  0.87195418  -0.00315756  1
  O2-  O135  1  0.12489115  0.87524272  0.50701179  1
  O2-  O136  1  0.37375065  0.12365533  0.00713050  1
  O2-  O137  1  0.37566034  0.12572871  0.50783190  1
  O2-  O138  1  0.37459453  0.37478153  0.00730698  1
  O2-  O139  1  0.37615074  0.37400470  0.51694371  1
  O2-  O140  1  0.37476895  0.62683798  -0.00385945  1
  O2-  O141  1  0.37556488  0.62470225  0.49845247  1
  O2-  O142  1  0.37440160  0.87501257  0.00657918  1
  O2-  O143  1  0.37638820  0.87537590  0.50671264  1
  O2-  O144  1  0.62369761  0.12441840  -0.00407539  1
  O2-  O145  1  0.62465134  0.12707206  0.49675797  1
  O2-  O146  1  0.62443844  0.37632711  0.00578415  1
  O2-  O147  1  0.62656255  0.37467897  0.49539017  1
  O2-  O148  1  0.62455708  0.62499355  -0.00395539  1
  O2-  O149  1  0.62606863  0.62361198  0.50665939  1
  O2-  O150  1  0.62496482  0.87427794  0.01718696  1
  O2-  O151  1  0.62461855  0.87521113  0.49787028  1
  O2-  O152  1  0.87651685  0.12356854  0.00646656  1
  O2-  O153  1  0.87413820  0.12575952  0.50861311  1
  O2-  O154  1  0.87462774  0.37507664  0.00588811  1
  O2-  O155  1  0.87219296  0.37525793  0.49873930  1
  O2-  O156  1  0.87591553  0.62701382  -0.00401842  1
  O2-  O157  1  0.87434624  0.62386047  0.49794093  1
  O2-  O158  1  0.87528646  0.87478660  0.00693804  1
  O2-  O159  1  0.87336746  0.87445000  0.50787775  1
  O2-  O160  1  0.12767980  0.00040111  0.16582995  1
  O2-  O161  1  0.12579622  0.00112585  0.66604816  1
  O2-  O162  1  0.12615243  0.25014977  0.17057638  1
  O2-  O163  1  0.12558146  0.24904250  0.66596182  1
  O2-  O164  1  0.12672802  0.50022626  0.16440584  1
  O2-  O165  1  0.12466327  0.49983132  0.66773002  1
  O2-  O166  1  0.12544781  0.74916493  0.16336277  1
  O2-  O167  1  0.12537366  0.74981690  0.66445381  1
  O2-  O168  1  0.37406065  0.00021304  0.16368829  1
  O2-  O169  1  0.37571076  0.00024981  0.66364178  1
  O2-  O170  1  0.37607494  0.24997977  0.16308971  1
  O2-  O171  1  0.37519615  0.24859951  0.66887121  1
  O2-  O172  1  0.37383876  0.49794596  0.16096022  1
  O2-  O173  1  0.37550032  0.49940988  0.66787839  1
  O2-  O174  1  0.37549027  0.75203610  0.16234728  1
  O2-  O175  1  0.37521961  0.75159056  0.66193337  1
  O2-  O176  1  0.62458261  -0.00031709  0.16576829  1
  O2-  O177  1  0.62342261  0.00041497  0.66453726  1
  O2-  O178  1  0.62178735  0.25106293  0.15972105  1
  O2-  O179  1  0.62412302  0.24994640  0.66714046  1
  O2-  O180  1  0.62509360  0.49896270  0.16093713  1
  O2-  O181  1  0.62469368  0.49851211  0.66573322  1
  O2-  O182  1  0.62351209  0.75045643  0.16542513  1
  O2-  O183  1  0.62487731  0.75087673  0.66424238  1
  O2-  O184  1  0.87477401  -0.00285467  0.16531823  1
  O2-  O185  1  0.87496794  0.00021780  0.66702428  1
  O2-  O186  1  0.87644022  0.24934219  0.16488926  1
  O2-  O187  1  0.87478872  0.25106466  0.66643601  1
  O2-  O188  1  0.87481686  0.50176295  0.16189576  1
  O2-  O189  1  0.87509274  0.50042339  0.66431749  1
  O2-  O190  1  0.87659849  0.75198787  0.16282317  1
  O2-  O191  1  0.87464433  0.74786046  0.66422384  1
  O2-  O192  1  0.00245940  0.12329211  0.16841050  1
  O2-  O193  1  0.00104687  0.12542904  0.66614850  1
  O2-  O194  1  0.00191218  0.37584723  0.16675425  1
  O2-  O195  1  -0.00155530  0.37459636  0.66586017  1
  O2-  O196  1  0.00257043  0.62506433  0.16263607  1
  O2-  O197  1  -0.00220228  0.62470959  0.66585322  1
  O2-  O198  1  -0.00126351  0.87555725  0.16377762  1
  O2-  O199  1  -0.00012640  0.87495599  0.66634699  1
  O2-  O200  1  0.25153632  0.12534417  0.16845115  1
  O2-  O201  1  0.25202354  0.12443886  0.66484885  1
  O2-  O202  1  0.25100674  0.37414536  0.16729495  1
  O2-  O203  1  0.25155830  0.37460637  0.66847891  1
  O2-  O204  1  0.24761070  0.62614973  0.16386726  1
  O2-  O205  1  0.25058548  0.62482401  0.66657366  1
  O2-  O206  1  0.25198089  0.87487357  0.16479953  1
  O2-  O207  1  0.25312306  0.87574602  0.66426844  1
  O2-  O208  1  0.49694576  0.12392311  0.16246980  1
  O2-  O209  1  0.49803729  0.12522888  0.66423075  1
  O2-  O210  1  0.49931054  0.37552154  0.15977450  1
  O2-  O211  1  0.49953445  0.37397558  0.66765961  1
  O2-  O212  1  0.49897287  0.62436097  0.16333565  1
  O2-  O213  1  0.49929088  0.62502682  0.66415992  1
  O2-  O214  1  0.49872278  0.87643292  0.16383191  1
  O2-  O215  1  0.49806309  0.87556588  0.66478139  1
  O2-  O216  1  0.74955757  0.12523448  0.16169790  1
  O2-  O217  1  0.74880167  0.12492435  0.66560964  1
  O2-  O218  1  0.74789910  0.37381494  0.15908481  1
  O2-  O219  1  0.74995025  0.37489911  0.66525343  1
  O2-  O220  1  0.75137707  0.62674491  0.16119548  1
  O2-  O221  1  0.75227493  0.62459775  0.66465817  1
  O2-  O222  1  0.75150412  0.87382912  0.16287234  1
  O2-  O223  1  0.74885512  0.87534326  0.66634089  1
  O2-  O224  1  0.12575607  0.00241569  0.34778832  1
  O2-  O225  1  0.12628095  -0.00175314  0.84931317  1
  O2-  O226  1  0.12678789  0.24834213  0.34942102  1
  O2-  O227  1  0.12614018  0.24987320  0.85104133  1
  O2-  O228  1  0.12465604  0.49966932  0.34704205  1
  O2-  O229  1  0.12640419  0.50238921  0.85176235  1
  O2-  O230  1  0.12563051  0.75012232  0.34836245  1
  O2-  O231  1  0.12596965  0.74869791  0.84637720  1
  O2-  O232  1  0.37650725  0.00076841  0.34961802  1
  O2-  O233  1  0.37499326  -0.00037070  0.85067346  1
  O2-  O234  1  0.37520844  0.24774612  0.34892913  1
  O2-  O235  1  0.37577232  0.24970978  0.85484988  1
  O2-  O236  1  0.37560148  0.50063081  0.34589029  1
  O2-  O237  1  0.37482568  0.49921657  0.85083819  1
  O2-  O238  1  0.37494639  0.75146763  0.34720316  1
  O2-  O239  1  0.37485127  0.75093193  0.84613203  1
  O2-  O240  1  0.62279020  0.00058547  0.34624407  1
  O2-  O241  1  0.62371703  -0.00006177  0.84850550  1
  O2-  O242  1  0.62468973  0.25000424  0.34180203  1
  O2-  O243  1  0.62277064  0.25146889  0.85060236  1
  O2-  O244  1  0.62442188  0.49819605  0.34378900  1
  O2-  O245  1  0.62397141  0.49962246  0.84780787  1
  O2-  O246  1  0.62458879  0.75149010  0.34693363  1
  O2-  O247  1  0.62389518  0.74898322  0.84708695  1
  O2-  O248  1  0.87470054  0.00021236  0.34949140  1
  O2-  O249  1  0.87484579  -0.00311031  0.85058774  1
  O2-  O250  1  0.87349561  0.25148271  0.34687165  1
  O2-  O251  1  0.87515254  0.24969943  0.85027522  1
  O2-  O252  1  0.87499373  0.49949250  0.34411080  1
  O2-  O253  1  0.87499361  0.50264273  0.84726079  1
  O2-  O254  1  0.87433693  0.74884782  0.34641863  1
  O2-  O255  1  0.87535343  0.75093809  0.84658986  1
  O2-  O256  1  0.00054332  0.12534230  0.34899874  1
  O2-  O257  1  0.00121136  0.12419060  0.85002604  1
  O2-  O258  1  -0.00279776  0.37451672  0.34718120  1
  O2-  O259  1  0.00135583  0.37571538  0.85020304  1
  O2-  O260  1  -0.00222524  0.62536188  0.34530092  1
  O2-  O261  1  0.00160480  0.62553932  0.84878101  1
  O2-  O262  1  -0.00105583  0.87510752  0.34869998  1
  O2-  O263  1  -0.00087665  0.87434734  0.84938439  1
  O2-  O264  1  0.25191917  0.12437418  0.35106163  1
  O2-  O265  1  0.25209462  0.12455037  0.84950512  1
  O2-  O266  1  0.25090731  0.37527303  0.35090487  1
  O2-  O267  1  0.25224424  0.37438907  0.85194250  1
  O2-  O268  1  0.25119305  0.62492078  0.34744249  1
  O2-  O269  1  0.24907321  0.62539275  0.84896714  1
  O2-  O270  1  0.25404346  0.87622291  0.34978601  1
  O2-  O271  1  0.25092076  0.87501571  0.84775449  1
  O2-  O272  1  0.49887840  0.12589362  0.34664220  1
  O2-  O273  1  0.49837414  0.12435744  0.84777174  1
  O2-  O274  1  0.50144547  0.37401673  0.34391753  1
  O2-  O275  1  0.49981276  0.37481684  0.85100162  1
  O2-  O276  1  0.49846150  0.62515864  0.34700318  1
  O2-  O277  1  0.49972507  0.62519212  0.84547129  1
  O2-  O278  1  0.49876940  0.87520828  0.34607938  1
  O2-  O279  1  0.49777209  0.87535145  0.85027985  1
  O2-  O280  1  0.74843227  0.12469162  0.34478184  1
  O2-  O281  1  0.74830618  0.12475023  0.84774919  1
  O2-  O282  1  0.75056404  0.37545012  0.33995394  1
  O2-  O283  1  0.74645390  0.37511757  0.84896394  1
  O2-  O284  1  0.75216394  0.62435514  0.34406268  1
  O2-  O285  1  0.74996833  0.62577946  0.84600934  1
  O2-  O286  1  0.74784841  0.87602845  0.34423813  1
  O2-  O287  1  0.75187126  0.87413748  0.85089977  1
