# generated using pymatgen
data_BaYFeCuO5
_symmetry_space_group_name_H-M   'P 1'
_cell_length_a   15.67846965
_cell_length_b   15.68379381
_cell_length_c   15.50733513
_cell_angle_alpha   89.99734955
_cell_angle_beta   89.99693054
_cell_angle_gamma   90.00144724
_symmetry_Int_Tables_number   1
_chemical_formula_structural   BaYFeCuO5
_chemical_formula_sum   'Ba32 Y32 Fe32 Cu32 O160'
_cell_volume   3813.22090292
_cell_formula_units_Z   32
loop_
 _symmetry_equiv_pos_site_id
 _symmetry_equiv_pos_as_xyz
  1  'x, y, z'
loop_
 _atom_type_symbol
 _atom_type_oxidation_number
  Ba2+  2.0
  Y3+  3.0
  Fe3+  3.0
  Cu2+  2.0
  O2-  -2.0
loop_
 _atom_site_type_symbol
 _atom_site_label
 _atom_site_symmetry_multiplicity
 _atom_site_fract_x
 _atom_site_fract_y
 _atom_site_fract_z
 _atom_site_occupancy
  Ba2+  Ba0  1  0.00060366  0.00244824  0.00379787  1
  Ba2+  Ba1  1  0.00223544  -0.00044552  0.49307653  1
  Ba2+  Ba2  1  0.00076765  0.24781206  0.01144613  1
  Ba2+  Ba3  1  0.00620396  0.24506306  0.49910833  1
  Ba2+  Ba4  1  -0.01165553  0.49969746  0.01929597  1
  Ba2+  Ba5  1  0.00229567  0.50768425  0.50558336  1
  Ba2+  Ba6  1  -0.01106055  0.74965586  0.00652872  1
  Ba2+  Ba7  1  -0.00154518  0.74883724  0.50028196  1
  Ba2+  Ba8  1  0.25117358  0.00045816  0.00686036  1
  Ba2+  Ba9  1  0.25037065  -0.00132028  0.52217735  1
  Ba2+  Ba10  1  0.25124897  0.25026412  0.00634334  1
  Ba2+  Ba11  1  0.25182511  0.24999842  0.52114378  1
  Ba2+  Ba12  1  0.26203034  0.49798771  0.01005134  1
  Ba2+  Ba13  1  0.25190392  0.49997942  0.51906089  1
  Ba2+  Ba14  1  0.26149379  0.75146519  0.00978921  1
  Ba2+  Ba15  1  0.25121657  0.75117505  0.52013646  1
  Ba2+  Ba16  1  0.50346295  -0.00676140  0.01539709  1
  Ba2+  Ba17  1  0.49381589  -0.00499041  0.52209294  1
  Ba2+  Ba18  1  0.50490216  0.26003969  0.01036633  1
  Ba2+  Ba19  1  0.49546289  0.25614383  0.51715185  1
  Ba2+  Ba20  1  0.50550175  0.49913636  0.01042213  1
  Ba2+  Ba21  1  0.49956564  0.49961409  0.52159742  1
  Ba2+  Ba22  1  0.50312693  0.74779579  0.01478887  1
  Ba2+  Ba23  1  0.49842022  0.74912633  0.52566157  1
  Ba2+  Ba24  1  0.74529725  -0.00485913  0.01316494  1
  Ba2+  Ba25  1  0.75483425  -0.00495838  0.50075022  1
  Ba2+  Ba26  1  0.74410005  0.25777734  0.01886739  1
  Ba2+  Ba27  1  0.74609523  0.25299581  0.50261285  1
  Ba2+  Ba28  1  0.74408002  0.50068753  0.01852001  1
  Ba2+  Ba29  1  0.74536227  0.50483973  0.51168324  1
  Ba2+  Ba30  1  0.74510432  0.74508348  0.01248943  1
  Ba2+  Ba31  1  0.75169992  0.74742336  0.51181872  1
  Y3+  Y32  1  0.00039006  0.00212083  0.25626082  1
  Y3+  Y33  1  0.00056818  -0.00025466  0.76272514  1
  Y3+  Y34  1  0.00070697  0.24824114  0.25619506  1
  Y3+  Y35  1  0.00163383  0.24967062  0.76011846  1
  Y3+  Y36  1  -0.00193779  0.50213388  0.26035489  1
  Y3+  Y37  1  -0.00127371  0.49999133  0.75422759  1
  Y3+  Y38  1  -0.00210616  0.74797867  0.25973262  1
  Y3+  Y39  1  -0.00230257  0.74986476  0.75698200  1
  Y3+  Y40  1  0.25030283  0.00068256  0.25128389  1
  Y3+  Y41  1  0.25076058  -0.00042513  0.76347911  1
  Y3+  Y42  1  0.25059773  0.24912372  0.25200460  1
  Y3+  Y43  1  0.25099010  0.25068200  0.76211624  1
  Y3+  Y44  1  0.25281770  0.50074136  0.25334320  1
  Y3+  Y45  1  0.25196784  0.49776239  0.75893362  1
  Y3+  Y46  1  0.25256097  0.74973749  0.25258874  1
  Y3+  Y47  1  0.25203139  0.75190784  0.76031370  1
  Y3+  Y48  1  0.50055706  -0.00099172  0.25307517  1
  Y3+  Y49  1  0.49872502  -0.00221441  0.75875051  1
  Y3+  Y50  1  0.50157188  0.25296234  0.25546958  1
  Y3+  Y51  1  0.50020434  0.25447354  0.75850454  1
  Y3+  Y52  1  0.50120204  0.49914791  0.25323721  1
  Y3+  Y53  1  0.50293043  0.49845587  0.75967913  1
  Y3+  Y54  1  0.50021648  0.74888783  0.25076139  1
  Y3+  Y55  1  0.50141864  0.74895874  0.75939309  1
  Y3+  Y56  1  0.74930705  0.00066784  0.25895004  1
  Y3+  Y57  1  0.74936651  -0.00208391  0.75668782  1
  Y3+  Y58  1  0.74683082  0.25257918  0.26031149  1
  Y3+  Y59  1  0.74750290  0.25265419  0.75480192  1
  Y3+  Y60  1  0.74764840  0.50048020  0.25999177  1
  Y3+  Y61  1  0.74617190  0.50105603  0.75452555  1
  Y3+  Y62  1  0.74991995  0.74688657  0.25887958  1
  Y3+  Y63  1  0.74876760  0.74763015  0.75515172  1
  Fe3+  Fe64  1  0.37504818  0.62568617  0.37532226  1
  Fe3+  Fe65  1  0.37455716  0.37532794  0.37433628  1
  Fe3+  Fe66  1  0.37509811  0.87485643  0.37360921  1
  Fe3+  Fe67  1  0.12421906  0.62404959  0.88141329  1
  Fe3+  Fe68  1  0.62276448  0.87374715  0.37702783  1
  Fe3+  Fe69  1  0.87295568  0.37560341  0.87650537  1
  Fe3+  Fe70  1  0.12805717  0.37549163  0.37532578  1
  Fe3+  Fe71  1  0.62594328  0.87348226  0.87521671  1
  Fe3+  Fe72  1  0.12356498  0.37685999  0.88070064  1
  Fe3+  Fe73  1  0.62573369  0.12590209  0.87725978  1
  Fe3+  Fe74  1  0.62169564  0.62535897  0.37707710  1
  Fe3+  Fe75  1  0.87535469  0.37537160  0.37911425  1
  Fe3+  Fe76  1  0.37786071  0.12545367  0.87930668  1
  Fe3+  Fe77  1  0.87202306  0.12574280  0.88121668  1
  Fe3+  Fe78  1  0.62173796  0.12443287  0.37956895  1
  Fe3+  Fe79  1  0.37417646  0.12428324  0.37529141  1
  Fe3+  Fe80  1  0.12805121  0.87449275  0.37390810  1
  Fe3+  Fe81  1  0.37715280  0.62446366  0.87617094  1
  Fe3+  Fe82  1  0.87279583  0.62360288  0.87539399  1
  Fe3+  Fe83  1  0.12407939  0.87326674  0.88126788  1
  Fe3+  Fe84  1  0.62426030  0.12397241  0.63403015  1
  Fe3+  Fe85  1  0.12379157  0.87413347  0.13403644  1
  Fe3+  Fe86  1  0.87297912  0.12591432  0.13688288  1
  Fe3+  Fe87  1  0.12505838  0.62613947  0.64066517  1
  Fe3+  Fe88  1  0.87580567  0.12463668  0.63727299  1
  Fe3+  Fe89  1  0.12429330  0.12387184  0.64265571  1
  Fe3+  Fe90  1  0.87425793  0.87454463  0.13926799  1
  Fe3+  Fe91  1  0.12474683  0.62530343  0.13297063  1
  Fe3+  Fe92  1  0.87678606  0.87585326  0.63883894  1
  Fe3+  Fe93  1  0.12444842  0.37591903  0.13450599  1
  Fe3+  Fe94  1  0.37733959  0.12598374  0.13278533  1
  Fe3+  Fe95  1  0.87656648  0.37439039  0.63305680  1
  Cu2+  Cu96  1  0.62577906  0.62417992  0.87117104  1
  Cu2+  Cu97  1  0.87440021  0.12587822  0.36251272  1
  Cu2+  Cu98  1  0.62687799  0.37563918  0.86966110  1
  Cu2+  Cu99  1  0.87340499  0.87443252  0.86557940  1
  Cu2+  Cu100  1  0.12503552  0.12576874  0.87701624  1
  Cu2+  Cu101  1  0.62208461  0.37631260  0.37500641  1
  Cu2+  Cu102  1  0.12773707  0.62537472  0.35949269  1
  Cu2+  Cu103  1  0.37714383  0.87453017  0.87429096  1
  Cu2+  Cu104  1  0.12793939  0.12488986  0.35751683  1
  Cu2+  Cu105  1  0.87473672  0.87498766  0.36134786  1
  Cu2+  Cu106  1  0.87382284  0.62473614  0.37445444  1
  Cu2+  Cu107  1  0.37650391  0.37545395  0.87343923  1
  Cu2+  Cu108  1  0.62564064  0.87543981  0.64897962  1
  Cu2+  Cu109  1  0.37571335  0.62438334  0.14654310  1
  Cu2+  Cu110  1  0.62540139  0.37603328  0.14678341  1
  Cu2+  Cu111  1  0.37435644  0.87472694  0.65800757  1
  Cu2+  Cu112  1  0.37446705  0.62465654  0.65605923  1
  Cu2+  Cu113  1  0.87450400  0.62475285  0.15477276  1
  Cu2+  Cu114  1  0.12409669  0.87559212  0.65745671  1
  Cu2+  Cu115  1  0.37439410  0.37514024  0.65641581  1
  Cu2+  Cu116  1  0.37577589  0.87548727  0.13824976  1
  Cu2+  Cu117  1  0.62416175  0.62540278  0.65075375  1
  Cu2+  Cu118  1  0.87563278  0.62505487  0.64053333  1
  Cu2+  Cu119  1  0.12436894  0.37421082  0.65327871  1
  Cu2+  Cu120  1  0.62557947  0.12572893  0.14974183  1
  Cu2+  Cu121  1  0.62684764  0.87442893  0.15299133  1
  Cu2+  Cu122  1  0.37580220  0.37455559  0.13927667  1
  Cu2+  Cu123  1  0.62542867  0.37467969  0.64019340  1
  Cu2+  Cu124  1  0.62535959  0.62457072  0.14223218  1
  Cu2+  Cu125  1  0.12462957  0.12473324  0.13846810  1
  Cu2+  Cu126  1  0.37500052  0.12519339  0.65699066  1
  Cu2+  Cu127  1  0.87486008  0.37515641  0.15545579  1
  O2-  O128  1  0.12315146  0.12571355  0.00757540  1
  O2-  O129  1  0.12546966  0.12311811  0.52231341  1
  O2-  O130  1  0.12170953  0.37718706  0.00702365  1
  O2-  O131  1  0.12950392  0.37417092  0.49520035  1
  O2-  O132  1  0.12295653  0.62411465  0.00685682  1
  O2-  O133  1  0.12675232  0.62714724  0.52008351  1
  O2-  O134  1  0.12265348  0.87314974  0.00779130  1
  O2-  O135  1  0.12920024  0.87524802  0.49377314  1
  O2-  O136  1  0.37927283  0.12573069  0.00565460  1
  O2-  O137  1  0.37198048  0.12318139  0.49499954  1
  O2-  O138  1  0.37590949  0.37399856  0.00590852  1
  O2-  O139  1  0.37172033  0.37494019  0.49460972  1
  O2-  O140  1  0.37744339  0.62458233  -0.00320129  1
  O2-  O141  1  0.37338107  0.62617688  0.49527805  1
  O2-  O142  1  0.37656501  0.87600455  0.00570843  1
  O2-  O143  1  0.37296917  0.87529966  0.49337105  1
  O2-  O144  1  0.62757706  0.12572647  -0.00309343  1
  O2-  O145  1  0.62212975  0.12291948  0.50655921  1
  O2-  O146  1  0.62749935  0.37601464  0.00745442  1
  O2-  O147  1  0.62285547  0.37418941  0.50742975  1
  O2-  O148  1  0.62609936  0.62473229  0.00697654  1
  O2-  O149  1  0.62064752  0.62680996  0.49745886  1
  O2-  O150  1  0.62708754  0.87403463  -0.00427062  1
  O2-  O151  1  0.62111615  0.87510914  0.49687753  1
  O2-  O152  1  0.87089159  0.12612920  0.00868879  1
  O2-  O153  1  0.87941717  0.12282692  0.51786834  1
  O2-  O154  1  0.87284250  0.37589324  -0.00375603  1
  O2-  O155  1  0.87816987  0.37318832  0.50616519  1
  O2-  O156  1  0.87252768  0.62314448  -0.00426114  1
  O2-  O157  1  0.87644934  0.62588933  0.50701435  1
  O2-  O158  1  0.87356050  0.87530463  0.01924155  1
  O2-  O159  1  0.87906870  0.87749513  0.51876588  1
  O2-  O160  1  0.12369950  -0.00326691  0.16161657  1
  O2-  O161  1  0.12568073  0.00025778  0.67308801  1
  O2-  O162  1  0.12362545  0.25310525  0.16229539  1
  O2-  O163  1  0.12555880  0.24903329  0.66958581  1
  O2-  O164  1  0.12428918  0.50102657  0.16136773  1
  O2-  O165  1  0.12512191  0.49964223  0.66600510  1
  O2-  O166  1  0.12405816  0.74928492  0.16034726  1
  O2-  O167  1  0.12579831  0.75088429  0.67015649  1
  O2-  O168  1  0.37614117  0.00308317  0.16038776  1
  O2-  O169  1  0.37411394  -0.00073799  0.66837732  1
  O2-  O170  1  0.37585508  0.24750718  0.16278572  1
  O2-  O171  1  0.37400123  0.25054818  0.66678523  1
  O2-  O172  1  0.37451849  0.50066365  0.16230804  1
  O2-  O173  1  0.37323790  0.49950236  0.66405563  1
  O2-  O174  1  0.37517830  0.74892551  0.16023515  1
  O2-  O175  1  0.37352557  0.75033637  0.66564115  1
  O2-  O176  1  0.62686340  -0.00009497  0.16394150  1
  O2-  O177  1  0.62429093  0.00200428  0.66532510  1
  O2-  O178  1  0.62606439  0.25031290  0.16782801  1
  O2-  O179  1  0.62472909  0.24614448  0.66311699  1
  O2-  O180  1  0.62607010  0.49994167  0.16617761  1
  O2-  O181  1  0.62451080  0.50124455  0.66382218  1
  O2-  O182  1  0.62630399  0.75062752  0.16283577  1
  O2-  O183  1  0.62497654  0.75015242  0.66418959  1
  O2-  O184  1  0.87392100  0.00139331  0.16502037  1
  O2-  O185  1  0.87549044  0.00090816  0.67404093  1
  O2-  O186  1  0.87477332  0.24920005  0.16395193  1
  O2-  O187  1  0.87536722  0.24993657  0.66627160  1
  O2-  O188  1  0.87567390  0.50017511  0.16604030  1
  O2-  O189  1  0.87686457  0.49713518  0.65917977  1
  O2-  O190  1  0.87524082  0.74978953  0.16554055  1
  O2-  O191  1  0.87544122  0.75185107  0.66651286  1
  O2-  O192  1  -0.00396392  0.12535033  0.16435343  1
  O2-  O193  1  -0.00002596  0.12494547  0.67508214  1
  O2-  O194  1  0.00136802  0.37598062  0.16495863  1
  O2-  O195  1  -0.00168713  0.37337712  0.66706006  1
  O2-  O196  1  0.00133991  0.62457722  0.16474164  1
  O2-  O197  1  0.00216649  0.62526856  0.67052414  1
  O2-  O198  1  0.00014756  0.87461966  0.16626442  1
  O2-  O199  1  -0.00045910  0.87593231  0.67365387  1
  O2-  O200  1  0.25319438  0.12516276  0.15669061  1
  O2-  O201  1  0.24998589  0.12475380  0.67156079  1
  O2-  O202  1  0.24700351  0.37511114  0.15722582  1
  O2-  O203  1  0.24980310  0.37427775  0.66930051  1
  O2-  O204  1  0.24843653  0.62512883  0.15726675  1
  O2-  O205  1  0.24948398  0.62496744  0.67133191  1
  O2-  O206  1  0.24689282  0.87468309  0.15735434  1
  O2-  O207  1  0.24958960  0.87562318  0.66913144  1
  O2-  O208  1  0.50033963  0.12506018  0.16172129  1
  O2-  O209  1  0.50031469  0.12437400  0.66128164  1
  O2-  O210  1  0.50059623  0.37486228  0.16317626  1
  O2-  O211  1  0.49851221  0.37456165  0.66484927  1
  O2-  O212  1  0.49905520  0.62482633  0.16127737  1
  O2-  O213  1  0.49878505  0.62522770  0.66379665  1
  O2-  O214  1  0.50286786  0.87571516  0.16020604  1
  O2-  O215  1  0.49961466  0.87545961  0.66289678  1
  O2-  O216  1  0.75121354  0.12621762  0.16838795  1
  O2-  O217  1  0.74928575  0.12439656  0.66157709  1
  O2-  O218  1  0.75132005  0.37491873  0.17071626  1
  O2-  O219  1  0.75351186  0.37406057  0.65954155  1
  O2-  O220  1  0.75148204  0.62428010  0.16828713  1
  O2-  O221  1  0.74841105  0.62494914  0.66127343  1
  O2-  O222  1  0.75102794  0.87545824  0.16994585  1
  O2-  O223  1  0.75103158  0.87638410  0.66278754  1
  O2-  O224  1  0.12526111  -0.00020480  0.34394752  1
  O2-  O225  1  0.12415292  -0.00334895  0.85494448  1
  O2-  O226  1  0.12544912  0.25006863  0.34537898  1
  O2-  O227  1  0.12360764  0.25373995  0.85231811  1
  O2-  O228  1  0.12549543  0.49980148  0.34502305  1
  O2-  O229  1  0.12419022  0.50046171  0.84942385  1
  O2-  O230  1  0.12542687  0.75051805  0.34304885  1
  O2-  O231  1  0.12345988  0.74886268  0.85335032  1
  O2-  O232  1  0.37477512  -0.00036959  0.34048337  1
  O2-  O233  1  0.37571905  0.00280549  0.85178823  1
  O2-  O234  1  0.37426502  0.24952230  0.34375186  1
  O2-  O235  1  0.37594428  0.24779248  0.85041348  1
  O2-  O236  1  0.37383706  0.50041111  0.34363030  1
  O2-  O237  1  0.37434344  0.50145775  0.84658471  1
  O2-  O238  1  0.37444148  0.75059861  0.34109672  1
  O2-  O239  1  0.37499342  0.74785487  0.84784847  1
  O2-  O240  1  0.62456426  0.00064185  0.34736958  1
  O2-  O241  1  0.62614414  0.00033814  0.84688764  1
  O2-  O242  1  0.62408923  0.24721386  0.35176983  1
  O2-  O243  1  0.62593884  0.24885779  0.84541402  1
  O2-  O244  1  0.62358853  0.50204517  0.34771016  1
  O2-  O245  1  0.62626362  0.49954507  0.84722282  1
  O2-  O246  1  0.62438096  0.75027749  0.34385514  1
  O2-  O247  1  0.62608082  0.75055390  0.84682038  1
  O2-  O248  1  0.87554792  0.00112783  0.34828301  1
  O2-  O249  1  0.87379935  0.00143232  0.85598298  1
  O2-  O250  1  0.87597479  0.25167735  0.34908838  1
  O2-  O251  1  0.87487410  0.24938427  0.84805419  1
  O2-  O252  1  0.87627727  0.49696192  0.35023930  1
  O2-  O253  1  0.87543175  0.49975428  0.84095915  1
  O2-  O254  1  0.87540017  0.75099407  0.34853851  1
  O2-  O255  1  0.87536509  0.74886274  0.84849615  1
  O2-  O256  1  0.00149253  0.12532959  0.34873824  1
  O2-  O257  1  -0.00425524  0.12530285  0.85598366  1
  O2-  O258  1  0.00041420  0.37433246  0.34886657  1
  O2-  O259  1  -0.00004600  0.37563384  0.84917454  1
  O2-  O260  1  0.00220911  0.62521854  0.34989367  1
  O2-  O261  1  0.00053086  0.62441916  0.85086704  1
  O2-  O262  1  0.00067670  0.87549781  0.34827887  1
  O2-  O263  1  0.00009290  0.87451336  0.85584641  1
  O2-  O264  1  0.25168026  0.12462637  0.33814952  1
  O2-  O265  1  0.25319699  0.12544133  0.85464863  1
  O2-  O266  1  0.25071200  0.37484477  0.33719056  1
  O2-  O267  1  0.24666652  0.37531433  0.85389918  1
  O2-  O268  1  0.25172946  0.62558951  0.33949867  1
  O2-  O269  1  0.24803396  0.62494645  0.85323704  1
  O2-  O270  1  0.25103337  0.87527640  0.33706670  1
  O2-  O271  1  0.24696705  0.87420576  0.85360448  1
  O2-  O272  1  0.49992716  0.12439417  0.34458627  1
  O2-  O273  1  0.50077694  0.12503899  0.84504527  1
  O2-  O274  1  0.49687841  0.37468971  0.34414357  1
  O2-  O275  1  0.50165615  0.37487267  0.84889088  1
  O2-  O276  1  0.49883853  0.62579273  0.34140802  1
  O2-  O277  1  0.49997380  0.62433033  0.84662283  1
  O2-  O278  1  0.49935661  0.87564668  0.34084136  1
  O2-  O279  1  0.50303384  0.87520647  0.84533116  1
  O2-  O280  1  0.74678319  0.12473329  0.35381860  1
  O2-  O281  1  0.75086743  0.12543055  0.84337588  1
  O2-  O282  1  0.75196533  0.37437358  0.35478764  1
  O2-  O283  1  0.75192122  0.37460603  0.84118930  1
  O2-  O284  1  0.74673158  0.62511496  0.35073182  1
  O2-  O285  1  0.75133778  0.62452159  0.84348928  1
  O2-  O286  1  0.74915436  0.87632927  0.35213470  1
  O2-  O287  1  0.74969220  0.87497323  0.84424345  1
