# generated using pymatgen
data_BaYFeCuO5
_symmetry_space_group_name_H-M   'P 1'
_cell_length_a   15.67289133
_cell_length_b   15.68079929
_cell_length_c   15.49738994
_cell_angle_alpha   89.99745097
_cell_angle_beta   89.99608332
_cell_angle_gamma   89.99989581
_symmetry_Int_Tables_number   1
_chemical_formula_structural   BaYFeCuO5
_chemical_formula_sum   'Ba32 Y32 Fe32 Cu32 O160'
_cell_volume   3808.69220925
_cell_formula_units_Z   32
loop_
 _symmetry_equiv_pos_site_id
 _symmetry_equiv_pos_as_xyz
  1  'x, y, z'
loop_
 _atom_type_symbol
 _atom_type_oxidation_number
  Ba2+  2.0
  Y3+  3.0
  Fe3+  3.0
  Cu2+  2.0
  O2-  -2.0
loop_
 _atom_site_type_symbol
 _atom_site_label
 _atom_site_symmetry_multiplicity
 _atom_site_fract_x
 _atom_site_fract_y
 _atom_site_fract_z
 _atom_site_occupancy
  Ba2+  Ba0  1  0.00076025  0.00113911  0.01812621  1
  Ba2+  Ba1  1  -0.01260093  0.00075699  0.51066989  1
  Ba2+  Ba2  1  0.00338306  0.24610825  0.01374958  1
  Ba2+  Ba3  1  -0.01281408  0.24772636  0.51043614  1
  Ba2+  Ba4  1  -0.00128652  0.49455676  0.01454580  1
  Ba2+  Ba5  1  -0.00331378  0.50674269  0.51555784  1
  Ba2+  Ba6  1  -0.00443539  0.75677733  0.01664067  1
  Ba2+  Ba7  1  -0.00227142  0.74434891  0.51537004  1
  Ba2+  Ba8  1  0.24738237  0.00328230  0.00119873  1
  Ba2+  Ba9  1  0.26023843  -0.00227404  0.51729329  1
  Ba2+  Ba10  1  0.24683376  0.24857419  -0.01016233  1
  Ba2+  Ba11  1  0.25537434  0.24587123  0.51096339  1
  Ba2+  Ba12  1  0.25320030  0.49670685  -0.00547001  1
  Ba2+  Ba13  1  0.25001694  0.51163829  0.50614184  1
  Ba2+  Ba14  1  0.25522316  0.75195365  0.00731992  1
  Ba2+  Ba15  1  0.25401676  0.74317558  0.51091359  1
  Ba2+  Ba16  1  0.50370088  -0.00020285  -0.00077255  1
  Ba2+  Ba17  1  0.50368604  -0.00117176  0.52864405  1
  Ba2+  Ba18  1  0.49706112  0.24316680  -0.00238353  1
  Ba2+  Ba19  1  0.50780163  0.24456180  0.52305371  1
  Ba2+  Ba20  1  0.48833270  0.50185260  0.00301787  1
  Ba2+  Ba21  1  0.49881803  0.50369862  0.51104011  1
  Ba2+  Ba22  1  0.49578170  0.75551163  0.00238455  1
  Ba2+  Ba23  1  0.49563402  0.75409794  0.51865891  1
  Ba2+  Ba24  1  0.74838515  -0.00192744  0.01028861  1
  Ba2+  Ba25  1  0.74936345  0.00218676  0.52376108  1
  Ba2+  Ba26  1  0.75289069  0.24233614  0.01542965  1
  Ba2+  Ba27  1  0.75043766  0.24613755  0.52163295  1
  Ba2+  Ba28  1  0.75925100  0.49995640  0.01611794  1
  Ba2+  Ba29  1  0.75338810  0.49514652  0.52158245  1
  Ba2+  Ba30  1  0.75295223  0.75992513  0.00991951  1
  Ba2+  Ba31  1  0.75286583  0.75610095  0.52373197  1
  Y3+  Y32  1  -0.00119425  0.00083155  0.25565340  1
  Y3+  Y33  1  -0.00221364  -0.00014700  0.75833064  1
  Y3+  Y34  1  -0.00172928  0.24692699  0.25776729  1
  Y3+  Y35  1  -0.00006584  0.24877158  0.75683120  1
  Y3+  Y36  1  0.00024113  0.50157901  0.25853079  1
  Y3+  Y37  1  0.00072723  0.50065963  0.75505455  1
  Y3+  Y38  1  0.00023033  0.75126214  0.25622846  1
  Y3+  Y39  1  -0.00089862  0.74997450  0.75587815  1
  Y3+  Y40  1  0.24779485  -0.00055860  0.25660081  1
  Y3+  Y41  1  0.25130020  0.00040794  0.75905564  1
  Y3+  Y42  1  0.24871382  0.24825736  0.26023207  1
  Y3+  Y43  1  0.24949842  0.24902668  0.75740203  1
  Y3+  Y44  1  0.25119162  0.50555624  0.26111238  1
  Y3+  Y45  1  0.25054798  0.50264938  0.75527457  1
  Y3+  Y46  1  0.25057315  0.74759707  0.25931293  1
  Y3+  Y47  1  0.25196671  0.74773769  0.75616030  1
  Y3+  Y48  1  0.50357561  -0.00018197  0.25127049  1
  Y3+  Y49  1  0.50080968  -0.00077910  0.76329667  1
  Y3+  Y50  1  0.50254337  0.24885458  0.25481660  1
  Y3+  Y51  1  0.50087516  0.24747029  0.76005234  1
  Y3+  Y52  1  0.49813090  0.50266961  0.25742987  1
  Y3+  Y53  1  0.49776132  0.50140639  0.75804980  1
  Y3+  Y54  1  0.49889505  0.74939603  0.25405544  1
  Y3+  Y55  1  0.49745932  0.75152431  0.76052521  1
  Y3+  Y56  1  0.75018405  0.00075195  0.25097527  1
  Y3+  Y57  1  0.74903504  -0.00151335  0.76252086  1
  Y3+  Y58  1  0.75127067  0.24651475  0.25476669  1
  Y3+  Y59  1  0.74958342  0.24756936  0.75740851  1
  Y3+  Y60  1  0.75116994  0.50020204  0.25395354  1
  Y3+  Y61  1  0.75049299  0.49882625  0.75686265  1
  Y3+  Y62  1  0.75014244  0.75307871  0.25017118  1
  Y3+  Y63  1  0.75071615  0.75396791  0.76175080  1
  Fe3+  Fe64  1  0.12431717  0.12376102  0.38214405  1
  Fe3+  Fe65  1  0.87609780  0.62521003  0.87694563  1
  Fe3+  Fe66  1  0.87589342  0.37406380  0.87589221  1
  Fe3+  Fe67  1  0.12423225  0.87457874  0.87570579  1
  Fe3+  Fe68  1  0.62583038  0.37453323  0.37725455  1
  Fe3+  Fe69  1  0.12481212  0.87461882  0.38098968  1
  Fe3+  Fe70  1  0.37663442  0.37423939  0.38220106  1
  Fe3+  Fe71  1  0.87267185  0.87563962  0.37509784  1
  Fe3+  Fe72  1  0.37736912  0.87616290  0.37652200  1
  Fe3+  Fe73  1  0.12439345  0.37542149  0.38247419  1
  Fe3+  Fe74  1  0.87325326  0.37445709  0.37546486  1
  Fe3+  Fe75  1  0.62554660  0.37539468  0.87959200  1
  Fe3+  Fe76  1  0.87592182  0.12431358  0.87687105  1
  Fe3+  Fe77  1  0.37855291  0.12336637  0.37870655  1
  Fe3+  Fe78  1  0.62559203  0.62472199  0.87938089  1
  Fe3+  Fe79  1  0.62651077  0.62691144  0.37970526  1
  Fe3+  Fe80  1  0.12391951  0.62525869  0.87932839  1
  Fe3+  Fe81  1  0.62540671  0.87564542  0.37622327  1
  Fe3+  Fe82  1  0.62608535  0.12337474  0.37532430  1
  Fe3+  Fe83  1  0.87243838  0.62646552  0.37486730  1
  Fe3+  Fe84  1  0.62534469  0.62596045  0.63669867  1
  Fe3+  Fe85  1  0.37386630  0.87602209  0.13655850  1
  Fe3+  Fe86  1  0.62422849  0.37505579  0.13239678  1
  Fe3+  Fe87  1  0.62419470  0.62528892  0.13215303  1
  Fe3+  Fe88  1  0.12451611  0.37495232  0.63399648  1
  Fe3+  Fe89  1  0.12725424  0.37470745  0.14078258  1
  Fe3+  Fe90  1  0.12488751  0.87473267  0.63415749  1
  Fe3+  Fe91  1  0.37354528  0.12590897  0.13673987  1
  Fe3+  Fe92  1  0.37296801  0.37448332  0.13960028  1
  Fe3+  Fe93  1  0.12589338  0.62516799  0.13464782  1
  Fe3+  Fe94  1  0.12435655  0.12404314  0.63454091  1
  Fe3+  Fe95  1  0.37556621  0.37497380  0.63644569  1
  Cu2+  Cu96  1  0.87249742  0.12369939  0.37104292  1
  Cu2+  Cu97  1  0.12319589  0.12418254  0.86984630  1
  Cu2+  Cu98  1  0.87679256  0.87529075  0.87233251  1
  Cu2+  Cu99  1  0.37323013  0.87524096  0.86358884  1
  Cu2+  Cu100  1  0.62636533  0.12530425  0.87297910  1
  Cu2+  Cu101  1  0.12323797  0.62625855  0.37328678  1
  Cu2+  Cu102  1  0.12396526  0.37562739  0.85872531  1
  Cu2+  Cu103  1  0.37749681  0.62678538  0.37370925  1
  Cu2+  Cu104  1  0.37435003  0.12450198  0.86178121  1
  Cu2+  Cu105  1  0.62497618  0.87420040  0.87313924  1
  Cu2+  Cu106  1  0.37489402  0.37452101  0.85842958  1
  Cu2+  Cu107  1  0.37414729  0.62551947  0.87212742  1
  Cu2+  Cu108  1  0.87530086  0.37442454  0.65236440  1
  Cu2+  Cu109  1  0.87492722  0.12415571  0.64587165  1
  Cu2+  Cu110  1  0.12632485  0.87480914  0.15165519  1
  Cu2+  Cu111  1  0.12729848  0.12565278  0.14297049  1
  Cu2+  Cu112  1  0.37592620  0.62487320  0.64369482  1
  Cu2+  Cu113  1  0.87556465  0.87536404  0.65396528  1
  Cu2+  Cu114  1  0.12483998  0.62539831  0.64260935  1
  Cu2+  Cu115  1  0.62444582  0.37515963  0.65357181  1
  Cu2+  Cu116  1  0.87602781  0.37426431  0.15060918  1
  Cu2+  Cu117  1  0.87594888  0.62575946  0.14795959  1
  Cu2+  Cu118  1  0.87558916  0.87633258  0.14133801  1
  Cu2+  Cu119  1  0.37511293  0.12514175  0.65473342  1
  Cu2+  Cu120  1  0.62515086  0.12365287  0.65943573  1
  Cu2+  Cu121  1  0.87583791  0.12501760  0.14964178  1
  Cu2+  Cu122  1  0.62494397  0.87435974  0.65740615  1
  Cu2+  Cu123  1  0.37390983  0.62470480  0.14081305  1
  Cu2+  Cu124  1  0.62340953  0.87508140  0.13883299  1
  Cu2+  Cu125  1  0.87349148  0.62532884  0.65445283  1
  Cu2+  Cu126  1  0.37450531  0.87494352  0.65582176  1
  Cu2+  Cu127  1  0.62370323  0.12536629  0.13767860  1
  O2-  O128  1  0.12541903  0.12602603  0.00790436  1
  O2-  O129  1  0.12445756  0.12385551  0.50815335  1
  O2-  O130  1  0.12853568  0.37466706  0.02080829  1
  O2-  O131  1  0.12296270  0.37571585  0.50827185  1
  O2-  O132  1  0.12471924  0.62407991  0.00640194  1
  O2-  O133  1  0.12317117  0.62584918  0.50755675  1
  O2-  O134  1  0.12489940  0.87483181  -0.00398919  1
  O2-  O135  1  0.12480363  0.87450330  0.50688296  1
  O2-  O136  1  0.37091674  0.12769883  0.01645930  1
  O2-  O137  1  0.38047689  0.12305491  0.49886612  1
  O2-  O138  1  0.37062340  0.37343320  0.01957717  1
  O2-  O139  1  0.37886112  0.37468770  0.50863725  1
  O2-  O140  1  0.37261477  0.62408651  0.00651891  1
  O2-  O141  1  0.37830517  0.62568629  0.50810590  1
  O2-  O142  1  0.37207632  0.87681396  0.01601526  1
  O2-  O143  1  0.37914221  0.87666467  0.49685179  1
  O2-  O144  1  0.62465329  0.12719968  0.00554973  1
  O2-  O145  1  0.62529733  0.12315431  0.49586112  1
  O2-  O146  1  0.62451568  0.37631998  0.00582153  1
  O2-  O147  1  0.62685768  0.37372910  0.49679952  1
  O2-  O148  1  0.62471672  0.62344378  0.00548407  1
  O2-  O149  1  0.62710646  0.62658452  0.50676864  1
  O2-  O150  1  0.62344524  0.87383984  0.00550748  1
  O2-  O151  1  0.62614344  0.87591448  0.49584434  1
  O2-  O152  1  0.87798664  0.12582970  -0.00290974  1
  O2-  O153  1  0.87222258  0.12417849  0.50649769  1
  O2-  O154  1  0.87715685  0.37424453  -0.00420541  1
  O2-  O155  1  0.87144807  0.37528569  0.49560254  1
  O2-  O156  1  0.87858912  0.62331168  -0.00309594  1
  O2-  O157  1  0.87016191  0.62591587  0.49479311  1
  O2-  O158  1  0.87735325  0.87660277  0.00686152  1
  O2-  O159  1  0.87114196  0.87488618  0.49528322  1
  O2-  O160  1  0.12583523  -0.00131122  0.16657437  1
  O2-  O161  1  0.12585384  -0.00035157  0.66091162  1
  O2-  O162  1  0.12506738  0.25204200  0.17325145  1
  O2-  O163  1  0.12502568  0.24987165  0.66076115  1
  O2-  O164  1  0.12438335  0.50150298  0.16706206  1
  O2-  O165  1  0.12511254  0.49695605  0.66508539  1
  O2-  O166  1  0.12501754  0.74860356  0.16174707  1
  O2-  O167  1  0.12418438  0.75305378  0.66458139  1
  O2-  O168  1  0.37391737  0.00065103  0.16613535  1
  O2-  O169  1  0.37422110  0.00027614  0.66586067  1
  O2-  O170  1  0.37452564  0.25094295  0.17303262  1
  O2-  O171  1  0.37523628  0.25148210  0.66244169  1
  O2-  O172  1  0.37476950  0.49846404  0.16939294  1
  O2-  O173  1  0.37528874  0.49712670  0.66439328  1
  O2-  O174  1  0.37410204  0.75121412  0.16343178  1
  O2-  O175  1  0.37543537  0.75070131  0.66616668  1
  O2-  O176  1  0.62446061  0.00029910  0.16089423  1
  O2-  O177  1  0.62481982  -0.00128209  0.66758245  1
  O2-  O178  1  0.62512004  0.25381653  0.16302405  1
  O2-  O179  1  0.62468757  0.24941041  0.66540094  1
  O2-  O180  1  0.62563059  0.49983006  0.16327555  1
  O2-  O181  1  0.62542708  0.50194547  0.66371442  1
  O2-  O182  1  0.62469699  0.74687988  0.16238147  1
  O2-  O183  1  0.62524882  0.74899831  0.66471368  1
  O2-  O184  1  0.87635266  0.00250034  0.16399450  1
  O2-  O185  1  0.87517072  -0.00102338  0.66598353  1
  O2-  O186  1  0.87620792  0.24861952  0.16438136  1
  O2-  O187  1  0.87511346  0.25034652  0.66409881  1
  O2-  O188  1  0.87583719  0.50023606  0.16279219  1
  O2-  O189  1  0.87399542  0.49949810  0.66363337  1
  O2-  O190  1  0.87570577  0.74945126  0.16266036  1
  O2-  O191  1  0.87526803  0.75040559  0.66517279  1
  O2-  O192  1  -0.00127563  0.12523234  0.16674872  1
  O2-  O193  1  0.00297845  0.12462284  0.66241398  1
  O2-  O194  1  0.00080266  0.37530882  0.16762159  1
  O2-  O195  1  0.00139583  0.37490789  0.66050543  1
  O2-  O196  1  0.00211752  0.62499283  0.16311963  1
  O2-  O197  1  -0.00239596  0.62412054  0.66234963  1
  O2-  O198  1  0.00225902  0.87547809  0.16703356  1
  O2-  O199  1  0.00126616  0.87544018  0.65972202  1
  O2-  O200  1  0.25238452  0.12545278  0.17527735  1
  O2-  O201  1  0.24766890  0.12564009  0.66182516  1
  O2-  O202  1  0.24999099  0.37603638  0.18007197  1
  O2-  O203  1  0.24987958  0.37403622  0.65980726  1
  O2-  O204  1  0.24661192  0.62499725  0.16893652  1
  O2-  O205  1  0.25050903  0.62485119  0.66527222  1
  O2-  O206  1  0.25062637  0.87470987  0.17093734  1
  O2-  O207  1  0.24849292  0.87470572  0.66132509  1
  O2-  O208  1  0.49728827  0.12661223  0.16384336  1
  O2-  O209  1  0.50043331  0.12507818  0.66836971  1
  O2-  O210  1  0.50057991  0.37618437  0.16493237  1
  O2-  O211  1  0.49858584  0.37500232  0.66688702  1
  O2-  O212  1  0.50248677  0.62348330  0.16433053  1
  O2-  O213  1  0.50349181  0.62468715  0.66574917  1
  O2-  O214  1  0.49736772  0.87449717  0.16384996  1
  O2-  O215  1  0.49933661  0.87458893  0.66771635  1
  O2-  O216  1  0.75218312  0.12596294  0.15871782  1
  O2-  O217  1  0.74874283  0.12474964  0.66709045  1
  O2-  O218  1  0.74945724  0.37583824  0.15724491  1
  O2-  O219  1  0.74978226  0.37496565  0.66576890  1
  O2-  O220  1  0.74890331  0.62406349  0.15819904  1
  O2-  O221  1  0.74838175  0.62503818  0.66563574  1
  O2-  O222  1  0.74943924  0.87510277  0.15858291  1
  O2-  O223  1  0.75078027  0.87422790  0.66708432  1
  O2-  O224  1  0.12525278  -0.00010355  0.35119012  1
  O2-  O225  1  0.12543167  -0.00163553  0.84457630  1
  O2-  O226  1  0.12555249  0.24979241  0.35541858  1
  O2-  O227  1  0.12529545  0.25147645  0.84510963  1
  O2-  O228  1  0.12551309  0.49676934  0.34973495  1
  O2-  O229  1  0.12470160  0.50158024  0.84995877  1
  O2-  O230  1  0.12464366  0.75364798  0.34654415  1
  O2-  O231  1  0.12516184  0.74785932  0.84777584  1
  O2-  O232  1  0.37479353  0.00041151  0.34448062  1
  O2-  O233  1  0.37371198  0.00020075  0.85059812  1
  O2-  O234  1  0.37532272  0.25030271  0.35232109  1
  O2-  O235  1  0.37411521  0.25008587  0.84687228  1
  O2-  O236  1  0.37571343  0.49687146  0.35226183  1
  O2-  O237  1  0.37453472  0.49864450  0.84726865  1
  O2-  O238  1  0.37592018  0.75299585  0.34488978  1
  O2-  O239  1  0.37382562  0.75092486  0.84921923  1
  O2-  O240  1  0.62513687  -0.00044115  0.34158266  1
  O2-  O241  1  0.62452957  -0.00017973  0.85124361  1
  O2-  O242  1  0.62491631  0.24982634  0.34436039  1
  O2-  O243  1  0.62467297  0.25368472  0.84947680  1
  O2-  O244  1  0.62531080  0.50126171  0.34787894  1
  O2-  O245  1  0.62464487  0.49970006  0.84828617  1
  O2-  O246  1  0.62521556  0.74940227  0.34577199  1
  O2-  O247  1  0.62497640  0.74645222  0.84914746  1
  O2-  O248  1  0.87511866  -0.00209141  0.34513363  1
  O2-  O249  1  0.87596298  0.00104835  0.84787861  1
  O2-  O250  1  0.87454537  0.25125820  0.34683456  1
  O2-  O251  1  0.87517218  0.25020633  0.84497144  1
  O2-  O252  1  0.87383568  0.49998898  0.34418601  1
  O2-  O253  1  0.87538615  0.49980244  0.84537843  1
  O2-  O254  1  0.87429493  0.75098495  0.34275073  1
  O2-  O255  1  0.87549604  0.74800804  0.84816414  1
  O2-  O256  1  0.00283179  0.12498729  0.35110983  1
  O2-  O257  1  -0.00179773  0.12561783  0.84340870  1
  O2-  O258  1  0.00042250  0.37494581  0.35011797  1
  O2-  O259  1  -0.00088814  0.37533566  0.84340448  1
  O2-  O260  1  -0.00344397  0.62510132  0.34611081  1
  O2-  O261  1  0.00127900  0.62437356  0.84495320  1
  O2-  O262  1  0.00051368  0.87548047  0.35023271  1
  O2-  O263  1  0.00223448  0.87382330  0.84181368  1
  O2-  O264  1  0.24950092  0.12535313  0.35605604  1
  O2-  O265  1  0.25023791  0.12544588  0.84605910  1
  O2-  O266  1  0.25063057  0.37375883  0.36197966  1
  O2-  O267  1  0.24955645  0.37518858  0.84510975  1
  O2-  O268  1  0.25058849  0.62600528  0.35287936  1
  O2-  O269  1  0.24652813  0.62366750  0.84894780  1
  O2-  O270  1  0.24928643  0.87549663  0.35315194  1
  O2-  O271  1  0.24877197  0.87446382  0.84489435  1
  O2-  O272  1  0.50112441  0.12535638  0.34189071  1
  O2-  O273  1  0.49861725  0.12582724  0.85258060  1
  O2-  O274  1  0.49989086  0.37541013  0.34677488  1
  O2-  O275  1  0.50126446  0.37596537  0.85229862  1
  O2-  O276  1  0.50434544  0.62458913  0.34793619  1
  O2-  O277  1  0.50226535  0.62372036  0.85032936  1
  O2-  O278  1  0.50136457  0.87493900  0.34203754  1
  O2-  O279  1  0.49738365  0.87410802  0.85185685  1
  O2-  O280  1  0.74751695  0.12466305  0.34035206  1
  O2-  O281  1  0.75255206  0.12549132  0.84860758  1
  O2-  O282  1  0.74942516  0.37545038  0.33950724  1
  O2-  O283  1  0.74941539  0.37605527  0.84888026  1
  O2-  O284  1  0.74836285  0.62521388  0.34042101  1
  O2-  O285  1  0.74970733  0.62350493  0.84922373  1
  O2-  O286  1  0.74908941  0.87463335  0.33921804  1
  O2-  O287  1  0.75076982  0.87431343  0.85104517  1
