# generated using pymatgen
data_BaYFeCuO5
_symmetry_space_group_name_H-M   'P 1'
_cell_length_a   15.66652138
_cell_length_b   15.67122777
_cell_length_c   15.48126799
_cell_angle_alpha   90.00332576
_cell_angle_beta   89.99900047
_cell_angle_gamma   89.99280239
_symmetry_Int_Tables_number   1
_chemical_formula_structural   BaYFeCuO5
_chemical_formula_sum   'Ba32 Y32 Fe32 Cu32 O160'
_cell_volume   3800.86218623
_cell_formula_units_Z   32
loop_
 _symmetry_equiv_pos_site_id
 _symmetry_equiv_pos_as_xyz
  1  'x, y, z'
loop_
 _atom_type_symbol
 _atom_type_oxidation_number
  Ba2+  2.0
  Y3+  3.0
  Fe3+  3.0
  Cu2+  2.0
  O2-  -2.0
loop_
 _atom_site_type_symbol
 _atom_site_label
 _atom_site_symmetry_multiplicity
 _atom_site_fract_x
 _atom_site_fract_y
 _atom_site_fract_z
 _atom_site_occupancy
  Ba2+  Ba0  1  0.00510611  -0.00555983  0.01318870  1
  Ba2+  Ba1  1  0.00374243  -0.00606885  0.50116871  1
  Ba2+  Ba2  1  0.00583197  0.25593505  0.00165918  1
  Ba2+  Ba3  1  0.00302434  0.25573654  0.50245940  1
  Ba2+  Ba4  1  0.00056484  0.50502798  0.00593143  1
  Ba2+  Ba5  1  0.00266739  0.50419712  0.51262808  1
  Ba2+  Ba6  1  0.00038074  0.74423443  0.01667299  1
  Ba2+  Ba7  1  0.00316417  0.74580043  0.51175765  1
  Ba2+  Ba8  1  0.24515154  0.00446798  0.01085965  1
  Ba2+  Ba9  1  0.24534044  -0.00537444  0.50048343  1
  Ba2+  Ba10  1  0.25082279  0.25381431  0.02000586  1
  Ba2+  Ba11  1  0.24697332  0.25673408  0.51226750  1
  Ba2+  Ba12  1  0.24983753  0.50248139  0.01717520  1
  Ba2+  Ba13  1  0.25022990  0.50497638  0.51631294  1
  Ba2+  Ba14  1  0.24573653  0.74029908  0.01051141  1
  Ba2+  Ba15  1  0.24878034  0.74321889  0.50513647  1
  Ba2+  Ba16  1  0.49348694  0.00543062  0.01122387  1
  Ba2+  Ba17  1  0.49928604  -0.00129221  0.51662749  1
  Ba2+  Ba18  1  0.49420920  0.25720298  0.02259583  1
  Ba2+  Ba19  1  0.50558306  0.25850566  0.51434586  1
  Ba2+  Ba20  1  0.49920396  0.50244217  0.01683460  1
  Ba2+  Ba21  1  0.49980435  0.50091081  0.51630530  1
  Ba2+  Ba22  1  0.49936715  0.73609453  0.00574019  1
  Ba2+  Ba23  1  0.49285982  0.74269051  0.51573090  1
  Ba2+  Ba24  1  0.75521921  -0.00513709  0.01144027  1
  Ba2+  Ba25  1  0.75105220  -0.00143441  0.51765258  1
  Ba2+  Ba26  1  0.75039518  0.26102641  0.00657307  1
  Ba2+  Ba27  1  0.74456986  0.25848855  0.50667486  1
  Ba2+  Ba28  1  0.75079560  0.50541892  0.00636447  1
  Ba2+  Ba29  1  0.74760469  0.49873546  0.51167297  1
  Ba2+  Ba30  1  0.75424298  0.73985808  0.01002370  1
  Ba2+  Ba31  1  0.75558933  0.74421178  0.52352764  1
  Y3+  Y32  1  0.00158904  -0.00264815  0.25806804  1
  Y3+  Y33  1  0.00045972  -0.00054681  0.75833814  1
  Y3+  Y34  1  0.00040900  0.25184613  0.26004423  1
  Y3+  Y35  1  0.00075774  0.25171962  0.75792235  1
  Y3+  Y36  1  0.00120008  0.50278439  0.25627223  1
  Y3+  Y37  1  0.00079330  0.50323280  0.75915207  1
  Y3+  Y38  1  0.00255796  0.74779862  0.25574967  1
  Y3+  Y39  1  0.00049612  0.74541350  0.75873572  1
  Y3+  Y40  1  0.24770412  -0.00084792  0.25749891  1
  Y3+  Y41  1  0.25031272  -0.00055017  0.75740381  1
  Y3+  Y42  1  0.25000134  0.25122898  0.25887588  1
  Y3+  Y43  1  0.24904860  0.25237148  0.75486130  1
  Y3+  Y44  1  0.25025865  0.50419782  0.25745923  1
  Y3+  Y45  1  0.25025489  0.50340892  0.75618048  1
  Y3+  Y46  1  0.24771171  0.74583498  0.25728249  1
  Y3+  Y47  1  0.25088104  0.74475626  0.75680843  1
  Y3+  Y48  1  0.49881021  0.00002958  0.25585249  1
  Y3+  Y49  1  0.49962552  -0.00019935  0.75643417  1
  Y3+  Y50  1  0.50041296  0.25384972  0.25892467  1
  Y3+  Y51  1  0.50133570  0.25294731  0.75191599  1
  Y3+  Y52  1  0.50022728  0.50145373  0.25701137  1
  Y3+  Y53  1  0.49952846  0.50253200  0.75594158  1
  Y3+  Y54  1  0.49846666  0.74498580  0.25485823  1
  Y3+  Y55  1  0.49795828  0.74472955  0.75819243  1
  Y3+  Y56  1  0.75122436  -0.00140867  0.25595657  1
  Y3+  Y57  1  0.75008899  -0.00044123  0.75721541  1
  Y3+  Y58  1  0.74882372  0.25484659  0.26039470  1
  Y3+  Y59  1  0.74892946  0.25223166  0.75553462  1
  Y3+  Y60  1  0.74818002  0.50013343  0.25556204  1
  Y3+  Y61  1  0.74985698  0.50249270  0.75929744  1
  Y3+  Y62  1  0.75148021  0.74686105  0.25127540  1
  Y3+  Y63  1  0.75081659  0.74530736  0.76080321  1
  Fe3+  Fe64  1  0.37449838  0.87395084  0.87982038  1
  Fe3+  Fe65  1  0.62480603  0.12394143  0.37700334  1
  Fe3+  Fe66  1  0.62354295  0.37606310  0.87650833  1
  Fe3+  Fe67  1  0.37431749  0.12766659  0.87535042  1
  Fe3+  Fe68  1  0.62532801  0.62588130  0.37725473  1
  Fe3+  Fe69  1  0.87452617  0.12533059  0.37999035  1
  Fe3+  Fe70  1  0.37550493  0.87352940  0.37578523  1
  Fe3+  Fe71  1  0.12680550  0.37624513  0.87567680  1
  Fe3+  Fe72  1  0.37507843  0.12558562  0.37914115  1
  Fe3+  Fe73  1  0.87451596  0.62431854  0.37592768  1
  Fe3+  Fe74  1  0.87585910  0.87376533  0.87715010  1
  Fe3+  Fe75  1  0.87399258  0.87256298  0.37628830  1
  Fe3+  Fe76  1  0.37506511  0.37593071  0.87452978  1
  Fe3+  Fe77  1  0.12533183  0.37771341  0.37638363  1
  Fe3+  Fe78  1  0.37530029  0.37739428  0.37740054  1
  Fe3+  Fe79  1  0.12585072  0.87368934  0.87818627  1
  Fe3+  Fe80  1  0.62433323  0.12609806  0.87954019  1
  Fe3+  Fe81  1  0.62516250  0.87271647  0.37889517  1
  Fe3+  Fe82  1  0.87574835  0.12568848  0.88063676  1
  Fe3+  Fe83  1  0.62421936  0.87399200  0.87957755  1
  Fe3+  Fe84  1  0.37356249  0.87373927  0.13379681  1
  Fe3+  Fe85  1  0.62400122  0.87368771  0.13265937  1
  Fe3+  Fe86  1  0.87552493  0.12628827  0.13550173  1
  Fe3+  Fe87  1  0.37443903  0.12533417  0.63334464  1
  Fe3+  Fe88  1  0.12551699  0.87371191  0.63908634  1
  Fe3+  Fe89  1  0.62464712  0.87265380  0.63628698  1
  Fe3+  Fe90  1  0.62561675  0.12610572  0.13386896  1
  Fe3+  Fe91  1  0.12413516  0.12470245  0.63645264  1
  Fe3+  Fe92  1  0.12400982  0.12622740  0.14020157  1
  Fe3+  Fe93  1  0.87564453  0.12543250  0.63525855  1
  Fe3+  Fe94  1  0.87593034  0.37617065  0.63883876  1
  Fe3+  Fe95  1  0.87626539  0.37577993  0.13860304  1
  Cu2+  Cu96  1  0.12490314  0.87336060  0.36152136  1
  Cu2+  Cu97  1  0.87481745  0.37690361  0.36519602  1
  Cu2+  Cu98  1  0.12564032  0.12533432  0.86345728  1
  Cu2+  Cu99  1  0.12500012  0.12563849  0.36649527  1
  Cu2+  Cu100  1  0.12463944  0.62463447  0.37174056  1
  Cu2+  Cu101  1  0.37430072  0.62308627  0.87255038  1
  Cu2+  Cu102  1  0.62420983  0.37732013  0.37199003  1
  Cu2+  Cu103  1  0.37526771  0.62472792  0.37132714  1
  Cu2+  Cu104  1  0.12564231  0.62469205  0.87186744  1
  Cu2+  Cu105  1  0.87499004  0.37532511  0.86304753  1
  Cu2+  Cu106  1  0.87596714  0.62449747  0.87234761  1
  Cu2+  Cu107  1  0.62432352  0.62391365  0.87181466  1
  Cu2+  Cu108  1  0.87550788  0.87460474  0.14895277  1
  Cu2+  Cu109  1  0.37464808  0.12497180  0.15372753  1
  Cu2+  Cu110  1  0.12494223  0.62514451  0.64316518  1
  Cu2+  Cu111  1  0.87598827  0.87432947  0.65207849  1
  Cu2+  Cu112  1  0.87560056  0.62352441  0.14304937  1
  Cu2+  Cu113  1  0.62528972  0.37529104  0.15027964  1
  Cu2+  Cu114  1  0.62511637  0.62407942  0.14140225  1
  Cu2+  Cu115  1  0.37447736  0.37548291  0.64719141  1
  Cu2+  Cu116  1  0.37408605  0.87454365  0.65153991  1
  Cu2+  Cu117  1  0.12431237  0.37589116  0.65122578  1
  Cu2+  Cu118  1  0.62623931  0.37713945  0.64349130  1
  Cu2+  Cu119  1  0.87556535  0.62433102  0.65323910  1
  Cu2+  Cu120  1  0.37438141  0.62464316  0.64275220  1
  Cu2+  Cu121  1  0.62571106  0.12472988  0.64938593  1
  Cu2+  Cu122  1  0.12466744  0.37529264  0.15342054  1
  Cu2+  Cu123  1  0.37456137  0.62490855  0.14283794  1
  Cu2+  Cu124  1  0.12574784  0.87436602  0.15054654  1
  Cu2+  Cu125  1  0.37426117  0.37594364  0.15508799  1
  Cu2+  Cu126  1  0.12464307  0.62399780  0.14288746  1
  Cu2+  Cu127  1  0.62532548  0.62523517  0.65097989  1
  O2-  O128  1  0.12438401  0.12631220  0.01954056  1
  O2-  O129  1  0.12296833  0.12325605  0.51654181  1
  O2-  O130  1  0.12822912  0.37373334  -0.00387535  1
  O2-  O131  1  0.12500455  0.37642788  0.49710023  1
  O2-  O132  1  0.12451406  0.62373272  0.00806589  1
  O2-  O133  1  0.12421547  0.62540657  0.50761514  1
  O2-  O134  1  0.12609305  0.87573036  -0.00145792  1
  O2-  O135  1  0.12500480  0.87507177  0.51834689  1
  O2-  O136  1  0.37427421  0.12791600  -0.00437550  1
  O2-  O137  1  0.37592511  0.12392126  0.50535437  1
  O2-  O138  1  0.37436183  0.37338406  -0.00536181  1
  O2-  O139  1  0.37519682  0.37505180  0.49784343  1
  O2-  O140  1  0.37432607  0.62363812  0.00722241  1
  O2-  O141  1  0.37497952  0.62514155  0.50714282  1
  O2-  O142  1  0.37467309  0.87543568  0.00629826  1
  O2-  O143  1  0.37667229  0.87641480  0.49607071  1
  O2-  O144  1  0.62427874  0.12630087  0.00570648  1
  O2-  O145  1  0.62582535  0.12127794  0.49688972  1
  O2-  O146  1  0.62213235  0.37311382  -0.00315880  1
  O2-  O147  1  0.62540514  0.37649519  0.50754207  1
  O2-  O148  1  0.62525889  0.62377779  0.00669540  1
  O2-  O149  1  0.62650534  0.62795990  0.49765554  1
  O2-  O150  1  0.62411686  0.87568243  0.00587208  1
  O2-  O151  1  0.62533752  0.87379040  0.50590902  1
  O2-  O152  1  0.87600468  0.12584320  0.00837261  1
  O2-  O153  1  0.87402485  0.12448526  0.50763434  1
  O2-  O154  1  0.87662374  0.37288238  0.01840411  1
  O2-  O155  1  0.87488224  0.37418546  0.51843894  1
  O2-  O156  1  0.87626372  0.62366104  0.00693536  1
  O2-  O157  1  0.87415024  0.62564672  0.49642636  1
  O2-  O158  1  0.87554373  0.87622676  -0.00266525  1
  O2-  O159  1  0.87241971  0.87465104  0.49621556  1
  O2-  O160  1  0.12455493  0.00100598  0.16636976  1
  O2-  O161  1  0.12503975  0.00038201  0.66954444  1
  O2-  O162  1  0.12455480  0.24958210  0.16870526  1
  O2-  O163  1  0.12389006  0.24897712  0.66398780  1
  O2-  O164  1  0.12516480  0.49817580  0.16498441  1
  O2-  O165  1  0.12465316  0.49929852  0.66443932  1
  O2-  O166  1  0.12510220  0.75085919  0.16459733  1
  O2-  O167  1  0.12484580  0.75122120  0.66796713  1
  O2-  O168  1  0.37530508  -0.00185322  0.16241001  1
  O2-  O169  1  0.37587018  0.00223347  0.66543550  1
  O2-  O170  1  0.37557138  0.25013646  0.16671606  1
  O2-  O171  1  0.37559255  0.24819049  0.65881858  1
  O2-  O172  1  0.37476810  0.49893935  0.16513859  1
  O2-  O173  1  0.37484284  0.49879533  0.66376523  1
  O2-  O174  1  0.37557384  0.75303690  0.16315978  1
  O2-  O175  1  0.37558560  0.75083050  0.66746740  1
  O2-  O176  1  0.62511293  0.00030769  0.16071736  1
  O2-  O177  1  0.62534531  -0.00262486  0.66518006  1
  O2-  O178  1  0.62515336  0.24779955  0.16509973  1
  O2-  O179  1  0.62619144  0.24918016  0.66374177  1
  O2-  O180  1  0.62476849  0.49836016  0.16499643  1
  O2-  O181  1  0.62576421  0.50231386  0.66427918  1
  O2-  O182  1  0.62420491  0.75328377  0.16232800  1
  O2-  O183  1  0.62499604  0.75130902  0.66562039  1
  O2-  O184  1  0.87450872  0.00226709  0.16332802  1
  O2-  O185  1  0.87400722  0.00203291  0.66483767  1
  O2-  O186  1  0.87419517  0.24842055  0.16940323  1
  O2-  O187  1  0.87513146  0.24843288  0.66633943  1
  O2-  O188  1  0.87506622  0.49789575  0.16729048  1
  O2-  O189  1  0.87516249  0.50028924  0.66578289  1
  O2-  O190  1  0.87468008  0.75081324  0.16188216  1
  O2-  O191  1  0.87494654  0.74901961  0.66427172  1
  O2-  O192  1  -0.00179353  0.12483278  0.16855145  1
  O2-  O193  1  -0.00134584  0.12439827  0.66768683  1
  O2-  O194  1  -0.00002400  0.37315023  0.16833276  1
  O2-  O195  1  -0.00059853  0.37427560  0.66823760  1
  O2-  O196  1  -0.00004104  0.62495696  0.16557494  1
  O2-  O197  1  -0.00093250  0.62518380  0.66611058  1
  O2-  O198  1  0.00030877  0.87636647  0.16516915  1
  O2-  O199  1  0.00052197  0.87630085  0.66695048  1
  O2-  O200  1  0.24925370  0.12504931  0.16802736  1
  O2-  O201  1  0.25071650  0.12506919  0.66179066  1
  O2-  O202  1  0.24948396  0.37307183  0.16433192  1
  O2-  O203  1  0.24906497  0.37325854  0.66056304  1
  O2-  O204  1  0.24993082  0.62523292  0.16530546  1
  O2-  O205  1  0.24988597  0.62527767  0.66532105  1
  O2-  O206  1  0.25173807  0.87646654  0.16364700  1
  O2-  O207  1  0.24963753  0.87617581  0.66808092  1
  O2-  O208  1  0.50186346  0.12387522  0.16124907  1
  O2-  O209  1  0.49860137  0.12393930  0.66199450  1
  O2-  O210  1  0.49986707  0.37397590  0.16369211  1
  O2-  O211  1  0.49937230  0.37450412  0.66165101  1
  O2-  O212  1  0.49985471  0.62494665  0.16397239  1
  O2-  O213  1  0.50093048  0.62571944  0.66456565  1
  O2-  O214  1  0.49975563  0.87741687  0.16126777  1
  O2-  O215  1  0.50114913  0.87589083  0.66359768  1
  O2-  O216  1  0.75014086  0.12390732  0.16035745  1
  O2-  O217  1  0.75225738  0.12386647  0.66685778  1
  O2-  O218  1  0.75060363  0.37327090  0.16624847  1
  O2-  O219  1  0.75242694  0.37457420  0.66876571  1
  O2-  O220  1  0.75007576  0.62491207  0.16212291  1
  O2-  O221  1  0.75040163  0.62615899  0.66670362  1
  O2-  O222  1  0.74765897  0.87680051  0.16158173  1
  O2-  O223  1  0.74880721  0.87557690  0.66415254  1
  O2-  O224  1  0.12461936  0.00007607  0.34981764  1
  O2-  O225  1  0.12523477  -0.00049891  0.84985800  1
  O2-  O226  1  0.12472638  0.25127499  0.34991275  1
  O2-  O227  1  0.12504056  0.25036794  0.84586123  1
  O2-  O228  1  0.12451025  0.49929388  0.34638153  1
  O2-  O229  1  0.12480748  0.49873640  0.84691558  1
  O2-  O230  1  0.12507122  0.75003833  0.34821173  1
  O2-  O231  1  0.12595560  0.75149046  0.84847922  1
  O2-  O232  1  0.37532688  0.00114464  0.34638796  1
  O2-  O233  1  0.37633602  -0.00062153  0.84920822  1
  O2-  O234  1  0.37545204  0.24890617  0.35007587  1
  O2-  O235  1  0.37560236  0.25016341  0.83962464  1
  O2-  O236  1  0.37541280  0.49940201  0.34714689  1
  O2-  O237  1  0.37541913  0.49786830  0.84531240  1
  O2-  O238  1  0.37563736  0.75132678  0.34554398  1
  O2-  O239  1  0.37562081  0.75263946  0.85137502  1
  O2-  O240  1  0.62511697  -0.00186413  0.34485352  1
  O2-  O241  1  0.62466405  0.00050609  0.85076394  1
  O2-  O242  1  0.62524358  0.24807709  0.34909341  1
  O2-  O243  1  0.62560395  0.24830280  0.84627016  1
  O2-  O244  1  0.62537848  0.50279278  0.34752059  1
  O2-  O245  1  0.62512937  0.49793707  0.84646822  1
  O2-  O246  1  0.62511021  0.75190708  0.34442567  1
  O2-  O247  1  0.62443644  0.75299485  0.85019732  1
  O2-  O248  1  0.87449776  0.00043960  0.34766942  1
  O2-  O249  1  0.87422741  0.00121360  0.84839214  1
  O2-  O250  1  0.87380465  0.24900466  0.35325549  1
  O2-  O251  1  0.87411727  0.24755239  0.85003175  1
  O2-  O252  1  0.87417723  0.50083477  0.34811161  1
  O2-  O253  1  0.87497651  0.49870468  0.84909130  1
  O2-  O254  1  0.87404366  0.74985426  0.34317526  1
  O2-  O255  1  0.87425380  0.75190408  0.84712691  1
  O2-  O256  1  -0.00262798  0.12493588  0.35256836  1
  O2-  O257  1  -0.00173987  0.12501145  0.85187818  1
  O2-  O258  1  0.00006006  0.37427269  0.34987189  1
  O2-  O259  1  0.00026311  0.37323055  0.85031686  1
  O2-  O260  1  -0.00196678  0.62553909  0.34755472  1
  O2-  O261  1  0.00068764  0.62513042  0.84956317  1
  O2-  O262  1  -0.00063075  0.87552178  0.34944028  1
  O2-  O263  1  0.00035079  0.87636003  0.84736711  1
  O2-  O264  1  0.25214816  0.12417360  0.35198250  1
  O2-  O265  1  0.25128130  0.12423518  0.84404942  1
  O2-  O266  1  0.25051641  0.37454952  0.34618693  1
  O2-  O267  1  0.25055726  0.37420863  0.84201773  1
  O2-  O268  1  0.24984385  0.62574585  0.34890464  1
  O2-  O269  1  0.25012220  0.62488726  0.84816441  1
  O2-  O270  1  0.25008581  0.87598823  0.34803755  1
  O2-  O271  1  0.25164260  0.87686241  0.84963134  1
  O2-  O272  1  0.49895053  0.12375535  0.34550222  1
  O2-  O273  1  0.50157924  0.12401398  0.84632595  1
  O2-  O274  1  0.49833682  0.37458524  0.34633067  1
  O2-  O275  1  0.50022021  0.37353332  0.84247859  1
  O2-  O276  1  0.50203292  0.62656168  0.34614999  1
  O2-  O277  1  0.49961815  0.62518620  0.84800332  1
  O2-  O278  1  0.50189973  0.87626809  0.34512051  1
  O2-  O279  1  0.49994416  0.87660172  0.84994513  1
  O2-  O280  1  0.75102451  0.12380994  0.34482533  1
  O2-  O281  1  0.74939505  0.12376506  0.85262565  1
  O2-  O282  1  0.75080818  0.37482902  0.34953252  1
  O2-  O283  1  0.74936498  0.37331687  0.85057152  1
  O2-  O284  1  0.74974817  0.62607789  0.34274961  1
  O2-  O285  1  0.74994726  0.62514736  0.85080038  1
  O2-  O286  1  0.74841105  0.87623403  0.34483620  1
  O2-  O287  1  0.74857225  0.87681636  0.84917760  1
