# generated using pymatgen
data_BaYFeCuO5
_symmetry_space_group_name_H-M   'P 1'
_cell_length_a   15.66936102
_cell_length_b   15.67583155
_cell_length_c   15.49049943
_cell_angle_alpha   90.00743596
_cell_angle_beta   90.00052297
_cell_angle_gamma   90.00248316
_symmetry_Int_Tables_number   1
_chemical_formula_structural   BaYFeCuO5
_chemical_formula_sum   'Ba32 Y32 Fe32 Cu32 O160'
_cell_volume   3804.93542591
_cell_formula_units_Z   32
loop_
 _symmetry_equiv_pos_site_id
 _symmetry_equiv_pos_as_xyz
  1  'x, y, z'
loop_
 _atom_type_symbol
 _atom_type_oxidation_number
  Ba2+  2.0
  Y3+  3.0
  Fe3+  3.0
  Cu2+  2.0
  O2-  -2.0
loop_
 _atom_site_type_symbol
 _atom_site_label
 _atom_site_symmetry_multiplicity
 _atom_site_fract_x
 _atom_site_fract_y
 _atom_site_fract_z
 _atom_site_occupancy
  Ba2+  Ba0  1  0.00205750  -0.00287977  0.01633011  1
  Ba2+  Ba1  1  -0.00078237  -0.00174177  0.50437332  1
  Ba2+  Ba2  1  0.00233826  0.25059597  0.02150399  1
  Ba2+  Ba3  1  0.00525211  0.24557868  0.51160609  1
  Ba2+  Ba4  1  0.00669676  0.49299770  0.00630476  1
  Ba2+  Ba5  1  0.00766588  0.50672482  0.51580119  1
  Ba2+  Ba6  1  0.00406727  0.75863424  0.00317454  1
  Ba2+  Ba7  1  0.00387681  0.74789661  0.51397752  1
  Ba2+  Ba8  1  0.24839479  -0.00342271  0.01604588  1
  Ba2+  Ba9  1  0.24430043  0.00352262  0.51284002  1
  Ba2+  Ba10  1  0.24827022  0.25150270  0.02008605  1
  Ba2+  Ba11  1  0.24900339  0.25119610  0.51627805  1
  Ba2+  Ba12  1  0.24919625  0.49749866  0.01157908  1
  Ba2+  Ba13  1  0.24756055  0.50193572  0.52153452  1
  Ba2+  Ba14  1  0.24971276  0.75536110  0.00616059  1
  Ba2+  Ba15  1  0.24356617  0.74388477  0.51678944  1
  Ba2+  Ba16  1  0.49204944  0.00114229  0.00749932  1
  Ba2+  Ba17  1  0.50484329  0.00275671  0.51446028  1
  Ba2+  Ba18  1  0.49920631  0.25078471  0.00562691  1
  Ba2+  Ba19  1  0.49455267  0.24558822  0.51013842  1
  Ba2+  Ba20  1  0.49965316  0.50185926  0.01234614  1
  Ba2+  Ba21  1  0.48908079  0.49985489  0.51723806  1
  Ba2+  Ba22  1  0.49472124  0.74572860  0.01214020  1
  Ba2+  Ba23  1  0.49898756  0.75071133  0.51705579  1
  Ba2+  Ba24  1  0.75776616  0.00175395  0.00761792  1
  Ba2+  Ba25  1  0.75155437  -0.00194139  0.50629328  1
  Ba2+  Ba26  1  0.75066649  0.24990870  0.00681206  1
  Ba2+  Ba27  1  0.75057464  0.24030184  0.50670587  1
  Ba2+  Ba28  1  0.74296037  0.49817405  0.00501152  1
  Ba2+  Ba29  1  0.75525804  0.50567063  0.51168048  1
  Ba2+  Ba30  1  0.75045589  0.75022149  0.00706356  1
  Ba2+  Ba31  1  0.75555574  0.75548275  0.51271870  1
  Y3+  Y32  1  -0.00103089  -0.00118590  0.25403871  1
  Y3+  Y33  1  0.00219729  -0.00267736  0.76031311  1
  Y3+  Y34  1  0.00007783  0.24949118  0.25531985  1
  Y3+  Y35  1  0.00361785  0.25149890  0.75691784  1
  Y3+  Y36  1  0.00194526  0.49961666  0.25634116  1
  Y3+  Y37  1  0.00440724  0.50149837  0.75817008  1
  Y3+  Y38  1  0.00063890  0.75170955  0.25563398  1
  Y3+  Y39  1  0.00291465  0.75030842  0.76071552  1
  Y3+  Y40  1  0.25028313  -0.00009552  0.25332389  1
  Y3+  Y41  1  0.24787610  -0.00267393  0.76007866  1
  Y3+  Y42  1  0.25013125  0.24923357  0.25452025  1
  Y3+  Y43  1  0.24784358  0.25240405  0.75618175  1
  Y3+  Y44  1  0.24938181  0.50031919  0.25489715  1
  Y3+  Y45  1  0.24687689  0.50041060  0.75777100  1
  Y3+  Y46  1  0.24978989  0.75049697  0.25401087  1
  Y3+  Y47  1  0.24679138  0.75026544  0.76010679  1
  Y3+  Y48  1  0.49617359  0.00009779  0.25595695  1
  Y3+  Y49  1  0.50124520  -0.00017233  0.75953952  1
  Y3+  Y50  1  0.49648817  0.24874517  0.25669469  1
  Y3+  Y51  1  0.50154528  0.24911151  0.75710075  1
  Y3+  Y52  1  0.49847492  0.50173672  0.25403549  1
  Y3+  Y53  1  0.49974901  0.50069159  0.75872977  1
  Y3+  Y54  1  0.49843363  0.74931866  0.25283603  1
  Y3+  Y55  1  0.49966025  0.75075083  0.76073217  1
  Y3+  Y56  1  0.75459907  -0.00083323  0.25646788  1
  Y3+  Y57  1  0.74876470  -0.00035397  0.76019446  1
  Y3+  Y58  1  0.75306373  0.24888657  0.25735110  1
  Y3+  Y59  1  0.74746167  0.24849253  0.75826154  1
  Y3+  Y60  1  0.74998615  0.50102786  0.25520271  1
  Y3+  Y61  1  0.74921976  0.50172224  0.75896022  1
  Y3+  Y62  1  0.75096506  0.75032006  0.25351673  1
  Y3+  Y63  1  0.75051761  0.75057507  0.76189133  1
  Fe3+  Fe64  1  0.12528111  0.87391077  0.37620456  1
  Fe3+  Fe65  1  0.12539007  0.12485801  0.37402230  1
  Fe3+  Fe66  1  0.37442530  0.37476252  0.87536552  1
  Fe3+  Fe67  1  0.87580248  0.37535087  0.38038968  1
  Fe3+  Fe68  1  0.12566387  0.37592244  0.37690648  1
  Fe3+  Fe69  1  0.37372149  0.62491176  0.87561466  1
  Fe3+  Fe70  1  0.87687777  0.12558486  0.87728402  1
  Fe3+  Fe71  1  0.12540570  0.12587183  0.87788673  1
  Fe3+  Fe72  1  0.62431399  0.62549468  0.37955752  1
  Fe3+  Fe73  1  0.87652758  0.62602748  0.37618004  1
  Fe3+  Fe74  1  0.37376785  0.37498323  0.37627041  1
  Fe3+  Fe75  1  0.37349696  0.62565028  0.37635211  1
  Fe3+  Fe76  1  0.37419686  0.87544001  0.38026245  1
  Fe3+  Fe77  1  0.62440668  0.37557163  0.38108449  1
  Fe3+  Fe78  1  0.62425498  0.87542074  0.88030268  1
  Fe3+  Fe79  1  0.62459469  0.12419459  0.37577510  1
  Fe3+  Fe80  1  0.62481395  0.87415592  0.37590700  1
  Fe3+  Fe81  1  0.87580608  0.37424705  0.87561039  1
  Fe3+  Fe82  1  0.87646992  0.62446298  0.87963191  1
  Fe3+  Fe83  1  0.37336936  0.12534854  0.87652717  1
  Fe3+  Fe84  1  0.87584132  0.62399645  0.13341512  1
  Fe3+  Fe85  1  0.62496435  0.12451691  0.13692872  1
  Fe3+  Fe86  1  0.12481001  0.62565055  0.13547041  1
  Fe3+  Fe87  1  0.87595545  0.12404181  0.63872401  1
  Fe3+  Fe88  1  0.37411518  0.12429583  0.63868598  1
  Fe3+  Fe89  1  0.87593023  0.87492694  0.64163444  1
  Fe3+  Fe90  1  0.62474952  0.37389891  0.13983101  1
  Fe3+  Fe91  1  0.37416788  0.87503546  0.63613849  1
  Fe3+  Fe92  1  0.62456469  0.87570318  0.13456287  1
  Fe3+  Fe93  1  0.87535165  0.37549531  0.63446673  1
  Fe3+  Fe94  1  0.62512582  0.37467267  0.63390636  1
  Fe3+  Fe95  1  0.62514273  0.62611104  0.63588836  1
  Cu2+  Cu96  1  0.62475543  0.12487844  0.86788008  1
  Cu2+  Cu97  1  0.37465365  0.87530981  0.87228159  1
  Cu2+  Cu98  1  0.62448365  0.37501590  0.86076529  1
  Cu2+  Cu99  1  0.62408519  0.62518937  0.87369142  1
  Cu2+  Cu100  1  0.12570640  0.37391057  0.87206844  1
  Cu2+  Cu101  1  0.12553607  0.87612356  0.87243930  1
  Cu2+  Cu102  1  0.87547709  0.87406558  0.36074196  1
  Cu2+  Cu103  1  0.87604153  0.12469475  0.36267615  1
  Cu2+  Cu104  1  0.87549917  0.87582019  0.87423623  1
  Cu2+  Cu105  1  0.12563587  0.62506917  0.36973531  1
  Cu2+  Cu106  1  0.12533221  0.62475440  0.86920240  1
  Cu2+  Cu107  1  0.37381670  0.12417770  0.36410020  1
  Cu2+  Cu108  1  0.12512864  0.87438150  0.14348626  1
  Cu2+  Cu109  1  0.87489625  0.87400366  0.14057447  1
  Cu2+  Cu110  1  0.12495188  0.12459932  0.15024495  1
  Cu2+  Cu111  1  0.12448483  0.12422510  0.65268203  1
  Cu2+  Cu112  1  0.87490721  0.12531693  0.15000596  1
  Cu2+  Cu113  1  0.62546122  0.87486203  0.65356178  1
  Cu2+  Cu114  1  0.37383834  0.62475124  0.14863075  1
  Cu2+  Cu115  1  0.12453861  0.37494673  0.64943862  1
  Cu2+  Cu116  1  0.62570416  0.12445771  0.65214507  1
  Cu2+  Cu117  1  0.62525198  0.62500246  0.14011594  1
  Cu2+  Cu118  1  0.12524247  0.37554761  0.14272942  1
  Cu2+  Cu119  1  0.37507086  0.12538364  0.14853834  1
  Cu2+  Cu120  1  0.37511017  0.62597108  0.65343514  1
  Cu2+  Cu121  1  0.12480976  0.87530856  0.65150652  1
  Cu2+  Cu122  1  0.37525215  0.37476601  0.65217466  1
  Cu2+  Cu123  1  0.37499002  0.87466383  0.14115499  1
  Cu2+  Cu124  1  0.37558161  0.37510101  0.15013645  1
  Cu2+  Cu125  1  0.87517901  0.62551940  0.65456823  1
  Cu2+  Cu126  1  0.12494528  0.62597510  0.64650557  1
  Cu2+  Cu127  1  0.87448154  0.37586274  0.15104023  1
  O2-  O128  1  0.12523067  0.12638628  -0.00185903  1
  O2-  O129  1  0.12518668  0.12505731  0.49469249  1
  O2-  O130  1  0.12549198  0.37376315  0.00738221  1
  O2-  O131  1  0.12554212  0.37517339  0.49717009  1
  O2-  O132  1  0.12445427  0.62479891  0.01518105  1
  O2-  O133  1  0.12543239  0.62502635  0.50832622  1
  O2-  O134  1  0.12597400  0.87621710  0.00786114  1
  O2-  O135  1  0.12521371  0.87478643  0.49663342  1
  O2-  O136  1  0.37381610  0.12710552  -0.00307004  1
  O2-  O137  1  0.37501379  0.12308587  0.51800234  1
  O2-  O138  1  0.37600342  0.37486692  -0.00452012  1
  O2-  O139  1  0.37379176  0.37482410  0.49635113  1
  O2-  O140  1  0.37494406  0.62324684  -0.00385638  1
  O2-  O141  1  0.37474916  0.62571991  0.49655326  1
  O2-  O142  1  0.37613385  0.87521891  0.00689976  1
  O2-  O143  1  0.37454776  0.87561725  0.50705445  1
  O2-  O144  1  0.62484635  0.12700492  0.01682428  1
  O2-  O145  1  0.62514883  0.12326712  0.49656189  1
  O2-  O146  1  0.62501141  0.37348225  0.01929165  1
  O2-  O147  1  0.62477122  0.37542546  0.50701473  1
  O2-  O148  1  0.62496885  0.62368222  0.00671433  1
  O2-  O149  1  0.62482277  0.62637538  0.50633775  1
  O2-  O150  1  0.62398357  0.87603764  0.00758809  1
  O2-  O151  1  0.62491416  0.87353722  0.49605682  1
  O2-  O152  1  0.87675169  0.12809821  -0.00239891  1
  O2-  O153  1  0.87477184  0.12249241  0.51816019  1
  O2-  O154  1  0.87448651  0.37381207  -0.00425369  1
  O2-  O155  1  0.87550452  0.37562768  0.50681712  1
  O2-  O156  1  0.87543862  0.62249440  0.00656869  1
  O2-  O157  1  0.87526398  0.62679295  0.49664681  1
  O2-  O158  1  0.87391164  0.87582169  0.00769623  1
  O2-  O159  1  0.87537597  0.87522828  0.52095784  1
  O2-  O160  1  0.12494265  0.00108992  0.16440881  1
  O2-  O161  1  0.12459654  -0.00036725  0.66492739  1
  O2-  O162  1  0.12476684  0.24891103  0.16505963  1
  O2-  O163  1  0.12471883  0.25002194  0.66159619  1
  O2-  O164  1  0.12467358  0.50202484  0.16580480  1
  O2-  O165  1  0.12474046  0.49911929  0.66562177  1
  O2-  O166  1  0.12488374  0.74790942  0.16652527  1
  O2-  O167  1  0.12477058  0.75159424  0.66734869  1
  O2-  O168  1  0.37528320  0.00129484  0.16552900  1
  O2-  O169  1  0.37537687  -0.00150549  0.66587776  1
  O2-  O170  1  0.37543784  0.25024862  0.16469501  1
  O2-  O171  1  0.37557094  0.24926984  0.66381354  1
  O2-  O172  1  0.37604192  0.49985555  0.16310857  1
  O2-  O173  1  0.37610743  0.50008173  0.66208763  1
  O2-  O174  1  0.37551427  0.74855943  0.16522409  1
  O2-  O175  1  0.37594439  0.75235717  0.66273025  1
  O2-  O176  1  0.62476176  -0.00059270  0.16423282  1
  O2-  O177  1  0.62525015  -0.00054583  0.66641539  1
  O2-  O178  1  0.62519054  0.24918103  0.17114895  1
  O2-  O179  1  0.62587736  0.25200943  0.66170500  1
  O2-  O180  1  0.62488591  0.49801815  0.16927345  1
  O2-  O181  1  0.62524146  0.50024389  0.66015352  1
  O2-  O182  1  0.62459322  0.75268895  0.16261529  1
  O2-  O183  1  0.62514926  0.74819558  0.66483995  1
  O2-  O184  1  0.87479073  0.00073888  0.16473781  1
  O2-  O185  1  0.87508794  -0.00020098  0.67025489  1
  O2-  O186  1  0.87449746  0.25084915  0.16666804  1
  O2-  O187  1  0.87396011  0.25167173  0.66103708  1
  O2-  O188  1  0.87417726  0.50146576  0.16532248  1
  O2-  O189  1  0.87399951  0.49891666  0.66157679  1
  O2-  O190  1  0.87433083  0.74645958  0.16184906  1
  O2-  O191  1  0.87409971  0.75021269  0.67030685  1
  O2-  O192  1  -0.00037361  0.12554991  0.16406307  1
  O2-  O193  1  -0.00017582  0.12595062  0.66493962  1
  O2-  O194  1  -0.00159522  0.37512036  0.16588322  1
  O2-  O195  1  -0.00203889  0.37539907  0.66208122  1
  O2-  O196  1  -0.00110560  0.62418663  0.16465838  1
  O2-  O197  1  -0.00095783  0.62526416  0.66779678  1
  O2-  O198  1  0.00015123  0.87463872  0.16464784  1
  O2-  O199  1  0.00012881  0.87420821  0.66808452  1
  O2-  O200  1  0.25030011  0.12503893  0.16257024  1
  O2-  O201  1  0.24948436  0.12465946  0.66373070  1
  O2-  O202  1  0.25202921  0.37520360  0.16268066  1
  O2-  O203  1  0.24988927  0.37503433  0.66272846  1
  O2-  O204  1  0.24958404  0.62462140  0.16329331  1
  O2-  O205  1  0.25147892  0.62549769  0.66536048  1
  O2-  O206  1  0.25006996  0.87500010  0.16472578  1
  O2-  O207  1  0.25093068  0.87525783  0.66270777  1
  O2-  O208  1  0.50040613  0.12503078  0.16622984  1
  O2-  O209  1  0.50001722  0.12445870  0.66543277  1
  O2-  O210  1  0.50027285  0.37459165  0.16794060  1
  O2-  O211  1  0.50260034  0.37503294  0.66173909  1
  O2-  O212  1  0.49800095  0.62494385  0.16450777  1
  O2-  O213  1  0.50191165  0.62538525  0.66192514  1
  O2-  O214  1  0.50252685  0.87521971  0.16521766  1
  O2-  O215  1  0.49891367  0.87528175  0.66287676  1
  O2-  O216  1  0.74949709  0.12518672  0.16705712  1
  O2-  O217  1  0.75094039  0.12488757  0.66796763  1
  O2-  O218  1  0.74909868  0.37481542  0.17054262  1
  O2-  O219  1  0.74973435  0.37629145  0.66171974  1
  O2-  O220  1  0.75302685  0.62430978  0.16533722  1
  O2-  O221  1  0.74779104  0.62490488  0.66464615  1
  O2-  O222  1  0.74689647  0.87487043  0.16462558  1
  O2-  O223  1  0.75040578  0.87453324  0.66946999  1
  O2-  O224  1  0.12470082  -0.00085908  0.34591757  1
  O2-  O225  1  0.12539000  0.00228410  0.84746505  1
  O2-  O226  1  0.12436265  0.25067111  0.34600112  1
  O2-  O227  1  0.12520514  0.24845046  0.84397200  1
  O2-  O228  1  0.12490613  0.49838991  0.34625815  1
  O2-  O229  1  0.12495910  0.50042406  0.84949824  1
  O2-  O230  1  0.12496651  0.75144822  0.34668821  1
  O2-  O231  1  0.12497273  0.74938752  0.85131043  1
  O2-  O232  1  0.37521669  -0.00201172  0.34981045  1
  O2-  O233  1  0.37537856  0.00196110  0.84720786  1
  O2-  O234  1  0.37541181  0.25019741  0.34821529  1
  O2-  O235  1  0.37603848  0.24992390  0.84392748  1
  O2-  O236  1  0.37604074  0.50015208  0.34493568  1
  O2-  O237  1  0.37529358  0.49972822  0.84415909  1
  O2-  O238  1  0.37596323  0.75159319  0.34794717  1
  O2-  O239  1  0.37501016  0.74873247  0.84643904  1
  O2-  O240  1  0.62531776  -0.00085120  0.34529787  1
  O2-  O241  1  0.62492374  -0.00156276  0.85101695  1
  O2-  O242  1  0.62572904  0.25146266  0.35221271  1
  O2-  O243  1  0.62487977  0.25029777  0.84675882  1
  O2-  O244  1  0.62509175  0.50039732  0.35268008  1
  O2-  O245  1  0.62547120  0.49891788  0.84479869  1
  O2-  O246  1  0.62503411  0.74851595  0.34594688  1
  O2-  O247  1  0.62486086  0.75298443  0.84974089  1
  O2-  O248  1  0.87477399  -0.00109286  0.34983719  1
  O2-  O249  1  0.87427091  0.00229284  0.84949192  1
  O2-  O250  1  0.87427701  0.25269320  0.35181963  1
  O2-  O251  1  0.87428569  0.24990250  0.84164302  1
  O2-  O252  1  0.87381322  0.49886382  0.34847105  1
  O2-  O253  1  0.87459046  0.50074882  0.84636789  1
  O2-  O254  1  0.87374173  0.74898635  0.34425027  1
  O2-  O255  1  0.87518704  0.74753880  0.85380294  1
  O2-  O256  1  0.00041852  0.12497520  0.34729444  1
  O2-  O257  1  0.00049770  0.12584049  0.84478119  1
  O2-  O258  1  -0.00122537  0.37537398  0.34899907  1
  O2-  O259  1  -0.00139150  0.37548970  0.84520514  1
  O2-  O260  1  -0.00127159  0.62446417  0.34592870  1
  O2-  O261  1  -0.00081385  0.62405161  0.85159366  1
  O2-  O262  1  -0.00013491  0.87474731  0.34771193  1
  O2-  O263  1  0.00041421  0.87528753  0.85046569  1
  O2-  O264  1  0.24895082  0.12464106  0.34540252  1
  O2-  O265  1  0.24997334  0.12539505  0.84385003  1
  O2-  O266  1  0.25005856  0.37469171  0.34372140  1
  O2-  O267  1  0.25180105  0.37501064  0.84563797  1
  O2-  O268  1  0.25178646  0.62549537  0.34452881  1
  O2-  O269  1  0.24976771  0.62494557  0.84787503  1
  O2-  O270  1  0.25152866  0.87504109  0.34727657  1
  O2-  O271  1  0.24961492  0.87491103  0.84719698  1
  O2-  O272  1  0.50042674  0.12473345  0.34790911  1
  O2-  O273  1  0.49930534  0.12532383  0.84839507  1
  O2-  O274  1  0.50122847  0.37487079  0.34968621  1
  O2-  O275  1  0.49959468  0.37488809  0.84538323  1
  O2-  O276  1  0.50107552  0.62547937  0.34748952  1
  O2-  O277  1  0.49782168  0.62498703  0.84489505  1
  O2-  O278  1  0.49859390  0.87475595  0.34788849  1
  O2-  O279  1  0.50257575  0.87550963  0.84789937  1
  O2-  O280  1  0.75009253  0.12482148  0.34909685  1
  O2-  O281  1  0.75053681  0.12613664  0.85059243  1
  O2-  O282  1  0.74972785  0.37587445  0.35402049  1
  O2-  O283  1  0.75026422  0.37529246  0.84563368  1
  O2-  O284  1  0.74829787  0.62449301  0.34866866  1
  O2-  O285  1  0.75315834  0.62448588  0.84968619  1
  O2-  O286  1  0.75004955  0.87414449  0.34795409  1
  O2-  O287  1  0.74730285  0.87485621  0.85248657  1
