# generated using pymatgen
data_BaYFeCuO5
_symmetry_space_group_name_H-M   'P 1'
_cell_length_a   15.65500726
_cell_length_b   15.65418484
_cell_length_c   15.45249234
_cell_angle_alpha   89.99629789
_cell_angle_beta   89.99757565
_cell_angle_gamma   89.99940906
_symmetry_Int_Tables_number   1
_chemical_formula_structural   BaYFeCuO5
_chemical_formula_sum   'Ba32 Y32 Fe32 Cu32 O160'
_cell_volume   3786.88630570
_cell_formula_units_Z   32
loop_
 _symmetry_equiv_pos_site_id
 _symmetry_equiv_pos_as_xyz
  1  'x, y, z'
loop_
 _atom_type_symbol
 _atom_type_oxidation_number
  Ba2+  2.0
  Y3+  3.0
  Fe3+  3.0
  Cu2+  2.0
  O2-  -2.0
loop_
 _atom_site_type_symbol
 _atom_site_label
 _atom_site_symmetry_multiplicity
 _atom_site_fract_x
 _atom_site_fract_y
 _atom_site_fract_z
 _atom_site_occupancy
  Ba2+  Ba0  1  0.00639764  -0.00768367  0.00735586  1
  Ba2+  Ba1  1  -0.00027340  0.00012349  0.50588379  1
  Ba2+  Ba2  1  0.00378253  0.25945766  0.00324321  1
  Ba2+  Ba3  1  0.00610826  0.25550821  0.52445471  1
  Ba2+  Ba4  1  0.00166334  0.50167671  0.00696121  1
  Ba2+  Ba5  1  0.00415318  0.49887082  0.52108462  1
  Ba2+  Ba6  1  0.00360221  0.74574969  0.01173278  1
  Ba2+  Ba7  1  -0.00365878  0.74459288  0.49843642  1
  Ba2+  Ba8  1  0.24664041  -0.00940642  0.00193543  1
  Ba2+  Ba9  1  0.24937362  0.01015656  0.51869097  1
  Ba2+  Ba10  1  0.24639660  0.25886264  0.00255028  1
  Ba2+  Ba11  1  0.25116965  0.25392054  0.52277822  1
  Ba2+  Ba12  1  0.24648052  0.49981196  0.01045912  1
  Ba2+  Ba13  1  0.24965586  0.49670216  0.52266900  1
  Ba2+  Ba14  1  0.24667207  0.75012580  0.01135178  1
  Ba2+  Ba15  1  0.24817708  0.73957968  0.51799835  1
  Ba2+  Ba16  1  0.49595892  -0.00378784  0.01077073  1
  Ba2+  Ba17  1  0.50539860  0.00748489  0.51561845  1
  Ba2+  Ba18  1  0.49676984  0.25302701  0.01145455  1
  Ba2+  Ba19  1  0.49352295  0.24692690  0.51182463  1
  Ba2+  Ba20  1  0.49294969  0.50264739  0.01710326  1
  Ba2+  Ba21  1  0.48781238  0.49685291  0.51026681  1
  Ba2+  Ba22  1  0.49291007  0.74782815  0.01656366  1
  Ba2+  Ba23  1  0.49936465  0.74948587  0.51501477  1
  Ba2+  Ba24  1  0.75023750  -0.00076217  0.01772529  1
  Ba2+  Ba25  1  0.74372568  -0.00073765  0.50704405  1
  Ba2+  Ba26  1  0.75346307  0.25402925  0.01152288  1
  Ba2+  Ba27  1  0.74717762  0.24712126  0.51106440  1
  Ba2+  Ba28  1  0.75950301  0.50402037  0.01102127  1
  Ba2+  Ba29  1  0.76043413  0.49934041  0.50598037  1
  Ba2+  Ba30  1  0.75651783  0.74363083  0.01655457  1
  Ba2+  Ba31  1  0.75529965  0.75363309  0.50031330  1
  Y3+  Y32  1  -0.00018397  -0.00287427  0.25639005  1
  Y3+  Y33  1  0.00318947  0.00039935  0.75993808  1
  Y3+  Y34  1  0.00088085  0.25304310  0.25209808  1
  Y3+  Y35  1  0.00199882  0.25287180  0.76236034  1
  Y3+  Y36  1  0.00051538  0.50075178  0.25070779  1
  Y3+  Y37  1  0.00080618  0.49987343  0.76462971  1
  Y3+  Y38  1  -0.00048213  0.74902084  0.25322128  1
  Y3+  Y39  1  0.00176814  0.74722783  0.76276646  1
  Y3+  Y40  1  0.25006838  -0.00220442  0.25349245  1
  Y3+  Y41  1  0.24875300  0.00015210  0.76127023  1
  Y3+  Y42  1  0.25125282  0.25403596  0.25376354  1
  Y3+  Y43  1  0.24932174  0.25215508  0.76029352  1
  Y3+  Y44  1  0.24994796  0.49820053  0.25187285  1
  Y3+  Y45  1  0.24897737  0.49871016  0.76050806  1
  Y3+  Y46  1  0.24859456  0.74956852  0.25177549  1
  Y3+  Y47  1  0.24843360  0.74946679  0.76166771  1
  Y3+  Y48  1  0.50065433  0.00156671  0.25609860  1
  Y3+  Y49  1  0.50024677  0.00024721  0.75638598  1
  Y3+  Y50  1  0.49923792  0.25036705  0.25788013  1
  Y3+  Y51  1  0.49812610  0.25040379  0.75626242  1
  Y3+  Y52  1  0.49690286  0.49865540  0.25660496  1
  Y3+  Y53  1  0.49676298  0.49834160  0.75634100  1
  Y3+  Y54  1  0.49860197  0.74890211  0.25507325  1
  Y3+  Y55  1  0.49909559  0.75149986  0.75694136  1
  Y3+  Y56  1  0.74956645  0.00089302  0.25973443  1
  Y3+  Y57  1  0.74769558  0.00051426  0.75468635  1
  Y3+  Y58  1  0.74851323  0.24908080  0.25668332  1
  Y3+  Y59  1  0.75076069  0.25132927  0.75759286  1
  Y3+  Y60  1  0.75288095  0.50084412  0.25430553  1
  Y3+  Y61  1  0.75330355  0.49937041  0.76027039  1
  Y3+  Y62  1  0.75376908  0.74831048  0.25678670  1
  Y3+  Y63  1  0.74985603  0.74937194  0.75771771  1
  Fe3+  Fe64  1  0.37292688  0.62456261  0.37537191  1
  Fe3+  Fe65  1  0.37316051  0.12546745  0.37526187  1
  Fe3+  Fe66  1  0.87754283  0.37451566  0.37648524  1
  Fe3+  Fe67  1  0.87427510  0.87481697  0.87829204  1
  Fe3+  Fe68  1  0.12522250  0.62282346  0.37500177  1
  Fe3+  Fe69  1  0.62503726  0.62378003  0.37888503  1
  Fe3+  Fe70  1  0.62438083  0.62481038  0.87831940  1
  Fe3+  Fe71  1  0.37396009  0.87522928  0.38014899  1
  Fe3+  Fe72  1  0.87650530  0.12651042  0.37918450  1
  Fe3+  Fe73  1  0.37450334  0.12514304  0.87873430  1
  Fe3+  Fe74  1  0.62438761  0.37633581  0.87980364  1
  Fe3+  Fe75  1  0.62355605  0.87449093  0.37603487  1
  Fe3+  Fe76  1  0.12549155  0.12697673  0.37668131  1
  Fe3+  Fe77  1  0.62505639  0.87424397  0.87983077  1
  Fe3+  Fe78  1  0.87541336  0.12436968  0.87972035  1
  Fe3+  Fe79  1  0.62441675  0.37515502  0.37938975  1
  Fe3+  Fe80  1  0.12613234  0.87440556  0.38005585  1
  Fe3+  Fe81  1  0.37513623  0.62508899  0.87521892  1
  Fe3+  Fe82  1  0.12585838  0.37543537  0.37549876  1
  Fe3+  Fe83  1  0.62521412  0.12522243  0.87897755  1
  Fe3+  Fe84  1  0.12383974  0.87384227  0.63539044  1
  Fe3+  Fe85  1  0.62537895  0.37592752  0.63473552  1
  Fe3+  Fe86  1  0.87594660  0.62529851  0.63957901  1
  Fe3+  Fe87  1  0.87581010  0.12536252  0.63646683  1
  Fe3+  Fe88  1  0.62534370  0.87389463  0.13613110  1
  Fe3+  Fe89  1  0.87573463  0.87461666  0.63741112  1
  Fe3+  Fe90  1  0.62552273  0.62412931  0.63342862  1
  Fe3+  Fe91  1  0.37429442  0.87546537  0.63517948  1
  Fe3+  Fe92  1  0.37413356  0.12495057  0.13348597  1
  Fe3+  Fe93  1  0.87621100  0.12490680  0.13503116  1
  Fe3+  Fe94  1  0.62521994  0.37603412  0.13595169  1
  Fe3+  Fe95  1  0.12554770  0.12496610  0.13421040  1
  Cu2+  Cu96  1  0.87636550  0.62320367  0.36173498  1
  Cu2+  Cu97  1  0.37614732  0.37564899  0.87338230  1
  Cu2+  Cu98  1  0.87455843  0.62596231  0.87265589  1
  Cu2+  Cu99  1  0.87397361  0.37521012  0.87375495  1
  Cu2+  Cu100  1  0.12501269  0.12530490  0.86928269  1
  Cu2+  Cu101  1  0.37317048  0.37492348  0.37186000  1
  Cu2+  Cu102  1  0.12564213  0.37637014  0.87025702  1
  Cu2+  Cu103  1  0.12559944  0.62491931  0.87351317  1
  Cu2+  Cu104  1  0.62403417  0.12583417  0.37245688  1
  Cu2+  Cu105  1  0.87554179  0.87538011  0.36327557  1
  Cu2+  Cu106  1  0.12462585  0.87374763  0.87040988  1
  Cu2+  Cu107  1  0.37576799  0.87437001  0.87182594  1
  Cu2+  Cu108  1  0.12518912  0.62455074  0.14096492  1
  Cu2+  Cu109  1  0.62476626  0.12523119  0.14599253  1
  Cu2+  Cu110  1  0.87629762  0.62477102  0.14360352  1
  Cu2+  Cu111  1  0.87511480  0.37472768  0.14106230  1
  Cu2+  Cu112  1  0.62537141  0.12648013  0.64305704  1
  Cu2+  Cu113  1  0.12476169  0.87506567  0.14367974  1
  Cu2+  Cu114  1  0.12493566  0.37512589  0.14064465  1
  Cu2+  Cu115  1  0.62498080  0.62449327  0.14906268  1
  Cu2+  Cu116  1  0.62545205  0.87413466  0.64894848  1
  Cu2+  Cu117  1  0.12426498  0.62541904  0.65514088  1
  Cu2+  Cu118  1  0.37468217  0.87532314  0.14078818  1
  Cu2+  Cu119  1  0.37439704  0.62482705  0.15137408  1
  Cu2+  Cu120  1  0.37495047  0.37450777  0.14022248  1
  Cu2+  Cu121  1  0.37487796  0.62566244  0.65248313  1
  Cu2+  Cu122  1  0.37427816  0.12460558  0.65575463  1
  Cu2+  Cu123  1  0.87491214  0.87545739  0.15025694  1
  Cu2+  Cu124  1  0.87530194  0.37525097  0.65308962  1
  Cu2+  Cu125  1  0.12432798  0.12497388  0.65486970  1
  Cu2+  Cu126  1  0.37488322  0.37472122  0.64437579  1
  Cu2+  Cu127  1  0.12485743  0.37579974  0.65852776  1
  O2-  O128  1  0.12454805  0.12324744  0.01409356  1
  O2-  O129  1  0.12494642  0.12743482  0.49708722  1
  O2-  O130  1  0.12519732  0.37640850  0.00633233  1
  O2-  O131  1  0.12530679  0.37517746  0.49596385  1
  O2-  O132  1  0.12610479  0.62576100  0.00705066  1
  O2-  O133  1  0.12486287  0.62255041  0.49566662  1
  O2-  O134  1  0.12465575  0.87388752  0.00798658  1
  O2-  O135  1  0.12510935  0.87440056  0.50767900  1
  O2-  O136  1  0.37480672  0.12427186  0.00609520  1
  O2-  O137  1  0.37313935  0.12505137  0.49613803  1
  O2-  O138  1  0.37727875  0.37499485  0.00645210  1
  O2-  O139  1  0.37334586  0.37395999  0.50811917  1
  O2-  O140  1  0.37624798  0.62608021  -0.00401856  1
  O2-  O141  1  0.37312066  0.62502640  0.49606246  1
  O2-  O142  1  0.37639243  0.87468767  0.00646288  1
  O2-  O143  1  0.37414428  0.87612168  0.50623075  1
  O2-  O144  1  0.62626155  0.12389792  -0.00132621  1
  O2-  O145  1  0.62563713  0.12618603  0.50711924  1
  O2-  O146  1  0.62489599  0.37659515  0.00701373  1
  O2-  O147  1  0.62500548  0.37567552  0.50689382  1
  O2-  O148  1  0.62344453  0.62583162  -0.00161514  1
  O2-  O149  1  0.62581790  0.62401146  0.50588686  1
  O2-  O150  1  0.62546509  0.87386897  0.00676833  1
  O2-  O151  1  0.62338532  0.87414101  0.49684890  1
  O2-  O152  1  0.87497616  0.12354259  0.00695847  1
  O2-  O153  1  0.87661357  0.12644736  0.50739564  1
  O2-  O154  1  0.87303613  0.37436448  0.00672394  1
  O2-  O155  1  0.87863814  0.37404866  0.49704529  1
  O2-  O156  1  0.87501693  0.62612651  0.00758104  1
  O2-  O157  1  0.87605794  0.62488354  0.51856246  1
  O2-  O158  1  0.87246832  0.87615821  -0.00122060  1
  O2-  O159  1  0.87624812  0.87484973  0.51682982  1
  O2-  O160  1  0.12448548  0.00204541  0.16896150  1
  O2-  O161  1  0.12497158  -0.00220681  0.66380531  1
  O2-  O162  1  0.12488385  0.24795399  0.16335564  1
  O2-  O163  1  0.12416256  0.25010587  0.66696050  1
  O2-  O164  1  0.12524314  0.49966709  0.16185091  1
  O2-  O165  1  0.12497534  0.50060264  0.66593786  1
  O2-  O166  1  0.12485805  0.74994999  0.16648989  1
  O2-  O167  1  0.12448788  0.75192871  0.66428531  1
  O2-  O168  1  0.37609627  0.00326955  0.16489676  1
  O2-  O169  1  0.37453387  -0.00192671  0.66454585  1
  O2-  O170  1  0.37611706  0.24675648  0.16223829  1
  O2-  O171  1  0.37512602  0.24835483  0.66792422  1
  O2-  O172  1  0.37628247  0.50141162  0.16277124  1
  O2-  O173  1  0.37507388  0.50171466  0.66468266  1
  O2-  O174  1  0.37547291  0.74813781  0.16616880  1
  O2-  O175  1  0.37594481  0.75219998  0.66097549  1
  O2-  O176  1  0.62539643  -0.00203707  0.16291672  1
  O2-  O177  1  0.62538302  -0.00079704  0.66546227  1
  O2-  O178  1  0.62522817  0.25186952  0.16261886  1
  O2-  O179  1  0.62591360  0.25379913  0.66596601  1
  O2-  O180  1  0.62456585  0.49891492  0.16490840  1
  O2-  O181  1  0.62531000  0.50030113  0.66268223  1
  O2-  O182  1  0.62521337  0.75078305  0.16425306  1
  O2-  O183  1  0.62471855  0.74716527  0.66265852  1
  O2-  O184  1  0.87402690  0.00210076  0.16603216  1
  O2-  O185  1  0.87474167  0.00066875  0.66457272  1
  O2-  O186  1  0.87391479  0.24672331  0.16274167  1
  O2-  O187  1  0.87510848  0.24923910  0.66519886  1
  O2-  O188  1  0.87429944  0.49956537  0.16391180  1
  O2-  O189  1  0.87470549  0.50048831  0.66666626  1
  O2-  O190  1  0.87455043  0.75127431  0.16632911  1
  O2-  O191  1  0.87473757  0.75014848  0.66767000  1
  O2-  O192  1  -0.00081405  0.12422644  0.16518773  1
  O2-  O193  1  -0.00192871  0.12465285  0.66572222  1
  O2-  O194  1  -0.00019716  0.37407040  0.16244744  1
  O2-  O195  1  0.00032245  0.37503129  0.66720165  1
  O2-  O196  1  0.00020491  0.62564146  0.16420224  1
  O2-  O197  1  -0.00055966  0.62493489  0.66916667  1
  O2-  O198  1  -0.00153714  0.87602861  0.16692953  1
  O2-  O199  1  0.00079828  0.87600113  0.66616852  1
  O2-  O200  1  0.25097647  0.12422819  0.16274993  1
  O2-  O201  1  0.24923458  0.12433786  0.66577827  1
  O2-  O202  1  0.25040106  0.37455752  0.16197539  1
  O2-  O203  1  0.24866260  0.37448243  0.66687711  1
  O2-  O204  1  0.25189043  0.62538850  0.16234793  1
  O2-  O205  1  0.24946078  0.62644292  0.66301246  1
  O2-  O206  1  0.25014034  0.87538412  0.16599824  1
  O2-  O207  1  0.24935347  0.87486567  0.66126768  1
  O2-  O208  1  0.49878734  0.12478916  0.16142211  1
  O2-  O209  1  0.49891655  0.12472670  0.66528820  1
  O2-  O210  1  0.50260744  0.37497009  0.16521187  1
  O2-  O211  1  0.50275886  0.37515187  0.66332482  1
  O2-  O212  1  0.49856259  0.62522963  0.16554335  1
  O2-  O213  1  0.50180327  0.62486230  0.65901515  1
  O2-  O214  1  0.50296510  0.87442713  0.16371764  1
  O2-  O215  1  0.49849366  0.87566935  0.66215275  1
  O2-  O216  1  0.75126506  0.12453777  0.16469974  1
  O2-  O217  1  0.75340039  0.12556456  0.66412452  1
  O2-  O218  1  0.74729744  0.37464938  0.16612521  1
  O2-  O219  1  0.74853842  0.37546819  0.66312888  1
  O2-  O220  1  0.74984112  0.62498957  0.16747497  1
  O2-  O221  1  0.74919166  0.62468144  0.66499149  1
  O2-  O222  1  0.74827576  0.87524074  0.16412658  1
  O2-  O223  1  0.75101661  0.87503890  0.66573478  1
  O2-  O224  1  0.12487393  -0.00139834  0.35132839  1
  O2-  O225  1  0.12481110  0.00024509  0.84838069  1
  O2-  O226  1  0.12471207  0.25029855  0.34235803  1
  O2-  O227  1  0.12502246  0.25059586  0.85142716  1
  O2-  O228  1  0.12495791  0.49966173  0.34239863  1
  O2-  O229  1  0.12535996  0.49963296  0.85009853  1
  O2-  O230  1  0.12467944  0.75092981  0.35035895  1
  O2-  O231  1  0.12521598  0.74992589  0.84774470  1
  O2-  O232  1  0.37456403  -0.00185513  0.34712549  1
  O2-  O233  1  0.37571502  0.00290578  0.84931857  1
  O2-  O234  1  0.37483422  0.24852354  0.34449687  1
  O2-  O235  1  0.37582911  0.24746464  0.85175406  1
  O2-  O236  1  0.37521730  0.50187467  0.34566852  1
  O2-  O237  1  0.37673488  0.50148725  0.84697033  1
  O2-  O238  1  0.37550158  0.75145974  0.34894418  1
  O2-  O239  1  0.37637153  0.74860674  0.84388634  1
  O2-  O240  1  0.62481621  -0.00195063  0.34653909  1
  O2-  O241  1  0.62508601  -0.00045778  0.84917230  1
  O2-  O242  1  0.62509088  0.25334450  0.34738451  1
  O2-  O243  1  0.62553784  0.25037962  0.85026554  1
  O2-  O244  1  0.62549866  0.50003582  0.35006483  1
  O2-  O245  1  0.62480508  0.49932788  0.84713305  1
  O2-  O246  1  0.62511712  0.74802412  0.34864075  1
  O2-  O247  1  0.62513301  0.75117310  0.84665181  1
  O2-  O248  1  0.87513767  0.00251607  0.35131770  1
  O2-  O249  1  0.87444646  0.00105280  0.84724149  1
  O2-  O250  1  0.87518174  0.24932558  0.34486548  1
  O2-  O251  1  0.87398569  0.24675338  0.85073731  1
  O2-  O252  1  0.87418147  0.49837387  0.34644553  1
  O2-  O253  1  0.87357667  0.50033377  0.85015595  1
  O2-  O254  1  0.87481980  0.74900854  0.35156491  1
  O2-  O255  1  0.87319524  0.75239690  0.84717566  1
  O2-  O256  1  -0.00022950  0.12413985  0.34756216  1
  O2-  O257  1  -0.00157481  0.12457921  0.85073826  1
  O2-  O258  1  0.00073317  0.37452412  0.34288549  1
  O2-  O259  1  0.00047012  0.37469152  0.85165001  1
  O2-  O260  1  0.00093307  0.62540535  0.34635349  1
  O2-  O261  1  -0.00015578  0.62554076  0.85233605  1
  O2-  O262  1  0.00194446  0.87551762  0.35219256  1
  O2-  O263  1  -0.00208298  0.87589880  0.84811911  1
  O2-  O264  1  0.24914128  0.12368073  0.34253817  1
  O2-  O265  1  0.25133790  0.12457442  0.85120206  1
  O2-  O266  1  0.24809348  0.37488997  0.34355717  1
  O2-  O267  1  0.25007310  0.37510717  0.85032403  1
  O2-  O268  1  0.24935252  0.62629546  0.34304706  1
  O2-  O269  1  0.25176896  0.62526760  0.84677389  1
  O2-  O270  1  0.25017499  0.87492386  0.34950457  1
  O2-  O271  1  0.24981468  0.87549796  0.84663301  1
  O2-  O272  1  0.49720316  0.12446896  0.34496835  1
  O2-  O273  1  0.49995864  0.12495913  0.84862444  1
  O2-  O274  1  0.50201085  0.37549651  0.35018697  1
  O2-  O275  1  0.50358624  0.37428430  0.84671015  1
  O2-  O276  1  0.50079536  0.62501415  0.34914132  1
  O2-  O277  1  0.50112767  0.62547055  0.84112867  1
  O2-  O278  1  0.49788639  0.87466466  0.34679248  1
  O2-  O279  1  0.50415435  0.87569760  0.84710042  1
  O2-  O280  1  0.75324207  0.12556057  0.35030754  1
  O2-  O281  1  0.75043462  0.12465988  0.84708551  1
  O2-  O282  1  0.74964260  0.37432889  0.35052115  1
  O2-  O283  1  0.74621634  0.37442529  0.84755762  1
  O2-  O284  1  0.74905446  0.62438747  0.35243290  1
  O2-  O285  1  0.74731928  0.62524264  0.84619502  1
  O2-  O286  1  0.74943380  0.87485041  0.34853289  1
  O2-  O287  1  0.74788975  0.87615685  0.84750511  1
