# generated using pymatgen
data_BaYFeCuO5
_symmetry_space_group_name_H-M   'P 1'
_cell_length_a   15.67291546
_cell_length_b   15.67543653
_cell_length_c   15.48734972
_cell_angle_alpha   89.99710185
_cell_angle_beta   90.00913400
_cell_angle_gamma   89.98967973
_symmetry_Int_Tables_number   1
_chemical_formula_structural   BaYFeCuO5
_chemical_formula_sum   'Ba32 Y32 Fe32 Cu32 O160'
_cell_volume   3804.92873589
_cell_formula_units_Z   32
loop_
 _symmetry_equiv_pos_site_id
 _symmetry_equiv_pos_as_xyz
  1  'x, y, z'
loop_
 _atom_type_symbol
 _atom_type_oxidation_number
  Ba2+  2.0
  Y3+  3.0
  Fe3+  3.0
  Cu2+  2.0
  O2-  -2.0
loop_
 _atom_site_type_symbol
 _atom_site_label
 _atom_site_symmetry_multiplicity
 _atom_site_fract_x
 _atom_site_fract_y
 _atom_site_fract_z
 _atom_site_occupancy
  Ba2+  Ba0  1  -0.00221638  -0.00871958  0.00987694  1
  Ba2+  Ba1  1  0.00178901  -0.00085980  0.52158161  1
  Ba2+  Ba2  1  -0.00904531  0.24968551  0.01730130  1
  Ba2+  Ba3  1  0.00436403  0.24358542  0.51305467  1
  Ba2+  Ba4  1  0.00354401  0.50400211  0.01054408  1
  Ba2+  Ba5  1  0.00479028  0.50493715  0.50099591  1
  Ba2+  Ba6  1  0.00647708  0.75499249  0.00603110  1
  Ba2+  Ba7  1  0.00078702  0.75257191  0.50470913  1
  Ba2+  Ba8  1  0.25274632  -0.00501723  0.01112284  1
  Ba2+  Ba9  1  0.25225311  -0.00432091  0.51279575  1
  Ba2+  Ba10  1  0.26268547  0.25014786  0.00649713  1
  Ba2+  Ba11  1  0.24513535  0.24478191  0.50077464  1
  Ba2+  Ba12  1  0.25624952  0.50490059  0.01158844  1
  Ba2+  Ba13  1  0.24549351  0.50647102  0.51379812  1
  Ba2+  Ba14  1  0.24642822  0.74957244  0.01422965  1
  Ba2+  Ba15  1  0.25073800  0.75329496  0.52294616  1
  Ba2+  Ba16  1  0.49016782  0.00272249  0.01194666  1
  Ba2+  Ba17  1  0.50119439  -0.00486069  0.50124633  1
  Ba2+  Ba18  1  0.49346882  0.25527276  0.01195885  1
  Ba2+  Ba19  1  0.50099313  0.23798789  0.50211321  1
  Ba2+  Ba20  1  0.49870228  0.49771075  0.02267019  1
  Ba2+  Ba21  1  0.49852920  0.51093264  0.51531455  1
  Ba2+  Ba22  1  0.49566217  0.74410942  0.02229454  1
  Ba2+  Ba23  1  0.49895894  0.75669557  0.51548347  1
  Ba2+  Ba24  1  0.76009358  -0.00149082  0.01260953  1
  Ba2+  Ba25  1  0.74465902  -0.00194858  0.50728277  1
  Ba2+  Ba26  1  0.75100105  0.25500280  0.02462104  1
  Ba2+  Ba27  1  0.74954518  0.23722464  0.51130150  1
  Ba2+  Ba28  1  0.74393368  0.49644365  0.02398587  1
  Ba2+  Ba29  1  0.75158417  0.50971925  0.50654451  1
  Ba2+  Ba30  1  0.75239546  0.75196466  0.01090324  1
  Ba2+  Ba31  1  0.74795104  0.75589418  0.50114997  1
  Y3+  Y32  1  -0.00135776  -0.00367994  0.25163803  1
  Y3+  Y33  1  0.00092607  -0.00200074  0.76249869  1
  Y3+  Y34  1  -0.00009565  0.25066859  0.25739221  1
  Y3+  Y35  1  0.00086063  0.24798051  0.75696348  1
  Y3+  Y36  1  0.00141102  0.50124391  0.25598745  1
  Y3+  Y37  1  0.00220490  0.50212957  0.75960667  1
  Y3+  Y38  1  0.00047178  0.75171525  0.25202525  1
  Y3+  Y39  1  0.00274564  0.75182567  0.76319819  1
  Y3+  Y40  1  0.25337147  -0.00180677  0.25477060  1
  Y3+  Y41  1  0.25022953  -0.00179205  0.75985770  1
  Y3+  Y42  1  0.25237286  0.24935459  0.25528101  1
  Y3+  Y43  1  0.25306383  0.24950705  0.76155248  1
  Y3+  Y44  1  0.24981167  0.50018397  0.25447311  1
  Y3+  Y45  1  0.25000401  0.50204551  0.76011472  1
  Y3+  Y46  1  0.25030795  0.75238482  0.25264294  1
  Y3+  Y47  1  0.24794113  0.75061913  0.75922853  1
  Y3+  Y48  1  0.49771847  -0.00039045  0.26088393  1
  Y3+  Y49  1  0.50012554  -0.00069812  0.75427201  1
  Y3+  Y50  1  0.49799226  0.24761059  0.25710012  1
  Y3+  Y51  1  0.49884500  0.24777685  0.75908173  1
  Y3+  Y52  1  0.49864389  0.49970371  0.25664238  1
  Y3+  Y53  1  0.49895702  0.50090374  0.75501995  1
  Y3+  Y54  1  0.49861835  0.75289846  0.25988305  1
  Y3+  Y55  1  0.49998995  0.75117729  0.75169496  1
  Y3+  Y56  1  0.74950647  -0.00214565  0.25903230  1
  Y3+  Y57  1  0.74892644  -0.00043586  0.75604402  1
  Y3+  Y58  1  0.74956601  0.24833058  0.26032592  1
  Y3+  Y59  1  0.74799856  0.24684995  0.75297829  1
  Y3+  Y60  1  0.75024907  0.50054097  0.25902602  1
  Y3+  Y61  1  0.74920394  0.50187629  0.75436063  1
  Y3+  Y62  1  0.75130748  0.75246150  0.25802789  1
  Y3+  Y63  1  0.74881860  0.75230494  0.75749743  1
  Fe3+  Fe64  1  0.62441684  0.37474208  0.38014878  1
  Fe3+  Fe65  1  0.12549376  0.37452554  0.88116319  1
  Fe3+  Fe66  1  0.87599382  0.37460792  0.37999390  1
  Fe3+  Fe67  1  0.37657540  0.87358957  0.87682929  1
  Fe3+  Fe68  1  0.12536854  0.87562124  0.37432018  1
  Fe3+  Fe69  1  0.12547320  0.12535239  0.88138872  1
  Fe3+  Fe70  1  0.12594845  0.62707632  0.37342676  1
  Fe3+  Fe71  1  0.37685378  0.62546730  0.87490219  1
  Fe3+  Fe72  1  0.37386349  0.37568171  0.38049562  1
  Fe3+  Fe73  1  0.62518473  0.37532561  0.87459399  1
  Fe3+  Fe74  1  0.12469063  0.12243561  0.37295452  1
  Fe3+  Fe75  1  0.62470443  0.12503186  0.88181146  1
  Fe3+  Fe76  1  0.87369136  0.62471535  0.88076102  1
  Fe3+  Fe77  1  0.62393728  0.87507159  0.88147461  1
  Fe3+  Fe78  1  0.62407177  0.62453865  0.87738892  1
  Fe3+  Fe79  1  0.87684940  0.12218771  0.37558944  1
  Fe3+  Fe80  1  0.87291378  0.37528434  0.87519846  1
  Fe3+  Fe81  1  0.37320977  0.62683587  0.37613630  1
  Fe3+  Fe82  1  0.87352376  0.12597194  0.87645217  1
  Fe3+  Fe83  1  0.62420669  0.62636499  0.37539395  1
  Fe3+  Fe84  1  0.12550221  0.37489267  0.63860061  1
  Fe3+  Fe85  1  0.87531087  0.87490378  0.64025729  1
  Fe3+  Fe86  1  0.12502122  0.12458395  0.13353751  1
  Fe3+  Fe87  1  0.37415684  0.12453087  0.63871287  1
  Fe3+  Fe88  1  0.62462411  0.37474543  0.63143310  1
  Fe3+  Fe89  1  0.62417485  0.87525453  0.13551744  1
  Fe3+  Fe90  1  0.62460175  0.12438261  0.13598267  1
  Fe3+  Fe91  1  0.87585140  0.37474064  0.63281413  1
  Fe3+  Fe92  1  0.87483088  0.62518041  0.13612823  1
  Fe3+  Fe93  1  0.12578552  0.37440207  0.13491510  1
  Fe3+  Fe94  1  0.87661069  0.62687899  0.63825722  1
  Fe3+  Fe95  1  0.37432300  0.37485148  0.63379544  1
  Cu2+  Cu96  1  0.62505018  0.12382296  0.37055646  1
  Cu2+  Cu97  1  0.37361671  0.12423214  0.36294293  1
  Cu2+  Cu98  1  0.12657051  0.87546206  0.87341660  1
  Cu2+  Cu99  1  0.37621270  0.12395342  0.87273499  1
  Cu2+  Cu100  1  0.37689274  0.37669413  0.87139975  1
  Cu2+  Cu101  1  0.87360726  0.87486992  0.87352399  1
  Cu2+  Cu102  1  0.62459666  0.87476030  0.37048490  1
  Cu2+  Cu103  1  0.12537639  0.37490319  0.36240294  1
  Cu2+  Cu104  1  0.87653298  0.87530339  0.36183077  1
  Cu2+  Cu105  1  0.12594491  0.62477184  0.87472437  1
  Cu2+  Cu106  1  0.87596372  0.62609176  0.36135426  1
  Cu2+  Cu107  1  0.37316525  0.87406347  0.37241173  1
  Cu2+  Cu108  1  0.87460170  0.12458315  0.15227933  1
  Cu2+  Cu109  1  0.62644267  0.62594287  0.64845850  1
  Cu2+  Cu110  1  0.62513301  0.62571602  0.15334840  1
  Cu2+  Cu111  1  0.37463336  0.87584779  0.64317990  1
  Cu2+  Cu112  1  0.37383737  0.62530425  0.65063182  1
  Cu2+  Cu113  1  0.62339644  0.12386345  0.64206051  1
  Cu2+  Cu114  1  0.12515964  0.62508943  0.14006933  1
  Cu2+  Cu115  1  0.12568173  0.87544937  0.14042187  1
  Cu2+  Cu116  1  0.12428742  0.87516243  0.65593211  1
  Cu2+  Cu117  1  0.62560936  0.87568039  0.64312481  1
  Cu2+  Cu118  1  0.87581933  0.12405032  0.65163248  1
  Cu2+  Cu119  1  0.87542703  0.37595567  0.15638544  1
  Cu2+  Cu120  1  0.37613523  0.87479560  0.14964364  1
  Cu2+  Cu121  1  0.87408451  0.87387910  0.14173255  1
  Cu2+  Cu122  1  0.37449090  0.37494442  0.14505975  1
  Cu2+  Cu123  1  0.12653869  0.12469398  0.65727336  1
  Cu2+  Cu124  1  0.37501088  0.12479186  0.14260709  1
  Cu2+  Cu125  1  0.12360894  0.62575972  0.65551151  1
  Cu2+  Cu126  1  0.37515438  0.62523261  0.15391869  1
  Cu2+  Cu127  1  0.62436548  0.37398390  0.15826481  1
  O2-  O128  1  0.12416898  0.12727984  0.00708763  1
  O2-  O129  1  0.12373456  0.12224116  0.49320210  1
  O2-  O130  1  0.12507098  0.37396590  0.00784019  1
  O2-  O131  1  0.12444449  0.37507335  0.51842344  1
  O2-  O132  1  0.12515278  0.62298356  0.00714900  1
  O2-  O133  1  0.12500451  0.62711931  0.49394876  1
  O2-  O134  1  0.12648095  0.87587942  0.00660603  1
  O2-  O135  1  0.12442220  0.87576204  0.49463827  1
  O2-  O136  1  0.37646693  0.12569286  0.00842037  1
  O2-  O137  1  0.37208394  0.12568405  0.51825396  1
  O2-  O138  1  0.37665060  0.37701047  0.00687740  1
  O2-  O139  1  0.37230087  0.37455146  0.50735264  1
  O2-  O140  1  0.37882433  0.62357174  -0.00486543  1
  O2-  O141  1  0.37178304  0.62614676  0.49620964  1
  O2-  O142  1  0.37764869  0.87208514  -0.00254711  1
  O2-  O143  1  0.37304739  0.87481820  0.50748716  1
  O2-  O144  1  0.62636081  0.12680394  0.00765913  1
  O2-  O145  1  0.62464185  0.12366344  0.50640863  1
  O2-  O146  1  0.62607991  0.37584047  -0.00556528  1
  O2-  O147  1  0.62506538  0.37491609  0.50544285  1
  O2-  O148  1  0.62308360  0.62128211  -0.00319833  1
  O2-  O149  1  0.62571068  0.62650197  0.49600153  1
  O2-  O150  1  0.62357729  0.87496539  0.00748330  1
  O2-  O151  1  0.62572431  0.87494797  0.50652424  1
  O2-  O152  1  0.87156897  0.12978901  -0.00356855  1
  O2-  O153  1  0.87921396  0.12244515  0.49575340  1
  O2-  O154  1  0.87023049  0.37501345  -0.00527277  1
  O2-  O155  1  0.87786543  0.37475855  0.50635977  1
  O2-  O156  1  0.87271951  0.62228180  0.00790484  1
  O2-  O157  1  0.87790555  0.62694585  0.51805265  1
  O2-  O158  1  0.87315640  0.87336186  0.00759395  1
  O2-  O159  1  0.87647016  0.87462438  0.51993121  1
  O2-  O160  1  0.12449359  0.00260676  0.15948858  1
  O2-  O161  1  0.12540077  0.00048582  0.66798783  1
  O2-  O162  1  0.12354331  0.25008536  0.16350537  1
  O2-  O163  1  0.12504024  0.25080244  0.66783266  1
  O2-  O164  1  0.12452896  0.49670700  0.16377265  1
  O2-  O165  1  0.12451047  0.49939753  0.66740545  1
  O2-  O166  1  0.12541225  0.75044561  0.16168324  1
  O2-  O167  1  0.12323968  0.74996592  0.66658358  1
  O2-  O168  1  0.37595873  -0.00133812  0.16455854  1
  O2-  O169  1  0.37348084  0.00150550  0.66898492  1
  O2-  O170  1  0.37545155  0.25017418  0.16791926  1
  O2-  O171  1  0.37525098  0.25204589  0.66769902  1
  O2-  O172  1  0.37519061  0.50101105  0.16686831  1
  O2-  O173  1  0.37351568  0.49896866  0.66003355  1
  O2-  O174  1  0.37610566  0.74969489  0.16207397  1
  O2-  O175  1  0.37495609  0.74872791  0.66336259  1
  O2-  O176  1  0.62522118  0.00002059  0.16111533  1
  O2-  O177  1  0.62568462  0.00007881  0.66994603  1
  O2-  O178  1  0.62564935  0.24813875  0.16616423  1
  O2-  O179  1  0.62388687  0.25367893  0.66375915  1
  O2-  O180  1  0.62525312  0.49930922  0.16683039  1
  O2-  O181  1  0.62740158  0.49816007  0.65880387  1
  O2-  O182  1  0.62488988  0.75185942  0.16090210  1
  O2-  O183  1  0.62578969  0.74908983  0.66694938  1
  O2-  O184  1  0.87413364  0.00057411  0.16105222  1
  O2-  O185  1  0.87575924  -0.00000088  0.66917294  1
  O2-  O186  1  0.87432176  0.25077845  0.16667547  1
  O2-  O187  1  0.87605697  0.25075520  0.65894504  1
  O2-  O188  1  0.87427216  0.50139904  0.16644661  1
  O2-  O189  1  0.87459518  0.49858782  0.66283896  1
  O2-  O190  1  0.87340488  0.74692852  0.16345293  1
  O2-  O191  1  0.87630425  0.75036218  0.67256713  1
  O2-  O192  1  0.00063314  0.12629031  0.15963008  1
  O2-  O193  1  0.00164974  0.12530405  0.66689965  1
  O2-  O194  1  0.00162369  0.37485688  0.16228866  1
  O2-  O195  1  -0.00116084  0.37460028  0.66781528  1
  O2-  O196  1  -0.00275139  0.62392410  0.16230853  1
  O2-  O197  1  -0.00095620  0.62396816  0.67183096  1
  O2-  O198  1  -0.00049819  0.87434413  0.16227558  1
  O2-  O199  1  0.00002977  0.87621859  0.67009772  1
  O2-  O200  1  0.24698954  0.12607756  0.16255066  1
  O2-  O201  1  0.25081424  0.12654971  0.67048683  1
  O2-  O202  1  0.24718132  0.37410380  0.16462284  1
  O2-  O203  1  0.25133171  0.37539175  0.66736601  1
  O2-  O204  1  0.25147668  0.62391507  0.16182155  1
  O2-  O205  1  0.24806345  0.62474698  0.66526232  1
  O2-  O206  1  0.25251495  0.87545610  0.16183879  1
  O2-  O207  1  0.24760858  0.87466818  0.66614713  1
  O2-  O208  1  0.50305696  0.12515606  0.16485988  1
  O2-  O209  1  0.49732925  0.12541148  0.66804558  1
  O2-  O210  1  0.50055043  0.37475706  0.16930879  1
  O2-  O211  1  0.49928695  0.37739407  0.65741520  1
  O2-  O212  1  0.50044475  0.62409316  0.16590543  1
  O2-  O213  1  0.50060910  0.62414459  0.65873225  1
  O2-  O214  1  0.50173913  0.87511240  0.16507547  1
  O2-  O215  1  0.50022314  0.87551013  0.66398953  1
  O2-  O216  1  0.74839972  0.12559857  0.16454837  1
  O2-  O217  1  0.75090595  0.12575211  0.66266401  1
  O2-  O218  1  0.74996618  0.37506261  0.16867080  1
  O2-  O219  1  0.75084294  0.37369883  0.65644624  1
  O2-  O220  1  0.75099763  0.62362242  0.16441390  1
  O2-  O221  1  0.75209100  0.62545504  0.66667867  1
  O2-  O222  1  0.74643998  0.87490801  0.16475840  1
  O2-  O223  1  0.75190016  0.87504222  0.66886743  1
  O2-  O224  1  0.12475045  -0.00043687  0.33976406  1
  O2-  O225  1  0.12489786  0.00345478  0.85232615  1
  O2-  O226  1  0.12481670  0.24927273  0.34716033  1
  O2-  O227  1  0.12477441  0.25020512  0.85061943  1
  O2-  O228  1  0.12447634  0.50061230  0.34722726  1
  O2-  O229  1  0.12409709  0.49649054  0.85041318  1
  O2-  O230  1  0.12403270  0.75041688  0.34202437  1
  O2-  O231  1  0.12558064  0.75007822  0.85076639  1
  O2-  O232  1  0.37415515  0.00089941  0.34878578  1
  O2-  O233  1  0.37686113  -0.00215298  0.85030295  1
  O2-  O234  1  0.37457148  0.25165113  0.35198204  1
  O2-  O235  1  0.37616466  0.24983167  0.85043765  1
  O2-  O236  1  0.37428114  0.49915977  0.34942719  1
  O2-  O237  1  0.37639294  0.50211553  0.84234320  1
  O2-  O238  1  0.37442005  0.74818143  0.34413906  1
  O2-  O239  1  0.37620580  0.74990438  0.84391883  1
  O2-  O240  1  0.62516297  -0.00033422  0.34561745  1
  O2-  O241  1  0.62450697  0.00038533  0.85435263  1
  O2-  O242  1  0.62484428  0.25304870  0.35028265  1
  O2-  O243  1  0.62593751  0.24852013  0.84668155  1
  O2-  O244  1  0.62557306  0.49872681  0.34981248  1
  O2-  O245  1  0.62513387  0.50038071  0.84034696  1
  O2-  O246  1  0.62564117  0.74843774  0.34404589  1
  O2-  O247  1  0.62618029  0.75065295  0.85040567  1
  O2-  O248  1  0.87556269  -0.00037729  0.34371647  1
  O2-  O249  1  0.87449831  0.00228354  0.85075366  1
  O2-  O250  1  0.87569879  0.25077332  0.35021993  1
  O2-  O251  1  0.87398899  0.25035435  0.84047160  1
  O2-  O252  1  0.87530614  0.49811037  0.35190490  1
  O2-  O253  1  0.87472141  0.50059034  0.84449150  1
  O2-  O254  1  0.87547830  0.75086760  0.34757017  1
  O2-  O255  1  0.87312886  0.74696691  0.85401705  1
  O2-  O256  1  0.00016180  0.12526112  0.34026317  1
  O2-  O257  1  0.00048980  0.12679344  0.85072781  1
  O2-  O258  1  -0.00168991  0.37540844  0.34759623  1
  O2-  O259  1  0.00005618  0.37442256  0.85061349  1
  O2-  O260  1  0.00083577  0.62440881  0.34513137  1
  O2-  O261  1  -0.00303855  0.62390471  0.85442474  1
  O2-  O262  1  0.00103960  0.87446511  0.34446538  1
  O2-  O263  1  -0.00020405  0.87502558  0.85279874  1
  O2-  O264  1  0.24911432  0.12582741  0.34522495  1
  O2-  O265  1  0.24807677  0.12620617  0.85295933  1
  O2-  O266  1  0.25186309  0.37439935  0.34878584  1
  O2-  O267  1  0.24746904  0.37470435  0.85118546  1
  O2-  O268  1  0.24940180  0.62414865  0.34207080  1
  O2-  O269  1  0.25240229  0.62414757  0.84835528  1
  O2-  O270  1  0.24783355  0.87531306  0.34373704  1
  O2-  O271  1  0.25297409  0.87524677  0.84837206  1
  O2-  O272  1  0.49776652  0.12503837  0.34895787  1
  O2-  O273  1  0.50371245  0.12559109  0.85025384  1
  O2-  O274  1  0.49915341  0.37508857  0.35368654  1
  O2-  O275  1  0.50338736  0.37465565  0.84010016  1
  O2-  O276  1  0.49917318  0.62415519  0.34735791  1
  O2-  O277  1  0.50125173  0.62548187  0.84019644  1
  O2-  O278  1  0.49891732  0.87524300  0.34899419  1
  O2-  O279  1  0.50226217  0.87452646  0.84546515  1
  O2-  O280  1  0.75270766  0.12496543  0.34731410  1
  O2-  O281  1  0.74787832  0.12503665  0.84530087  1
  O2-  O282  1  0.75046280  0.37506908  0.35328932  1
  O2-  O283  1  0.74939536  0.37519578  0.83738867  1
  O2-  O284  1  0.75015908  0.62475054  0.34827396  1
  O2-  O285  1  0.75003567  0.62379160  0.84785766  1
  O2-  O286  1  0.75211215  0.87471057  0.34899041  1
  O2-  O287  1  0.74579296  0.87581804  0.85086426  1
