# generated using pymatgen
data_BaYFeCuO5
_symmetry_space_group_name_H-M   'P 1'
_cell_length_a   15.65246194
_cell_length_b   15.65521274
_cell_length_c   15.45358533
_cell_angle_alpha   89.99797875
_cell_angle_beta   89.99391976
_cell_angle_gamma   89.99855543
_symmetry_Int_Tables_number   1
_chemical_formula_structural   BaYFeCuO5
_chemical_formula_sum   'Ba32 Y32 Fe32 Cu32 O160'
_cell_volume   3786.78703898
_cell_formula_units_Z   32
loop_
 _symmetry_equiv_pos_site_id
 _symmetry_equiv_pos_as_xyz
  1  'x, y, z'
loop_
 _atom_type_symbol
 _atom_type_oxidation_number
  Ba2+  2.0
  Y3+  3.0
  Fe3+  3.0
  Cu2+  2.0
  O2-  -2.0
loop_
 _atom_site_type_symbol
 _atom_site_label
 _atom_site_symmetry_multiplicity
 _atom_site_fract_x
 _atom_site_fract_y
 _atom_site_fract_z
 _atom_site_occupancy
  Ba2+  Ba0  1  -0.00101841  -0.00013387  0.01658547  1
  Ba2+  Ba1  1  0.00298231  -0.00402003  0.51097532  1
  Ba2+  Ba2  1  -0.00087366  0.24994710  0.01744531  1
  Ba2+  Ba3  1  0.00707243  0.24864736  0.50609052  1
  Ba2+  Ba4  1  -0.01040047  0.50210689  0.01250647  1
  Ba2+  Ba5  1  0.00432783  0.50488475  0.51135397  1
  Ba2+  Ba6  1  -0.01047788  0.74813269  0.01198973  1
  Ba2+  Ba7  1  0.00045318  0.75038659  0.51612487  1
  Ba2+  Ba8  1  0.25057955  0.00102731  0.01652883  1
  Ba2+  Ba9  1  0.25062345  -0.00500429  0.51467285  1
  Ba2+  Ba10  1  0.25073855  0.24934450  0.01595680  1
  Ba2+  Ba11  1  0.24960886  0.25140569  0.51969314  1
  Ba2+  Ba12  1  0.25378685  0.49546591  0.01184568  1
  Ba2+  Ba13  1  0.25037362  0.50109509  0.51612984  1
  Ba2+  Ba14  1  0.25347878  0.75411200  0.01186924  1
  Ba2+  Ba15  1  0.25247398  0.75242913  0.51013733  1
  Ba2+  Ba16  1  0.50708447  0.00034848  0.00606808  1
  Ba2+  Ba17  1  0.49927386  -0.00085578  0.51640398  1
  Ba2+  Ba18  1  0.50701539  0.24993217  0.00673141  1
  Ba2+  Ba19  1  0.50117383  0.24722453  0.51235291  1
  Ba2+  Ba20  1  0.50180572  0.49125738  0.00726758  1
  Ba2+  Ba21  1  0.49646497  0.50313632  0.51175291  1
  Ba2+  Ba22  1  0.50201746  0.75845555  0.00668265  1
  Ba2+  Ba23  1  0.49527203  0.75061059  0.51592090  1
  Ba2+  Ba24  1  0.74396626  -0.00097429  0.00578232  1
  Ba2+  Ba25  1  0.74681841  0.00048950  0.51184930  1
  Ba2+  Ba26  1  0.74348343  0.25072503  0.00631399  1
  Ba2+  Ba27  1  0.74363304  0.24413823  0.49773641  1
  Ba2+  Ba28  1  0.75553960  0.49823020  0.00803213  1
  Ba2+  Ba29  1  0.74823428  0.50748522  0.50703600  1
  Ba2+  Ba30  1  0.75552188  0.75182414  0.00728767  1
  Ba2+  Ba31  1  0.75139423  0.74986436  0.52144550  1
  Y3+  Y32  1  -0.00017517  -0.00011462  0.25927728  1
  Y3+  Y33  1  0.00116419  -0.00162869  0.75324496  1
  Y3+  Y34  1  -0.00058063  0.25002349  0.26018245  1
  Y3+  Y35  1  0.00200627  0.25073384  0.75372109  1
  Y3+  Y36  1  -0.00309825  0.50053726  0.26022242  1
  Y3+  Y37  1  -0.00092007  0.50212397  0.75505713  1
  Y3+  Y38  1  -0.00262316  0.74956107  0.25873566  1
  Y3+  Y39  1  -0.00178068  0.74903475  0.75518125  1
  Y3+  Y40  1  0.25060135  -0.00300697  0.25929205  1
  Y3+  Y41  1  0.25038682  -0.00048604  0.75217234  1
  Y3+  Y42  1  0.24954059  0.25092378  0.25725372  1
  Y3+  Y43  1  0.25003528  0.25018282  0.75336749  1
  Y3+  Y44  1  0.25102989  0.49948347  0.25984859  1
  Y3+  Y45  1  0.24982087  0.49976509  0.75362174  1
  Y3+  Y46  1  0.25222793  0.75225080  0.26122709  1
  Y3+  Y47  1  0.25027933  0.75065557  0.75269588  1
  Y3+  Y48  1  0.50040229  -0.00009555  0.25821202  1
  Y3+  Y49  1  0.50249354  0.00044939  0.75498299  1
  Y3+  Y50  1  0.50289847  0.24908887  0.25842244  1
  Y3+  Y51  1  0.50173130  0.24795243  0.75651370  1
  Y3+  Y52  1  0.49976270  0.49938719  0.26036067  1
  Y3+  Y53  1  0.49960233  0.50059206  0.75518265  1
  Y3+  Y54  1  0.49667983  0.75114012  0.26001660  1
  Y3+  Y55  1  0.50046942  0.75111979  0.75423504  1
  Y3+  Y56  1  0.74883460  0.00238805  0.25856387  1
  Y3+  Y57  1  0.74617831  -0.00051409  0.75627776  1
  Y3+  Y58  1  0.74801832  0.24806380  0.25959042  1
  Y3+  Y59  1  0.74657018  0.24833310  0.75798089  1
  Y3+  Y60  1  0.75210706  0.50060515  0.25968689  1
  Y3+  Y61  1  0.75128201  0.50279981  0.75770553  1
  Y3+  Y62  1  0.75332512  0.74864878  0.25705386  1
  Y3+  Y63  1  0.75095337  0.74937537  0.75746286  1
  Fe3+  Fe64  1  0.87439872  0.87518804  0.37751505  1
  Fe3+  Fe65  1  0.12498508  0.87486027  0.87874056  1
  Fe3+  Fe66  1  0.37483072  0.87609379  0.87613676  1
  Fe3+  Fe67  1  0.12506162  0.12478138  0.87733764  1
  Fe3+  Fe68  1  0.87547164  0.12499568  0.87894030  1
  Fe3+  Fe69  1  0.62449734  0.62667292  0.37725529  1
  Fe3+  Fe70  1  0.37483814  0.12450169  0.37711171  1
  Fe3+  Fe71  1  0.37495243  0.37395452  0.87572891  1
  Fe3+  Fe72  1  0.12487264  0.62512356  0.88035614  1
  Fe3+  Fe73  1  0.87511157  0.37391754  0.87618805  1
  Fe3+  Fe74  1  0.87459943  0.37466698  0.38046895  1
  Fe3+  Fe75  1  0.37511707  0.37429964  0.37743249  1
  Fe3+  Fe76  1  0.37477237  0.12475696  0.87801561  1
  Fe3+  Fe77  1  0.37486136  0.62515982  0.87925862  1
  Fe3+  Fe78  1  0.12539465  0.62571637  0.37544223  1
  Fe3+  Fe79  1  0.12638410  0.12436964  0.37590345  1
  Fe3+  Fe80  1  0.87514931  0.87621881  0.87552811  1
  Fe3+  Fe81  1  0.62477830  0.87408026  0.37843768  1
  Fe3+  Fe82  1  0.12449111  0.37515337  0.87888385  1
  Fe3+  Fe83  1  0.62501886  0.62495885  0.88003347  1
  Fe3+  Fe84  1  0.12484293  0.62501144  0.13412468  1
  Fe3+  Fe85  1  0.87368110  0.12512366  0.13627122  1
  Fe3+  Fe86  1  0.62574065  0.87465802  0.13864833  1
  Fe3+  Fe87  1  0.12424978  0.87435266  0.13534171  1
  Fe3+  Fe88  1  0.12419698  0.37577789  0.13590059  1
  Fe3+  Fe89  1  0.62593991  0.37540614  0.14073703  1
  Fe3+  Fe90  1  0.87457031  0.12531652  0.63602342  1
  Fe3+  Fe91  1  0.37639374  0.12510108  0.13489840  1
  Fe3+  Fe92  1  0.62594851  0.37559350  0.63734388  1
  Fe3+  Fe93  1  0.62523354  0.62506790  0.13466079  1
  Fe3+  Fe94  1  0.37616632  0.62468785  0.13448561  1
  Fe3+  Fe95  1  0.87415607  0.37446540  0.63434330  1
  Cu2+  Cu96  1  0.62491375  0.87401947  0.86198448  1
  Cu2+  Cu97  1  0.87500368  0.12423477  0.36736083  1
  Cu2+  Cu98  1  0.37475187  0.62512472  0.37226714  1
  Cu2+  Cu99  1  0.87545415  0.62502597  0.87176802  1
  Cu2+  Cu100  1  0.87493077  0.62622305  0.37453043  1
  Cu2+  Cu101  1  0.62335924  0.12336769  0.37252140  1
  Cu2+  Cu102  1  0.37557994  0.87577047  0.37274382  1
  Cu2+  Cu103  1  0.62478752  0.12477154  0.87282443  1
  Cu2+  Cu104  1  0.62508758  0.37607252  0.86198492  1
  Cu2+  Cu105  1  0.62459342  0.37559848  0.36863467  1
  Cu2+  Cu106  1  0.12577185  0.37553778  0.37242546  1
  Cu2+  Cu107  1  0.12450720  0.87430460  0.37157503  1
  Cu2+  Cu108  1  0.87456749  0.87565023  0.65075498  1
  Cu2+  Cu109  1  0.37590485  0.37460180  0.15067207  1
  Cu2+  Cu110  1  0.87420471  0.37401006  0.15395624  1
  Cu2+  Cu111  1  0.12491155  0.87399210  0.64125258  1
  Cu2+  Cu112  1  0.37477945  0.62526175  0.64226233  1
  Cu2+  Cu113  1  0.37566792  0.87519766  0.14965043  1
  Cu2+  Cu114  1  0.62528073  0.87455206  0.64962592  1
  Cu2+  Cu115  1  0.87433085  0.87606655  0.15103047  1
  Cu2+  Cu116  1  0.87409024  0.62469317  0.14298609  1
  Cu2+  Cu117  1  0.37601052  0.37475135  0.65059559  1
  Cu2+  Cu118  1  0.62548764  0.12534953  0.64223779  1
  Cu2+  Cu119  1  0.12502288  0.12482203  0.15024765  1
  Cu2+  Cu120  1  0.12486962  0.12455803  0.64947169  1
  Cu2+  Cu121  1  0.12418323  0.37580971  0.63995767  1
  Cu2+  Cu122  1  0.37544054  0.87521647  0.64318162  1
  Cu2+  Cu123  1  0.37535123  0.12508607  0.64958823  1
  Cu2+  Cu124  1  0.62487782  0.62502559  0.65289459  1
  Cu2+  Cu125  1  0.12513291  0.62550409  0.65339944  1
  Cu2+  Cu126  1  0.62505281  0.12475591  0.14263199  1
  Cu2+  Cu127  1  0.87504416  0.62469741  0.64124760  1
  O2-  O128  1  0.12462547  0.12527802  -0.00263387  1
  O2-  O129  1  0.12699321  0.12443309  0.49654577  1
  O2-  O130  1  0.12393407  0.37467988  0.00617883  1
  O2-  O131  1  0.12546133  0.37568402  0.50625691  1
  O2-  O132  1  0.12447949  0.62439920  0.00687352  1
  O2-  O133  1  0.12634608  0.62600361  0.49638432  1
  O2-  O134  1  0.12488111  0.87580780  0.00599743  1
  O2-  O135  1  0.12436758  0.87409592  0.50637303  1
  O2-  O136  1  0.37548107  0.12516855  0.00542737  1
  O2-  O137  1  0.37375756  0.12561373  0.49725488  1
  O2-  O138  1  0.37420185  0.37391661  -0.00362607  1
  O2-  O139  1  0.37440395  0.37429142  0.49795842  1
  O2-  O140  1  0.37584520  0.62476473  0.00635071  1
  O2-  O141  1  0.37444730  0.62452941  0.50734801  1
  O2-  O142  1  0.37379299  0.87610409  -0.00325101  1
  O2-  O143  1  0.37553946  0.87584412  0.50786185  1
  O2-  O144  1  0.62512998  0.12524819  0.00691502  1
  O2-  O145  1  0.62397972  0.12411159  0.50786196  1
  O2-  O146  1  0.62644585  0.37571689  0.01929168  1
  O2-  O147  1  0.62551614  0.37582185  0.51665960  1
  O2-  O148  1  0.62482727  0.62418032  0.00755241  1
  O2-  O149  1  0.62391326  0.62740583  0.49786526  1
  O2-  O150  1  0.62582599  0.87498102  0.01714130  1
  O2-  O151  1  0.62527085  0.87296549  0.49881521  1
  O2-  O152  1  0.87522535  0.12561727  0.00682794  1
  O2-  O153  1  0.87463683  0.12549810  0.51533374  1
  O2-  O154  1  0.87626404  0.37296751  -0.00303629  1
  O2-  O155  1  0.87446781  0.37431056  0.50798582  1
  O2-  O156  1  0.87408268  0.62456371  0.00758822  1
  O2-  O157  1  0.87511409  0.62540761  0.50811239  1
  O2-  O158  1  0.87588573  0.87725173  -0.00372888  1
  O2-  O159  1  0.87464772  0.87509403  0.49807086  1
  O2-  O160  1  0.12479040  -0.00235728  0.16101296  1
  O2-  O161  1  0.12470169  0.00110734  0.66528038  1
  O2-  O162  1  0.12475278  0.25230860  0.16187913  1
  O2-  O163  1  0.12507310  0.24854422  0.66528009  1
  O2-  O164  1  0.12551488  0.50009208  0.15980120  1
  O2-  O165  1  0.12477607  0.50229680  0.66726660  1
  O2-  O166  1  0.12555864  0.74974713  0.15766692  1
  O2-  O167  1  0.12476533  0.74800262  0.66883041  1
  O2-  O168  1  0.37472381  0.00170241  0.16164535  1
  O2-  O169  1  0.37514640  0.00138437  0.66543890  1
  O2-  O170  1  0.37441924  0.24866310  0.16128307  1
  O2-  O171  1  0.37495160  0.24973341  0.66505062  1
  O2-  O172  1  0.37505205  0.50175076  0.16239355  1
  O2-  O173  1  0.37483737  0.49900533  0.66651932  1
  O2-  O174  1  0.37456827  0.74766667  0.16267481  1
  O2-  O175  1  0.37505590  0.75010675  0.66744500  1
  O2-  O176  1  0.62471635  -0.00153845  0.16506841  1
  O2-  O177  1  0.62510586  -0.00096532  0.66423039  1
  O2-  O178  1  0.62541455  0.25126890  0.16692830  1
  O2-  O179  1  0.62512107  0.25187710  0.66729064  1
  O2-  O180  1  0.62464603  0.50161016  0.16593798  1
  O2-  O181  1  0.62542881  0.49959202  0.66808092  1
  O2-  O182  1  0.62476181  0.74835478  0.16149246  1
  O2-  O183  1  0.62512336  0.74951615  0.66692535  1
  O2-  O184  1  0.87572140  0.00195392  0.16211567  1
  O2-  O185  1  0.87548906  0.00040734  0.66551832  1
  O2-  O186  1  0.87546772  0.24818434  0.16532891  1
  O2-  O187  1  0.87524264  0.25100414  0.66608860  1
  O2-  O188  1  0.87482664  0.49819075  0.16698558  1
  O2-  O189  1  0.87497824  0.49735632  0.66427442  1
  O2-  O190  1  0.87498165  0.75162158  0.16256241  1
  O2-  O191  1  0.87480595  0.75150885  0.66550318  1
  O2-  O192  1  -0.00130292  0.12543023  0.16241126  1
  O2-  O193  1  -0.00075331  0.12531978  0.66603073  1
  O2-  O194  1  0.00121327  0.37517671  0.16386587  1
  O2-  O195  1  -0.00305568  0.37497116  0.66425267  1
  O2-  O196  1  0.00292696  0.62455178  0.16312763  1
  O2-  O197  1  0.00181877  0.62510395  0.66570150  1
  O2-  O198  1  0.00114473  0.87480876  0.16159438  1
  O2-  O199  1  -0.00111267  0.87454523  0.66532415  1
  O2-  O200  1  0.25139508  0.12524139  0.15871465  1
  O2-  O201  1  0.24988692  0.12513876  0.66470243  1
  O2-  O202  1  0.24866507  0.37537895  0.15939198  1
  O2-  O203  1  0.25142297  0.37533471  0.66558091  1
  O2-  O204  1  0.25002027  0.62440745  0.15780649  1
  O2-  O205  1  0.24798330  0.62468813  0.66832297  1
  O2-  O206  1  0.24873082  0.87466611  0.16188955  1
  O2-  O207  1  0.24984357  0.87483923  0.66600481  1
  O2-  O208  1  0.49785552  0.12535076  0.16250542  1
  O2-  O209  1  0.49935535  0.12528912  0.66623644  1
  O2-  O210  1  0.50079315  0.37554282  0.16612000  1
  O2-  O211  1  0.50086912  0.37541074  0.66677691  1
  O2-  O212  1  0.50000341  0.62478440  0.16118074  1
  O2-  O213  1  0.50129762  0.62472230  0.66846290  1
  O2-  O214  1  0.50052027  0.87400582  0.16508227  1
  O2-  O215  1  0.50156991  0.87483121  0.66609638  1
  O2-  O216  1  0.75207408  0.12521628  0.16514642  1
  O2-  O217  1  0.75191180  0.12492684  0.66952595  1
  O2-  O218  1  0.74952744  0.37521809  0.16976065  1
  O2-  O219  1  0.75123869  0.37513834  0.66779025  1
  O2-  O220  1  0.74711866  0.62442787  0.16446114  1
  O2-  O221  1  0.74872559  0.62516383  0.66768901  1
  O2-  O222  1  0.74977749  0.87496295  0.16601643  1
  O2-  O223  1  0.74966477  0.87490282  0.66588602  1
  O2-  O224  1  0.12508715  0.00167354  0.34454810  1
  O2-  O225  1  0.12539532  -0.00115029  0.84863613  1
  O2-  O226  1  0.12490416  0.24808931  0.34542333  1
  O2-  O227  1  0.12500534  0.25121236  0.84848476  1
  O2-  O228  1  0.12477766  0.50184548  0.34331639  1
  O2-  O229  1  0.12563176  0.49980584  0.85232732  1
  O2-  O230  1  0.12478726  0.74831363  0.34140065  1
  O2-  O231  1  0.12569820  0.75010601  0.85377722  1
  O2-  O232  1  0.37462573  0.00156192  0.34487543  1
  O2-  O233  1  0.37403162  0.00090817  0.84837503  1
  O2-  O234  1  0.37514311  0.24964798  0.34342133  1
  O2-  O235  1  0.37442594  0.24900224  0.84827955  1
  O2-  O236  1  0.37529863  0.49817708  0.34618095  1
  O2-  O237  1  0.37437534  0.50098656  0.84990108  1
  O2-  O238  1  0.37479010  0.75049532  0.34767025  1
  O2-  O239  1  0.37457649  0.74904352  0.85067793  1
  O2-  O240  1  0.62503794  -0.00232390  0.34668039  1
  O2-  O241  1  0.62482775  -0.00163261  0.84853809  1
  O2-  O242  1  0.62478269  0.25061286  0.35031263  1
  O2-  O243  1  0.62469236  0.25181145  0.84998160  1
  O2-  O244  1  0.62497276  0.50111418  0.34853965  1
  O2-  O245  1  0.62455163  0.50214879  0.85173055  1
  O2-  O246  1  0.62486639  0.75048415  0.34176647  1
  O2-  O247  1  0.62402155  0.74753582  0.85203295  1
  O2-  O248  1  0.87477118  -0.00034739  0.34565360  1
  O2-  O249  1  0.87578381  0.00150140  0.84797561  1
  O2-  O250  1  0.87463229  0.25089089  0.35082607  1
  O2-  O251  1  0.87579024  0.24875127  0.84762890  1
  O2-  O252  1  0.87458277  0.49745924  0.35148587  1
  O2-  O253  1  0.87568804  0.49791636  0.84726091  1
  O2-  O254  1  0.87508000  0.75182098  0.34516602  1
  O2-  O255  1  0.87573705  0.75202060  0.84863501  1
  O2-  O256  1  0.00092630  0.12523760  0.34702789  1
  O2-  O257  1  -0.00011536  0.12528620  0.84818071  1
  O2-  O258  1  -0.00319932  0.37431679  0.34915676  1
  O2-  O259  1  0.00167112  0.37489135  0.84699521  1
  O2-  O260  1  0.00084450  0.62477397  0.34627276  1
  O2-  O261  1  0.00335555  0.62466030  0.84984341  1
  O2-  O262  1  -0.00203720  0.87559191  0.34518610  1
  O2-  O263  1  0.00176780  0.87530306  0.84793752  1
  O2-  O264  1  0.25064450  0.12508152  0.34102112  1
  O2-  O265  1  0.25044246  0.12540191  0.84827008  1
  O2-  O266  1  0.25210676  0.37481032  0.34270392  1
  O2-  O267  1  0.24860207  0.37516030  0.84909985  1
  O2-  O268  1  0.24883824  0.62500231  0.34196277  1
  O2-  O269  1  0.25009981  0.62487040  0.85311157  1
  O2-  O270  1  0.25011697  0.87488434  0.34718240  1
  O2-  O271  1  0.24897045  0.87454126  0.84848672  1
  O2-  O272  1  0.49802594  0.12485927  0.34506942  1
  O2-  O273  1  0.49719545  0.12491241  0.85065710  1
  O2-  O274  1  0.49968461  0.37483494  0.34808873  1
  O2-  O275  1  0.49943250  0.37552825  0.85009251  1
  O2-  O276  1  0.50159019  0.62516972  0.34470726  1
  O2-  O277  1  0.49909920  0.62453706  0.85296090  1
  O2-  O278  1  0.50161424  0.87489486  0.34691917  1
  O2-  O279  1  0.49914092  0.87477043  0.84959041  1
  O2-  O280  1  0.75014115  0.12492331  0.34945610  1
  O2-  O281  1  0.75268309  0.12533979  0.85263052  1
  O2-  O282  1  0.75103802  0.37448044  0.35300869  1
  O2-  O283  1  0.75024838  0.37475538  0.84994546  1
  O2-  O284  1  0.74831862  0.62496527  0.34753858  1
  O2-  O285  1  0.74767692  0.62486053  0.85190702  1
  O2-  O286  1  0.74976212  0.87510197  0.34639824  1
  O2-  O287  1  0.75019232  0.87504359  0.84958823  1
