# generated using pymatgen
data_BaYFeCuO5
_symmetry_space_group_name_H-M   'P 1'
_cell_length_a   15.66346569
_cell_length_b   15.66615945
_cell_length_c   15.47043799
_cell_angle_alpha   89.99859864
_cell_angle_beta   89.99825881
_cell_angle_gamma   89.99845029
_symmetry_Int_Tables_number   1
_chemical_formula_structural   BaYFeCuO5
_chemical_formula_sum   'Ba32 Y32 Fe32 Cu32 O160'
_cell_volume   3796.23432409
_cell_formula_units_Z   32
loop_
 _symmetry_equiv_pos_site_id
 _symmetry_equiv_pos_as_xyz
  1  'x, y, z'
loop_
 _atom_type_symbol
 _atom_type_oxidation_number
  Ba2+  2.0
  Y3+  3.0
  Fe3+  3.0
  Cu2+  2.0
  O2-  -2.0
loop_
 _atom_site_type_symbol
 _atom_site_label
 _atom_site_symmetry_multiplicity
 _atom_site_fract_x
 _atom_site_fract_y
 _atom_site_fract_z
 _atom_site_occupancy
  Ba2+  Ba0  1  -0.00122941  0.00025270  0.00559572  1
  Ba2+  Ba1  1  -0.00157832  0.00766589  0.51805210  1
  Ba2+  Ba2  1  -0.00933707  0.24593353  0.01059122  1
  Ba2+  Ba3  1  -0.00436677  0.24436934  0.51282397  1
  Ba2+  Ba4  1  -0.00847539  0.50080758  0.00522331  1
  Ba2+  Ba5  1  -0.00628981  0.49225972  0.50693072  1
  Ba2+  Ba6  1  0.00085847  0.75316645  0.00019751  1
  Ba2+  Ba7  1  -0.00411846  0.75585269  0.51193797  1
  Ba2+  Ba8  1  0.24356500  -0.00602249  0.01598081  1
  Ba2+  Ba9  1  0.25351563  0.00918767  0.51114280  1
  Ba2+  Ba10  1  0.24988470  0.24981127  0.01694564  1
  Ba2+  Ba11  1  0.25618360  0.24290997  0.50628584  1
  Ba2+  Ba12  1  0.24987793  0.50035681  0.01721567  1
  Ba2+  Ba13  1  0.26036306  0.49593436  0.50147430  1
  Ba2+  Ba14  1  0.24389433  0.75593701  0.01693098  1
  Ba2+  Ba15  1  0.25804771  0.75218534  0.50648610  1
  Ba2+  Ba16  1  0.50508623  -0.00384807  0.02125721  1
  Ba2+  Ba17  1  0.49802042  0.00375699  0.51174086  1
  Ba2+  Ba18  1  0.50607428  0.25422619  0.02290023  1
  Ba2+  Ba19  1  0.49844256  0.25059013  0.50092304  1
  Ba2+  Ba20  1  0.50600709  0.49597458  0.02411656  1
  Ba2+  Ba21  1  0.49826807  0.48972647  0.50265160  1
  Ba2+  Ba22  1  0.50489130  0.75368903  0.02240024  1
  Ba2+  Ba23  1  0.49766716  0.75614612  0.51172114  1
  Ba2+  Ba24  1  0.75294046  0.00352170  0.01042070  1
  Ba2+  Ba25  1  0.75010185  0.00166188  0.51875313  1
  Ba2+  Ba26  1  0.75351635  0.25003606  0.01642150  1
  Ba2+  Ba27  1  0.74878929  0.25270414  0.50630198  1
  Ba2+  Ba28  1  0.75150709  0.49627342  0.01312745  1
  Ba2+  Ba29  1  0.74846932  0.48735111  0.50713569  1
  Ba2+  Ba30  1  0.75056254  0.74985108  0.00568388  1
  Ba2+  Ba31  1  0.74880328  0.75989353  0.51681254  1
  Y3+  Y32  1  0.00187676  0.00364200  0.25409517  1
  Y3+  Y33  1  -0.00089708  0.00169464  0.76000009  1
  Y3+  Y34  1  -0.00202972  0.24804480  0.25698599  1
  Y3+  Y35  1  -0.00343309  0.24879705  0.75774471  1
  Y3+  Y36  1  -0.00171990  0.49761347  0.25797194  1
  Y3+  Y37  1  -0.00334431  0.49726360  0.75781372  1
  Y3+  Y38  1  0.00225701  0.75073010  0.25674831  1
  Y3+  Y39  1  -0.00082003  0.75254626  0.75947716  1
  Y3+  Y40  1  0.24729800  0.00183165  0.25741111  1
  Y3+  Y41  1  0.24981134  0.00158673  0.75567875  1
  Y3+  Y42  1  0.25021223  0.24755512  0.26076598  1
  Y3+  Y43  1  0.25139807  0.24821615  0.75279359  1
  Y3+  Y44  1  0.25160595  0.49932893  0.25893204  1
  Y3+  Y45  1  0.25164917  0.49818950  0.75577823  1
  Y3+  Y46  1  0.24908060  0.75102951  0.25570027  1
  Y3+  Y47  1  0.24988504  0.75188646  0.75834447  1
  Y3+  Y48  1  0.50102873  0.00233875  0.25791145  1
  Y3+  Y49  1  0.49859841  0.00060410  0.75382446  1
  Y3+  Y50  1  0.50121009  0.25001009  0.26195945  1
  Y3+  Y51  1  0.49925347  0.25125936  0.75128006  1
  Y3+  Y52  1  0.50034174  0.49703429  0.26181743  1
  Y3+  Y53  1  0.50066404  0.49678414  0.75220656  1
  Y3+  Y54  1  0.50019383  0.75000580  0.25790047  1
  Y3+  Y55  1  0.50007997  0.75142034  0.75492598  1
  Y3+  Y56  1  0.74898982  0.00394750  0.25379327  1
  Y3+  Y57  1  0.75288759  0.00092905  0.75899951  1
  Y3+  Y58  1  0.74990439  0.25067375  0.25743225  1
  Y3+  Y59  1  0.75305258  0.25122565  0.75706802  1
  Y3+  Y60  1  0.74970383  0.49542888  0.25936155  1
  Y3+  Y61  1  0.75154303  0.49588710  0.75633681  1
  Y3+  Y62  1  0.74809466  0.74950200  0.25680980  1
  Y3+  Y63  1  0.75156580  0.75155944  0.75742739  1
  Fe3+  Fe64  1  0.87386972  0.62575967  0.38159647  1
  Fe3+  Fe65  1  0.12430948  0.87697769  0.38048450  1
  Fe3+  Fe66  1  0.12445548  0.37292892  0.37944501  1
  Fe3+  Fe67  1  0.62457925  0.37428509  0.87526299  1
  Fe3+  Fe68  1  0.87403767  0.12412507  0.37569187  1
  Fe3+  Fe69  1  0.12513539  0.37428771  0.87936704  1
  Fe3+  Fe70  1  0.37643614  0.12536671  0.88076573  1
  Fe3+  Fe71  1  0.62480997  0.62548761  0.38042196  1
  Fe3+  Fe72  1  0.37600265  0.37482736  0.87857002  1
  Fe3+  Fe73  1  0.12579534  0.62403548  0.87644529  1
  Fe3+  Fe74  1  0.87500034  0.87687276  0.37717272  1
  Fe3+  Fe75  1  0.37684924  0.62475339  0.88105369  1
  Fe3+  Fe76  1  0.62578160  0.87689485  0.37585010  1
  Fe3+  Fe77  1  0.12494303  0.62498459  0.38120450  1
  Fe3+  Fe78  1  0.62441149  0.87577413  0.87466261  1
  Fe3+  Fe79  1  0.62398842  0.12617198  0.87749648  1
  Fe3+  Fe80  1  0.37474456  0.87654160  0.37443286  1
  Fe3+  Fe81  1  0.12610885  0.12588453  0.87744803  1
  Fe3+  Fe82  1  0.62435755  0.62389874  0.87578921  1
  Fe3+  Fe83  1  0.37554803  0.87536969  0.87774602  1
  Fe3+  Fe84  1  0.62513661  0.62454247  0.63306592  1
  Fe3+  Fe85  1  0.87517090  0.87509332  0.13796269  1
  Fe3+  Fe86  1  0.37538081  0.62510395  0.13669650  1
  Fe3+  Fe87  1  0.12572116  0.87594678  0.63519567  1
  Fe3+  Fe88  1  0.87483554  0.62522477  0.14046870  1
  Fe3+  Fe89  1  0.87464441  0.62472661  0.63516240  1
  Fe3+  Fe90  1  0.12548897  0.37395593  0.63428050  1
  Fe3+  Fe91  1  0.37499615  0.12476904  0.13591527  1
  Fe3+  Fe92  1  0.12364467  0.37479345  0.13629686  1
  Fe3+  Fe93  1  0.12516477  0.62425462  0.63353717  1
  Fe3+  Fe94  1  0.62556538  0.12615555  0.63694101  1
  Fe3+  Fe95  1  0.37525129  0.62475739  0.63620869  1
  Cu2+  Cu96  1  0.87434798  0.37427564  0.87313006  1
  Cu2+  Cu97  1  0.37406012  0.37336050  0.36994225  1
  Cu2+  Cu98  1  0.12375960  0.12470674  0.37378099  1
  Cu2+  Cu99  1  0.87541710  0.37348111  0.37210093  1
  Cu2+  Cu100  1  0.62600936  0.12414063  0.36669169  1
  Cu2+  Cu101  1  0.87394705  0.62470790  0.86044727  1
  Cu2+  Cu102  1  0.87390873  0.12556822  0.87256418  1
  Cu2+  Cu103  1  0.37537950  0.62606951  0.36356815  1
  Cu2+  Cu104  1  0.12590268  0.87601359  0.87081773  1
  Cu2+  Cu105  1  0.62554380  0.37348279  0.37167675  1
  Cu2+  Cu106  1  0.37536429  0.12354373  0.36915962  1
  Cu2+  Cu107  1  0.87451878  0.87548505  0.86381508  1
  Cu2+  Cu108  1  0.62524871  0.37396847  0.64076810  1
  Cu2+  Cu109  1  0.12275689  0.87522420  0.14382154  1
  Cu2+  Cu110  1  0.37483900  0.87559731  0.15179596  1
  Cu2+  Cu111  1  0.37420004  0.87522455  0.65060259  1
  Cu2+  Cu112  1  0.12384338  0.62400560  0.15214963  1
  Cu2+  Cu113  1  0.62481960  0.12584211  0.15026554  1
  Cu2+  Cu114  1  0.87527214  0.37399627  0.64172075  1
  Cu2+  Cu115  1  0.87429241  0.12509994  0.65279439  1
  Cu2+  Cu116  1  0.12488535  0.12612128  0.14789329  1
  Cu2+  Cu117  1  0.87622894  0.87558711  0.65289423  1
  Cu2+  Cu118  1  0.37454915  0.37426498  0.64038307  1
  Cu2+  Cu119  1  0.12490684  0.12584147  0.64222342  1
  Cu2+  Cu120  1  0.37459431  0.37445601  0.15337799  1
  Cu2+  Cu121  1  0.62544281  0.37469097  0.15684059  1
  Cu2+  Cu122  1  0.87506600  0.12507608  0.14248313  1
  Cu2+  Cu123  1  0.37587938  0.12530800  0.64260887  1
  Cu2+  Cu124  1  0.62476587  0.87583224  0.65101836  1
  Cu2+  Cu125  1  0.87535737  0.37481473  0.14380798  1
  Cu2+  Cu126  1  0.62654504  0.87524068  0.15332567  1
  Cu2+  Cu127  1  0.62571765  0.62408448  0.15440727  1
  O2-  O128  1  0.12734902  0.12593004  -0.00222882  1
  O2-  O129  1  0.12414033  0.12467667  0.50707018  1
  O2-  O130  1  0.12463024  0.37612872  0.00697377  1
  O2-  O131  1  0.12550202  0.37402488  0.50692478  1
  O2-  O132  1  0.12610525  0.62434419  -0.00334343  1
  O2-  O133  1  0.12589972  0.62496356  0.50746960  1
  O2-  O134  1  0.12385210  0.87397194  0.00640174  1
  O2-  O135  1  0.12511945  0.87601088  0.50697439  1
  O2-  O136  1  0.37581404  0.12527935  0.00669896  1
  O2-  O137  1  0.37669690  0.12386172  0.50598151  1
  O2-  O138  1  0.37680883  0.37647810  -0.00161283  1
  O2-  O139  1  0.37358758  0.37372240  0.50561145  1
  O2-  O140  1  0.37628897  0.62483163  0.00715415  1
  O2-  O141  1  0.37512259  0.62642043  0.51570494  1
  O2-  O142  1  0.37640734  0.87373029  -0.00232331  1
  O2-  O143  1  0.37508012  0.87620304  0.49521233  1
  O2-  O144  1  0.62285989  0.12543786  -0.00212550  1
  O2-  O145  1  0.62603927  0.12450075  0.51575721  1
  O2-  O146  1  0.62423118  0.37624653  -0.00432584  1
  O2-  O147  1  0.62439595  0.37379323  0.50590373  1
  O2-  O148  1  0.62393169  0.62448058  -0.00416595  1
  O2-  O149  1  0.62451907  0.62640286  0.50664185  1
  O2-  O150  1  0.62420935  0.87331699  -0.00512514  1
  O2-  O151  1  0.62532371  0.87653067  0.49631581  1
  O2-  O152  1  0.87387721  0.12423752  0.00670468  1
  O2-  O153  1  0.87345215  0.12304011  0.49668731  1
  O2-  O154  1  0.87461615  0.37629993  0.00794836  1
  O2-  O155  1  0.87625904  0.37378633  0.50749709  1
  O2-  O156  1  0.87466806  0.62612909  0.02001681  1
  O2-  O157  1  0.87402099  0.62587067  0.50820443  1
  O2-  O158  1  0.87516671  0.87219143  0.01724453  1
  O2-  O159  1  0.87470976  0.87743251  0.49771814  1
  O2-  O160  1  0.12499319  0.00194621  0.16425207  1
  O2-  O161  1  0.12546431  -0.00213380  0.66309371  1
  O2-  O162  1  0.12592360  0.25198907  0.16320547  1
  O2-  O163  1  0.12475622  0.25235454  0.66438446  1
  O2-  O164  1  0.12539378  0.49804383  0.16762323  1
  O2-  O165  1  0.12541054  0.50050128  0.66207241  1
  O2-  O166  1  0.12486574  0.74817177  0.16924864  1
  O2-  O167  1  0.12473413  0.74932324  0.66003928  1
  O2-  O168  1  0.37469481  0.00130640  0.16042771  1
  O2-  O169  1  0.37415788  -0.00153992  0.66569391  1
  O2-  O170  1  0.37454148  0.24836993  0.16262487  1
  O2-  O171  1  0.37453769  0.24994631  0.66616451  1
  O2-  O172  1  0.37474416  0.50159346  0.16484694  1
  O2-  O173  1  0.37414829  0.50219684  0.66650378  1
  O2-  O174  1  0.37477650  0.74868365  0.16338894  1
  O2-  O175  1  0.37460937  0.74917916  0.66571542  1
  O2-  O176  1  0.62496579  0.00004108  0.16175117  1
  O2-  O177  1  0.62556896  0.00016910  0.66534233  1
  O2-  O178  1  0.62418739  0.25083698  0.16487972  1
  O2-  O179  1  0.62535237  0.24849440  0.66622925  1
  O2-  O180  1  0.62477500  0.49908842  0.16815346  1
  O2-  O181  1  0.62571809  0.50285691  0.66106937  1
  O2-  O182  1  0.62527644  0.74983090  0.16617436  1
  O2-  O183  1  0.62429327  0.74916463  0.66080707  1
  O2-  O184  1  0.87508004  -0.00086040  0.16311082  1
  O2-  O185  1  0.87546753  0.00004755  0.66573173  1
  O2-  O186  1  0.87538068  0.24969143  0.16386616  1
  O2-  O187  1  0.87592506  0.24869236  0.66575565  1
  O2-  O188  1  0.87509653  0.50119527  0.17023011  1
  O2-  O189  1  0.87531786  0.50330817  0.66364581  1
  O2-  O190  1  0.87472061  0.74978052  0.17247935  1
  O2-  O191  1  0.87646013  0.74799820  0.66311762  1
  O2-  O192  1  0.00143984  0.12602320  0.16499929  1
  O2-  O193  1  -0.00206574  0.12487257  0.66542971  1
  O2-  O194  1  0.00243392  0.37560329  0.16638715  1
  O2-  O195  1  0.00303487  0.37613092  0.66511892  1
  O2-  O196  1  -0.00095126  0.62435870  0.17207819  1
  O2-  O197  1  0.00060938  0.62484210  0.66051515  1
  O2-  O198  1  -0.00207148  0.87418752  0.17013568  1
  O2-  O199  1  0.00247421  0.87444352  0.66367639  1
  O2-  O200  1  0.25152639  0.12516995  0.16354504  1
  O2-  O201  1  0.25062984  0.12524469  0.66520014  1
  O2-  O202  1  0.24809662  0.37593904  0.16333878  1
  O2-  O203  1  0.24710923  0.37574973  0.66582659  1
  O2-  O204  1  0.25148234  0.62481938  0.16322738  1
  O2-  O205  1  0.24852109  0.62550707  0.66555025  1
  O2-  O206  1  0.24975526  0.87438478  0.16571018  1
  O2-  O207  1  0.24803763  0.87346160  0.66269057  1
  O2-  O208  1  0.49847272  0.12499379  0.16363798  1
  O2-  O209  1  0.50178736  0.12400250  0.66533786  1
  O2-  O210  1  0.49997650  0.37568929  0.16578749  1
  O2-  O211  1  0.49991493  0.37577881  0.66157429  1
  O2-  O212  1  0.49910795  0.62510576  0.16394463  1
  O2-  O213  1  0.50124304  0.62566607  0.66361695  1
  O2-  O214  1  0.50121138  0.87433541  0.16347076  1
  O2-  O215  1  0.49902795  0.87477091  0.66101591  1
  O2-  O216  1  0.74828665  0.12579952  0.16368886  1
  O2-  O217  1  0.75009759  0.12434678  0.66598967  1
  O2-  O218  1  0.74912442  0.37546772  0.16640915  1
  O2-  O219  1  0.75050883  0.37500823  0.66393240  1
  O2-  O220  1  0.75015315  0.62437002  0.16976270  1
  O2-  O221  1  0.75001400  0.62697676  0.66078152  1
  O2-  O222  1  0.75080725  0.87421712  0.16601873  1
  O2-  O223  1  0.75107995  0.87387044  0.66315436  1
  O2-  O224  1  0.12446642  -0.00301750  0.34793215  1
  O2-  O225  1  0.12608001  0.00280849  0.84613845  1
  O2-  O226  1  0.12480103  0.25206028  0.34814125  1
  O2-  O227  1  0.12679840  0.25138891  0.84776493  1
  O2-  O228  1  0.12494484  0.50036297  0.35341903  1
  O2-  O229  1  0.12541153  0.49875531  0.84572044  1
  O2-  O230  1  0.12482128  0.75010649  0.35386048  1
  O2-  O231  1  0.12540261  0.74738634  0.84379891  1
  O2-  O232  1  0.37454555  -0.00208926  0.34267563  1
  O2-  O233  1  0.37529188  0.00171812  0.84880957  1
  O2-  O234  1  0.37425096  0.24874879  0.34710509  1
  O2-  O235  1  0.37412983  0.24938180  0.84884696  1
  O2-  O236  1  0.37433633  0.50131367  0.34958805  1
  O2-  O237  1  0.37507451  0.50096393  0.84801419  1
  O2-  O238  1  0.37420457  0.75164932  0.34643465  1
  O2-  O239  1  0.37497879  0.74828372  0.84800884  1
  O2-  O240  1  0.62539691  -0.00083007  0.34474043  1
  O2-  O241  1  0.62361757  0.00024323  0.84620440  1
  O2-  O242  1  0.62528201  0.24803041  0.34930273  1
  O2-  O243  1  0.62375064  0.25044282  0.84570163  1
  O2-  O244  1  0.62512326  0.50291967  0.35250887  1
  O2-  O245  1  0.62427982  0.49966929  0.84194822  1
  O2-  O246  1  0.62465046  0.74959991  0.34935080  1
  O2-  O247  1  0.62495307  0.74968769  0.84280259  1
  O2-  O248  1  0.87498667  -0.00070454  0.34273797  1
  O2-  O249  1  0.87544312  -0.00087010  0.85011483  1
  O2-  O250  1  0.87524939  0.24795212  0.34650738  1
  O2-  O251  1  0.87518047  0.25016244  0.84858982  1
  O2-  O252  1  0.87521294  0.50339553  0.35337561  1
  O2-  O253  1  0.87522413  0.50060702  0.84696711  1
  O2-  O254  1  0.87579379  0.74910597  0.35285027  1
  O2-  O255  1  0.87504509  0.74994106  0.84793566  1
  O2-  O256  1  -0.00248067  0.12455757  0.34714869  1
  O2-  O257  1  0.00191718  0.12595653  0.84870023  1
  O2-  O258  1  0.00258049  0.37602703  0.34999377  1
  O2-  O259  1  0.00300087  0.37572010  0.85011875  1
  O2-  O260  1  0.00026221  0.62519193  0.35546540  1
  O2-  O261  1  0.00014224  0.62439196  0.84590088  1
  O2-  O262  1  0.00098330  0.87363437  0.35129687  1
  O2-  O263  1  -0.00122643  0.87439990  0.84841492  1
  O2-  O264  1  0.24972912  0.12434218  0.34806688  1
  O2-  O265  1  0.25252787  0.12555797  0.84748647  1
  O2-  O266  1  0.24659667  0.37581245  0.34800887  1
  O2-  O267  1  0.24988636  0.37633419  0.84889970  1
  O2-  O268  1  0.24743051  0.62517037  0.34922719  1
  O2-  O269  1  0.25251810  0.62403486  0.84777499  1
  O2-  O270  1  0.24784640  0.87413866  0.34905987  1
  O2-  O271  1  0.25305252  0.87478017  0.84471061  1
  O2-  O272  1  0.50153531  0.12418220  0.34828635  1
  O2-  O273  1  0.49813744  0.12554502  0.84595328  1
  O2-  O274  1  0.49982368  0.37463004  0.35006618  1
  O2-  O275  1  0.49926101  0.37520402  0.84202875  1
  O2-  O276  1  0.50203108  0.62579729  0.34922708  1
  O2-  O277  1  0.49859471  0.62509690  0.84493661  1
  O2-  O278  1  0.50047914  0.87463786  0.34571356  1
  O2-  O279  1  0.49937346  0.87442492  0.84210567  1
  O2-  O280  1  0.75074580  0.12449982  0.34640499  1
  O2-  O281  1  0.74738773  0.12469713  0.84765529  1
  O2-  O282  1  0.75074562  0.37471109  0.35005030  1
  O2-  O283  1  0.74795183  0.37557228  0.84618275  1
  O2-  O284  1  0.74978824  0.62627619  0.35294878  1
  O2-  O285  1  0.74890418  0.62514592  0.84518564  1
  O2-  O286  1  0.75045248  0.87376123  0.34635048  1
  O2-  O287  1  0.74897630  0.87452271  0.84699035  1
