# generated using pymatgen
data_BaYFeCuO5
_symmetry_space_group_name_H-M   'P 1'
_cell_length_a   15.65213965
_cell_length_b   15.65144761
_cell_length_c   15.43787165
_cell_angle_alpha   90.00580132
_cell_angle_beta   90.00226197
_cell_angle_gamma   89.99974659
_symmetry_Int_Tables_number   1
_chemical_formula_structural   BaYFeCuO5
_chemical_formula_sum   'Ba32 Y32 Fe32 Cu32 O160'
_cell_volume   3781.94883656
_cell_formula_units_Z   32
loop_
 _symmetry_equiv_pos_site_id
 _symmetry_equiv_pos_as_xyz
  1  'x, y, z'
loop_
 _atom_type_symbol
 _atom_type_oxidation_number
  Ba2+  2.0
  Y3+  3.0
  Fe3+  3.0
  Cu2+  2.0
  O2-  -2.0
loop_
 _atom_site_type_symbol
 _atom_site_label
 _atom_site_symmetry_multiplicity
 _atom_site_fract_x
 _atom_site_fract_y
 _atom_site_fract_z
 _atom_site_occupancy
  Ba2+  Ba0  1  0.00387779  0.00266383  0.01210052  1
  Ba2+  Ba1  1  0.01042228  -0.00276025  0.51140501  1
  Ba2+  Ba2  1  0.00008234  0.24958827  0.00692527  1
  Ba2+  Ba3  1  -0.00443839  0.25545829  0.51041562  1
  Ba2+  Ba4  1  -0.01315369  0.50038810  0.00719432  1
  Ba2+  Ba5  1  -0.00502909  0.50506288  0.51217155  1
  Ba2+  Ba6  1  -0.01174573  0.74871266  0.01278961  1
  Ba2+  Ba7  1  0.00951885  0.74499951  0.51004927  1
  Ba2+  Ba8  1  0.25436665  0.00409257  0.01378025  1
  Ba2+  Ba9  1  0.24834175  -0.01008586  0.51052154  1
  Ba2+  Ba10  1  0.25068749  0.24128106  0.00765716  1
  Ba2+  Ba11  1  0.25142347  0.25143232  0.51647292  1
  Ba2+  Ba12  1  0.25441529  0.49562980  0.00210188  1
  Ba2+  Ba13  1  0.25257328  0.50764697  0.51759506  1
  Ba2+  Ba14  1  0.25716117  0.75777366  0.00709890  1
  Ba2+  Ba15  1  0.24797467  0.75124083  0.51096590  1
  Ba2+  Ba16  1  0.49578283  -0.00810439  0.01122060  1
  Ba2+  Ba17  1  0.49578536  -0.00371977  0.51051979  1
  Ba2+  Ba18  1  0.49855901  0.25563755  0.00535415  1
  Ba2+  Ba19  1  0.50510413  0.25599739  0.52280952  1
  Ba2+  Ba20  1  0.50984053  0.49814631  0.00310045  1
  Ba2+  Ba21  1  0.50105972  0.50085750  0.52822209  1
  Ba2+  Ba22  1  0.50761555  0.75487237  0.00650234  1
  Ba2+  Ba23  1  0.49236107  0.74592168  0.51769419  1
  Ba2+  Ba24  1  0.74755558  -0.01140880  0.01248801  1
  Ba2+  Ba25  1  0.74497271  0.00517565  0.51122332  1
  Ba2+  Ba26  1  0.75017200  0.26207253  0.00664023  1
  Ba2+  Ba27  1  0.74720349  0.25945263  0.51715687  1
  Ba2+  Ba28  1  0.74911093  0.50229011  0.00676407  1
  Ba2+  Ba29  1  0.75037914  0.49804018  0.52328385  1
  Ba2+  Ba30  1  0.74634003  0.74580327  0.01094422  1
  Ba2+  Ba31  1  0.74917361  0.73898838  0.51780530  1
  Y3+  Y32  1  0.00192083  -0.00063731  0.25797584  1
  Y3+  Y33  1  0.00473892  0.00101963  0.75660223  1
  Y3+  Y34  1  -0.00186949  0.25175422  0.25646895  1
  Y3+  Y35  1  -0.00006616  0.25003240  0.75861409  1
  Y3+  Y36  1  -0.00352351  0.50021804  0.25762967  1
  Y3+  Y37  1  -0.00385832  0.50107507  0.75793597  1
  Y3+  Y38  1  0.00049137  0.74862773  0.25921355  1
  Y3+  Y39  1  0.00099634  0.74784405  0.75547495  1
  Y3+  Y40  1  0.25117422  -0.00194758  0.25853735  1
  Y3+  Y41  1  0.24902803  -0.00150835  0.75663847  1
  Y3+  Y42  1  0.24940740  0.24785280  0.25528096  1
  Y3+  Y43  1  0.24906552  0.24876359  0.75911485  1
  Y3+  Y44  1  0.24837319  0.50152750  0.25778661  1
  Y3+  Y45  1  0.25088233  0.50084081  0.75724769  1
  Y3+  Y46  1  0.24997086  0.75247129  0.26145068  1
  Y3+  Y47  1  0.25080063  0.75212018  0.75439114  1
  Y3+  Y48  1  0.49745081  -0.00317444  0.25579246  1
  Y3+  Y49  1  0.49922358  -0.00292731  0.75771773  1
  Y3+  Y50  1  0.50085917  0.25024355  0.25319067  1
  Y3+  Y51  1  0.50169845  0.25235113  0.75933554  1
  Y3+  Y52  1  0.50320231  0.50048214  0.25037281  1
  Y3+  Y53  1  0.50230888  0.49956616  0.76259049  1
  Y3+  Y54  1  0.49969185  0.75208267  0.25364504  1
  Y3+  Y55  1  0.49983139  0.75107787  0.76107617  1
  Y3+  Y56  1  0.74897131  -0.00210019  0.25650455  1
  Y3+  Y57  1  0.74824090  -0.00024943  0.75687358  1
  Y3+  Y58  1  0.75085762  0.25464019  0.25535781  1
  Y3+  Y59  1  0.75043627  0.25382484  0.75844451  1
  Y3+  Y60  1  0.75092434  0.49925211  0.25066813  1
  Y3+  Y61  1  0.75106275  0.50015548  0.76322178  1
  Y3+  Y62  1  0.74916421  0.74828569  0.25145149  1
  Y3+  Y63  1  0.74893847  0.74661373  0.76208118  1
  Fe3+  Fe64  1  0.37665317  0.37605494  0.37733720  1
  Fe3+  Fe65  1  0.37593893  0.12601978  0.37964735  1
  Fe3+  Fe66  1  0.12517511  0.37643662  0.37984602  1
  Fe3+  Fe67  1  0.62472240  0.87289115  0.37995368  1
  Fe3+  Fe68  1  0.62423837  0.12646571  0.37658565  1
  Fe3+  Fe69  1  0.87402549  0.12572364  0.37945021  1
  Fe3+  Fe70  1  0.12548089  0.12613275  0.37822451  1
  Fe3+  Fe71  1  0.37537522  0.62570879  0.87910054  1
  Fe3+  Fe72  1  0.87568531  0.87545643  0.87504183  1
  Fe3+  Fe73  1  0.87277739  0.62415666  0.37578025  1
  Fe3+  Fe74  1  0.37565266  0.12407153  0.87510153  1
  Fe3+  Fe75  1  0.62447737  0.37723826  0.37484489  1
  Fe3+  Fe76  1  0.62549929  0.12400784  0.87931443  1
  Fe3+  Fe77  1  0.87469366  0.12397268  0.87899347  1
  Fe3+  Fe78  1  0.37685363  0.62382315  0.37464533  1
  Fe3+  Fe79  1  0.12463935  0.62592321  0.88096148  1
  Fe3+  Fe80  1  0.12515532  0.87495240  0.87994800  1
  Fe3+  Fe81  1  0.87435979  0.87400466  0.38044259  1
  Fe3+  Fe82  1  0.12463871  0.37505984  0.87924136  1
  Fe3+  Fe83  1  0.62425132  0.62369179  0.37576126  1
  Fe3+  Fe84  1  0.37421831  0.37490026  0.13499889  1
  Fe3+  Fe85  1  0.37498646  0.62549943  0.13319128  1
  Fe3+  Fe86  1  0.12508605  0.62495038  0.13366867  1
  Fe3+  Fe87  1  0.12450036  0.37517505  0.13466939  1
  Fe3+  Fe88  1  0.62514254  0.87363381  0.63564681  1
  Fe3+  Fe89  1  0.12483116  0.87449227  0.13606873  1
  Fe3+  Fe90  1  0.87416728  0.12453252  0.13496895  1
  Fe3+  Fe91  1  0.62459558  0.12459026  0.13309041  1
  Fe3+  Fe92  1  0.12459180  0.37607949  0.63712764  1
  Fe3+  Fe93  1  0.87512723  0.12507085  0.63545626  1
  Fe3+  Fe94  1  0.37535373  0.12473276  0.63589172  1
  Fe3+  Fe95  1  0.87554339  0.87399984  0.63382800  1
  Cu2+  Cu96  1  0.62568306  0.87588995  0.87035932  1
  Cu2+  Cu97  1  0.87597901  0.37458191  0.87201148  1
  Cu2+  Cu98  1  0.62589191  0.37435880  0.87160725  1
  Cu2+  Cu99  1  0.87546118  0.62613351  0.87188018  1
  Cu2+  Cu100  1  0.62518721  0.62560540  0.87238364  1
  Cu2+  Cu101  1  0.12530749  0.62386934  0.37231824  1
  Cu2+  Cu102  1  0.12465944  0.87454091  0.37102271  1
  Cu2+  Cu103  1  0.87340564  0.37601586  0.37334214  1
  Cu2+  Cu104  1  0.12521844  0.12421258  0.87352663  1
  Cu2+  Cu105  1  0.37596604  0.87410096  0.37359311  1
  Cu2+  Cu106  1  0.37423794  0.37452849  0.86442739  1
  Cu2+  Cu107  1  0.37463626  0.87576008  0.87121160  1
  Cu2+  Cu108  1  0.87566264  0.37476986  0.14123501  1
  Cu2+  Cu109  1  0.37548847  0.12491972  0.15131294  1
  Cu2+  Cu110  1  0.62482224  0.62529614  0.65669590  1
  Cu2+  Cu111  1  0.87578663  0.87529746  0.15237587  1
  Cu2+  Cu112  1  0.12529568  0.62419511  0.64455418  1
  Cu2+  Cu113  1  0.87565118  0.37569872  0.64405253  1
  Cu2+  Cu114  1  0.37477236  0.37500071  0.65448094  1
  Cu2+  Cu115  1  0.62483283  0.12495882  0.65200045  1
  Cu2+  Cu116  1  0.62509043  0.37439744  0.13962688  1
  Cu2+  Cu117  1  0.37411477  0.87438780  0.14290542  1
  Cu2+  Cu118  1  0.12475000  0.87417780  0.64456956  1
  Cu2+  Cu119  1  0.62538050  0.37633294  0.65859722  1
  Cu2+  Cu120  1  0.87491315  0.62506722  0.14220721  1
  Cu2+  Cu121  1  0.12536112  0.12597436  0.64734368  1
  Cu2+  Cu122  1  0.62465189  0.87509999  0.14331268  1
  Cu2+  Cu123  1  0.12463832  0.12491984  0.14232201  1
  Cu2+  Cu124  1  0.37557215  0.62512391  0.65771082  1
  Cu2+  Cu125  1  0.37497699  0.87460978  0.64288877  1
  Cu2+  Cu126  1  0.87468923  0.62559710  0.65369674  1
  Cu2+  Cu127  1  0.62442775  0.62507755  0.13968599  1
  O2-  O128  1  0.12459996  0.12418278  0.00777569  1
  O2-  O129  1  0.12575010  0.12791158  0.49864678  1
  O2-  O130  1  0.12510290  0.37461538  0.00750068  1
  O2-  O131  1  0.12569402  0.37638078  0.50802728  1
  O2-  O132  1  0.12481436  0.62595138  0.00734253  1
  O2-  O133  1  0.12638577  0.62283848  0.50790331  1
  O2-  O134  1  0.12445915  0.87508805  0.00754965  1
  O2-  O135  1  0.12441522  0.87359506  0.50746259  1
  O2-  O136  1  0.37609330  0.12432739  -0.00388336  1
  O2-  O137  1  0.37623805  0.12666378  0.50654662  1
  O2-  O138  1  0.37179443  0.37271249  0.01459374  1
  O2-  O139  1  0.37770286  0.37676214  0.49747398  1
  O2-  O140  1  0.37459113  0.62556370  0.00631927  1
  O2-  O141  1  0.37719398  0.62206787  0.49526984  1
  O2-  O142  1  0.37379374  0.87624168  0.00704373  1
  O2-  O143  1  0.37607349  0.87382230  0.50773572  1
  O2-  O144  1  0.62553962  0.12347576  0.00584340  1
  O2-  O145  1  0.62448052  0.12796642  0.49680921  1
  O2-  O146  1  0.62478071  0.37345481  0.00555231  1
  O2-  O147  1  0.62325345  0.37759175  0.49551655  1
  O2-  O148  1  0.62440137  0.62584235  0.00590893  1
  O2-  O149  1  0.62371092  0.62260108  0.49594229  1
  O2-  O150  1  0.62572246  0.87633196  0.00696796  1
  O2-  O151  1  0.62492402  0.87287833  0.50697587  1
  O2-  O152  1  0.87425278  0.12300384  0.00645357  1
  O2-  O153  1  0.87415509  0.12617207  0.50686506  1
  O2-  O154  1  0.87681062  0.37312425  0.00674615  1
  O2-  O155  1  0.87397876  0.37575283  0.50827751  1
  O2-  O156  1  0.87449278  0.62645526  0.00680234  1
  O2-  O157  1  0.87233199  0.62390717  0.49665053  1
  O2-  O158  1  0.87620642  0.87731549  -0.00421520  1
  O2-  O159  1  0.87460616  0.87383663  0.50666159  1
  O2-  O160  1  0.12435729  -0.00276377  0.16487159  1
  O2-  O161  1  0.12526193  0.00132044  0.66494463  1
  O2-  O162  1  0.12500732  0.25262079  0.16374607  1
  O2-  O163  1  0.12471070  0.25224351  0.66531860  1
  O2-  O164  1  0.12556984  0.50004439  0.16111230  1
  O2-  O165  1  0.12568543  0.49737082  0.66866791  1
  O2-  O166  1  0.12493854  0.74961932  0.16287604  1
  O2-  O167  1  0.12475658  0.74932836  0.66762775  1
  O2-  O168  1  0.37445291  0.00096362  0.16749119  1
  O2-  O169  1  0.37524940  0.00247876  0.66136987  1
  O2-  O170  1  0.37379161  0.25060314  0.16604836  1
  O2-  O171  1  0.37546690  0.24863130  0.66242584  1
  O2-  O172  1  0.37314471  0.50091691  0.16013356  1
  O2-  O173  1  0.37464978  0.49985179  0.66837093  1
  O2-  O174  1  0.37320554  0.74693125  0.16360482  1
  O2-  O175  1  0.37526514  0.74902423  0.66663642  1
  O2-  O176  1  0.62504693  0.00282334  0.16701462  1
  O2-  O177  1  0.62606701  -0.00245887  0.66130456  1
  O2-  O178  1  0.62561232  0.24634933  0.16229848  1
  O2-  O179  1  0.62527354  0.25094777  0.66555172  1
  O2-  O180  1  0.62472670  0.49947967  0.15942917  1
  O2-  O181  1  0.62493504  0.50095646  0.66782626  1
  O2-  O182  1  0.62464278  0.75048002  0.16502647  1
  O2-  O183  1  0.62561070  0.75116268  0.66418000  1
  O2-  O184  1  0.87522934  0.00140990  0.16692631  1
  O2-  O185  1  0.87409590  -0.00013270  0.65874041  1
  O2-  O186  1  0.87502626  0.24682757  0.16434427  1
  O2-  O187  1  0.87552701  0.24712296  0.66499329  1
  O2-  O188  1  0.87602699  0.49986306  0.16295644  1
  O2-  O189  1  0.87502157  0.50185419  0.66715391  1
  O2-  O190  1  0.87598709  0.75158501  0.16510187  1
  O2-  O191  1  0.87505728  0.75147504  0.66241515  1
  O2-  O192  1  -0.00335422  0.12449303  0.16482238  1
  O2-  O193  1  -0.00168372  0.12447262  0.66461082  1
  O2-  O194  1  0.00298201  0.37476318  0.16628491  1
  O2-  O195  1  0.00237397  0.37491365  0.66523545  1
  O2-  O196  1  0.00348242  0.62499896  0.16416880  1
  O2-  O197  1  -0.00144603  0.62453149  0.66606639  1
  O2-  O198  1  0.00185428  0.87510986  0.16446825  1
  O2-  O199  1  -0.00311386  0.87601279  0.66437916  1
  O2-  O200  1  0.25128210  0.12485320  0.16568410  1
  O2-  O201  1  0.25195154  0.12621427  0.66303968  1
  O2-  O202  1  0.24841838  0.37497271  0.16637894  1
  O2-  O203  1  0.24854989  0.37464686  0.66444196  1
  O2-  O204  1  0.24916378  0.62428512  0.16166474  1
  O2-  O205  1  0.25182473  0.62457178  0.66876339  1
  O2-  O206  1  0.24692105  0.87509445  0.16469409  1
  O2-  O207  1  0.24980172  0.87491817  0.66652597  1
  O2-  O208  1  0.50128051  0.12469903  0.16102016  1
  O2-  O209  1  0.49911212  0.12505988  0.66382239  1
  O2-  O210  1  0.49771280  0.37399856  0.16149430  1
  O2-  O211  1  0.50029716  0.37511279  0.66655432  1
  O2-  O212  1  0.49677270  0.62504771  0.16000954  1
  O2-  O213  1  0.49997033  0.62525532  0.66748171  1
  O2-  O214  1  0.49888673  0.87548820  0.16531481  1
  O2-  O215  1  0.50312084  0.87480959  0.66422397  1
  O2-  O216  1  0.74996819  0.12325251  0.16237652  1
  O2-  O217  1  0.75118743  0.12471057  0.66411966  1
  O2-  O218  1  0.75032825  0.37394897  0.16280038  1
  O2-  O219  1  0.74931405  0.37466696  0.66568348  1
  O2-  O220  1  0.74972229  0.62568091  0.16217213  1
  O2-  O221  1  0.74985195  0.62573250  0.66540806  1
  O2-  O222  1  0.75173421  0.87619843  0.16650425  1
  O2-  O223  1  0.75040818  0.87532346  0.66042664  1
  O2-  O224  1  0.12457713  0.00262717  0.34836316  1
  O2-  O225  1  0.12457243  -0.00287149  0.84919426  1
  O2-  O226  1  0.12476726  0.25118010  0.34719606  1
  O2-  O227  1  0.12496327  0.25221171  0.85047053  1
  O2-  O228  1  0.12500834  0.49677688  0.34535014  1
  O2-  O229  1  0.12569487  0.50069475  0.85409299  1
  O2-  O230  1  0.12461702  0.74975918  0.34749497  1
  O2-  O231  1  0.12563980  0.75005945  0.85210503  1
  O2-  O232  1  0.37545212  0.00309425  0.35242009  1
  O2-  O233  1  0.37530349  0.00146093  0.84362363  1
  O2-  O234  1  0.37508972  0.24948991  0.34808443  1
  O2-  O235  1  0.37473816  0.24892368  0.84614886  1
  O2-  O236  1  0.37519439  0.49913463  0.33980348  1
  O2-  O237  1  0.37383204  0.50137195  0.85318045  1
  O2-  O238  1  0.37576209  0.74808039  0.34636165  1
  O2-  O239  1  0.37389967  0.74797794  0.85067680  1
  O2-  O240  1  0.62571458  -0.00095497  0.35123086  1
  O2-  O241  1  0.62539868  0.00299339  0.84536332  1
  O2-  O242  1  0.62485203  0.25050738  0.34324970  1
  O2-  O243  1  0.62616293  0.24631804  0.84985836  1
  O2-  O244  1  0.62461737  0.50032030  0.33984336  1
  O2-  O245  1  0.62520042  0.49973148  0.85203498  1
  O2-  O246  1  0.62504326  0.75059591  0.34775711  1
  O2-  O247  1  0.62501960  0.75084722  0.84843287  1
  O2-  O248  1  0.87393752  0.00011435  0.35227525  1
  O2-  O249  1  0.87591222  0.00126956  0.84297731  1
  O2-  O250  1  0.87480671  0.24732535  0.34857285  1
  O2-  O251  1  0.87532078  0.24639136  0.84944653  1
  O2-  O252  1  0.87444990  0.50163325  0.34480867  1
  O2-  O253  1  0.87651441  0.50020324  0.85133004  1
  O2-  O254  1  0.87415105  0.75107627  0.34814706  1
  O2-  O255  1  0.87631907  0.75234257  0.84561476  1
  O2-  O256  1  -0.00124421  0.12518422  0.34895342  1
  O2-  O257  1  -0.00247946  0.12461447  0.84998277  1
  O2-  O258  1  0.00207019  0.37415848  0.35119109  1
  O2-  O259  1  0.00325102  0.37443621  0.84886005  1
  O2-  O260  1  -0.00261777  0.62508586  0.34731784  1
  O2-  O261  1  0.00362776  0.62559463  0.84971406  1
  O2-  O262  1  -0.00377009  0.87578695  0.34895229  1
  O2-  O263  1  0.00206816  0.87528862  0.84718437  1
  O2-  O264  1  0.25137781  0.12616132  0.34918799  1
  O2-  O265  1  0.25151694  0.12509518  0.84679643  1
  O2-  O266  1  0.24976368  0.37465588  0.34910951  1
  O2-  O267  1  0.24744301  0.37507626  0.84954567  1
  O2-  O268  1  0.25239985  0.62420783  0.34482751  1
  O2-  O269  1  0.24948077  0.62449875  0.85304545  1
  O2-  O270  1  0.25026506  0.87529269  0.34869889  1
  O2-  O271  1  0.24703381  0.87517597  0.85053846  1
  O2-  O272  1  0.49928862  0.12514859  0.34477702  1
  O2-  O273  1  0.50156273  0.12497896  0.84794865  1
  O2-  O274  1  0.50023138  0.37437512  0.34071650  1
  O2-  O275  1  0.49885018  0.37390330  0.85100982  1
  O2-  O276  1  0.50083906  0.62490049  0.33996070  1
  O2-  O277  1  0.49719927  0.62523185  0.85163843  1
  O2-  O278  1  0.50345478  0.87570957  0.34876891  1
  O2-  O279  1  0.49976363  0.87573895  0.84844691  1
  O2-  O280  1  0.75026025  0.12439582  0.34683333  1
  O2-  O281  1  0.75059444  0.12347076  0.84975623  1
  O2-  O282  1  0.74761289  0.37460374  0.34513399  1
  O2-  O283  1  0.75121734  0.37412836  0.84933171  1
  O2-  O284  1  0.74883018  0.62580117  0.34296488  1
  O2-  O285  1  0.75044162  0.62561756  0.85001821  1
  O2-  O286  1  0.74968039  0.87577265  0.35117237  1
  O2-  O287  1  0.75219084  0.87674671  0.84414319  1
