# generated using pymatgen
data_BaYFeCuO5
_symmetry_space_group_name_H-M   'P 1'
_cell_length_a   15.67980456
_cell_length_b   15.67636397
_cell_length_c   15.49908707
_cell_angle_alpha   90.00658765
_cell_angle_beta   90.00191483
_cell_angle_gamma   90.00184654
_symmetry_Int_Tables_number   1
_chemical_formula_structural   BaYFeCuO5
_chemical_formula_sum   'Ba32 Y32 Fe32 Cu32 O160'
_cell_volume   3809.71158156
_cell_formula_units_Z   32
loop_
 _symmetry_equiv_pos_site_id
 _symmetry_equiv_pos_as_xyz
  1  'x, y, z'
loop_
 _atom_type_symbol
 _atom_type_oxidation_number
  Ba2+  2.0
  Y3+  3.0
  Fe3+  3.0
  Cu2+  2.0
  O2-  -2.0
loop_
 _atom_site_type_symbol
 _atom_site_label
 _atom_site_symmetry_multiplicity
 _atom_site_fract_x
 _atom_site_fract_y
 _atom_site_fract_z
 _atom_site_occupancy
  Ba2+  Ba0  1  0.00477258  -0.00662431  0.02214888  1
  Ba2+  Ba1  1  -0.00057044  0.00142269  0.51589861  1
  Ba2+  Ba2  1  0.00403157  0.24481363  0.01104596  1
  Ba2+  Ba3  1  0.00370298  0.25311240  0.51075902  1
  Ba2+  Ba4  1  -0.00080102  0.51405875  0.00631764  1
  Ba2+  Ba5  1  0.00703402  0.49891247  0.50474372  1
  Ba2+  Ba6  1  -0.00054928  0.74849713  0.01870949  1
  Ba2+  Ba7  1  0.00316372  0.74647822  0.51205633  1
  Ba2+  Ba8  1  0.25410505  -0.00232970  0.01697822  1
  Ba2+  Ba9  1  0.25030845  0.00028911  0.50536584  1
  Ba2+  Ba10  1  0.25213597  0.23782412  0.01103087  1
  Ba2+  Ba11  1  0.24894743  0.25247769  0.52256038  1
  Ba2+  Ba12  1  0.24336852  0.50787302  0.00733837  1
  Ba2+  Ba13  1  0.24547532  0.49947698  0.51824387  1
  Ba2+  Ba14  1  0.24518110  0.75650714  0.01336019  1
  Ba2+  Ba15  1  0.24667622  0.74709223  0.50054975  1
  Ba2+  Ba16  1  0.49351008  -0.00209589  0.00723767  1
  Ba2+  Ba17  1  0.50284440  0.00400845  0.51202923  1
  Ba2+  Ba18  1  0.49744970  0.23786541  0.01131927  1
  Ba2+  Ba19  1  0.50077589  0.24808260  0.52231450  1
  Ba2+  Ba20  1  0.50428161  0.50585640  0.00268625  1
  Ba2+  Ba21  1  0.49405950  0.49415824  0.52399476  1
  Ba2+  Ba22  1  0.50154599  0.75871990  -0.00472991  1
  Ba2+  Ba23  1  0.49500554  0.75423307  0.51175583  1
  Ba2+  Ba24  1  0.74574929  -0.00705883  0.01157930  1
  Ba2+  Ba25  1  0.74832313  0.00324903  0.51987573  1
  Ba2+  Ba26  1  0.74640092  0.24460443  0.01126429  1
  Ba2+  Ba27  1  0.74679614  0.24671286  0.51189962  1
  Ba2+  Ba28  1  0.75314105  0.51220083  0.00234594  1
  Ba2+  Ba29  1  0.75493352  0.49448010  0.51168274  1
  Ba2+  Ba30  1  0.75329720  0.74978477  -0.00038307  1
  Ba2+  Ba31  1  0.75501967  0.75484822  0.52104289  1
  Y3+  Y32  1  0.00222879  -0.00247571  0.25771715  1
  Y3+  Y33  1  -0.00060615  0.00036029  0.75306822  1
  Y3+  Y34  1  0.00164865  0.25202088  0.25816355  1
  Y3+  Y35  1  0.00240537  0.24985501  0.75537182  1
  Y3+  Y36  1  0.00165732  0.50198132  0.25802747  1
  Y3+  Y37  1  0.00174420  0.50451032  0.75635952  1
  Y3+  Y38  1  0.00260697  0.74823054  0.25795272  1
  Y3+  Y39  1  -0.00019227  0.74641954  0.75682951  1
  Y3+  Y40  1  0.25163528  -0.00267554  0.25550251  1
  Y3+  Y41  1  0.25278531  0.00110624  0.75882566  1
  Y3+  Y42  1  0.24993030  0.24848056  0.25501638  1
  Y3+  Y43  1  0.25054353  0.24863289  0.75754768  1
  Y3+  Y44  1  0.24566135  0.50163289  0.25828597  1
  Y3+  Y45  1  0.24670953  0.50162733  0.75674333  1
  Y3+  Y46  1  0.24766287  0.75186323  0.25814153  1
  Y3+  Y47  1  0.24888851  0.74858585  0.75814983  1
  Y3+  Y48  1  0.49854500  0.00052734  0.25698476  1
  Y3+  Y49  1  0.49892461  -0.00003307  0.75824847  1
  Y3+  Y50  1  0.50052294  0.24536807  0.25584086  1
  Y3+  Y51  1  0.49868715  0.24691084  0.75755301  1
  Y3+  Y52  1  0.50007804  0.50010288  0.25547150  1
  Y3+  Y53  1  0.49942198  0.50054561  0.75866986  1
  Y3+  Y54  1  0.49726282  0.75292991  0.25881425  1
  Y3+  Y55  1  0.50018848  0.75287821  0.75796733  1
  Y3+  Y56  1  0.74772802  0.00069979  0.25855463  1
  Y3+  Y57  1  0.74880420  -0.00088346  0.75359482  1
  Y3+  Y58  1  0.74805357  0.24869812  0.25818945  1
  Y3+  Y59  1  0.74846657  0.24846320  0.75578718  1
  Y3+  Y60  1  0.75229695  0.50038217  0.25635130  1
  Y3+  Y61  1  0.75150025  0.50295404  0.75879023  1
  Y3+  Y62  1  0.75318887  0.74975512  0.25596739  1
  Y3+  Y63  1  0.75125006  0.75040278  0.75728494  1
  Fe3+  Fe64  1  0.62534662  0.37448193  0.87967151  1
  Fe3+  Fe65  1  0.12458239  0.37510965  0.88017129  1
  Fe3+  Fe66  1  0.37510493  0.12568837  0.37700771  1
  Fe3+  Fe67  1  0.12448513  0.87511426  0.87576049  1
  Fe3+  Fe68  1  0.62523480  0.12303676  0.87658342  1
  Fe3+  Fe69  1  0.87499559  0.12543154  0.37575218  1
  Fe3+  Fe70  1  0.87543417  0.87548305  0.37721635  1
  Fe3+  Fe71  1  0.87470903  0.62465596  0.37817945  1
  Fe3+  Fe72  1  0.37400704  0.62665723  0.87908035  1
  Fe3+  Fe73  1  0.87685534  0.87591639  0.87504961  1
  Fe3+  Fe74  1  0.62474078  0.62486877  0.38201628  1
  Fe3+  Fe75  1  0.12583761  0.12513514  0.37553361  1
  Fe3+  Fe76  1  0.37518340  0.62336905  0.37703349  1
  Fe3+  Fe77  1  0.37442175  0.37464090  0.88048116  1
  Fe3+  Fe78  1  0.87538209  0.12351313  0.87916463  1
  Fe3+  Fe79  1  0.62561404  0.87494982  0.37982845  1
  Fe3+  Fe80  1  0.12479849  0.12273298  0.87625245  1
  Fe3+  Fe81  1  0.62346797  0.37496874  0.37605724  1
  Fe3+  Fe82  1  0.87556581  0.37489346  0.88113928  1
  Fe3+  Fe83  1  0.37443513  0.37426702  0.37449282  1
  Fe3+  Fe84  1  0.37525670  0.62655317  0.13396712  1
  Fe3+  Fe85  1  0.87597871  0.37519373  0.64071198  1
  Fe3+  Fe86  1  0.12494016  0.37529885  0.13338149  1
  Fe3+  Fe87  1  0.62468694  0.87391716  0.13904137  1
  Fe3+  Fe88  1  0.12582429  0.87492863  0.63670002  1
  Fe3+  Fe89  1  0.62504478  0.37521624  0.13258833  1
  Fe3+  Fe90  1  0.87485807  0.12354909  0.13456032  1
  Fe3+  Fe91  1  0.62497787  0.62726984  0.13736556  1
  Fe3+  Fe92  1  0.87483420  0.37575288  0.13330328  1
  Fe3+  Fe93  1  0.37370457  0.87501155  0.63831551  1
  Fe3+  Fe94  1  0.62476117  0.62496983  0.63618854  1
  Fe3+  Fe95  1  0.37505666  0.37567557  0.13156322  1
  Cu2+  Cu96  1  0.12521578  0.62468410  0.37167197  1
  Cu2+  Cu97  1  0.12443551  0.87545347  0.36609850  1
  Cu2+  Cu98  1  0.62440140  0.12489467  0.37260070  1
  Cu2+  Cu99  1  0.62466271  0.62608627  0.86110646  1
  Cu2+  Cu100  1  0.87590414  0.62657124  0.87055890  1
  Cu2+  Cu101  1  0.12663705  0.37426738  0.37127498  1
  Cu2+  Cu102  1  0.12475639  0.62687951  0.87262259  1
  Cu2+  Cu103  1  0.37471611  0.12434822  0.87170351  1
  Cu2+  Cu104  1  0.87488906  0.37460208  0.36050178  1
  Cu2+  Cu105  1  0.37345295  0.87566705  0.87242899  1
  Cu2+  Cu106  1  0.62587167  0.87599234  0.85979641  1
  Cu2+  Cu107  1  0.37486817  0.87526935  0.36562453  1
  Cu2+  Cu108  1  0.87545186  0.12636525  0.65153935  1
  Cu2+  Cu109  1  0.87529476  0.62428438  0.64873427  1
  Cu2+  Cu110  1  0.87456834  0.87468675  0.15147364  1
  Cu2+  Cu111  1  0.87599090  0.87497373  0.65056778  1
  Cu2+  Cu112  1  0.87460882  0.62541834  0.14334606  1
  Cu2+  Cu113  1  0.62525554  0.37562249  0.65606724  1
  Cu2+  Cu114  1  0.12454328  0.12479308  0.15086968  1
  Cu2+  Cu115  1  0.37440284  0.12411710  0.65110642  1
  Cu2+  Cu116  1  0.62437959  0.12498389  0.64361173  1
  Cu2+  Cu117  1  0.37516585  0.12367702  0.14283798  1
  Cu2+  Cu118  1  0.12532524  0.62590852  0.64277454  1
  Cu2+  Cu119  1  0.12441387  0.37545892  0.64535340  1
  Cu2+  Cu120  1  0.12500394  0.87457547  0.15431383  1
  Cu2+  Cu121  1  0.37469371  0.62584799  0.65389979  1
  Cu2+  Cu122  1  0.12573575  0.12450115  0.65083466  1
  Cu2+  Cu123  1  0.37598026  0.87360470  0.14300407  1
  Cu2+  Cu124  1  0.12527422  0.62519920  0.14303345  1
  Cu2+  Cu125  1  0.62442200  0.87476710  0.64941148  1
  Cu2+  Cu126  1  0.37434803  0.37497887  0.65862825  1
  Cu2+  Cu127  1  0.62525582  0.12365328  0.14891394  1
  O2-  O128  1  0.12297581  0.12210545  -0.00346643  1
  O2-  O129  1  0.12571292  0.12658249  0.49564910  1
  O2-  O130  1  0.12408356  0.37491519  0.00655450  1
  O2-  O131  1  0.12603116  0.37409204  0.50679877  1
  O2-  O132  1  0.12518398  0.62711105  0.00786211  1
  O2-  O133  1  0.12575205  0.62420454  0.50720833  1
  O2-  O134  1  0.12328686  0.87571058  -0.00385714  1
  O2-  O135  1  0.12627098  0.87515902  0.51610417  1
  O2-  O136  1  0.37490025  0.12328098  0.00729816  1
  O2-  O137  1  0.37455365  0.12766839  0.49723641  1
  O2-  O138  1  0.37528005  0.37491879  0.00566988  1
  O2-  O139  1  0.37516371  0.37454780  0.49428147  1
  O2-  O140  1  0.37610133  0.62731521  0.00698963  1
  O2-  O141  1  0.37648232  0.62140559  0.49686853  1
  O2-  O142  1  0.37496131  0.87409516  0.00783522  1
  O2-  O143  1  0.37358809  0.87476232  0.51797795  1
  O2-  O144  1  0.62685569  0.12260247  -0.00293692  1
  O2-  O145  1  0.62441056  0.12651436  0.50778844  1
  O2-  O146  1  0.62568289  0.37508107  0.00616041  1
  O2-  O147  1  0.62275005  0.37545647  0.49601308  1
  O2-  O148  1  0.62477248  0.62845805  0.01719617  1
  O2-  O149  1  0.62401008  0.62235680  0.50746112  1
  O2-  O150  1  0.62540232  0.87293820  0.01875941  1
  O2-  O151  1  0.62590667  0.87512088  0.50018169  1
  O2-  O152  1  0.87502239  0.12204617  0.00571647  1
  O2-  O153  1  0.87506975  0.12676626  0.49592258  1
  O2-  O154  1  0.87459836  0.37602441  0.00738464  1
  O2-  O155  1  0.87522455  0.37343912  0.52022530  1
  O2-  O156  1  0.87421276  0.62731525  0.00678395  1
  O2-  O157  1  0.87331723  0.62391569  0.49831877  1
  O2-  O158  1  0.87651455  0.87612215  -0.00477438  1
  O2-  O159  1  0.87460980  0.87706880  0.49713356  1
  O2-  O160  1  0.12402617  -0.00032102  0.16419444  1
  O2-  O161  1  0.12482432  -0.00008062  0.66261598  1
  O2-  O162  1  0.12537977  0.25227863  0.15991353  1
  O2-  O163  1  0.12534894  0.24844906  0.66742929  1
  O2-  O164  1  0.12421338  0.49637792  0.16354267  1
  O2-  O165  1  0.12540617  0.50093445  0.66803594  1
  O2-  O166  1  0.12530150  0.75100971  0.16711100  1
  O2-  O167  1  0.12496658  0.75168462  0.66557281  1
  O2-  O168  1  0.37528684  -0.00075746  0.16591207  1
  O2-  O169  1  0.37492985  -0.00050833  0.66568317  1
  O2-  O170  1  0.37536443  0.25337333  0.15990634  1
  O2-  O171  1  0.37501423  0.24963787  0.66706524  1
  O2-  O172  1  0.37700343  0.50007221  0.15762176  1
  O2-  O173  1  0.37527426  0.50039174  0.66985305  1
  O2-  O174  1  0.37518567  0.74673856  0.16719301  1
  O2-  O175  1  0.37583255  0.75062267  0.66765241  1
  O2-  O176  1  0.62587821  -0.00093502  0.16635701  1
  O2-  O177  1  0.62544040  -0.00122917  0.66356272  1
  O2-  O178  1  0.62524120  0.25127535  0.15915423  1
  O2-  O179  1  0.62451136  0.25162443  0.66829730  1
  O2-  O180  1  0.62474502  0.49898224  0.16304283  1
  O2-  O181  1  0.62454268  0.50170921  0.66750614  1
  O2-  O182  1  0.62498953  0.74974427  0.17369422  1
  O2-  O183  1  0.62462903  0.74820999  0.66235952  1
  O2-  O184  1  0.87510718  0.00117396  0.16133488  1
  O2-  O185  1  0.87487691  0.00138237  0.66220276  1
  O2-  O186  1  0.87379791  0.25039434  0.15661898  1
  O2-  O187  1  0.87493561  0.25090319  0.67267538  1
  O2-  O188  1  0.87471759  0.49661076  0.16412401  1
  O2-  O189  1  0.87416879  0.49963167  0.67008506  1
  O2-  O190  1  0.87476742  0.75124520  0.16635840  1
  O2-  O191  1  0.87462425  0.74930140  0.66260279  1
  O2-  O192  1  -0.00217536  0.12632125  0.16152508  1
  O2-  O193  1  0.00043432  0.12622597  0.66401847  1
  O2-  O194  1  -0.00032316  0.37346299  0.16111035  1
  O2-  O195  1  -0.00105121  0.37499063  0.67068595  1
  O2-  O196  1  0.00012888  0.62483785  0.16530191  1
  O2-  O197  1  -0.00106742  0.62472539  0.66474753  1
  O2-  O198  1  -0.00036681  0.87475589  0.16383794  1
  O2-  O199  1  0.00046977  0.87594643  0.66308974  1
  O2-  O200  1  0.24826919  0.12501926  0.16235742  1
  O2-  O201  1  0.25023199  0.12590607  0.66586076  1
  O2-  O202  1  0.25015006  0.37600415  0.15721556  1
  O2-  O203  1  0.25066073  0.37517520  0.66914011  1
  O2-  O204  1  0.25287436  0.62358567  0.16197136  1
  O2-  O205  1  0.25137587  0.62464454  0.66826646  1
  O2-  O206  1  0.24899244  0.87449052  0.16454482  1
  O2-  O207  1  0.24984695  0.87514675  0.66983963  1
  O2-  O208  1  0.50156020  0.12467984  0.16414840  1
  O2-  O209  1  0.49834129  0.12525288  0.66671547  1
  O2-  O210  1  0.50078348  0.37570435  0.15777920  1
  O2-  O211  1  0.49957313  0.37572358  0.66834296  1
  O2-  O212  1  0.49948975  0.62427368  0.16550616  1
  O2-  O213  1  0.50149613  0.62407292  0.66541780  1
  O2-  O214  1  0.50186692  0.87438056  0.16860317  1
  O2-  O215  1  0.49871744  0.87484724  0.66738278  1
  O2-  O216  1  0.75210254  0.12516628  0.16232398  1
  O2-  O217  1  0.75101085  0.12637930  0.66598057  1
  O2-  O218  1  0.74934374  0.37472466  0.16113491  1
  O2-  O219  1  0.75057017  0.37533576  0.66951135  1
  O2-  O220  1  0.74792736  0.62412599  0.16768238  1
  O2-  O221  1  0.74815234  0.62440172  0.66318046  1
  O2-  O222  1  0.74959464  0.87494511  0.16574721  1
  O2-  O223  1  0.75103496  0.87487229  0.66404997  1
  O2-  O224  1  0.12523686  0.00075398  0.34739400  1
  O2-  O225  1  0.12388869  0.00041570  0.84233591  1
  O2-  O226  1  0.12500655  0.24783442  0.34201346  1
  O2-  O227  1  0.12487905  0.25085054  0.85071822  1
  O2-  O228  1  0.12493231  0.49998335  0.34675667  1
  O2-  O229  1  0.12430470  0.49754728  0.85201639  1
  O2-  O230  1  0.12505637  0.75103326  0.35090400  1
  O2-  O231  1  0.12504032  0.75168940  0.84590244  1
  O2-  O232  1  0.37446347  0.00000387  0.34914499  1
  O2-  O233  1  0.37546400  0.00020121  0.84784196  1
  O2-  O234  1  0.37543578  0.24961677  0.34033944  1
  O2-  O235  1  0.37515888  0.25314603  0.85108822  1
  O2-  O236  1  0.37552714  0.49984558  0.33914711  1
  O2-  O237  1  0.37619739  0.49986693  0.85479669  1
  O2-  O238  1  0.37553657  0.74949884  0.35047648  1
  O2-  O239  1  0.37543007  0.74783474  0.85008001  1
  O2-  O240  1  0.62542273  -0.00224186  0.34815437  1
  O2-  O241  1  0.62593030  0.00071179  0.84580263  1
  O2-  O242  1  0.62469569  0.25184507  0.34287012  1
  O2-  O243  1  0.62557879  0.25070405  0.85093575  1
  O2-  O244  1  0.62493953  0.50151240  0.34520081  1
  O2-  O245  1  0.62520252  0.49809959  0.85250353  1
  O2-  O246  1  0.62468076  0.74809986  0.35337236  1
  O2-  O247  1  0.62536739  0.75104087  0.84737564  1
  O2-  O248  1  0.87492522  0.00029844  0.34341538  1
  O2-  O249  1  0.87504163  0.00190448  0.84508587  1
  O2-  O250  1  0.87499014  0.24969065  0.34114762  1
  O2-  O251  1  0.87423867  0.24944263  0.85659377  1
  O2-  O252  1  0.87394521  0.50010162  0.34707655  1
  O2-  O253  1  0.87462046  0.49727442  0.85292687  1
  O2-  O254  1  0.87484675  0.74951124  0.34754207  1
  O2-  O255  1  0.87424804  0.75228079  0.84536637  1
  O2-  O256  1  0.00004655  0.12545975  0.34350764  1
  O2-  O257  1  -0.00146288  0.12624427  0.84739079  1
  O2-  O258  1  -0.00123204  0.37481126  0.34649763  1
  O2-  O259  1  -0.00008000  0.37345968  0.85343417  1
  O2-  O260  1  -0.00185458  0.62399702  0.34797620  1
  O2-  O261  1  0.00028872  0.62492934  0.84765042  1
  O2-  O262  1  -0.00097602  0.87528136  0.34681648  1
  O2-  O263  1  0.00013575  0.87590297  0.84266989  1
  O2-  O264  1  0.25078248  0.12478857  0.34360361  1
  O2-  O265  1  0.24815766  0.12578920  0.84844620  1
  O2-  O266  1  0.25267442  0.37487511  0.33954235  1
  O2-  O267  1  0.24958953  0.37577708  0.85339538  1
  O2-  O268  1  0.25191045  0.62499476  0.34537193  1
  O2-  O269  1  0.25238731  0.62392464  0.85146849  1
  O2-  O270  1  0.24972380  0.87452602  0.34900330  1
  O2-  O271  1  0.24786548  0.87565111  0.84852036  1
  O2-  O272  1  0.49789043  0.12458422  0.34611168  1
  O2-  O273  1  0.50182041  0.12551536  0.84921271  1
  O2-  O274  1  0.49969128  0.37559316  0.33919409  1
  O2-  O275  1  0.50053781  0.37586610  0.85317015  1
  O2-  O276  1  0.50149884  0.62429218  0.34651343  1
  O2-  O277  1  0.49852978  0.62483114  0.85079009  1
  O2-  O278  1  0.50095704  0.87419815  0.34964464  1
  O2-  O279  1  0.50134823  0.87481231  0.85078966  1
  O2-  O280  1  0.75148457  0.12604570  0.34513070  1
  O2-  O281  1  0.75147643  0.12555092  0.84894224  1
  O2-  O282  1  0.74860224  0.37513883  0.34469275  1
  O2-  O283  1  0.74995758  0.37474915  0.85307714  1
  O2-  O284  1  0.74847488  0.62390641  0.34848900  1
  O2-  O285  1  0.74868766  0.62520296  0.84782054  1
  O2-  O286  1  0.75031954  0.87425935  0.34518454  1
  O2-  O287  1  0.75110319  0.87571915  0.84770795  1
