# generated using pymatgen
data_BaYFeCuO5
_symmetry_space_group_name_H-M   'P 1'
_cell_length_a   15.66416108
_cell_length_b   15.66393138
_cell_length_c   15.47327822
_cell_angle_alpha   89.99844839
_cell_angle_beta   90.00126728
_cell_angle_gamma   90.00200827
_symmetry_Int_Tables_number   1
_chemical_formula_structural   BaYFeCuO5
_chemical_formula_sum   'Ba32 Y32 Fe32 Cu32 O160'
_cell_volume   3796.55981395
_cell_formula_units_Z   32
loop_
 _symmetry_equiv_pos_site_id
 _symmetry_equiv_pos_as_xyz
  1  'x, y, z'
loop_
 _atom_type_symbol
 _atom_type_oxidation_number
  Ba2+  2.0
  Y3+  3.0
  Fe3+  3.0
  Cu2+  2.0
  O2-  -2.0
loop_
 _atom_site_type_symbol
 _atom_site_label
 _atom_site_symmetry_multiplicity
 _atom_site_fract_x
 _atom_site_fract_y
 _atom_site_fract_z
 _atom_site_occupancy
  Ba2+  Ba0  1  -0.00396004  -0.00383647  -0.00071711  1
  Ba2+  Ba1  1  -0.00592535  -0.00554779  0.51546505  1
  Ba2+  Ba2  1  -0.00274120  0.25609112  0.00581700  1
  Ba2+  Ba3  1  -0.00446916  0.25386636  0.52239287  1
  Ba2+  Ba4  1  0.00719820  0.49491027  -0.00173850  1
  Ba2+  Ba5  1  -0.00511538  0.49676368  0.52317680  1
  Ba2+  Ba6  1  0.00635779  0.75313819  -0.00951770  1
  Ba2+  Ba7  1  -0.00664663  0.75450591  0.51593384  1
  Ba2+  Ba8  1  0.24954853  -0.00948700  0.00685176  1
  Ba2+  Ba9  1  0.25587917  -0.00564346  0.51561375  1
  Ba2+  Ba10  1  0.24799872  0.26081452  0.01169904  1
  Ba2+  Ba11  1  0.25653539  0.25631356  0.51597002  1
  Ba2+  Ba12  1  0.25050417  0.50157207  0.00676718  1
  Ba2+  Ba13  1  0.25736373  0.49510650  0.51642063  1
  Ba2+  Ba14  1  0.25170272  0.74489161  0.00101344  1
  Ba2+  Ba15  1  0.25670414  0.75447833  0.51580649  1
  Ba2+  Ba16  1  0.50055513  0.00084290  0.01631899  1
  Ba2+  Ba17  1  0.49488832  -0.00643149  0.51448359  1
  Ba2+  Ba18  1  0.50641258  0.25609454  0.01628656  1
  Ba2+  Ba19  1  0.49752312  0.25995046  0.50943718  1
  Ba2+  Ba20  1  0.49473117  0.49658306  0.01408708  1
  Ba2+  Ba21  1  0.50330298  0.49898279  0.51113595  1
  Ba2+  Ba22  1  0.48914481  0.74660855  0.01254281  1
  Ba2+  Ba23  1  0.50112754  0.74785396  0.51663693  1
  Ba2+  Ba24  1  0.75355024  0.00631440  0.01359864  1
  Ba2+  Ba25  1  0.75498157  -0.00607791  0.51523358  1
  Ba2+  Ba26  1  0.74728513  0.25141018  0.01299762  1
  Ba2+  Ba27  1  0.75102569  0.25735303  0.51654596  1
  Ba2+  Ba28  1  0.74760080  0.48971099  0.00141626  1
  Ba2+  Ba29  1  0.74417689  0.50120035  0.51622720  1
  Ba2+  Ba30  1  0.75421197  0.75426697  0.00201395  1
  Ba2+  Ba31  1  0.74872802  0.74812394  0.51721333  1
  Y3+  Y32  1  -0.00176563  0.00029472  0.25912315  1
  Y3+  Y33  1  -0.00107063  -0.00213500  0.75493878  1
  Y3+  Y34  1  0.00055147  0.25013719  0.25404969  1
  Y3+  Y35  1  0.00014641  0.25239618  0.75860696  1
  Y3+  Y36  1  0.00143952  0.49948241  0.25596564  1
  Y3+  Y37  1  0.00123203  0.49760410  0.75990454  1
  Y3+  Y38  1  -0.00092960  0.75056325  0.26156666  1
  Y3+  Y39  1  0.00033911  0.75168952  0.75549728  1
  Y3+  Y40  1  0.25131553  -0.00147876  0.25838975  1
  Y3+  Y41  1  0.25097993  -0.00143259  0.75464600  1
  Y3+  Y42  1  0.25011319  0.25384782  0.25649763  1
  Y3+  Y43  1  0.25091074  0.25252856  0.75569680  1
  Y3+  Y44  1  0.25228872  0.49875261  0.25500350  1
  Y3+  Y45  1  0.25141635  0.49984396  0.75942680  1
  Y3+  Y46  1  0.25348010  0.74966181  0.25715572  1
  Y3+  Y47  1  0.25129472  0.74888328  0.75751852  1
  Y3+  Y48  1  0.49892270  -0.00040815  0.25778451  1
  Y3+  Y49  1  0.49920551  -0.00085884  0.75336465  1
  Y3+  Y50  1  0.50119588  0.25459119  0.25804638  1
  Y3+  Y51  1  0.50061983  0.25283947  0.75398513  1
  Y3+  Y52  1  0.50014974  0.49828930  0.25966165  1
  Y3+  Y53  1  0.50039748  0.50000067  0.75597817  1
  Y3+  Y54  1  0.49786911  0.74813065  0.25868346  1
  Y3+  Y55  1  0.49890850  0.74731027  0.75543703  1
  Y3+  Y56  1  0.75081521  0.00128307  0.25777589  1
  Y3+  Y57  1  0.75150889  -0.00144439  0.75511870  1
  Y3+  Y58  1  0.74721109  0.25085791  0.25588349  1
  Y3+  Y59  1  0.74901501  0.25329076  0.75751269  1
  Y3+  Y60  1  0.74558891  0.49910128  0.25938723  1
  Y3+  Y61  1  0.74754595  0.49805930  0.75659714  1
  Y3+  Y62  1  0.74956184  0.74898180  0.26078659  1
  Y3+  Y63  1  0.74998820  0.74969226  0.75534279  1
  Fe3+  Fe64  1  0.87493489  0.37539079  0.37600042  1
  Fe3+  Fe65  1  0.37466227  0.12595844  0.37694884  1
  Fe3+  Fe66  1  0.62369330  0.62459955  0.88035777  1
  Fe3+  Fe67  1  0.37627668  0.87505009  0.87529083  1
  Fe3+  Fe68  1  0.87425549  0.12581135  0.87479654  1
  Fe3+  Fe69  1  0.62484175  0.87452227  0.37694323  1
  Fe3+  Fe70  1  0.62470706  0.12561326  0.38027901  1
  Fe3+  Fe71  1  0.87503242  0.12656670  0.37790158  1
  Fe3+  Fe72  1  0.62455793  0.87544337  0.87910818  1
  Fe3+  Fe73  1  0.12606581  0.12487600  0.87857390  1
  Fe3+  Fe74  1  0.62412532  0.12507600  0.87559809  1
  Fe3+  Fe75  1  0.37494410  0.62428358  0.37802550  1
  Fe3+  Fe76  1  0.12510204  0.87475048  0.38024497  1
  Fe3+  Fe77  1  0.87465880  0.62355645  0.37877970  1
  Fe3+  Fe78  1  0.12424982  0.37545526  0.37890989  1
  Fe3+  Fe79  1  0.37640733  0.37475065  0.87598105  1
  Fe3+  Fe80  1  0.12518172  0.12584717  0.38112676  1
  Fe3+  Fe81  1  0.12528365  0.62423854  0.38301668  1
  Fe3+  Fe82  1  0.37558323  0.12567251  0.87921181  1
  Fe3+  Fe83  1  0.87505490  0.62399687  0.87865608  1
  Fe3+  Fe84  1  0.87556047  0.62491497  0.13288743  1
  Fe3+  Fe85  1  0.12553348  0.62468590  0.63645489  1
  Fe3+  Fe86  1  0.12462489  0.87398334  0.13872899  1
  Fe3+  Fe87  1  0.12438448  0.62605133  0.13781813  1
  Fe3+  Fe88  1  0.12431068  0.12428294  0.13301171  1
  Fe3+  Fe89  1  0.62489993  0.87436633  0.13447138  1
  Fe3+  Fe90  1  0.87500229  0.37607863  0.13686228  1
  Fe3+  Fe91  1  0.62495196  0.12500750  0.63353621  1
  Fe3+  Fe92  1  0.87606042  0.87411026  0.13758205  1
  Fe3+  Fe93  1  0.37417470  0.12592335  0.13385101  1
  Fe3+  Fe94  1  0.62538098  0.62502267  0.13407388  1
  Fe3+  Fe95  1  0.12540334  0.12508387  0.63521630  1
  Cu2+  Cu96  1  0.12672854  0.37383286  0.87121243  1
  Cu2+  Cu97  1  0.37441655  0.37556962  0.37079933  1
  Cu2+  Cu98  1  0.37546853  0.87459042  0.37134307  1
  Cu2+  Cu99  1  0.62457918  0.62493336  0.37282401  1
  Cu2+  Cu100  1  0.87433426  0.37463615  0.86315523  1
  Cu2+  Cu101  1  0.62547897  0.37506853  0.37288074  1
  Cu2+  Cu102  1  0.87426686  0.87524398  0.86151322  1
  Cu2+  Cu103  1  0.62351504  0.37440081  0.87182058  1
  Cu2+  Cu104  1  0.87401626  0.87502562  0.37264331  1
  Cu2+  Cu105  1  0.37581895  0.62415590  0.87178763  1
  Cu2+  Cu106  1  0.12535557  0.62482798  0.86054767  1
  Cu2+  Cu107  1  0.12618246  0.87583773  0.85869852  1
  Cu2+  Cu108  1  0.37431052  0.62443027  0.14229335  1
  Cu2+  Cu109  1  0.37546030  0.12567317  0.64802128  1
  Cu2+  Cu110  1  0.62470521  0.87458963  0.65161375  1
  Cu2+  Cu111  1  0.62470851  0.62462224  0.64395814  1
  Cu2+  Cu112  1  0.62434694  0.12478010  0.15177519  1
  Cu2+  Cu113  1  0.87458635  0.12561980  0.65030411  1
  Cu2+  Cu114  1  0.62457036  0.37532844  0.64282329  1
  Cu2+  Cu115  1  0.37487373  0.37507493  0.15051007  1
  Cu2+  Cu116  1  0.87565101  0.12510652  0.14946015  1
  Cu2+  Cu117  1  0.37470281  0.87495508  0.15041665  1
  Cu2+  Cu118  1  0.37595023  0.37591222  0.64554206  1
  Cu2+  Cu119  1  0.37555235  0.87385910  0.64519067  1
  Cu2+  Cu120  1  0.12558121  0.87449865  0.64952323  1
  Cu2+  Cu121  1  0.12428775  0.37606647  0.14141634  1
  Cu2+  Cu122  1  0.87524523  0.62412293  0.65493868  1
  Cu2+  Cu123  1  0.87452428  0.37554328  0.65647070  1
  Cu2+  Cu124  1  0.62545811  0.37657854  0.14307600  1
  Cu2+  Cu125  1  0.12568204  0.37540951  0.65083693  1
  Cu2+  Cu126  1  0.37493363  0.62412152  0.65041112  1
  Cu2+  Cu127  1  0.87437280  0.87398112  0.64463519  1
  O2-  O128  1  0.12478081  0.12357134  0.00582832  1
  O2-  O129  1  0.12522641  0.12573598  0.50642386  1
  O2-  O130  1  0.12496192  0.37472334  0.00618769  1
  O2-  O131  1  0.12311004  0.37436484  0.49903847  1
  O2-  O132  1  0.12384740  0.62699247  0.01724805  1
  O2-  O133  1  0.12449769  0.62403570  0.50837864  1
  O2-  O134  1  0.12360664  0.87459439  0.01850115  1
  O2-  O135  1  0.12515792  0.87581600  0.50060605  1
  O2-  O136  1  0.37494776  0.12506338  0.00519484  1
  O2-  O137  1  0.37394396  0.12496738  0.49725005  1
  O2-  O138  1  0.37572145  0.37338667  -0.00291332  1
  O2-  O139  1  0.37491122  0.37578740  0.50634990  1
  O2-  O140  1  0.37358445  0.62462779  0.00732183  1
  O2-  O141  1  0.37478530  0.62484669  0.49865042  1
  O2-  O142  1  0.37606288  0.87662323  -0.00389429  1
  O2-  O143  1  0.37585150  0.87450167  0.50640558  1
  O2-  O144  1  0.62517985  0.12386913  -0.00410718  1
  O2-  O145  1  0.62486311  0.12489670  0.50582968  1
  O2-  O146  1  0.62482639  0.37475004  0.00755911  1
  O2-  O147  1  0.62612286  0.37458060  0.50782644  1
  O2-  O148  1  0.62501343  0.62540366  0.00721655  1
  O2-  O149  1  0.62564299  0.62581854  0.50831083  1
  O2-  O150  1  0.62484280  0.87600257  0.00642857  1
  O2-  O151  1  0.62530276  0.87495979  0.49736280  1
  O2-  O152  1  0.87466757  0.12512726  -0.00474002  1
  O2-  O153  1  0.87577260  0.12638490  0.49776924  1
  O2-  O154  1  0.87509904  0.37541498  0.01599964  1
  O2-  O155  1  0.87611347  0.37556598  0.49629171  1
  O2-  O156  1  0.87676638  0.62577174  0.00716510  1
  O2-  O157  1  0.87481323  0.62333387  0.49892317  1
  O2-  O158  1  0.87718704  0.87396432  0.01719613  1
  O2-  O159  1  0.87368275  0.87418444  0.50830805  1
  O2-  O160  1  0.12519598  0.00048050  0.16630628  1
  O2-  O161  1  0.12530343  0.00173375  0.66358962  1
  O2-  O162  1  0.12537300  0.24682944  0.16223819  1
  O2-  O163  1  0.12519711  0.24877307  0.66375697  1
  O2-  O164  1  0.12369251  0.50253701  0.16714418  1
  O2-  O165  1  0.12478788  0.50118709  0.66444788  1
  O2-  O166  1  0.12458919  0.75060472  0.17228230  1
  O2-  O167  1  0.12515030  0.74803713  0.66371733  1
  O2-  O168  1  0.37482290  0.00178771  0.16209288  1
  O2-  O169  1  0.37488250  0.00087334  0.66523264  1
  O2-  O170  1  0.37391333  0.24863934  0.16169529  1
  O2-  O171  1  0.37500041  0.24956783  0.66532195  1
  O2-  O172  1  0.37514644  0.49833215  0.16424175  1
  O2-  O173  1  0.37482718  0.50086015  0.66689421  1
  O2-  O174  1  0.37456787  0.75158718  0.16494701  1
  O2-  O175  1  0.37498553  0.74817046  0.66637915  1
  O2-  O176  1  0.62442891  -0.00208351  0.16311690  1
  O2-  O177  1  0.62501842  0.00127597  0.66250514  1
  O2-  O178  1  0.62500350  0.24901031  0.16507066  1
  O2-  O179  1  0.62529026  0.24726132  0.66283550  1
  O2-  O180  1  0.62527850  0.50364360  0.16539224  1
  O2-  O181  1  0.62513872  0.49981712  0.66753263  1
  O2-  O182  1  0.62612288  0.75027524  0.16144873  1
  O2-  O183  1  0.62504802  0.75094349  0.66831527  1
  O2-  O184  1  0.87503150  -0.00066603  0.16501838  1
  O2-  O185  1  0.87525243  0.00090033  0.66495817  1
  O2-  O186  1  0.87508502  0.24985669  0.16261403  1
  O2-  O187  1  0.87516179  0.25077138  0.66408516  1
  O2-  O188  1  0.87549872  0.50240771  0.16334559  1
  O2-  O189  1  0.87556786  0.49962454  0.66855163  1
  O2-  O190  1  0.87407630  0.74908666  0.16635831  1
  O2-  O191  1  0.87497588  0.74825518  0.66790966  1
  O2-  O192  1  0.00238852  0.12412101  0.16437082  1
  O2-  O193  1  0.00173362  0.12520520  0.66355467  1
  O2-  O194  1  -0.00204647  0.37473025  0.16609796  1
  O2-  O195  1  -0.00015686  0.37480104  0.66617776  1
  O2-  O196  1  -0.00180563  0.62660579  0.16843958  1
  O2-  O197  1  0.00175193  0.62472384  0.66490352  1
  O2-  O198  1  -0.00029101  0.87520104  0.17112514  1
  O2-  O199  1  0.00098381  0.87475311  0.66536853  1
  O2-  O200  1  0.24955011  0.12419612  0.16091586  1
  O2-  O201  1  0.24852805  0.12514809  0.66450679  1
  O2-  O202  1  0.25061996  0.37514939  0.16406846  1
  O2-  O203  1  0.25007094  0.37467125  0.66482632  1
  O2-  O204  1  0.24814858  0.62544600  0.16742429  1
  O2-  O205  1  0.24872344  0.62474265  0.66333293  1
  O2-  O206  1  0.24929830  0.87594360  0.16553643  1
  O2-  O207  1  0.24990862  0.87506906  0.66547554  1
  O2-  O208  1  0.49764781  0.12481085  0.16181380  1
  O2-  O209  1  0.50173816  0.12422765  0.66261925  1
  O2-  O210  1  0.49908193  0.37480151  0.16501948  1
  O2-  O211  1  0.49992771  0.37516527  0.66451630  1
  O2-  O212  1  0.50255025  0.62632336  0.16173030  1
  O2-  O213  1  0.49848878  0.62503461  0.66593013  1
  O2-  O214  1  0.50143920  0.87491782  0.16014385  1
  O2-  O215  1  0.50079379  0.87484118  0.66544134  1
  O2-  O216  1  0.74939847  0.12422030  0.16384502  1
  O2-  O217  1  0.74847035  0.12426852  0.66132658  1
  O2-  O218  1  0.75202599  0.37536192  0.16627809  1
  O2-  O219  1  0.75078089  0.37543862  0.66610716  1
  O2-  O220  1  0.75058534  0.62600859  0.16124875  1
  O2-  O221  1  0.75145313  0.62482204  0.66954652  1
  O2-  O222  1  0.74932471  0.87564316  0.16202214  1
  O2-  O223  1  0.74859102  0.87443238  0.66760491  1
  O2-  O224  1  0.12512785  0.00192238  0.34889759  1
  O2-  O225  1  0.12548001  0.00225210  0.84882605  1
  O2-  O226  1  0.12463423  0.24898883  0.34610839  1
  O2-  O227  1  0.12568896  0.24601535  0.84811121  1
  O2-  O228  1  0.12450712  0.50111063  0.34902197  1
  O2-  O229  1  0.12529269  0.50044209  0.84899531  1
  O2-  O230  1  0.12379366  0.74848055  0.35260794  1
  O2-  O231  1  0.12499866  0.75059198  0.84880407  1
  O2-  O232  1  0.37452008  0.00237775  0.34493283  1
  O2-  O233  1  0.37530487  0.00139203  0.84764687  1
  O2-  O234  1  0.37442576  0.24869057  0.34469091  1
  O2-  O235  1  0.37520615  0.24800070  0.84744601  1
  O2-  O236  1  0.37372655  0.50160583  0.34631374  1
  O2-  O237  1  0.37520440  0.49860889  0.84942441  1
  O2-  O238  1  0.37490138  0.74779464  0.34683439  1
  O2-  O239  1  0.37489091  0.75130328  0.84931684  1
  O2-  O240  1  0.62496632  0.00214012  0.34679417  1
  O2-  O241  1  0.62447429  -0.00116691  0.84618755  1
  O2-  O242  1  0.62458641  0.24726715  0.34891350  1
  O2-  O243  1  0.62433660  0.24788563  0.84537454  1
  O2-  O244  1  0.62524176  0.49968026  0.34912199  1
  O2-  O245  1  0.62557096  0.50257665  0.85154878  1
  O2-  O246  1  0.62475980  0.75117542  0.34464915  1
  O2-  O247  1  0.62597805  0.75032151  0.85344896  1
  O2-  O248  1  0.87484969  0.00305836  0.34688544  1
  O2-  O249  1  0.87516548  0.00039612  0.84746095  1
  O2-  O250  1  0.87581372  0.25011285  0.34323855  1
  O2-  O251  1  0.87528340  0.24946156  0.84674753  1
  O2-  O252  1  0.87551098  0.49961429  0.34311328  1
  O2-  O253  1  0.87499634  0.50112368  0.85313403  1
  O2-  O254  1  0.87521922  0.74760877  0.34727382  1
  O2-  O255  1  0.87514385  0.74872454  0.85216847  1
  O2-  O256  1  0.00161859  0.12537269  0.34742759  1
  O2-  O257  1  0.00113888  0.12422503  0.84855659  1
  O2-  O258  1  0.00041948  0.37479558  0.34427821  1
  O2-  O259  1  -0.00058523  0.37420214  0.85032281  1
  O2-  O260  1  0.00140012  0.62446437  0.34924566  1
  O2-  O261  1  -0.00129467  0.62494506  0.85035224  1
  O2-  O262  1  0.00170795  0.87602139  0.35000721  1
  O2-  O263  1  0.00066246  0.87578611  0.84951121  1
  O2-  O264  1  0.24802589  0.12550723  0.34548866  1
  O2-  O265  1  0.25107684  0.12416599  0.85055229  1
  O2-  O266  1  0.24691824  0.37448979  0.34646491  1
  O2-  O267  1  0.25287126  0.37368393  0.84692361  1
  O2-  O268  1  0.24818565  0.62537686  0.34928895  1
  O2-  O269  1  0.24890199  0.62524787  0.84793670  1
  O2-  O270  1  0.24754951  0.87537708  0.34689390  1
  O2-  O271  1  0.25143329  0.87619818  0.84823245  1
  O2-  O272  1  0.50093963  0.12484230  0.34669311  1
  O2-  O273  1  0.49849516  0.12385831  0.84650814  1
  O2-  O274  1  0.50015021  0.37488956  0.34900819  1
  O2-  O275  1  0.49830722  0.37417691  0.84540633  1
  O2-  O276  1  0.49815479  0.62445209  0.34573027  1
  O2-  O277  1  0.50305920  0.62600295  0.84951966  1
  O2-  O278  1  0.50198479  0.87614464  0.34325876  1
  O2-  O279  1  0.50146998  0.87524249  0.84742955  1
  O2-  O280  1  0.74897254  0.12549411  0.34780456  1
  O2-  O281  1  0.74956369  0.12424764  0.84393080  1
  O2-  O282  1  0.75180817  0.37435854  0.34689767  1
  O2-  O283  1  0.75012187  0.37439916  0.84973380  1
  O2-  O284  1  0.75168442  0.62464560  0.34482301  1
  O2-  O285  1  0.74992435  0.62559350  0.85454207  1
  O2-  O286  1  0.74812295  0.87563912  0.34374215  1
  O2-  O287  1  0.74760212  0.87527670  0.85171803  1
