# generated using pymatgen
data_BaYFeCuO5
_symmetry_space_group_name_H-M   'P 1'
_cell_length_a   15.67523586
_cell_length_b   15.67041900
_cell_length_c   15.49025433
_cell_angle_alpha   89.99624508
_cell_angle_beta   89.99174094
_cell_angle_gamma   89.99972262
_symmetry_Int_Tables_number   1
_chemical_formula_structural   BaYFeCuO5
_chemical_formula_sum   'Ba32 Y32 Fe32 Cu32 O160'
_cell_volume   3804.98751476
_cell_formula_units_Z   32
loop_
 _symmetry_equiv_pos_site_id
 _symmetry_equiv_pos_as_xyz
  1  'x, y, z'
loop_
 _atom_type_symbol
 _atom_type_oxidation_number
  Ba2+  2.0
  Y3+  3.0
  Fe3+  3.0
  Cu2+  2.0
  O2-  -2.0
loop_
 _atom_site_type_symbol
 _atom_site_label
 _atom_site_symmetry_multiplicity
 _atom_site_fract_x
 _atom_site_fract_y
 _atom_site_fract_z
 _atom_site_occupancy
  Ba2+  Ba0  1  0.00130067  -0.00347471  0.01165601  1
  Ba2+  Ba1  1  0.00473751  0.00460798  0.51317103  1
  Ba2+  Ba2  1  -0.00129988  0.24963896  0.01563892  1
  Ba2+  Ba3  1  0.00600144  0.24723931  0.52188955  1
  Ba2+  Ba4  1  0.00681003  0.49900774  0.01451553  1
  Ba2+  Ba5  1  0.00646494  0.50292093  0.52289412  1
  Ba2+  Ba6  1  0.00864747  0.75322729  0.01006101  1
  Ba2+  Ba7  1  0.00626140  0.74569796  0.51276502  1
  Ba2+  Ba8  1  0.24348789  -0.00689659  0.00615562  1
  Ba2+  Ba9  1  0.24678383  0.00449799  0.50041977  1
  Ba2+  Ba10  1  0.24853158  0.25758480  0.00684163  1
  Ba2+  Ba11  1  0.25016027  0.25220172  0.52015350  1
  Ba2+  Ba12  1  0.25324341  0.50366347  0.01036469  1
  Ba2+  Ba13  1  0.25123281  0.50038603  0.52410880  1
  Ba2+  Ba14  1  0.24864556  0.74671789  0.01210538  1
  Ba2+  Ba15  1  0.24905186  0.74173036  0.50706154  1
  Ba2+  Ba16  1  0.50068966  -0.00962449  0.01903349  1
  Ba2+  Ba17  1  0.50375007  0.00705978  0.49694879  1
  Ba2+  Ba18  1  0.49863236  0.26070582  0.01183791  1
  Ba2+  Ba19  1  0.50279119  0.25097683  0.50604737  1
  Ba2+  Ba20  1  0.49408552  0.50173054  0.00580408  1
  Ba2+  Ba21  1  0.49331723  0.49446755  0.51295629  1
  Ba2+  Ba22  1  0.49627674  0.74592047  0.01267765  1
  Ba2+  Ba23  1  0.49470339  0.74575678  0.50279492  1
  Ba2+  Ba24  1  0.75558566  -0.00383065  0.02438082  1
  Ba2+  Ba25  1  0.74471483  0.00717666  0.50663513  1
  Ba2+  Ba26  1  0.75505668  0.25343959  0.02329150  1
  Ba2+  Ba27  1  0.74134253  0.24731342  0.51029383  1
  Ba2+  Ba28  1  0.74514871  0.49626119  0.01338009  1
  Ba2+  Ba29  1  0.74623526  0.49566516  0.51062278  1
  Ba2+  Ba30  1  0.74548829  0.75421663  0.01436879  1
  Ba2+  Ba31  1  0.75022279  0.74992020  0.50672149  1
  Y3+  Y32  1  0.00058297  -0.00254089  0.25544191  1
  Y3+  Y33  1  0.00226033  0.00130386  0.75913237  1
  Y3+  Y34  1  -0.00098864  0.25174855  0.25342916  1
  Y3+  Y35  1  0.00146456  0.24745189  0.75710848  1
  Y3+  Y36  1  0.00231643  0.49976806  0.25213674  1
  Y3+  Y37  1  0.00158286  0.50277923  0.75841922  1
  Y3+  Y38  1  0.00394075  0.75110716  0.25429097  1
  Y3+  Y39  1  0.00233119  0.74852852  0.75971724  1
  Y3+  Y40  1  0.24914626  -0.00248464  0.25577708  1
  Y3+  Y41  1  0.24771765  0.00005736  0.76097564  1
  Y3+  Y42  1  0.25151778  0.25230497  0.25334580  1
  Y3+  Y43  1  0.25036015  0.25137198  0.76089468  1
  Y3+  Y44  1  0.25207593  0.50147842  0.25117924  1
  Y3+  Y45  1  0.25279148  0.50211175  0.76218308  1
  Y3+  Y46  1  0.24998866  0.74881920  0.25465164  1
  Y3+  Y47  1  0.24966159  0.74644559  0.76157030  1
  Y3+  Y48  1  0.50085898  -0.00029358  0.26060186  1
  Y3+  Y49  1  0.50076943  0.00138849  0.75681791  1
  Y3+  Y50  1  0.50061748  0.25217870  0.25916864  1
  Y3+  Y51  1  0.50026283  0.25264628  0.75579249  1
  Y3+  Y52  1  0.49684893  0.49849067  0.25696191  1
  Y3+  Y53  1  0.49706926  0.50004438  0.75859242  1
  Y3+  Y54  1  0.49698660  0.74984052  0.25909196  1
  Y3+  Y55  1  0.49809078  0.74595592  0.75829619  1
  Y3+  Y56  1  0.74926422  -0.00045496  0.26113066  1
  Y3+  Y57  1  0.74990862  0.00311050  0.75243382  1
  Y3+  Y58  1  0.74850265  0.25160608  0.26081587  1
  Y3+  Y59  1  0.74807734  0.24834591  0.75105430  1
  Y3+  Y60  1  0.74849653  0.49729074  0.25933395  1
  Y3+  Y61  1  0.74850439  0.50051939  0.75448695  1
  Y3+  Y62  1  0.74909182  0.75173104  0.25991845  1
  Y3+  Y63  1  0.75019771  0.74777096  0.75568650  1
  Fe3+  Fe64  1  0.87419344  0.37455385  0.87466620  1
  Fe3+  Fe65  1  0.62582838  0.12494421  0.88177646  1
  Fe3+  Fe66  1  0.12528127  0.12705557  0.37351051  1
  Fe3+  Fe67  1  0.62353374  0.62377386  0.37975179  1
  Fe3+  Fe68  1  0.62594144  0.87510869  0.87544757  1
  Fe3+  Fe69  1  0.37324742  0.87506643  0.37943909  1
  Fe3+  Fe70  1  0.12588888  0.62310667  0.37370334  1
  Fe3+  Fe71  1  0.87689943  0.12640887  0.37710839  1
  Fe3+  Fe72  1  0.87395108  0.87524382  0.87453988  1
  Fe3+  Fe73  1  0.12559043  0.37585548  0.37547241  1
  Fe3+  Fe74  1  0.62635330  0.37471928  0.87536208  1
  Fe3+  Fe75  1  0.37598362  0.12483391  0.88225323  1
  Fe3+  Fe76  1  0.87733234  0.37541821  0.37994242  1
  Fe3+  Fe77  1  0.87385933  0.62471701  0.88018421  1
  Fe3+  Fe78  1  0.37557259  0.87455349  0.87717348  1
  Fe3+  Fe79  1  0.87705035  0.87493979  0.37987263  1
  Fe3+  Fe80  1  0.87707253  0.62386570  0.37743282  1
  Fe3+  Fe81  1  0.12401367  0.37527078  0.87563916  1
  Fe3+  Fe82  1  0.37229925  0.37532504  0.37579941  1
  Fe3+  Fe83  1  0.87374166  0.12532371  0.87651290  1
  Fe3+  Fe84  1  0.62410710  0.62457674  0.14020723  1
  Fe3+  Fe85  1  0.62511921  0.12537936  0.13617990  1
  Fe3+  Fe86  1  0.12506436  0.12499137  0.13564225  1
  Fe3+  Fe87  1  0.62390784  0.62470717  0.63527986  1
  Fe3+  Fe88  1  0.62329840  0.87500262  0.63419693  1
  Fe3+  Fe89  1  0.87555409  0.37456571  0.63428975  1
  Fe3+  Fe90  1  0.37437875  0.87522212  0.63428990  1
  Fe3+  Fe91  1  0.87571964  0.87526921  0.63371341  1
  Fe3+  Fe92  1  0.87432923  0.62572079  0.13473162  1
  Fe3+  Fe93  1  0.37485722  0.12435953  0.63904289  1
  Fe3+  Fe94  1  0.12704310  0.87475262  0.63798981  1
  Fe3+  Fe95  1  0.37507612  0.12446889  0.13488937  1
  Cu2+  Cu96  1  0.62493575  0.12628147  0.36924143  1
  Cu2+  Cu97  1  0.12481669  0.87446216  0.36532934  1
  Cu2+  Cu98  1  0.37562956  0.37486146  0.87265012  1
  Cu2+  Cu99  1  0.37354217  0.12632210  0.36089007  1
  Cu2+  Cu100  1  0.37319241  0.62317034  0.37220822  1
  Cu2+  Cu101  1  0.12473621  0.62456005  0.87406232  1
  Cu2+  Cu102  1  0.62563043  0.62476708  0.86344013  1
  Cu2+  Cu103  1  0.37553510  0.62542835  0.87276222  1
  Cu2+  Cu104  1  0.62478090  0.87413910  0.36866423  1
  Cu2+  Cu105  1  0.12455586  0.87448716  0.87127690  1
  Cu2+  Cu106  1  0.62403807  0.37608950  0.37375416  1
  Cu2+  Cu107  1  0.12471191  0.12554271  0.86886570  1
  Cu2+  Cu108  1  0.87456361  0.37645519  0.15194208  1
  Cu2+  Cu109  1  0.37539569  0.37507237  0.14056414  1
  Cu2+  Cu110  1  0.37427946  0.37474624  0.65494541  1
  Cu2+  Cu111  1  0.37498654  0.87535968  0.15336521  1
  Cu2+  Cu112  1  0.12591747  0.62567174  0.65685029  1
  Cu2+  Cu113  1  0.12587150  0.87514883  0.14302140  1
  Cu2+  Cu114  1  0.62359067  0.37524905  0.64105348  1
  Cu2+  Cu115  1  0.87561012  0.12455700  0.64586400  1
  Cu2+  Cu116  1  0.62450123  0.87449983  0.15742711  1
  Cu2+  Cu117  1  0.87496806  0.62550402  0.64786368  1
  Cu2+  Cu118  1  0.12696065  0.12435532  0.65628941  1
  Cu2+  Cu119  1  0.87459558  0.12442660  0.15307086  1
  Cu2+  Cu120  1  0.62257234  0.12488317  0.64299184  1
  Cu2+  Cu121  1  0.37582184  0.62553167  0.14346319  1
  Cu2+  Cu122  1  0.12534194  0.37555879  0.65530858  1
  Cu2+  Cu123  1  0.12555938  0.37466847  0.14737031  1
  Cu2+  Cu124  1  0.87510038  0.87348040  0.15494260  1
  Cu2+  Cu125  1  0.12574870  0.62516018  0.14033596  1
  Cu2+  Cu126  1  0.37506150  0.62558005  0.64210101  1
  Cu2+  Cu127  1  0.62442746  0.37547065  0.15310262  1
  O2-  O128  1  0.12359016  0.12434420  0.01531120  1
  O2-  O129  1  0.12583467  0.12757164  0.49411934  1
  O2-  O130  1  0.12150396  0.37359508  -0.00366753  1
  O2-  O131  1  0.12579023  0.37547040  0.49526417  1
  O2-  O132  1  0.12398075  0.62479719  0.00672404  1
  O2-  O133  1  0.12509461  0.62240795  0.49446448  1
  O2-  O134  1  0.12407489  0.87556734  0.00742721  1
  O2-  O135  1  0.12651186  0.87554784  0.51767457  1
  O2-  O136  1  0.37665929  0.12302818  0.00850088  1
  O2-  O137  1  0.37382556  0.12512907  0.51874079  1
  O2-  O138  1  0.37568699  0.37506190  0.00658221  1
  O2-  O139  1  0.37073167  0.37403374  0.49628456  1
  O2-  O140  1  0.37674208  0.62644432  0.00808397  1
  O2-  O141  1  0.37339170  0.62364932  0.50803019  1
  O2-  O142  1  0.37720845  0.87489716  -0.00255004  1
  O2-  O143  1  0.37295276  0.87633116  0.50802637  1
  O2-  O144  1  0.62750124  0.12459853  0.00751584  1
  O2-  O145  1  0.62312336  0.12530209  0.50608613  1
  O2-  O146  1  0.62872277  0.37353016  -0.00423707  1
  O2-  O147  1  0.62405546  0.37579066  0.50677848  1
  O2-  O148  1  0.62613760  0.62564451  0.01981964  1
  O2-  O149  1  0.62420420  0.62450365  0.50765493  1
  O2-  O150  1  0.62749767  0.87624596  -0.00456201  1
  O2-  O151  1  0.62398555  0.87531865  0.51430611  1
  O2-  O152  1  0.87227114  0.12462248  -0.00358347  1
  O2-  O153  1  0.87832368  0.12650678  0.49701236  1
  O2-  O154  1  0.87316554  0.37456805  -0.00545636  1
  O2-  O155  1  0.87814177  0.37513094  0.50555590  1
  O2-  O156  1  0.87208717  0.62591267  0.00696713  1
  O2-  O157  1  0.87902229  0.62407327  0.49717050  1
  O2-  O158  1  0.87215752  0.87513152  -0.00540051  1
  O2-  O159  1  0.87747152  0.87494117  0.50638452  1
  O2-  O160  1  0.12466200  0.00193603  0.16733532  1
  O2-  O161  1  0.12564084  -0.00094129  0.66730519  1
  O2-  O162  1  0.12398211  0.24954264  0.16262096  1
  O2-  O163  1  0.12594783  0.24950234  0.66401034  1
  O2-  O164  1  0.12462120  0.49824092  0.16032473  1
  O2-  O165  1  0.12406088  0.50121530  0.66453744  1
  O2-  O166  1  0.12553457  0.75021068  0.16574132  1
  O2-  O167  1  0.12497242  0.75045258  0.66664529  1
  O2-  O168  1  0.37604144  0.00200342  0.16664941  1
  O2-  O169  1  0.37491796  -0.00162014  0.66756339  1
  O2-  O170  1  0.37627501  0.24643665  0.16191744  1
  O2-  O171  1  0.37392776  0.25002991  0.66815947  1
  O2-  O172  1  0.37603890  0.49996947  0.16310696  1
  O2-  O173  1  0.37484832  0.49861638  0.66582183  1
  O2-  O174  1  0.37587370  0.75184314  0.16870877  1
  O2-  O175  1  0.37522301  0.75317583  0.66317531  1
  O2-  O176  1  0.62556661  0.00097992  0.16453783  1
  O2-  O177  1  0.62442713  -0.00217761  0.66671961  1
  O2-  O178  1  0.62558404  0.24890571  0.16283190  1
  O2-  O179  1  0.62397542  0.24998760  0.66471533  1
  O2-  O180  1  0.62591195  0.49991113  0.16739403  1
  O2-  O181  1  0.62557922  0.50264087  0.66319223  1
  O2-  O182  1  0.62534913  0.74989729  0.16956369  1
  O2-  O183  1  0.62552158  0.74959953  0.66400025  1
  O2-  O184  1  0.87420847  -0.00176380  0.16665835  1
  O2-  O185  1  0.87537005  -0.00181256  0.66096106  1
  O2-  O186  1  0.87416391  0.25123657  0.16342007  1
  O2-  O187  1  0.87582103  0.25091144  0.66117113  1
  O2-  O188  1  0.87355776  0.50229973  0.16210641  1
  O2-  O189  1  0.87540541  0.49849038  0.66332889  1
  O2-  O190  1  0.87355294  0.74812831  0.16589811  1
  O2-  O191  1  0.87491999  0.75240686  0.66306806  1
  O2-  O192  1  -0.00066472  0.12493394  0.16297241  1
  O2-  O193  1  0.00185578  0.12443846  0.66349375  1
  O2-  O194  1  -0.00061200  0.37552768  0.16236041  1
  O2-  O195  1  -0.00067444  0.37489530  0.66138806  1
  O2-  O196  1  -0.00303303  0.62527788  0.16047869  1
  O2-  O197  1  0.00053001  0.62589352  0.66562499  1
  O2-  O198  1  -0.00112153  0.87446477  0.16457173  1
  O2-  O199  1  -0.00017781  0.87504980  0.66324180  1
  O2-  O200  1  0.25109381  0.12475004  0.16211957  1
  O2-  O201  1  0.25127506  0.12478144  0.67139444  1
  O2-  O202  1  0.24931220  0.37401892  0.16067779  1
  O2-  O203  1  0.24912473  0.37506273  0.66763262  1
  O2-  O204  1  0.25073525  0.62570694  0.16260229  1
  O2-  O205  1  0.24920621  0.62513524  0.66808037  1
  O2-  O206  1  0.25152654  0.87584238  0.16618416  1
  O2-  O207  1  0.25128618  0.87528150  0.66753132  1
  O2-  O208  1  0.50109959  0.12392315  0.16168623  1
  O2-  O209  1  0.49723107  0.12498303  0.67181187  1
  O2-  O210  1  0.50126226  0.37461105  0.16605357  1
  O2-  O211  1  0.49818193  0.37523451  0.66587684  1
  O2-  O212  1  0.50162773  0.62589079  0.17047150  1
  O2-  O213  1  0.50256719  0.62535362  0.66515616  1
  O2-  O214  1  0.49990066  0.87552678  0.16749100  1
  O2-  O215  1  0.49859362  0.87510836  0.66403072  1
  O2-  O216  1  0.74846479  0.12471311  0.16501153  1
  O2-  O217  1  0.75029693  0.12467102  0.66099520  1
  O2-  O218  1  0.74974037  0.37543960  0.16829704  1
  O2-  O219  1  0.75284445  0.37467938  0.65851850  1
  O2-  O220  1  0.75064055  0.62537659  0.16888475  1
  O2-  O221  1  0.74824487  0.62555404  0.66146697  1
  O2-  O222  1  0.75001108  0.87425062  0.16866297  1
  O2-  O223  1  0.75085037  0.87497650  0.65844304  1
  O2-  O224  1  0.12455770  0.00028857  0.34939084  1
  O2-  O225  1  0.12434836  0.00094383  0.85015182  1
  O2-  O226  1  0.12449279  0.25120807  0.34183760  1
  O2-  O227  1  0.12437188  0.25060760  0.84710301  1
  O2-  O228  1  0.12416197  0.49940219  0.34064086  1
  O2-  O229  1  0.12375251  0.49833980  0.84710403  1
  O2-  O230  1  0.12449878  0.74932982  0.34878470  1
  O2-  O231  1  0.12422031  0.74983578  0.84906096  1
  O2-  O232  1  0.37466248  -0.00058292  0.35194975  1
  O2-  O233  1  0.37612106  0.00134365  0.84852988  1
  O2-  O234  1  0.37402497  0.25078302  0.34419592  1
  O2-  O235  1  0.37628054  0.24632669  0.85160314  1
  O2-  O236  1  0.37413943  0.49819950  0.34480172  1
  O2-  O237  1  0.37619776  0.50018873  0.84988571  1
  O2-  O238  1  0.37425445  0.75198967  0.35342951  1
  O2-  O239  1  0.37639115  0.75154101  0.84591652  1
  O2-  O240  1  0.62509414  -0.00061357  0.34895877  1
  O2-  O241  1  0.62577492  0.00173155  0.84734000  1
  O2-  O242  1  0.62501286  0.25078335  0.34705731  1
  O2-  O243  1  0.62545009  0.24805252  0.84721588  1
  O2-  O244  1  0.62570758  0.50301993  0.34951230  1
  O2-  O245  1  0.62662283  0.49956806  0.84703630  1
  O2-  O246  1  0.62555107  0.74738466  0.35287867  1
  O2-  O247  1  0.62599369  0.75042576  0.84623886  1
  O2-  O248  1  0.87581873  -0.00093778  0.35085912  1
  O2-  O249  1  0.87404747  0.00069169  0.84258831  1
  O2-  O250  1  0.87576760  0.25203163  0.34679746  1
  O2-  O251  1  0.87411039  0.24961814  0.84263581  1
  O2-  O252  1  0.87550894  0.49902298  0.34576500  1
  O2-  O253  1  0.87358441  0.50083358  0.84738950  1
  O2-  O254  1  0.87509328  0.75054794  0.35012218  1
  O2-  O255  1  0.87352284  0.74879420  0.84689620  1
  O2-  O256  1  0.00035563  0.12532079  0.34277213  1
  O2-  O257  1  -0.00160083  0.12503216  0.84730333  1
  O2-  O258  1  -0.00055550  0.37549773  0.34484195  1
  O2-  O259  1  -0.00163861  0.37492912  0.84262302  1
  O2-  O260  1  0.00042401  0.62512575  0.34155776  1
  O2-  O261  1  -0.00424589  0.62515522  0.85005021  1
  O2-  O262  1  -0.00154412  0.87446643  0.34822915  1
  O2-  O263  1  -0.00275294  0.87499690  0.84538488  1
  O2-  O264  1  0.24850717  0.12434611  0.34369578  1
  O2-  O265  1  0.25202430  0.12434614  0.85507723  1
  O2-  O266  1  0.24897156  0.37485993  0.34108592  1
  O2-  O267  1  0.24885316  0.37426726  0.85078508  1
  O2-  O268  1  0.24818528  0.62515214  0.34416318  1
  O2-  O269  1  0.25059478  0.62521395  0.85152376  1
  O2-  O270  1  0.25106491  0.87604087  0.35007256  1
  O2-  O271  1  0.25197758  0.87590407  0.84893129  1
  O2-  O272  1  0.49805266  0.12510841  0.34668341  1
  O2-  O273  1  0.50161805  0.12403240  0.85410190  1
  O2-  O274  1  0.49720698  0.37472964  0.34869301  1
  O2-  O275  1  0.50271111  0.37474288  0.84829603  1
  O2-  O276  1  0.50114881  0.62533022  0.35326134  1
  O2-  O277  1  0.50172500  0.62502639  0.84890108  1
  O2-  O278  1  0.49742517  0.87542823  0.35245612  1
  O2-  O279  1  0.50110598  0.87552974  0.84428491  1
  O2-  O280  1  0.75309860  0.12524109  0.34803979  1
  O2-  O281  1  0.74824068  0.12511430  0.84334088  1
  O2-  O282  1  0.75364471  0.37570871  0.35292298  1
  O2-  O283  1  0.75000168  0.37481837  0.83891200  1
  O2-  O284  1  0.75013381  0.62504825  0.35205075  1
  O2-  O285  1  0.75195364  0.62496430  0.84595720  1
  O2-  O286  1  0.75274721  0.87464971  0.35318920  1
  O2-  O287  1  0.74981038  0.87494784  0.83861036  1
