# generated using pymatgen
data_BaYFeCuO5
_symmetry_space_group_name_H-M   'P 1'
_cell_length_a   15.66459134
_cell_length_b   15.66372946
_cell_length_c   15.46561439
_cell_angle_alpha   89.99773689
_cell_angle_beta   89.99304493
_cell_angle_gamma   89.99706437
_symmetry_Int_Tables_number   1
_chemical_formula_structural   BaYFeCuO5
_chemical_formula_sum   'Ba32 Y32 Fe32 Cu32 O160'
_cell_volume   3794.73467856
_cell_formula_units_Z   32
loop_
 _symmetry_equiv_pos_site_id
 _symmetry_equiv_pos_as_xyz
  1  'x, y, z'
loop_
 _atom_type_symbol
 _atom_type_oxidation_number
  Ba2+  2.0
  Y3+  3.0
  Fe3+  3.0
  Cu2+  2.0
  O2-  -2.0
loop_
 _atom_site_type_symbol
 _atom_site_label
 _atom_site_symmetry_multiplicity
 _atom_site_fract_x
 _atom_site_fract_y
 _atom_site_fract_z
 _atom_site_occupancy
  Ba2+  Ba0  1  0.01046492  -0.00253890  0.01083514  1
  Ba2+  Ba1  1  0.01045307  -0.00214349  0.51742013  1
  Ba2+  Ba2  1  0.00535706  0.25343086  0.00212743  1
  Ba2+  Ba3  1  0.00046471  0.25186871  0.50548504  1
  Ba2+  Ba4  1  0.00402079  0.49607597  0.00289806  1
  Ba2+  Ba5  1  -0.00303931  0.50594655  0.51230565  1
  Ba2+  Ba6  1  0.00887617  0.75280108  0.01029545  1
  Ba2+  Ba7  1  0.00710414  0.74490590  0.52350141  1
  Ba2+  Ba8  1  0.25069688  -0.00095713  0.00681836  1
  Ba2+  Ba9  1  0.24586354  -0.00682517  0.52453295  1
  Ba2+  Ba10  1  0.25003648  0.24448752  0.00672694  1
  Ba2+  Ba11  1  0.25015247  0.25114773  0.51579911  1
  Ba2+  Ba12  1  0.25095243  0.50466205  0.00649224  1
  Ba2+  Ba13  1  0.25452250  0.50633870  0.52305219  1
  Ba2+  Ba14  1  0.25145741  0.75058107  0.00628610  1
  Ba2+  Ba15  1  0.24991610  0.74932047  0.52951606  1
  Ba2+  Ba16  1  0.49033228  -0.00437036  0.00292731  1
  Ba2+  Ba17  1  0.49329860  -0.00637912  0.51078044  1
  Ba2+  Ba18  1  0.49317257  0.25267224  0.01809668  1
  Ba2+  Ba19  1  0.50094839  0.26272048  0.51089300  1
  Ba2+  Ba20  1  0.49914139  0.50424371  0.01502812  1
  Ba2+  Ba21  1  0.50092597  0.50007838  0.52162761  1
  Ba2+  Ba22  1  0.49593129  0.74680327  0.00223166  1
  Ba2+  Ba23  1  0.49329670  0.74360663  0.52344860  1
  Ba2+  Ba24  1  0.74979886  -0.00792942  0.00802872  1
  Ba2+  Ba25  1  0.75104073  -0.00141077  0.50607638  1
  Ba2+  Ba26  1  0.75223799  0.26080466  0.01340676  1
  Ba2+  Ba27  1  0.74792288  0.26315529  0.50014875  1
  Ba2+  Ba28  1  0.74534089  0.49684100  0.01327515  1
  Ba2+  Ba29  1  0.74595923  0.49917042  0.51177947  1
  Ba2+  Ba30  1  0.74207225  0.74897315  0.00650795  1
  Ba2+  Ba31  1  0.74979961  0.73891756  0.51761542  1
  Y3+  Y32  1  0.00288156  -0.00133474  0.25272041  1
  Y3+  Y33  1  0.00494536  0.00076199  0.76061821  1
  Y3+  Y34  1  -0.00037097  0.25110188  0.25535512  1
  Y3+  Y35  1  0.00164745  0.25043928  0.76044551  1
  Y3+  Y36  1  -0.00040165  0.49991874  0.25407934  1
  Y3+  Y37  1  0.00036542  0.50027143  0.76140074  1
  Y3+  Y38  1  0.00235911  0.75081809  0.25061382  1
  Y3+  Y39  1  0.00348347  0.74795660  0.76190061  1
  Y3+  Y40  1  0.24984599  -0.00070464  0.24884383  1
  Y3+  Y41  1  0.24952466  -0.00048235  0.76434285  1
  Y3+  Y42  1  0.25152204  0.24866064  0.25338438  1
  Y3+  Y43  1  0.24897448  0.24803265  0.76047037  1
  Y3+  Y44  1  0.25158782  0.50261611  0.25054212  1
  Y3+  Y45  1  0.25017232  0.50204731  0.76178351  1
  Y3+  Y46  1  0.25016863  0.75021530  0.24609800  1
  Y3+  Y47  1  0.25066475  0.74996724  0.76552409  1
  Y3+  Y48  1  0.49598891  0.00006944  0.25481004  1
  Y3+  Y49  1  0.49674529  -0.00140622  0.76076019  1
  Y3+  Y50  1  0.49914087  0.25281497  0.25740106  1
  Y3+  Y51  1  0.49913041  0.25109594  0.75640192  1
  Y3+  Y52  1  0.50045766  0.50021913  0.25300798  1
  Y3+  Y53  1  0.50060870  0.50183141  0.75856773  1
  Y3+  Y54  1  0.49760284  0.74741964  0.24995345  1
  Y3+  Y55  1  0.49852822  0.74809105  0.76349324  1
  Y3+  Y56  1  0.75095869  -0.00038982  0.25798898  1
  Y3+  Y57  1  0.74910694  0.00007315  0.75746223  1
  Y3+  Y58  1  0.74989852  0.25538172  0.25790832  1
  Y3+  Y59  1  0.75036598  0.25314121  0.75827475  1
  Y3+  Y60  1  0.74882401  0.49782386  0.25588398  1
  Y3+  Y61  1  0.74843483  0.50022965  0.75918075  1
  Y3+  Y62  1  0.74984874  0.74823792  0.25358349  1
  Y3+  Y63  1  0.74781761  0.74627699  0.76020648  1
  Fe3+  Fe64  1  0.12686479  0.87320259  0.37463834  1
  Fe3+  Fe65  1  0.87457501  0.62430437  0.87995510  1
  Fe3+  Fe66  1  0.62366441  0.37472772  0.87719721  1
  Fe3+  Fe67  1  0.87460938  0.12505785  0.88026054  1
  Fe3+  Fe68  1  0.87617255  0.62583574  0.37462181  1
  Fe3+  Fe69  1  0.62282445  0.62540103  0.37552848  1
  Fe3+  Fe70  1  0.37369261  0.12418420  0.38025051  1
  Fe3+  Fe71  1  0.62436054  0.12558826  0.88062558  1
  Fe3+  Fe72  1  0.87709205  0.87286603  0.38035334  1
  Fe3+  Fe73  1  0.37503165  0.37479958  0.87666833  1
  Fe3+  Fe74  1  0.87528731  0.87471209  0.87660223  1
  Fe3+  Fe75  1  0.37351697  0.62634664  0.37417079  1
  Fe3+  Fe76  1  0.37338725  0.37763856  0.37658356  1
  Fe3+  Fe77  1  0.37272000  0.87279171  0.37600512  1
  Fe3+  Fe78  1  0.62365339  0.12502105  0.38050722  1
  Fe3+  Fe79  1  0.12654048  0.12395782  0.37704056  1
  Fe3+  Fe80  1  0.12612699  0.37710521  0.37970467  1
  Fe3+  Fe81  1  0.87602303  0.12469222  0.37967355  1
  Fe3+  Fe82  1  0.62347117  0.87248782  0.38084909  1
  Fe3+  Fe83  1  0.12691652  0.62638836  0.37441050  1
  Fe3+  Fe84  1  0.87533534  0.37603015  0.63939238  1
  Fe3+  Fe85  1  0.62479233  0.12502656  0.13564669  1
  Fe3+  Fe86  1  0.12511541  0.37574439  0.63685220  1
  Fe3+  Fe87  1  0.87518090  0.12514390  0.13503039  1
  Fe3+  Fe88  1  0.12606551  0.37462343  0.13748700  1
  Fe3+  Fe89  1  0.62380852  0.87533664  0.13791834  1
  Fe3+  Fe90  1  0.37487343  0.12495542  0.63603399  1
  Fe3+  Fe91  1  0.62526233  0.12561850  0.63396255  1
  Fe3+  Fe92  1  0.62450997  0.87422109  0.63632712  1
  Fe3+  Fe93  1  0.87506932  0.62487189  0.13311988  1
  Fe3+  Fe94  1  0.87595687  0.87359844  0.63579881  1
  Fe3+  Fe95  1  0.87545572  0.12562849  0.63488004  1
  Cu2+  Cu96  1  0.12497863  0.62461961  0.87417982  1
  Cu2+  Cu97  1  0.62518744  0.87545681  0.86196302  1
  Cu2+  Cu98  1  0.62465151  0.62362808  0.87360728  1
  Cu2+  Cu99  1  0.87635810  0.37661908  0.36334927  1
  Cu2+  Cu100  1  0.12504424  0.87496752  0.87161678  1
  Cu2+  Cu101  1  0.37481913  0.87458591  0.87184125  1
  Cu2+  Cu102  1  0.87462186  0.37494516  0.87451157  1
  Cu2+  Cu103  1  0.12528556  0.12500918  0.87362292  1
  Cu2+  Cu104  1  0.62296700  0.37779281  0.37127177  1
  Cu2+  Cu105  1  0.37593476  0.12615612  0.87194702  1
  Cu2+  Cu106  1  0.12614460  0.37473642  0.86345807  1
  Cu2+  Cu107  1  0.37526677  0.62362096  0.87204439  1
  Cu2+  Cu108  1  0.62455655  0.62517939  0.65509624  1
  Cu2+  Cu109  1  0.62546383  0.62498076  0.14034082  1
  Cu2+  Cu110  1  0.87517458  0.62471542  0.65585628  1
  Cu2+  Cu111  1  0.62423468  0.37450131  0.15074841  1
  Cu2+  Cu112  1  0.12596833  0.87534080  0.13989816  1
  Cu2+  Cu113  1  0.12547930  0.62395220  0.65853877  1
  Cu2+  Cu114  1  0.37498163  0.87513578  0.65705451  1
  Cu2+  Cu115  1  0.37586193  0.87501150  0.14002694  1
  Cu2+  Cu116  1  0.37486963  0.62502620  0.65928273  1
  Cu2+  Cu117  1  0.87412146  0.87522145  0.14781490  1
  Cu2+  Cu118  1  0.12442522  0.62389893  0.13829057  1
  Cu2+  Cu119  1  0.87640021  0.37521127  0.14158359  1
  Cu2+  Cu120  1  0.37509191  0.62488710  0.13832906  1
  Cu2+  Cu121  1  0.12492364  0.12636847  0.14115172  1
  Cu2+  Cu122  1  0.37550450  0.12511452  0.14125381  1
  Cu2+  Cu123  1  0.12509045  0.87419279  0.65926371  1
  Cu2+  Cu124  1  0.12494658  0.12581277  0.65214677  1
  Cu2+  Cu125  1  0.37423804  0.37508731  0.14821554  1
  Cu2+  Cu126  1  0.62544342  0.37501157  0.64415189  1
  Cu2+  Cu127  1  0.37414968  0.37481601  0.65285339  1
  O2-  O128  1  0.12393573  0.12631587  0.00712589  1
  O2-  O129  1  0.12660035  0.12283915  0.49744616  1
  O2-  O130  1  0.12578011  0.37339111  0.01638197  1
  O2-  O131  1  0.12527333  0.37721586  0.50789899  1
  O2-  O132  1  0.12328776  0.62346481  0.00618080  1
  O2-  O133  1  0.12743998  0.62675136  0.49496759  1
  O2-  O134  1  0.12548621  0.87575199  0.00587234  1
  O2-  O135  1  0.12651185  0.87270620  0.49514220  1
  O2-  O136  1  0.37717647  0.12611555  0.00659819  1
  O2-  O137  1  0.37377997  0.12381672  0.50679816  1
  O2-  O138  1  0.37542350  0.37398217  -0.00307450  1
  O2-  O139  1  0.37286948  0.37775807  0.49697570  1
  O2-  O140  1  0.37576315  0.62382845  0.00518264  1
  O2-  O141  1  0.37272443  0.62684780  0.49479714  1
  O2-  O142  1  0.37588911  0.87477409  0.00544932  1
  O2-  O143  1  0.37211294  0.87246853  0.49657215  1
  O2-  O144  1  0.62531930  0.12486350  0.00795378  1
  O2-  O145  1  0.62505542  0.12475608  0.50736188  1
  O2-  O146  1  0.62320198  0.37247398  -0.00232859  1
  O2-  O147  1  0.62475031  0.37757451  0.50725294  1
  O2-  O148  1  0.62629420  0.62441838  0.00684518  1
  O2-  O149  1  0.62273266  0.62600570  0.49620377  1
  O2-  O150  1  0.62517178  0.87767968  0.01753063  1
  O2-  O151  1  0.62407242  0.87242619  0.50738045  1
  O2-  O152  1  0.87368355  0.12412310  0.00748675  1
  O2-  O153  1  0.87545734  0.12547716  0.50729631  1
  O2-  O154  1  0.87555101  0.37397848  0.00766683  1
  O2-  O155  1  0.87655813  0.37635508  0.51850715  1
  O2-  O156  1  0.87398576  0.62506079  0.00618629  1
  O2-  O157  1  0.87693902  0.62710136  0.49512142  1
  O2-  O158  1  0.87349604  0.87647134  -0.00342042  1
  O2-  O159  1  0.87718613  0.87222027  0.50653918  1
  O2-  O160  1  0.12424224  0.00036409  0.16332375  1
  O2-  O161  1  0.12441953  0.00017920  0.66487202  1
  O2-  O162  1  0.12483689  0.25173312  0.17068559  1
  O2-  O163  1  0.12377490  0.25189960  0.66231929  1
  O2-  O164  1  0.12434292  0.49803521  0.16622377  1
  O2-  O165  1  0.12488368  0.49852307  0.66416743  1
  O2-  O166  1  0.12420092  0.75011274  0.15896498  1
  O2-  O167  1  0.12449588  0.74881582  0.66725260  1
  O2-  O168  1  0.37643375  0.00001112  0.16578441  1
  O2-  O169  1  0.37530545  0.00173137  0.66405242  1
  O2-  O170  1  0.37568375  0.25130564  0.16833324  1
  O2-  O171  1  0.37581700  0.24758164  0.66136803  1
  O2-  O172  1  0.37539758  0.49864983  0.16195768  1
  O2-  O173  1  0.37475437  0.50012904  0.66427486  1
  O2-  O174  1  0.37588687  0.75012793  0.15952849  1
  O2-  O175  1  0.37571608  0.75039722  0.66746082  1
  O2-  O176  1  0.62593997  0.00195636  0.17016898  1
  O2-  O177  1  0.62666601  0.00011301  0.66166590  1
  O2-  O178  1  0.62619909  0.24833317  0.16591124  1
  O2-  O179  1  0.62578589  0.24616084  0.66411653  1
  O2-  O180  1  0.62530720  0.49803500  0.16210684  1
  O2-  O181  1  0.62543231  0.50161707  0.66523089  1
  O2-  O182  1  0.62647027  0.75183065  0.16487583  1
  O2-  O183  1  0.62540636  0.75177162  0.66495070  1
  O2-  O184  1  0.87339324  0.00219539  0.16706852  1
  O2-  O185  1  0.87415835  -0.00035132  0.65932145  1
  O2-  O186  1  0.87349417  0.24715800  0.16714738  1
  O2-  O187  1  0.87519464  0.24875644  0.66612993  1
  O2-  O188  1  0.87507819  0.50220552  0.16208438  1
  O2-  O189  1  0.87526886  0.50016690  0.66714505  1
  O2-  O190  1  0.87379370  0.74908383  0.16052748  1
  O2-  O191  1  0.87432246  0.75136982  0.66386278  1
  O2-  O192  1  -0.00333480  0.12523442  0.16510332  1
  O2-  O193  1  -0.00226947  0.12427782  0.66432421  1
  O2-  O194  1  0.00216885  0.37398934  0.16888617  1
  O2-  O195  1  0.00104925  0.37510082  0.66695179  1
  O2-  O196  1  -0.00311820  0.62537961  0.16315636  1
  O2-  O197  1  0.00034841  0.62494238  0.66676580  1
  O2-  O198  1  -0.00143513  0.87599793  0.16447672  1
  O2-  O199  1  -0.00135464  0.87519284  0.66301115  1
  O2-  O200  1  0.25042628  0.12584139  0.16378991  1
  O2-  O201  1  0.25169290  0.12529311  0.66347193  1
  O2-  O202  1  0.24992895  0.37445924  0.16573988  1
  O2-  O203  1  0.24819546  0.37391456  0.66266372  1
  O2-  O204  1  0.25000248  0.62427680  0.15882728  1
  O2-  O205  1  0.25020994  0.62496783  0.66749616  1
  O2-  O206  1  0.25080699  0.87612917  0.15938941  1
  O2-  O207  1  0.24966314  0.87520039  0.66688437  1
  O2-  O208  1  0.50377258  0.12593606  0.16705980  1
  O2-  O209  1  0.50048125  0.12370333  0.66089483  1
  O2-  O210  1  0.49948872  0.37336104  0.16350974  1
  O2-  O211  1  0.49854387  0.37353958  0.66212482  1
  O2-  O212  1  0.50037335  0.62469715  0.16207421  1
  O2-  O213  1  0.49958000  0.62566404  0.66488254  1
  O2-  O214  1  0.50168590  0.87654599  0.16900805  1
  O2-  O215  1  0.50202924  0.87682042  0.66216207  1
  O2-  O216  1  0.74959275  0.12433032  0.16528892  1
  O2-  O217  1  0.75070330  0.12365962  0.66403440  1
  O2-  O218  1  0.74887472  0.37433338  0.16558126  1
  O2-  O219  1  0.75206608  0.37462443  0.66752846  1
  O2-  O220  1  0.75282380  0.62492456  0.16453452  1
  O2-  O221  1  0.74987666  0.62561776  0.66532619  1
  O2-  O222  1  0.74855496  0.87685302  0.17070156  1
  O2-  O223  1  0.75006345  0.87577121  0.65926624  1
  O2-  O224  1  0.12461579  -0.00022523  0.34441383  1
  O2-  O225  1  0.12440549  -0.00009333  0.84940712  1
  O2-  O226  1  0.12421460  0.25059284  0.35327028  1
  O2-  O227  1  0.12448129  0.25111121  0.84703297  1
  O2-  O228  1  0.12456826  0.49979961  0.34786911  1
  O2-  O229  1  0.12429677  0.49816052  0.84876984  1
  O2-  O230  1  0.12433720  0.75071980  0.33949746  1
  O2-  O231  1  0.12416093  0.75013814  0.85131792  1
  O2-  O232  1  0.37542921  0.00075683  0.34912573  1
  O2-  O233  1  0.37600976  0.00032644  0.84842129  1
  O2-  O234  1  0.37525362  0.24844918  0.35167534  1
  O2-  O235  1  0.37555165  0.25173103  0.84380459  1
  O2-  O236  1  0.37370039  0.50137070  0.34302153  1
  O2-  O237  1  0.37500275  0.49747970  0.84692191  1
  O2-  O238  1  0.37538281  0.75058211  0.33991786  1
  O2-  O239  1  0.37573907  0.74929419  0.85169972  1
  O2-  O240  1  0.62651702  -0.00032248  0.35477450  1
  O2-  O241  1  0.62642796  0.00238328  0.84754715  1
  O2-  O242  1  0.62507299  0.24693820  0.35118885  1
  O2-  O243  1  0.62551530  0.24845302  0.84658743  1
  O2-  O244  1  0.62508890  0.50316032  0.34418119  1
  O2-  O245  1  0.62517447  0.49749468  0.84780107  1
  O2-  O246  1  0.62535146  0.75150191  0.34582702  1
  O2-  O247  1  0.62571228  0.75104612  0.85022079  1
  O2-  O248  1  0.87365930  -0.00072631  0.35297590  1
  O2-  O249  1  0.87336806  0.00169409  0.84479497  1
  O2-  O250  1  0.87494877  0.24837517  0.35244890  1
  O2-  O251  1  0.87410431  0.24656784  0.84936649  1
  O2-  O252  1  0.87579015  0.50170148  0.34523337  1
  O2-  O253  1  0.87511625  0.50209342  0.85048176  1
  O2-  O254  1  0.87487521  0.75184457  0.34311897  1
  O2-  O255  1  0.87407183  0.74886630  0.84814754  1
  O2-  O256  1  -0.00073971  0.12465010  0.34894774  1
  O2-  O257  1  -0.00329928  0.12511528  0.84975011  1
  O2-  O258  1  0.00240045  0.37459022  0.35200863  1
  O2-  O259  1  0.00194078  0.37392085  0.85006524  1
  O2-  O260  1  0.00093430  0.62574608  0.34389550  1
  O2-  O261  1  -0.00293993  0.62480114  0.85099338  1
  O2-  O262  1  -0.00080955  0.87602363  0.34753744  1
  O2-  O263  1  -0.00243133  0.87569097  0.84593116  1
  O2-  O264  1  0.25132432  0.12514923  0.34625138  1
  O2-  O265  1  0.25030133  0.12567845  0.84893965  1
  O2-  O266  1  0.24872468  0.37414425  0.34692271  1
  O2-  O267  1  0.25017986  0.37407414  0.84686941  1
  O2-  O268  1  0.24986877  0.62585875  0.33913498  1
  O2-  O269  1  0.24985834  0.62399783  0.85145315  1
  O2-  O270  1  0.25005581  0.87562877  0.33975175  1
  O2-  O271  1  0.24993064  0.87550786  0.85075651  1
  O2-  O272  1  0.49924233  0.12359116  0.35234624  1
  O2-  O273  1  0.50395398  0.12459617  0.84645207  1
  O2-  O274  1  0.49661606  0.37477066  0.34613831  1
  O2-  O275  1  0.50039352  0.37374905  0.84355234  1
  O2-  O276  1  0.49890083  0.62597566  0.34279682  1
  O2-  O277  1  0.50030953  0.62458035  0.84891090  1
  O2-  O278  1  0.50066107  0.87711454  0.35092176  1
  O2-  O279  1  0.50177367  0.87596664  0.84712133  1
  O2-  O280  1  0.75028487  0.12423476  0.35238182  1
  O2-  O281  1  0.74945507  0.12414898  0.84975859  1
  O2-  O282  1  0.75142517  0.37499658  0.35012434  1
  O2-  O283  1  0.74749938  0.37366333  0.84825493  1
  O2-  O284  1  0.74991460  0.62646739  0.34657572  1
  O2-  O285  1  0.75234759  0.62514947  0.84984159  1
  O2-  O286  1  0.75038219  0.87596838  0.35502447  1
  O2-  O287  1  0.75100473  0.87588661  0.84365151  1
