# generated using pymatgen
data_BaYFeCuO5
_symmetry_space_group_name_H-M   'P 1'
_cell_length_a   15.67323721
_cell_length_b   15.67906292
_cell_length_c   15.50090775
_cell_angle_alpha   89.99753251
_cell_angle_beta   90.00156661
_cell_angle_gamma   90.01356213
_symmetry_Int_Tables_number   1
_chemical_formula_structural   BaYFeCuO5
_chemical_formula_sum   'Ba32 Y32 Fe32 Cu32 O160'
_cell_volume   3809.21888022
_cell_formula_units_Z   32
loop_
 _symmetry_equiv_pos_site_id
 _symmetry_equiv_pos_as_xyz
  1  'x, y, z'
loop_
 _atom_type_symbol
 _atom_type_oxidation_number
  Ba2+  2.0
  Y3+  3.0
  Fe3+  3.0
  Cu2+  2.0
  O2-  -2.0
loop_
 _atom_site_type_symbol
 _atom_site_label
 _atom_site_symmetry_multiplicity
 _atom_site_fract_x
 _atom_site_fract_y
 _atom_site_fract_z
 _atom_site_occupancy
  Ba2+  Ba0  1  0.00963503  -0.00025213  0.01619155  1
  Ba2+  Ba1  1  0.00020456  0.00203012  0.50546490  1
  Ba2+  Ba2  1  -0.00289066  0.25476747  0.01154384  1
  Ba2+  Ba3  1  -0.00118324  0.25314123  0.50580164  1
  Ba2+  Ba4  1  -0.00298747  0.50444576  -0.00043916  1
  Ba2+  Ba5  1  0.00309970  0.49044546  0.51120359  1
  Ba2+  Ba6  1  0.00719102  0.74249390  0.00673511  1
  Ba2+  Ba7  1  0.00596942  0.75507386  0.51367315  1
  Ba2+  Ba8  1  0.25484032  -0.00420608  0.00946736  1
  Ba2+  Ba9  1  0.24883208  0.00016605  0.52730967  1
  Ba2+  Ba10  1  0.25459830  0.24745783  0.01155504  1
  Ba2+  Ba11  1  0.24275829  0.24619315  0.51742923  1
  Ba2+  Ba12  1  0.25191260  0.50752222  0.01749527  1
  Ba2+  Ba13  1  0.24330891  0.50181843  0.51586400  1
  Ba2+  Ba14  1  0.25144568  0.74929791  0.01481880  1
  Ba2+  Ba15  1  0.24942876  0.75218198  0.52587672  1
  Ba2+  Ba16  1  0.49801821  -0.00118733  0.00630144  1
  Ba2+  Ba17  1  0.49920127  0.00150705  0.51887971  1
  Ba2+  Ba18  1  0.49964041  0.24345397  0.00587958  1
  Ba2+  Ba19  1  0.50628496  0.24585371  0.51759049  1
  Ba2+  Ba20  1  0.49628495  0.50467790  0.02486318  1
  Ba2+  Ba21  1  0.50231735  0.49684271  0.50954818  1
  Ba2+  Ba22  1  0.49653809  0.75079984  0.02168122  1
  Ba2+  Ba23  1  0.49457788  0.75609794  0.51102038  1
  Ba2+  Ba24  1  0.73833641  0.00141090  0.01197054  1
  Ba2+  Ba25  1  0.75175611  0.00233184  0.49296203  1
  Ba2+  Ba26  1  0.74896408  0.25076997  0.00674365  1
  Ba2+  Ba27  1  0.75183161  0.25217906  0.50655107  1
  Ba2+  Ba28  1  0.75650321  0.50075843  0.00528399  1
  Ba2+  Ba29  1  0.75099017  0.48724344  0.50689235  1
  Ba2+  Ba30  1  0.74392814  0.74420009  0.01390274  1
  Ba2+  Ba31  1  0.75095128  0.76046665  0.49587223  1
  Y3+  Y32  1  0.00033687  0.00034738  0.25583678  1
  Y3+  Y33  1  0.00187843  0.00017447  0.75862693  1
  Y3+  Y34  1  -0.00095832  0.25288145  0.25832331  1
  Y3+  Y35  1  -0.00088025  0.25353263  0.75687184  1
  Y3+  Y36  1  0.00029594  0.49699371  0.25841458  1
  Y3+  Y37  1  -0.00017447  0.49885402  0.75688292  1
  Y3+  Y38  1  0.00211422  0.74969659  0.25561652  1
  Y3+  Y39  1  0.00220504  0.74655442  0.75933741  1
  Y3+  Y40  1  0.24931249  -0.00120562  0.25048873  1
  Y3+  Y41  1  0.25294857  -0.00044472  0.76064897  1
  Y3+  Y42  1  0.24848522  0.25133924  0.25656405  1
  Y3+  Y43  1  0.24955465  0.24921088  0.75626711  1
  Y3+  Y44  1  0.24884436  0.49966778  0.25740293  1
  Y3+  Y45  1  0.24696960  0.50192238  0.75502233  1
  Y3+  Y46  1  0.24991776  0.75027364  0.25095767  1
  Y3+  Y47  1  0.25031708  0.74912582  0.75905141  1
  Y3+  Y48  1  0.50115518  -0.00132501  0.25318323  1
  Y3+  Y49  1  0.49810830  0.00210558  0.76154259  1
  Y3+  Y50  1  0.50115105  0.25071107  0.25648891  1
  Y3+  Y51  1  0.50212243  0.24738996  0.75755320  1
  Y3+  Y52  1  0.50016193  0.49905131  0.26108754  1
  Y3+  Y53  1  0.50049611  0.49919230  0.75097849  1
  Y3+  Y54  1  0.49958034  0.75215416  0.25660543  1
  Y3+  Y55  1  0.49653613  0.75126384  0.75503884  1
  Y3+  Y56  1  0.74851558  0.00031805  0.25474331  1
  Y3+  Y57  1  0.74761085  0.00259231  0.76219796  1
  Y3+  Y58  1  0.75098192  0.25203968  0.25726094  1
  Y3+  Y59  1  0.74947812  0.25197139  0.75878662  1
  Y3+  Y60  1  0.75062257  0.49600823  0.25967005  1
  Y3+  Y61  1  0.75251140  0.49654128  0.75580458  1
  Y3+  Y62  1  0.74844923  0.75158556  0.25803246  1
  Y3+  Y63  1  0.75106881  0.74823535  0.75863599  1
  Fe3+  Fe64  1  0.37383790  0.37324023  0.38023704  1
  Fe3+  Fe65  1  0.12551938  0.12599771  0.87839115  1
  Fe3+  Fe66  1  0.37548519  0.37658753  0.87634452  1
  Fe3+  Fe67  1  0.12629323  0.37603235  0.87933623  1
  Fe3+  Fe68  1  0.62350379  0.37673895  0.87904648  1
  Fe3+  Fe69  1  0.62389757  0.12494262  0.37443541  1
  Fe3+  Fe70  1  0.87549578  0.12435075  0.88202105  1
  Fe3+  Fe71  1  0.37333922  0.62645317  0.37800300  1
  Fe3+  Fe72  1  0.87629599  0.62527295  0.38114601  1
  Fe3+  Fe73  1  0.12609684  0.87395621  0.87713195  1
  Fe3+  Fe74  1  0.12568041  0.62582424  0.37695047  1
  Fe3+  Fe75  1  0.37396863  0.12368330  0.37734600  1
  Fe3+  Fe76  1  0.12717906  0.87541064  0.37440074  1
  Fe3+  Fe77  1  0.62499043  0.62575024  0.37999067  1
  Fe3+  Fe78  1  0.62332688  0.87275943  0.87793757  1
  Fe3+  Fe79  1  0.87487963  0.87405691  0.88296845  1
  Fe3+  Fe80  1  0.37308542  0.87694041  0.37571058  1
  Fe3+  Fe81  1  0.12592517  0.12430130  0.37418127  1
  Fe3+  Fe82  1  0.62306695  0.62381505  0.87487669  1
  Fe3+  Fe83  1  0.37613770  0.62404333  0.87359928  1
  Fe3+  Fe84  1  0.12486510  0.37593297  0.13460950  1
  Fe3+  Fe85  1  0.87483668  0.62504474  0.63415178  1
  Fe3+  Fe86  1  0.87501687  0.87395623  0.13479869  1
  Fe3+  Fe87  1  0.87458234  0.87634667  0.64077592  1
  Fe3+  Fe88  1  0.87436813  0.12470555  0.64050160  1
  Fe3+  Fe89  1  0.37534932  0.12544330  0.13777916  1
  Fe3+  Fe90  1  0.62671094  0.87659336  0.63834604  1
  Fe3+  Fe91  1  0.62497792  0.37550331  0.13527602  1
  Fe3+  Fe92  1  0.37453561  0.37405221  0.63435626  1
  Fe3+  Fe93  1  0.87503479  0.62391000  0.14067511  1
  Fe3+  Fe94  1  0.87482777  0.12568401  0.13578054  1
  Fe3+  Fe95  1  0.62636867  0.62608194  0.63251711  1
  Cu2+  Cu96  1  0.87526095  0.37480383  0.87444281  1
  Cu2+  Cu97  1  0.62482993  0.12552106  0.87468210  1
  Cu2+  Cu98  1  0.87558892  0.37471250  0.37169357  1
  Cu2+  Cu99  1  0.12625581  0.37466888  0.37219727  1
  Cu2+  Cu100  1  0.37441610  0.12613447  0.86333184  1
  Cu2+  Cu101  1  0.62392229  0.37347446  0.37301497  1
  Cu2+  Cu102  1  0.87669836  0.87489440  0.35880413  1
  Cu2+  Cu103  1  0.62339035  0.87619777  0.36200120  1
  Cu2+  Cu104  1  0.37544188  0.87336890  0.87307672  1
  Cu2+  Cu105  1  0.87542652  0.12503247  0.35848818  1
  Cu2+  Cu106  1  0.87434694  0.62527452  0.86142021  1
  Cu2+  Cu107  1  0.12659303  0.62398837  0.87254497  1
  Cu2+  Cu108  1  0.12327580  0.12478844  0.65523001  1
  Cu2+  Cu109  1  0.12414574  0.87550751  0.65656455  1
  Cu2+  Cu110  1  0.37511852  0.12543052  0.65266343  1
  Cu2+  Cu111  1  0.37529507  0.62457450  0.64491275  1
  Cu2+  Cu112  1  0.37502859  0.87586489  0.65462316  1
  Cu2+  Cu113  1  0.37523183  0.37503773  0.15100817  1
  Cu2+  Cu114  1  0.62475389  0.12609883  0.14143919  1
  Cu2+  Cu115  1  0.87481533  0.37596641  0.14143773  1
  Cu2+  Cu116  1  0.87507968  0.37395352  0.64437719  1
  Cu2+  Cu117  1  0.12383173  0.62367910  0.14199979  1
  Cu2+  Cu118  1  0.62565809  0.37382891  0.64218504  1
  Cu2+  Cu119  1  0.37533096  0.62467960  0.15620370  1
  Cu2+  Cu120  1  0.62672193  0.12403397  0.65494290  1
  Cu2+  Cu121  1  0.37530630  0.87528647  0.14015264  1
  Cu2+  Cu122  1  0.12364997  0.62510499  0.65122862  1
  Cu2+  Cu123  1  0.12481350  0.12648921  0.14704449  1
  Cu2+  Cu124  1  0.62532679  0.87458320  0.15016312  1
  Cu2+  Cu125  1  0.12450325  0.37408081  0.64335394  1
  Cu2+  Cu126  1  0.12423654  0.87441049  0.14675331  1
  Cu2+  Cu127  1  0.62573015  0.62379616  0.15695420  1
  O2-  O128  1  0.12619888  0.12639734  -0.00170959  1
  O2-  O129  1  0.12516790  0.12236778  0.49424365  1
  O2-  O130  1  0.12613169  0.37690161  0.00623205  1
  O2-  O131  1  0.12614323  0.37323024  0.50759666  1
  O2-  O132  1  0.12561134  0.62339292  0.00679722  1
  O2-  O133  1  0.12578185  0.62811027  0.49693114  1
  O2-  O134  1  0.12545700  0.87340449  -0.00251405  1
  O2-  O135  1  0.12661821  0.87684573  0.49421951  1
  O2-  O136  1  0.37556459  0.12611771  0.01677494  1
  O2-  O137  1  0.37353821  0.12244564  0.49694278  1
  O2-  O138  1  0.37606316  0.37842489  -0.00411552  1
  O2-  O139  1  0.37347327  0.37226530  0.50652934  1
  O2-  O140  1  0.37777303  0.62336509  -0.00629141  1
  O2-  O141  1  0.37249626  0.62850631  0.49765565  1
  O2-  O142  1  0.37603514  0.87332757  0.00635663  1
  O2-  O143  1  0.37209266  0.87770232  0.49572373  1
  O2-  O144  1  0.62432292  0.12616507  0.00757432  1
  O2-  O145  1  0.62493544  0.12338883  0.49484986  1
  O2-  O146  1  0.62305704  0.37896696  0.00659691  1
  O2-  O147  1  0.62400388  0.37273837  0.50690631  1
  O2-  O148  1  0.62171086  0.62386745  -0.00542288  1
  O2-  O149  1  0.62649058  0.62712340  0.50613004  1
  O2-  O150  1  0.62320219  0.87035144  -0.00184749  1
  O2-  O151  1  0.62815985  0.87849872  0.51807206  1
  O2-  O152  1  0.87551102  0.12425345  0.00863609  1
  O2-  O153  1  0.87461781  0.12314029  0.52043966  1
  O2-  O154  1  0.87453434  0.37670557  0.00745519  1
  O2-  O155  1  0.87583769  0.37297297  0.50768315  1
  O2-  O156  1  0.87387354  0.62553753  0.01994339  1
  O2-  O157  1  0.87592532  0.62664126  0.50784621  1
  O2-  O158  1  0.87448817  0.87236499  0.00869814  1
  O2-  O159  1  0.87453346  0.87825654  0.52088472  1
  O2-  O160  1  0.12398180  0.00023192  0.15928775  1
  O2-  O161  1  0.12346251  0.00013201  0.66768503  1
  O2-  O162  1  0.12519192  0.25271458  0.16146693  1
  O2-  O163  1  0.12462391  0.24837714  0.66800964  1
  O2-  O164  1  0.12554860  0.49713424  0.16623670  1
  O2-  O165  1  0.12393697  0.50118519  0.66437273  1
  O2-  O166  1  0.12389219  0.75023776  0.16271038  1
  O2-  O167  1  0.12427103  0.75020476  0.66419595  1
  O2-  O168  1  0.37486302  0.00156913  0.16222820  1
  O2-  O169  1  0.37554518  0.00111507  0.66826354  1
  O2-  O170  1  0.37482570  0.24990486  0.16622706  1
  O2-  O171  1  0.37450054  0.25058524  0.66378018  1
  O2-  O172  1  0.37560317  0.50020820  0.16858406  1
  O2-  O173  1  0.37597027  0.49819444  0.65744198  1
  O2-  O174  1  0.37580970  0.74858803  0.16359606  1
  O2-  O175  1  0.37446081  0.75023241  0.66229979  1
  O2-  O176  1  0.62580761  -0.00073102  0.16106881  1
  O2-  O177  1  0.62495153  -0.00069053  0.67101557  1
  O2-  O178  1  0.62448810  0.25349744  0.16106561  1
  O2-  O179  1  0.62600723  0.24779465  0.66845122  1
  O2-  O180  1  0.62459927  0.49831066  0.16791631  1
  O2-  O181  1  0.62555414  0.50330706  0.65984383  1
  O2-  O182  1  0.62602514  0.74874798  0.16636554  1
  O2-  O183  1  0.62632313  0.74966303  0.66262298  1
  O2-  O184  1  0.87513301  -0.00069288  0.15994297  1
  O2-  O185  1  0.87532241  -0.00013162  0.67561960  1
  O2-  O186  1  0.87506811  0.24826261  0.16142263  1
  O2-  O187  1  0.87456174  0.24833368  0.67059602  1
  O2-  O188  1  0.87417331  0.50094130  0.17018751  1
  O2-  O189  1  0.87474889  0.50244050  0.66215754  1
  O2-  O190  1  0.87420779  0.75113420  0.16768129  1
  O2-  O191  1  0.87483831  0.74918476  0.66590372  1
  O2-  O192  1  -0.00166180  0.12514944  0.16262769  1
  O2-  O193  1  -0.00100672  0.12472255  0.66975685  1
  O2-  O194  1  0.00237591  0.37511504  0.16439029  1
  O2-  O195  1  -0.00026048  0.37476499  0.66786542  1
  O2-  O196  1  -0.00193354  0.62477682  0.16866463  1
  O2-  O197  1  -0.00225284  0.62579186  0.66504542  1
  O2-  O198  1  -0.00211128  0.87481059  0.16245378  1
  O2-  O199  1  -0.00093093  0.87438066  0.66918519  1
  O2-  O200  1  0.25020430  0.12623626  0.16276637  1
  O2-  O201  1  0.24841350  0.12481781  0.66390303  1
  O2-  O202  1  0.24903329  0.37536977  0.16159402  1
  O2-  O203  1  0.25254872  0.37491581  0.66378325  1
  O2-  O204  1  0.25118076  0.62431406  0.16112912  1
  O2-  O205  1  0.24911938  0.62421967  0.66301714  1
  O2-  O206  1  0.24818543  0.87451210  0.15935417  1
  O2-  O207  1  0.24960141  0.87596972  0.66481590  1
  O2-  O208  1  0.49858151  0.12588067  0.16638478  1
  O2-  O209  1  0.50136462  0.12529927  0.66385673  1
  O2-  O210  1  0.50131588  0.37642496  0.16556486  1
  O2-  O211  1  0.49743603  0.37375706  0.66122061  1
  O2-  O212  1  0.50052582  0.62430928  0.16758924  1
  O2-  O213  1  0.50242742  0.62580929  0.65740369  1
  O2-  O214  1  0.50187014  0.87426962  0.16545119  1
  O2-  O215  1  0.50072715  0.87499727  0.66290306  1
  O2-  O216  1  0.75275811  0.12493886  0.16392345  1
  O2-  O217  1  0.75091174  0.12433749  0.67287929  1
  O2-  O218  1  0.74729809  0.37566332  0.16495979  1
  O2-  O219  1  0.75010695  0.37454313  0.66795097  1
  O2-  O220  1  0.75070993  0.62517649  0.17073779  1
  O2-  O221  1  0.75061966  0.62551147  0.66467544  1
  O2-  O222  1  0.75166277  0.87448084  0.16385192  1
  O2-  O223  1  0.75044944  0.87496108  0.67454120  1
  O2-  O224  1  0.12438953  -0.00007476  0.34064128  1
  O2-  O225  1  0.12543232  0.00011837  0.84973264  1
  O2-  O226  1  0.12481402  0.24788061  0.34447877  1
  O2-  O227  1  0.12483261  0.25163787  0.85023929  1
  O2-  O228  1  0.12508962  0.50226307  0.34823069  1
  O2-  O229  1  0.12516832  0.49729487  0.84779311  1
  O2-  O230  1  0.12503099  0.75018438  0.34345569  1
  O2-  O231  1  0.12445502  0.75074348  0.84715602  1
  O2-  O232  1  0.37457140  0.00019274  0.34082024  1
  O2-  O233  1  0.37477105  0.00165316  0.85267271  1
  O2-  O234  1  0.37445607  0.24978750  0.34796532  1
  O2-  O235  1  0.37542296  0.25181501  0.84746512  1
  O2-  O236  1  0.37534716  0.49969766  0.35256321  1
  O2-  O237  1  0.37547891  0.49934273  0.83833216  1
  O2-  O238  1  0.37516716  0.75083402  0.34488783  1
  O2-  O239  1  0.37584828  0.74729157  0.84427591  1
  O2-  O240  1  0.62578198  0.00073386  0.34353401  1
  O2-  O241  1  0.62542343  -0.00216830  0.85263778  1
  O2-  O242  1  0.62512912  0.24744166  0.34285100  1
  O2-  O243  1  0.62428944  0.25342598  0.85268472  1
  O2-  O244  1  0.62499003  0.50329125  0.35209016  1
  O2-  O245  1  0.62512396  0.49889624  0.84242560  1
  O2-  O246  1  0.62502290  0.74949024  0.35134168  1
  O2-  O247  1  0.62508346  0.74889741  0.84238104  1
  O2-  O248  1  0.87522593  -0.00069848  0.34505943  1
  O2-  O249  1  0.87450382  -0.00103511  0.85624608  1
  O2-  O250  1  0.87515360  0.24915433  0.34535371  1
  O2-  O251  1  0.87580023  0.24658869  0.85346117  1
  O2-  O252  1  0.87463930  0.50353509  0.35199992  1
  O2-  O253  1  0.87465466  0.50143263  0.84682093  1
  O2-  O254  1  0.87478481  0.74860541  0.35109560  1
  O2-  O255  1  0.87507265  0.75152451  0.84924148  1
  O2-  O256  1  0.00006499  0.12424817  0.34630641  1
  O2-  O257  1  -0.00053272  0.12384616  0.85127976  1
  O2-  O258  1  0.00027260  0.37490176  0.34832505  1
  O2-  O259  1  0.00286655  0.37563732  0.85169260  1
  O2-  O260  1  -0.00044566  0.62603180  0.34926035  1
  O2-  O261  1  -0.00149505  0.62441371  0.85013165  1
  O2-  O262  1  0.00172220  0.87505506  0.34561511  1
  O2-  O263  1  -0.00135582  0.87487300  0.85132015  1
  O2-  O264  1  0.25021999  0.12500801  0.34176282  1
  O2-  O265  1  0.24919214  0.12651326  0.84728777  1
  O2-  O266  1  0.25320564  0.37511925  0.34562065  1
  O2-  O267  1  0.24924626  0.37489469  0.84672838  1
  O2-  O268  1  0.25021282  0.62498258  0.34247267  1
  O2-  O269  1  0.25242225  0.62388379  0.84546475  1
  O2-  O270  1  0.24978500  0.87513378  0.33909274  1
  O2-  O271  1  0.24890221  0.87443698  0.84779412  1
  O2-  O272  1  0.49887096  0.12482587  0.34551370  1
  O2-  O273  1  0.49842278  0.12581408  0.84888728  1
  O2-  O274  1  0.49613680  0.37491540  0.34924286  1
  O2-  O275  1  0.50108089  0.37582419  0.84392398  1
  O2-  O276  1  0.50044241  0.62547101  0.35128034  1
  O2-  O277  1  0.50033610  0.62360995  0.83767923  1
  O2-  O278  1  0.49818910  0.87539161  0.34809483  1
  O2-  O279  1  0.50155070  0.87456783  0.84483822  1
  O2-  O280  1  0.75044756  0.12416335  0.34701967  1
  O2-  O281  1  0.75298759  0.12478046  0.85450138  1
  O2-  O282  1  0.75018996  0.37457196  0.34892574  1
  O2-  O283  1  0.74719065  0.37589802  0.85203554  1
  O2-  O284  1  0.75009885  0.62693344  0.35413050  1
  O2-  O285  1  0.74877242  0.62455761  0.84796995  1
  O2-  O286  1  0.75063693  0.87521887  0.34960525  1
  O2-  O287  1  0.75098125  0.87328606  0.85353527  1
