# generated using pymatgen
data_BaYFeCuO5
_symmetry_space_group_name_H-M   'P 1'
_cell_length_a   15.66730419
_cell_length_b   15.67043975
_cell_length_c   15.47890559
_cell_angle_alpha   90.00682974
_cell_angle_beta   90.00271640
_cell_angle_gamma   89.98906692
_symmetry_Int_Tables_number   1
_chemical_formula_structural   BaYFeCuO5
_chemical_formula_sum   'Ba32 Y32 Fe32 Cu32 O160'
_cell_volume   3800.28090283
_cell_formula_units_Z   32
loop_
 _symmetry_equiv_pos_site_id
 _symmetry_equiv_pos_as_xyz
  1  'x, y, z'
loop_
 _atom_type_symbol
 _atom_type_oxidation_number
  Ba2+  2.0
  Y3+  3.0
  Fe3+  3.0
  Cu2+  2.0
  O2-  -2.0
loop_
 _atom_site_type_symbol
 _atom_site_label
 _atom_site_symmetry_multiplicity
 _atom_site_fract_x
 _atom_site_fract_y
 _atom_site_fract_z
 _atom_site_occupancy
  Ba2+  Ba0  1  -0.00279162  -0.00072703  0.01684630  1
  Ba2+  Ba1  1  0.00432715  0.00402902  0.51696413  1
  Ba2+  Ba2  1  -0.00450314  0.24161415  0.00615044  1
  Ba2+  Ba3  1  -0.00202323  0.24997550  0.52038977  1
  Ba2+  Ba4  1  0.00243341  0.50194331  0.00760875  1
  Ba2+  Ba5  1  0.00713478  0.49667615  0.50506015  1
  Ba2+  Ba6  1  0.00344137  0.75866469  0.01949849  1
  Ba2+  Ba7  1  0.01113979  0.74958992  0.50667217  1
  Ba2+  Ba8  1  0.24802704  -0.00144644  0.02115088  1
  Ba2+  Ba9  1  0.24037053  -0.00123544  0.51005301  1
  Ba2+  Ba10  1  0.25645010  0.24686521  0.00478049  1
  Ba2+  Ba11  1  0.24865909  0.25791763  0.50511703  1
  Ba2+  Ba12  1  0.25217714  0.49787384  0.01263626  1
  Ba2+  Ba13  1  0.25386517  0.50215144  0.50156825  1
  Ba2+  Ba14  1  0.24527069  0.75556710  0.02595223  1
  Ba2+  Ba15  1  0.24569713  0.74208219  0.50676880  1
  Ba2+  Ba16  1  0.49952224  0.00121161  0.00491174  1
  Ba2+  Ba17  1  0.50911019  0.00094099  0.51664428  1
  Ba2+  Ba18  1  0.49874043  0.25059427  0.01247744  1
  Ba2+  Ba19  1  0.50298217  0.25829428  0.51767055  1
  Ba2+  Ba20  1  0.49741277  0.48985418  0.01187711  1
  Ba2+  Ba21  1  0.49717757  0.50143894  0.51125579  1
  Ba2+  Ba22  1  0.49810788  0.75984554  0.00686119  1
  Ba2+  Ba23  1  0.50206855  0.73899336  0.51019409  1
  Ba2+  Ba24  1  0.75570296  0.00106958  0.00550682  1
  Ba2+  Ba25  1  0.74688203  0.00631220  0.52304019  1
  Ba2+  Ba26  1  0.75099614  0.24464404  0.01065327  1
  Ba2+  Ba27  1  0.74944069  0.25059859  0.52785837  1
  Ba2+  Ba28  1  0.74933190  0.49169135  0.00619664  1
  Ba2+  Ba29  1  0.74307194  0.49586589  0.51876073  1
  Ba2+  Ba30  1  0.75255694  0.76240769  0.00051506  1
  Ba2+  Ba31  1  0.73954262  0.74677175  0.51222845  1
  Y3+  Y32  1  -0.00045727  -0.00052749  0.25574443  1
  Y3+  Y33  1  -0.00112168  0.00052469  0.75750386  1
  Y3+  Y34  1  -0.00025547  0.24772901  0.25423357  1
  Y3+  Y35  1  -0.00262009  0.24877633  0.76031879  1
  Y3+  Y36  1  0.00260499  0.50096518  0.25828169  1
  Y3+  Y37  1  -0.00047893  0.49951112  0.75768129  1
  Y3+  Y38  1  0.00223789  0.75129023  0.26041488  1
  Y3+  Y39  1  0.00139591  0.75124868  0.75415472  1
  Y3+  Y40  1  0.24778990  -0.00112018  0.26071986  1
  Y3+  Y41  1  0.24825032  0.00026780  0.75261822  1
  Y3+  Y42  1  0.25160432  0.25274843  0.25688867  1
  Y3+  Y43  1  0.25251597  0.25162007  0.75770274  1
  Y3+  Y44  1  0.25119556  0.49979304  0.26093599  1
  Y3+  Y45  1  0.25308042  0.50044935  0.75513156  1
  Y3+  Y46  1  0.24768823  0.74887605  0.26424770  1
  Y3+  Y47  1  0.24848213  0.74777293  0.74969344  1
  Y3+  Y48  1  0.50035790  0.00063911  0.25678741  1
  Y3+  Y49  1  0.50085232  -0.00057437  0.75659090  1
  Y3+  Y50  1  0.49955670  0.25323418  0.25492222  1
  Y3+  Y51  1  0.49745625  0.25216692  0.75867934  1
  Y3+  Y52  1  0.49808504  0.49886468  0.25978309  1
  Y3+  Y53  1  0.49764636  0.49955497  0.75511196  1
  Y3+  Y54  1  0.49977513  0.74752862  0.26061524  1
  Y3+  Y55  1  0.50069296  0.74853736  0.75402798  1
  Y3+  Y56  1  0.75231940  0.00151230  0.25211448  1
  Y3+  Y57  1  0.75129151  -0.00047354  0.76083008  1
  Y3+  Y58  1  0.74907681  0.24842455  0.25024719  1
  Y3+  Y59  1  0.75281045  0.24936733  0.76123010  1
  Y3+  Y60  1  0.74821774  0.50022144  0.25656233  1
  Y3+  Y61  1  0.74984823  0.49910655  0.75802911  1
  Y3+  Y62  1  0.75051376  0.75003415  0.25782217  1
  Y3+  Y63  1  0.74905485  0.75167548  0.75730436  1
  Fe3+  Fe64  1  0.12529298  0.37500095  0.88024150  1
  Fe3+  Fe65  1  0.12633904  0.12326775  0.87654590  1
  Fe3+  Fe66  1  0.62625361  0.87617608  0.37750616  1
  Fe3+  Fe67  1  0.87436003  0.87641142  0.38139686  1
  Fe3+  Fe68  1  0.62439717  0.37457144  0.87598049  1
  Fe3+  Fe69  1  0.62389967  0.12467148  0.87591688  1
  Fe3+  Fe70  1  0.37410212  0.62649957  0.88068411  1
  Fe3+  Fe71  1  0.62618973  0.12655937  0.37559183  1
  Fe3+  Fe72  1  0.37197525  0.87486572  0.87365216  1
  Fe3+  Fe73  1  0.87352214  0.12622499  0.37720857  1
  Fe3+  Fe74  1  0.87397272  0.37317530  0.37698004  1
  Fe3+  Fe75  1  0.12616757  0.62684305  0.87798794  1
  Fe3+  Fe76  1  0.87402653  0.62404823  0.38052845  1
  Fe3+  Fe77  1  0.87585090  0.62669561  0.87989022  1
  Fe3+  Fe78  1  0.12589467  0.87469447  0.87362446  1
  Fe3+  Fe79  1  0.12360194  0.12676309  0.37616695  1
  Fe3+  Fe80  1  0.37635628  0.12580320  0.38106889  1
  Fe3+  Fe81  1  0.37586187  0.87537348  0.38087854  1
  Fe3+  Fe82  1  0.62397140  0.62577321  0.88053337  1
  Fe3+  Fe83  1  0.62643404  0.37391087  0.37422318  1
  Fe3+  Fe84  1  0.87552517  0.62423644  0.63465014  1
  Fe3+  Fe85  1  0.37492632  0.12417808  0.13988502  1
  Fe3+  Fe86  1  0.62481836  0.87547831  0.13780846  1
  Fe3+  Fe87  1  0.87484922  0.87465743  0.63426336  1
  Fe3+  Fe88  1  0.37520257  0.87408028  0.63251448  1
  Fe3+  Fe89  1  0.87516884  0.62616876  0.13465146  1
  Fe3+  Fe90  1  0.12551613  0.37522030  0.64099899  1
  Fe3+  Fe91  1  0.12542683  0.37392288  0.13510432  1
  Fe3+  Fe92  1  0.37467970  0.12570880  0.63399009  1
  Fe3+  Fe93  1  0.62495700  0.62552459  0.13326973  1
  Fe3+  Fe94  1  0.37498579  0.62583023  0.13630939  1
  Fe3+  Fe95  1  0.87583950  0.37555351  0.13533702  1
  Cu2+  Cu96  1  0.12392026  0.37344447  0.35999318  1
  Cu2+  Cu97  1  0.87567061  0.12361246  0.87156643  1
  Cu2+  Cu98  1  0.87743696  0.87449996  0.87048130  1
  Cu2+  Cu99  1  0.62592316  0.62340462  0.37142495  1
  Cu2+  Cu100  1  0.37466566  0.37573034  0.87368808  1
  Cu2+  Cu101  1  0.87564389  0.37577194  0.86837104  1
  Cu2+  Cu102  1  0.37576591  0.62463820  0.37110668  1
  Cu2+  Cu103  1  0.62402393  0.87500212  0.86132287  1
  Cu2+  Cu104  1  0.12418415  0.62354751  0.37184369  1
  Cu2+  Cu105  1  0.12374681  0.87666288  0.37343937  1
  Cu2+  Cu106  1  0.37420504  0.12370540  0.85998772  1
  Cu2+  Cu107  1  0.37601644  0.37404127  0.37326045  1
  Cu2+  Cu108  1  0.12547546  0.12697909  0.65200159  1
  Cu2+  Cu109  1  0.12465213  0.87492453  0.63967331  1
  Cu2+  Cu110  1  0.12524064  0.87525791  0.15886237  1
  Cu2+  Cu111  1  0.62476935  0.37486037  0.65689040  1
  Cu2+  Cu112  1  0.62541776  0.62363735  0.64609889  1
  Cu2+  Cu113  1  0.62398311  0.12433777  0.14722810  1
  Cu2+  Cu114  1  0.62508771  0.87466203  0.65164533  1
  Cu2+  Cu115  1  0.87447168  0.87410146  0.14390014  1
  Cu2+  Cu116  1  0.12438175  0.62245313  0.64229058  1
  Cu2+  Cu117  1  0.62514943  0.37561388  0.14818324  1
  Cu2+  Cu118  1  0.87534720  0.12441628  0.14054874  1
  Cu2+  Cu119  1  0.87531416  0.37540339  0.65371137  1
  Cu2+  Cu120  1  0.12599569  0.12531447  0.15065443  1
  Cu2+  Cu121  1  0.87486359  0.12473191  0.65412727  1
  Cu2+  Cu122  1  0.62406818  0.12606022  0.65616961  1
  Cu2+  Cu123  1  0.37468988  0.62430068  0.64240607  1
  Cu2+  Cu124  1  0.37439755  0.37540166  0.14263608  1
  Cu2+  Cu125  1  0.12532413  0.62442928  0.15235895  1
  Cu2+  Cu126  1  0.37531422  0.87431361  0.15757257  1
  Cu2+  Cu127  1  0.37442225  0.37551346  0.64228621  1
  O2-  O128  1  0.12738395  0.12142289  -0.00337120  1
  O2-  O129  1  0.12228882  0.12880635  0.49664436  1
  O2-  O130  1  0.12529389  0.37457695  0.00767784  1
  O2-  O131  1  0.12409484  0.37399749  0.52014870  1
  O2-  O132  1  0.12581982  0.62986206  -0.00228629  1
  O2-  O133  1  0.12361509  0.62129287  0.50650168  1
  O2-  O134  1  0.12720910  0.87514527  -0.00627978  1
  O2-  O135  1  0.12350070  0.87678585  0.50612049  1
  O2-  O136  1  0.37440156  0.12176416  0.01904479  1
  O2-  O137  1  0.37683557  0.12659626  0.50713338  1
  O2-  O138  1  0.37369989  0.37509732  0.00735711  1
  O2-  O139  1  0.37549201  0.37422879  0.50697166  1
  O2-  O140  1  0.37365849  0.62785433  0.00735982  1
  O2-  O141  1  0.37595985  0.62444386  0.50678068  1
  O2-  O142  1  0.37110541  0.87549899  -0.00607911  1
  O2-  O143  1  0.37727034  0.87484787  0.50639796  1
  O2-  O144  1  0.62262791  0.12388087  -0.00362445  1
  O2-  O145  1  0.62716890  0.12765176  0.49556637  1
  O2-  O146  1  0.62434900  0.37399595  -0.00355109  1
  O2-  O147  1  0.62773794  0.37309190  0.49451333  1
  O2-  O148  1  0.62429928  0.62695152  0.00702128  1
  O2-  O149  1  0.62637666  0.62227260  0.50719952  1
  O2-  O150  1  0.62338680  0.87550735  0.01714394  1
  O2-  O151  1  0.62699762  0.87685857  0.49782052  1
  O2-  O152  1  0.87554877  0.12326946  0.00624399  1
  O2-  O153  1  0.87266572  0.12723797  0.49694423  1
  O2-  O154  1  0.87755714  0.37719998  0.01498303  1
  O2-  O155  1  0.87270805  0.37261415  0.49690553  1
  O2-  O156  1  0.87586742  0.62741668  0.00732710  1
  O2-  O157  1  0.87381347  0.62294280  0.50738306  1
  O2-  O158  1  0.87665620  0.87424188  0.00694731  1
  O2-  O159  1  0.87313936  0.87629220  0.50718834  1
  O2-  O160  1  0.12605994  -0.00029228  0.16534100  1
  O2-  O161  1  0.12459965  0.00249264  0.66042463  1
  O2-  O162  1  0.12529538  0.25144701  0.16030741  1
  O2-  O163  1  0.12479806  0.25102152  0.67102641  1
  O2-  O164  1  0.12486005  0.49812722  0.16177182  1
  O2-  O165  1  0.12377700  0.49769745  0.67268056  1
  O2-  O166  1  0.12476611  0.75008428  0.16782213  1
  O2-  O167  1  0.12437146  0.74903163  0.66060818  1
  O2-  O168  1  0.37458341  -0.00085187  0.17023848  1
  O2-  O169  1  0.37562517  0.00009172  0.65820229  1
  O2-  O170  1  0.37512662  0.24892091  0.16550866  1
  O2-  O171  1  0.37524990  0.24755474  0.66524431  1
  O2-  O172  1  0.37488340  0.50340612  0.16259162  1
  O2-  O173  1  0.37526546  0.49995501  0.66764899  1
  O2-  O174  1  0.37541587  0.74869273  0.16509356  1
  O2-  O175  1  0.37560023  0.75214695  0.66275944  1
  O2-  O176  1  0.62424419  -0.00083137  0.16640916  1
  O2-  O177  1  0.62479023  0.00050255  0.66230170  1
  O2-  O178  1  0.62444789  0.25002633  0.15864421  1
  O2-  O179  1  0.62446984  0.25066606  0.66575733  1
  O2-  O180  1  0.62550657  0.50296851  0.16038365  1
  O2-  O181  1  0.62591430  0.49816901  0.66943197  1
  O2-  O182  1  0.62487581  0.74821690  0.16667853  1
  O2-  O183  1  0.62570407  0.75026176  0.66670667  1
  O2-  O184  1  0.87526220  -0.00048369  0.16539708  1
  O2-  O185  1  0.87458535  -0.00136943  0.66195556  1
  O2-  O186  1  0.87551886  0.25184005  0.16114791  1
  O2-  O187  1  0.87494763  0.24955777  0.66713214  1
  O2-  O188  1  0.87528398  0.50206876  0.16426882  1
  O2-  O189  1  0.87457018  0.50143770  0.66695294  1
  O2-  O190  1  0.87559813  0.74651159  0.16876759  1
  O2-  O191  1  0.87417811  0.74991473  0.66112081  1
  O2-  O192  1  0.00213241  0.12438775  0.16351232  1
  O2-  O193  1  0.00001433  0.12611382  0.66434457  1
  O2-  O194  1  0.00127797  0.37597638  0.16494535  1
  O2-  O195  1  -0.00019940  0.37452966  0.66864586  1
  O2-  O196  1  -0.00098981  0.62474007  0.16313296  1
  O2-  O197  1  -0.00352312  0.62453274  0.66511756  1
  O2-  O198  1  0.00138206  0.87430054  0.16616600  1
  O2-  O199  1  -0.00316575  0.87472861  0.66201684  1
  O2-  O200  1  0.25084515  0.12430858  0.17021732  1
  O2-  O201  1  0.25189906  0.12528352  0.66031478  1
  O2-  O202  1  0.24731145  0.37538916  0.16556276  1
  O2-  O203  1  0.24909137  0.37482494  0.66876839  1
  O2-  O204  1  0.25139088  0.62594402  0.16506045  1
  O2-  O205  1  0.24956627  0.62366645  0.66447379  1
  O2-  O206  1  0.24992764  0.87444100  0.16875991  1
  O2-  O207  1  0.25258894  0.87544208  0.65834686  1
  O2-  O208  1  0.49915982  0.12442915  0.16760080  1
  O2-  O209  1  0.49828244  0.12468279  0.66310773  1
  O2-  O210  1  0.50116979  0.37601493  0.16376726  1
  O2-  O211  1  0.50078841  0.37532726  0.66443237  1
  O2-  O212  1  0.50024948  0.62572988  0.16192887  1
  O2-  O213  1  0.50059161  0.62468994  0.66803100  1
  O2-  O214  1  0.50082980  0.87400108  0.16721108  1
  O2-  O215  1  0.49876510  0.87502200  0.66306162  1
  O2-  O216  1  0.74819265  0.12452459  0.15985528  1
  O2-  O217  1  0.74900620  0.12510623  0.66659912  1
  O2-  O218  1  0.75084250  0.37644439  0.16074688  1
  O2-  O219  1  0.75033164  0.37540566  0.66643238  1
  O2-  O220  1  0.74991493  0.62541039  0.16126608  1
  O2-  O221  1  0.75331766  0.62465244  0.66708105  1
  O2-  O222  1  0.74791301  0.87354444  0.16641568  1
  O2-  O223  1  0.75172209  0.87462315  0.66488427  1
  O2-  O224  1  0.12407878  0.00322871  0.34781892  1
  O2-  O225  1  0.12607135  -0.00060309  0.84156985  1
  O2-  O226  1  0.12522261  0.24899672  0.34243637  1
  O2-  O227  1  0.12532743  0.25080692  0.85336713  1
  O2-  O228  1  0.12402537  0.49738972  0.34676212  1
  O2-  O229  1  0.12450134  0.50009993  0.85460385  1
  O2-  O230  1  0.12433703  0.75019237  0.35189608  1
  O2-  O231  1  0.12514790  0.74948155  0.84084997  1
  O2-  O232  1  0.37613569  0.00054805  0.35310713  1
  O2-  O233  1  0.37432531  -0.00142612  0.84123050  1
  O2-  O234  1  0.37494982  0.24675374  0.34808416  1
  O2-  O235  1  0.37446346  0.24849735  0.84981191  1
  O2-  O236  1  0.37511574  0.49918525  0.34698261  1
  O2-  O237  1  0.37512303  0.50458704  0.85165615  1
  O2-  O238  1  0.37572809  0.75301421  0.34977959  1
  O2-  O239  1  0.37518380  0.74851803  0.84539316  1
  O2-  O240  1  0.62527316  0.00057469  0.34631293  1
  O2-  O241  1  0.62390528  -0.00014283  0.84597981  1
  O2-  O242  1  0.62557326  0.24953066  0.33977300  1
  O2-  O243  1  0.62438483  0.24977122  0.84700392  1
  O2-  O244  1  0.62590999  0.49746589  0.34328967  1
  O2-  O245  1  0.62546900  0.50221259  0.85192449  1
  O2-  O246  1  0.62594097  0.75221568  0.34842066  1
  O2-  O247  1  0.62477790  0.74860270  0.85081061  1
  O2-  O248  1  0.87447236  -0.00003449  0.34815663  1
  O2-  O249  1  0.87543442  -0.00104699  0.84604208  1
  O2-  O250  1  0.87462478  0.24955903  0.34082719  1
  O2-  O251  1  0.87555205  0.25089929  0.85161398  1
  O2-  O252  1  0.87518465  0.49994289  0.34767238  1
  O2-  O253  1  0.87478690  0.50356282  0.85228848  1
  O2-  O254  1  0.87389256  0.75022777  0.35413950  1
  O2-  O255  1  0.87497204  0.74684362  0.84553547  1
  O2-  O256  1  -0.00164603  0.12565613  0.34474683  1
  O2-  O257  1  0.00242757  0.12464533  0.84726926  1
  O2-  O258  1  -0.00133670  0.37483143  0.34668876  1
  O2-  O259  1  0.00224374  0.37616796  0.85161059  1
  O2-  O260  1  -0.00398167  0.62458590  0.34844710  1
  O2-  O261  1  -0.00015841  0.62491007  0.84851550  1
  O2-  O262  1  -0.00430692  0.87476192  0.34971429  1
  O2-  O263  1  0.00314433  0.87411913  0.84328179  1
  O2-  O264  1  0.25137808  0.12466909  0.35287131  1
  O2-  O265  1  0.24960922  0.12513147  0.84329747  1
  O2-  O266  1  0.24823950  0.37430228  0.34986631  1
  O2-  O267  1  0.24700622  0.37550600  0.85076157  1
  O2-  O268  1  0.24999226  0.62420230  0.34973556  1
  O2-  O269  1  0.25093883  0.62547292  0.84664772  1
  O2-  O270  1  0.25266826  0.87619787  0.35313558  1
  O2-  O271  1  0.24914739  0.87405235  0.83761580  1
  O2-  O272  1  0.49990801  0.12473392  0.34903678  1
  O2-  O273  1  0.49927469  0.12376860  0.84665162  1
  O2-  O274  1  0.50242761  0.37427289  0.34630692  1
  O2-  O275  1  0.50116844  0.37601812  0.84695330  1
  O2-  O276  1  0.50045753  0.62481264  0.34634878  1
  O2-  O277  1  0.49986462  0.62649110  0.85269350  1
  O2-  O278  1  0.49994124  0.87553837  0.34898822  1
  O2-  O279  1  0.49807689  0.87440330  0.84723247  1
  O2-  O280  1  0.75024311  0.12493095  0.34055563  1
  O2-  O281  1  0.74851755  0.12403682  0.84967141  1
  O2-  O282  1  0.75065513  0.37488020  0.34002363  1
  O2-  O283  1  0.74941999  0.37626482  0.84946949  1
  O2-  O284  1  0.75359632  0.62483186  0.34499029  1
  O2-  O285  1  0.74941524  0.62621254  0.85317049  1
  O2-  O286  1  0.75170508  0.87499478  0.34650537  1
  O2-  O287  1  0.74901690  0.87381125  0.84987105  1
