# generated using pymatgen
data_BaYFeCuO5
_symmetry_space_group_name_H-M   'P 1'
_cell_length_a   15.66335777
_cell_length_b   15.66540320
_cell_length_c   15.47129453
_cell_angle_alpha   89.99391631
_cell_angle_beta   89.99534179
_cell_angle_gamma   89.99484866
_symmetry_Int_Tables_number   1
_chemical_formula_structural   BaYFeCuO5
_chemical_formula_sum   'Ba32 Y32 Fe32 Cu32 O160'
_cell_volume   3796.23503951
_cell_formula_units_Z   32
loop_
 _symmetry_equiv_pos_site_id
 _symmetry_equiv_pos_as_xyz
  1  'x, y, z'
loop_
 _atom_type_symbol
 _atom_type_oxidation_number
  Ba2+  2.0
  Y3+  3.0
  Fe3+  3.0
  Cu2+  2.0
  O2-  -2.0
loop_
 _atom_site_type_symbol
 _atom_site_label
 _atom_site_symmetry_multiplicity
 _atom_site_fract_x
 _atom_site_fract_y
 _atom_site_fract_z
 _atom_site_occupancy
  Ba2+  Ba0  1  0.00006161  -0.01044824  0.01821549  1
  Ba2+  Ba1  1  -0.00228219  -0.00319080  0.51093940  1
  Ba2+  Ba2  1  -0.00507442  0.25549889  0.01250308  1
  Ba2+  Ba3  1  0.00390624  0.25981168  0.51053209  1
  Ba2+  Ba4  1  -0.00672640  0.50800877  0.01634284  1
  Ba2+  Ba5  1  -0.00208944  0.49890172  0.51095708  1
  Ba2+  Ba6  1  -0.00337970  0.74701057  0.02273986  1
  Ba2+  Ba7  1  -0.00780427  0.74538975  0.50960218  1
  Ba2+  Ba8  1  0.25735352  -0.00202389  0.01514778  1
  Ba2+  Ba9  1  0.25480428  0.00300272  0.52259195  1
  Ba2+  Ba10  1  0.26085978  0.24762565  0.00196131  1
  Ba2+  Ba11  1  0.24335650  0.24895797  0.51788760  1
  Ba2+  Ba12  1  0.24959717  0.50065952  0.00642673  1
  Ba2+  Ba13  1  0.24444828  0.50393938  0.51208450  1
  Ba2+  Ba14  1  0.24483017  0.75425236  0.02166068  1
  Ba2+  Ba15  1  0.25612821  0.74397417  0.51434502  1
  Ba2+  Ba16  1  0.49855963  0.00226361  0.00158114  1
  Ba2+  Ba17  1  0.49963596  -0.00281491  0.51866798  1
  Ba2+  Ba18  1  0.49905629  0.24701486  0.00034603  1
  Ba2+  Ba19  1  0.49940473  0.24094688  0.50678568  1
  Ba2+  Ba20  1  0.50852374  0.49880272  0.00782803  1
  Ba2+  Ba21  1  0.49793595  0.51098237  0.51133690  1
  Ba2+  Ba22  1  0.50827913  0.75142053  0.00535077  1
  Ba2+  Ba23  1  0.49889179  0.74988608  0.52218530  1
  Ba2+  Ba24  1  0.74447631  -0.00452068  -0.00042142  1
  Ba2+  Ba25  1  0.74692765  -0.00758545  0.50694692  1
  Ba2+  Ba26  1  0.74462709  0.25615843  0.01449607  1
  Ba2+  Ba27  1  0.75292418  0.25298065  0.50257698  1
  Ba2+  Ba28  1  0.75071728  0.50503405  0.01803996  1
  Ba2+  Ba29  1  0.75855135  0.50419839  0.51046077  1
  Ba2+  Ba30  1  0.75100703  0.74364449  0.00604557  1
  Ba2+  Ba31  1  0.75288896  0.74962899  0.51683454  1
  Y3+  Y32  1  -0.00156626  -0.00357819  0.25902816  1
  Y3+  Y33  1  -0.00036902  -0.00096989  0.75432689  1
  Y3+  Y34  1  -0.00057272  0.25413226  0.26063728  1
  Y3+  Y35  1  0.00092477  0.25215019  0.75372584  1
  Y3+  Y36  1  -0.00317412  0.50074347  0.26069044  1
  Y3+  Y37  1  -0.00169399  0.50129597  0.75279220  1
  Y3+  Y38  1  -0.00373786  0.74924762  0.25887559  1
  Y3+  Y39  1  -0.00351132  0.74693870  0.75343832  1
  Y3+  Y40  1  0.25188802  -0.00123959  0.25253612  1
  Y3+  Y41  1  0.25205385  0.00192535  0.75835762  1
  Y3+  Y42  1  0.25005742  0.25095475  0.25708076  1
  Y3+  Y43  1  0.25062434  0.24958866  0.75805891  1
  Y3+  Y44  1  0.24924893  0.50125507  0.25986784  1
  Y3+  Y45  1  0.24923429  0.50014037  0.75466595  1
  Y3+  Y46  1  0.25037715  0.74954307  0.25708264  1
  Y3+  Y47  1  0.25118428  0.74783542  0.75343536  1
  Y3+  Y48  1  0.49903189  0.00076829  0.25531825  1
  Y3+  Y49  1  0.50030654  -0.00028717  0.75999686  1
  Y3+  Y50  1  0.50013443  0.24919587  0.25704426  1
  Y3+  Y51  1  0.49823283  0.24833081  0.75960958  1
  Y3+  Y52  1  0.50131038  0.50247710  0.25752213  1
  Y3+  Y53  1  0.50053091  0.50284582  0.75804207  1
  Y3+  Y54  1  0.49974477  0.74869730  0.25585345  1
  Y3+  Y55  1  0.50308357  0.74854099  0.75768573  1
  Y3+  Y56  1  0.75007809  -0.00147338  0.26037639  1
  Y3+  Y57  1  0.74918352  -0.00325242  0.75563446  1
  Y3+  Y58  1  0.75000985  0.25238503  0.26010047  1
  Y3+  Y59  1  0.75079628  0.25087309  0.75615026  1
  Y3+  Y60  1  0.75217491  0.50143161  0.25814631  1
  Y3+  Y61  1  0.75194259  0.50428375  0.75655705  1
  Y3+  Y62  1  0.75267914  0.74824433  0.25749942  1
  Y3+  Y63  1  0.74972271  0.74745224  0.75721212  1
  Fe3+  Fe64  1  0.62612749  0.37590897  0.87451194  1
  Fe3+  Fe65  1  0.12615597  0.87493345  0.37915282  1
  Fe3+  Fe66  1  0.62355885  0.87407995  0.37748786  1
  Fe3+  Fe67  1  0.37425214  0.37576737  0.38147527  1
  Fe3+  Fe68  1  0.12356175  0.12408170  0.88001323  1
  Fe3+  Fe69  1  0.62520576  0.62668582  0.37795913  1
  Fe3+  Fe70  1  0.87499715  0.12500329  0.87962310  1
  Fe3+  Fe71  1  0.37458451  0.62519537  0.87947523  1
  Fe3+  Fe72  1  0.37445181  0.87295434  0.87603670  1
  Fe3+  Fe73  1  0.12373930  0.62617402  0.87627083  1
  Fe3+  Fe74  1  0.87531749  0.12481152  0.37942065  1
  Fe3+  Fe75  1  0.37408158  0.12391516  0.37621142  1
  Fe3+  Fe76  1  0.12574200  0.12410625  0.37599729  1
  Fe3+  Fe77  1  0.12442400  0.37575269  0.87951180  1
  Fe3+  Fe78  1  0.62386942  0.37591401  0.38071654  1
  Fe3+  Fe79  1  0.37522917  0.87470292  0.37640523  1
  Fe3+  Fe80  1  0.87591459  0.87317820  0.87569018  1
  Fe3+  Fe81  1  0.12448168  0.87342137  0.87466040  1
  Fe3+  Fe82  1  0.87501847  0.37678367  0.87655119  1
  Fe3+  Fe83  1  0.12444196  0.62570738  0.37631118  1
  Fe3+  Fe84  1  0.37588813  0.37490577  0.63576047  1
  Fe3+  Fe85  1  0.12543193  0.87363817  0.63359747  1
  Fe3+  Fe86  1  0.37627336  0.37534294  0.13801241  1
  Fe3+  Fe87  1  0.87509044  0.12510921  0.63479433  1
  Fe3+  Fe88  1  0.87395443  0.12461445  0.13544995  1
  Fe3+  Fe89  1  0.62553470  0.87477708  0.13752808  1
  Fe3+  Fe90  1  0.62564550  0.12505756  0.63849417  1
  Fe3+  Fe91  1  0.12512920  0.37620373  0.13480736  1
  Fe3+  Fe92  1  0.12460181  0.12565565  0.13351869  1
  Fe3+  Fe93  1  0.37545017  0.62497703  0.13435974  1
  Fe3+  Fe94  1  0.62523817  0.12507108  0.13882235  1
  Fe3+  Fe95  1  0.62494908  0.37565914  0.63422585  1
  Cu2+  Cu96  1  0.62633699  0.62410458  0.87246985  1
  Cu2+  Cu97  1  0.12610213  0.37568165  0.37205989  1
  Cu2+  Cu98  1  0.87423306  0.62540960  0.37167749  1
  Cu2+  Cu99  1  0.37474570  0.12390029  0.87164547  1
  Cu2+  Cu100  1  0.62678443  0.12552995  0.86237568  1
  Cu2+  Cu101  1  0.87591233  0.62481604  0.87048273  1
  Cu2+  Cu102  1  0.37536554  0.62590892  0.37187727  1
  Cu2+  Cu103  1  0.87497155  0.37588613  0.37318959  1
  Cu2+  Cu104  1  0.37495188  0.37626914  0.86239744  1
  Cu2+  Cu105  1  0.87439461  0.87433762  0.37415800  1
  Cu2+  Cu106  1  0.62559380  0.87431013  0.86219812  1
  Cu2+  Cu107  1  0.62451586  0.12435360  0.36607922  1
  Cu2+  Cu108  1  0.12468946  0.12445070  0.65193747  1
  Cu2+  Cu109  1  0.62473245  0.87450853  0.65282933  1
  Cu2+  Cu110  1  0.37681102  0.87437474  0.14798511  1
  Cu2+  Cu111  1  0.87416985  0.37471715  0.64162138  1
  Cu2+  Cu112  1  0.37587618  0.12609212  0.14136741  1
  Cu2+  Cu113  1  0.62476167  0.37517671  0.15538053  1
  Cu2+  Cu114  1  0.37572960  0.12554260  0.65420067  1
  Cu2+  Cu115  1  0.87470986  0.37488662  0.15263172  1
  Cu2+  Cu116  1  0.37535693  0.62395221  0.64382617  1
  Cu2+  Cu117  1  0.12540589  0.37571021  0.64330206  1
  Cu2+  Cu118  1  0.37513265  0.87482200  0.65315304  1
  Cu2+  Cu119  1  0.87466405  0.87498986  0.64112972  1
  Cu2+  Cu120  1  0.62521998  0.62534591  0.14248352  1
  Cu2+  Cu121  1  0.62539417  0.62446651  0.64928605  1
  Cu2+  Cu122  1  0.12452698  0.62519150  0.64859006  1
  Cu2+  Cu123  1  0.87470495  0.62473001  0.64248644  1
  Cu2+  Cu124  1  0.87290386  0.87548668  0.15204835  1
  Cu2+  Cu125  1  0.12492451  0.62443989  0.15218562  1
  Cu2+  Cu126  1  0.12446524  0.87498007  0.15402129  1
  Cu2+  Cu127  1  0.87420223  0.62533550  0.14531638  1
  O2-  O128  1  0.12329311  0.12446167  0.00629424  1
  O2-  O129  1  0.12671273  0.12330421  0.49621360  1
  O2-  O130  1  0.12447835  0.37535226  0.00694028  1
  O2-  O131  1  0.12707783  0.37505248  0.50761339  1
  O2-  O132  1  0.12482897  0.62656715  -0.00347714  1
  O2-  O133  1  0.12524509  0.62611495  0.49686177  1
  O2-  O134  1  0.12391984  0.87392541  -0.00528510  1
  O2-  O135  1  0.12710578  0.87557318  0.50511024  1
  O2-  O136  1  0.37588050  0.12502984  0.00621875  1
  O2-  O137  1  0.37354887  0.12329363  0.49651104  1
  O2-  O138  1  0.37650149  0.37536702  0.01780754  1
  O2-  O139  1  0.37423804  0.37433012  0.50836795  1
  O2-  O140  1  0.37439905  0.62513589  0.00641521  1
  O2-  O141  1  0.37531264  0.62523592  0.50747369  1
  O2-  O142  1  0.37353252  0.87290851  -0.00370065  1
  O2-  O143  1  0.37486823  0.87596151  0.49669111  1
  O2-  O144  1  0.62653839  0.12562929  0.01853586  1
  O2-  O145  1  0.62477585  0.12421657  0.51813014  1
  O2-  O146  1  0.62607367  0.37518658  -0.00488697  1
  O2-  O147  1  0.62359324  0.37502896  0.50732587  1
  O2-  O148  1  0.62511833  0.62403275  0.00681024  1
  O2-  O149  1  0.62427103  0.62744151  0.49843942  1
  O2-  O150  1  0.62550305  0.87663088  0.01684973  1
  O2-  O151  1  0.62182582  0.87399195  0.49805819  1
  O2-  O152  1  0.87442188  0.12477762  0.00734546  1
  O2-  O153  1  0.87566096  0.12506238  0.50732486  1
  O2-  O154  1  0.87424152  0.37544614  -0.00295854  1
  O2-  O155  1  0.87507386  0.37344600  0.50699082  1
  O2-  O156  1  0.87531241  0.62570521  0.00866246  1
  O2-  O157  1  0.87467215  0.62516905  0.50742758  1
  O2-  O158  1  0.87638846  0.87478179  -0.00381786  1
  O2-  O159  1  0.87486495  0.87675362  0.50735623  1
  O2-  O160  1  0.12426021  0.00172673  0.16229701  1
  O2-  O161  1  0.12567203  -0.00175645  0.66358776  1
  O2-  O162  1  0.12396913  0.25066008  0.16201173  1
  O2-  O163  1  0.12550014  0.24828255  0.66872119  1
  O2-  O164  1  0.12561900  0.49815821  0.16207979  1
  O2-  O165  1  0.12541501  0.50171648  0.66588648  1
  O2-  O166  1  0.12469144  0.75027322  0.16451393  1
  O2-  O167  1  0.12603716  0.75084360  0.65948501  1
  O2-  O168  1  0.37473377  -0.00101451  0.16168704  1
  O2-  O169  1  0.37465276  0.00043585  0.66477314  1
  O2-  O170  1  0.37472482  0.25235954  0.16934203  1
  O2-  O171  1  0.37515005  0.25141176  0.66428398  1
  O2-  O172  1  0.37408953  0.50126011  0.16672490  1
  O2-  O173  1  0.37587591  0.49678457  0.66555597  1
  O2-  O174  1  0.37496217  0.74803950  0.16167436  1
  O2-  O175  1  0.37512739  0.75041001  0.66461282  1
  O2-  O176  1  0.62593374  0.00037296  0.16882076  1
  O2-  O177  1  0.62494132  0.00033088  0.66653581  1
  O2-  O178  1  0.62564332  0.24978551  0.16961871  1
  O2-  O179  1  0.62493192  0.25090626  0.66520210  1
  O2-  O180  1  0.62505213  0.49889375  0.16617762  1
  O2-  O181  1  0.62384953  0.49825642  0.66173942  1
  O2-  O182  1  0.62452620  0.75158642  0.16431365  1
  O2-  O183  1  0.62466096  0.74991795  0.66458411  1
  O2-  O184  1  0.87517497  0.00231895  0.16554848  1
  O2-  O185  1  0.87546209  0.00307302  0.66450996  1
  O2-  O186  1  0.87561025  0.24832054  0.16459409  1
  O2-  O187  1  0.87520631  0.24676680  0.66572404  1
  O2-  O188  1  0.87460152  0.49828361  0.16640699  1
  O2-  O189  1  0.87480495  0.49992221  0.66393838  1
  O2-  O190  1  0.87512442  0.75190710  0.16574339  1
  O2-  O191  1  0.87469494  0.74976451  0.66333700  1
  O2-  O192  1  -0.00018150  0.12519144  0.16039538  1
  O2-  O193  1  -0.00156345  0.12474864  0.66388978  1
  O2-  O194  1  0.00173211  0.37457774  0.16330674  1
  O2-  O195  1  -0.00009909  0.37411579  0.66509545  1
  O2-  O196  1  0.00091038  0.62486596  0.16565525  1
  O2-  O197  1  0.00097242  0.62480602  0.66302010  1
  O2-  O198  1  -0.00126462  0.87626308  0.16562307  1
  O2-  O199  1  0.00327807  0.87572749  0.66070620  1
  O2-  O200  1  0.24670815  0.12578770  0.15945767  1
  O2-  O201  1  0.25059237  0.12549523  0.66587157  1
  O2-  O202  1  0.24873319  0.37516997  0.16465808  1
  O2-  O203  1  0.25328012  0.37436802  0.66612056  1
  O2-  O204  1  0.25136570  0.62509586  0.16192262  1
  O2-  O205  1  0.24887482  0.62389395  0.66509873  1
  O2-  O206  1  0.25055814  0.87480703  0.16214265  1
  O2-  O207  1  0.24886995  0.87495718  0.66155707  1
  O2-  O208  1  0.50190175  0.12580914  0.16733923  1
  O2-  O209  1  0.50090019  0.12491596  0.66688218  1
  O2-  O210  1  0.49951474  0.37601512  0.17041276  1
  O2-  O211  1  0.50027574  0.37407614  0.66222975  1
  O2-  O212  1  0.49718791  0.62391244  0.16329068  1
  O2-  O213  1  0.50159514  0.62465193  0.66767106  1
  O2-  O214  1  0.50110647  0.87564434  0.16517936  1
  O2-  O215  1  0.49936412  0.87508749  0.66665310  1
  O2-  O216  1  0.75136402  0.12624475  0.16852588  1
  O2-  O217  1  0.75105111  0.12498288  0.66616055  1
  O2-  O218  1  0.74980335  0.37370788  0.16649767  1
  O2-  O219  1  0.74670947  0.37399672  0.66172722  1
  O2-  O220  1  0.75001267  0.62481465  0.16656626  1
  O2-  O221  1  0.74860788  0.62486200  0.66531106  1
  O2-  O222  1  0.74904060  0.87623212  0.16850509  1
  O2-  O223  1  0.74883358  0.87553997  0.66470081  1
  O2-  O224  1  0.12499085  -0.00132693  0.34545727  1
  O2-  O225  1  0.12380197  0.00065910  0.84708649  1
  O2-  O226  1  0.12518423  0.24773471  0.34510556  1
  O2-  O227  1  0.12414213  0.25006192  0.85357956  1
  O2-  O228  1  0.12543833  0.50205819  0.34581265  1
  O2-  O229  1  0.12605291  0.49886795  0.84929295  1
  O2-  O230  1  0.12560740  0.75201324  0.34797012  1
  O2-  O231  1  0.12516555  0.74990094  0.84069287  1
  O2-  O232  1  0.37440671  -0.00020562  0.34290414  1
  O2-  O233  1  0.37496642  -0.00274338  0.84769772  1
  O2-  O234  1  0.37441504  0.25066089  0.35071287  1
  O2-  O235  1  0.37469393  0.25119771  0.84891983  1
  O2-  O236  1  0.37559938  0.49728890  0.35029892  1
  O2-  O237  1  0.37374413  0.50222365  0.84988871  1
  O2-  O238  1  0.37446040  0.75226526  0.34411455  1
  O2-  O239  1  0.37472677  0.74811029  0.84661627  1
  O2-  O240  1  0.62440605  -0.00027014  0.34890240  1
  O2-  O241  1  0.62607387  0.00072790  0.85019855  1
  O2-  O242  1  0.62467191  0.25107492  0.35361568  1
  O2-  O243  1  0.62559103  0.25080673  0.84663594  1
  O2-  O244  1  0.62343334  0.49930950  0.35007871  1
  O2-  O245  1  0.62493630  0.49822752  0.84399071  1
  O2-  O246  1  0.62466656  0.75039402  0.34396292  1
  O2-  O247  1  0.62541262  0.75011848  0.84918416  1
  O2-  O248  1  0.87542409  0.00286158  0.34972752  1
  O2-  O249  1  0.87555125  0.00088155  0.84785097  1
  O2-  O250  1  0.87514629  0.24723200  0.34962812  1
  O2-  O251  1  0.87606522  0.24942356  0.84899014  1
  O2-  O252  1  0.87478870  0.50059450  0.34989154  1
  O2-  O253  1  0.87585651  0.49866857  0.84606190  1
  O2-  O254  1  0.87459431  0.74984021  0.34901801  1
  O2-  O255  1  0.87535780  0.75089082  0.84559985  1
  O2-  O256  1  -0.00058769  0.12463559  0.34560765  1
  O2-  O257  1  -0.00038140  0.12508365  0.84892909  1
  O2-  O258  1  0.00024425  0.37456443  0.34807466  1
  O2-  O259  1  0.00127735  0.37422334  0.84795652  1
  O2-  O260  1  0.00081928  0.62591668  0.34804345  1
  O2-  O261  1  0.00162704  0.62445353  0.84475050  1
  O2-  O262  1  0.00272909  0.87587915  0.35110544  1
  O2-  O263  1  0.00013514  0.87549964  0.84112048  1
  O2-  O264  1  0.25030537  0.12463421  0.34064229  1
  O2-  O265  1  0.24571593  0.12518171  0.85043177  1
  O2-  O266  1  0.25320124  0.37491581  0.34716610  1
  O2-  O267  1  0.24792572  0.37434011  0.85146983  1
  O2-  O268  1  0.24845916  0.62550637  0.34516363  1
  O2-  O269  1  0.25052381  0.62468352  0.84772782  1
  O2-  O270  1  0.24919222  0.87559463  0.34514993  1
  O2-  O271  1  0.24937700  0.87481684  0.84279339  1
  O2-  O272  1  0.49833566  0.12575292  0.34849256  1
  O2-  O273  1  0.50214192  0.12547314  0.85055691  1
  O2-  O274  1  0.49954770  0.37381895  0.35349251  1
  O2-  O275  1  0.50032347  0.37487865  0.84612389  1
  O2-  O276  1  0.50206039  0.62515722  0.34539664  1
  O2-  O277  1  0.49727873  0.62433316  0.85183007  1
  O2-  O278  1  0.49956643  0.87548654  0.34457384  1
  O2-  O279  1  0.50023524  0.87435361  0.85049052  1
  O2-  O280  1  0.75141059  0.12528685  0.35277724  1
  O2-  O281  1  0.75301236  0.12528089  0.84961469  1
  O2-  O282  1  0.74640723  0.37455422  0.35177445  1
  O2-  O283  1  0.75117704  0.37413156  0.84281176  1
  O2-  O284  1  0.74797136  0.62432727  0.34810026  1
  O2-  O285  1  0.75121997  0.62469448  0.84880307  1
  O2-  O286  1  0.74769233  0.87625924  0.34990719  1
  O2-  O287  1  0.75071317  0.87577253  0.84818617  1
