# generated using pymatgen
data_BaYFeCuO5
_symmetry_space_group_name_H-M   'P 1'
_cell_length_a   15.64993313
_cell_length_b   15.64925363
_cell_length_c   15.44063250
_cell_angle_alpha   90.00196694
_cell_angle_beta   90.00108839
_cell_angle_gamma   90.00240626
_symmetry_Int_Tables_number   1
_chemical_formula_structural   BaYFeCuO5
_chemical_formula_sum   'Ba32 Y32 Fe32 Cu32 O160'
_cell_volume   3781.56179248
_cell_formula_units_Z   32
loop_
 _symmetry_equiv_pos_site_id
 _symmetry_equiv_pos_as_xyz
  1  'x, y, z'
loop_
 _atom_type_symbol
 _atom_type_oxidation_number
  Ba2+  2.0
  Y3+  3.0
  Fe3+  3.0
  Cu2+  2.0
  O2-  -2.0
loop_
 _atom_site_type_symbol
 _atom_site_label
 _atom_site_symmetry_multiplicity
 _atom_site_fract_x
 _atom_site_fract_y
 _atom_site_fract_z
 _atom_site_occupancy
  Ba2+  Ba0  1  0.00845707  -0.00357575  0.00945115  1
  Ba2+  Ba1  1  -0.00624960  -0.00136674  0.51844807  1
  Ba2+  Ba2  1  0.00217381  0.24641079  0.01122415  1
  Ba2+  Ba3  1  -0.00655368  0.25479035  0.50651288  1
  Ba2+  Ba4  1  -0.01069153  0.50302402  0.01076203  1
  Ba2+  Ba5  1  0.00213218  0.49082439  0.51129115  1
  Ba2+  Ba6  1  -0.00354174  0.75483382  0.01027586  1
  Ba2+  Ba7  1  0.00440285  0.75421687  0.52353869  1
  Ba2+  Ba8  1  0.24736734  0.00014462  0.01546318  1
  Ba2+  Ba9  1  0.25444412  -0.00557237  0.51561007  1
  Ba2+  Ba10  1  0.25332601  0.24161324  0.00765383  1
  Ba2+  Ba11  1  0.24561214  0.25170656  0.51171157  1
  Ba2+  Ba12  1  0.26011841  0.49994833  0.00690020  1
  Ba2+  Ba13  1  0.23763528  0.49866197  0.51181460  1
  Ba2+  Ba14  1  0.25194691  0.75770782  0.01566104  1
  Ba2+  Ba15  1  0.24719330  0.75657243  0.51615981  1
  Ba2+  Ba16  1  0.49778916  0.00052366  0.01988769  1
  Ba2+  Ba17  1  0.49653861  0.00280584  0.51124371  1
  Ba2+  Ba18  1  0.50253831  0.25108002  -0.00089283  1
  Ba2+  Ba19  1  0.50268971  0.23930470  0.51139641  1
  Ba2+  Ba20  1  0.50133042  0.49198230  0.00596237  1
  Ba2+  Ba21  1  0.50680608  0.50661671  0.50665104  1
  Ba2+  Ba22  1  0.49627524  0.75448271  0.02393659  1
  Ba2+  Ba23  1  0.49880736  0.75230327  0.50578073  1
  Ba2+  Ba24  1  0.74463711  -0.00403081  0.01278063  1
  Ba2+  Ba25  1  0.75436484  0.00822071  0.51059970  1
  Ba2+  Ba26  1  0.74257962  0.25577599  0.00723289  1
  Ba2+  Ba27  1  0.75731318  0.24407808  0.50693148  1
  Ba2+  Ba28  1  0.75177640  0.49581145  0.01357910  1
  Ba2+  Ba29  1  0.75348970  0.49827533  0.50655544  1
  Ba2+  Ba30  1  0.75526903  0.75152126  0.01694328  1
  Ba2+  Ba31  1  0.74932344  0.74854666  0.51113622  1
  Y3+  Y32  1  0.00058674  0.00102727  0.25314600  1
  Y3+  Y33  1  0.00146074  0.00007333  0.76018471  1
  Y3+  Y34  1  -0.00143036  0.25047655  0.25968794  1
  Y3+  Y35  1  -0.00035378  0.24963705  0.75558485  1
  Y3+  Y36  1  -0.00301681  0.49771008  0.25755168  1
  Y3+  Y37  1  -0.00068005  0.49957472  0.75659755  1
  Y3+  Y38  1  -0.00103209  0.75102736  0.25050034  1
  Y3+  Y39  1  0.00089504  0.75079080  0.76133063  1
  Y3+  Y40  1  0.24959739  -0.00043917  0.25441111  1
  Y3+  Y41  1  0.24910096  -0.00070810  0.75787767  1
  Y3+  Y42  1  0.24703774  0.24875999  0.25744160  1
  Y3+  Y43  1  0.24920512  0.24902858  0.75814752  1
  Y3+  Y44  1  0.24889815  0.49940086  0.25841459  1
  Y3+  Y45  1  0.24839183  0.49885251  0.75643794  1
  Y3+  Y46  1  0.25115346  0.75265579  0.25602584  1
  Y3+  Y47  1  0.24842367  0.75268159  0.75630955  1
  Y3+  Y48  1  0.49876616  -0.00036192  0.26138383  1
  Y3+  Y49  1  0.50020399  0.00225073  0.75217661  1
  Y3+  Y50  1  0.50193568  0.24867136  0.25914247  1
  Y3+  Y51  1  0.50242143  0.24898131  0.75703001  1
  Y3+  Y52  1  0.50214758  0.50097600  0.25831084  1
  Y3+  Y53  1  0.50281884  0.49901926  0.75750013  1
  Y3+  Y54  1  0.49896003  0.75091487  0.26150911  1
  Y3+  Y55  1  0.50084634  0.74975379  0.75116945  1
  Y3+  Y56  1  0.75027610  0.00148599  0.25992051  1
  Y3+  Y57  1  0.75025553  0.00266689  0.75410658  1
  Y3+  Y58  1  0.75136504  0.25050878  0.26098005  1
  Y3+  Y59  1  0.74963212  0.24934180  0.75521441  1
  Y3+  Y60  1  0.75102950  0.49880216  0.25769314  1
  Y3+  Y61  1  0.75041637  0.49997192  0.75787927  1
  Y3+  Y62  1  0.75013286  0.74924497  0.25659329  1
  Y3+  Y63  1  0.75086715  0.74774166  0.75657505  1
  Fe3+  Fe64  1  0.12537762  0.37482988  0.88037122  1
  Fe3+  Fe65  1  0.37293293  0.12490480  0.37742578  1
  Fe3+  Fe66  1  0.12341020  0.12388226  0.37979969  1
  Fe3+  Fe67  1  0.37644069  0.62644099  0.87591196  1
  Fe3+  Fe68  1  0.12385723  0.87541467  0.37499333  1
  Fe3+  Fe69  1  0.87357566  0.87560934  0.87564945  1
  Fe3+  Fe70  1  0.12304045  0.62653084  0.37583915  1
  Fe3+  Fe71  1  0.62338428  0.87506602  0.87530482  1
  Fe3+  Fe72  1  0.62522053  0.62619082  0.88026260  1
  Fe3+  Fe73  1  0.12552449  0.62523168  0.87988895  1
  Fe3+  Fe74  1  0.62575105  0.87583265  0.37886804  1
  Fe3+  Fe75  1  0.37669382  0.87517395  0.87394433  1
  Fe3+  Fe76  1  0.37608744  0.12350189  0.87491952  1
  Fe3+  Fe77  1  0.37289148  0.62518485  0.37963577  1
  Fe3+  Fe78  1  0.87663273  0.87463531  0.37583453  1
  Fe3+  Fe79  1  0.87474686  0.37446120  0.87660141  1
  Fe3+  Fe80  1  0.87402030  0.12465285  0.87996947  1
  Fe3+  Fe81  1  0.37452482  0.37500779  0.38174482  1
  Fe3+  Fe82  1  0.87675453  0.62605423  0.37892542  1
  Fe3+  Fe83  1  0.62523195  0.37422725  0.38044119  1
  Fe3+  Fe84  1  0.12482853  0.37509742  0.13470987  1
  Fe3+  Fe85  1  0.62629574  0.37468808  0.63519707  1
  Fe3+  Fe86  1  0.87411849  0.12527633  0.13474782  1
  Fe3+  Fe87  1  0.12559172  0.62422966  0.13354550  1
  Fe3+  Fe88  1  0.37537372  0.37479972  0.63504660  1
  Fe3+  Fe89  1  0.62652924  0.87555468  0.63374729  1
  Fe3+  Fe90  1  0.37397608  0.62433201  0.63424124  1
  Fe3+  Fe91  1  0.62434402  0.62470693  0.13674885  1
  Fe3+  Fe92  1  0.37613536  0.37333578  0.14022101  1
  Fe3+  Fe93  1  0.62438664  0.12584399  0.13993681  1
  Fe3+  Fe94  1  0.87626510  0.62458262  0.63590025  1
  Fe3+  Fe95  1  0.12445743  0.12484252  0.63570183  1
  Cu2+  Cu96  1  0.87490410  0.37536611  0.37200078  1
  Cu2+  Cu97  1  0.62548434  0.12385924  0.86283212  1
  Cu2+  Cu98  1  0.12452030  0.37488248  0.37098539  1
  Cu2+  Cu99  1  0.62637871  0.62571074  0.37355350  1
  Cu2+  Cu100  1  0.12630411  0.87499180  0.87245307  1
  Cu2+  Cu101  1  0.62546724  0.12437396  0.37412783  1
  Cu2+  Cu102  1  0.37323144  0.87562028  0.37312043  1
  Cu2+  Cu103  1  0.12531238  0.12489324  0.87240791  1
  Cu2+  Cu104  1  0.87670489  0.12380130  0.37068547  1
  Cu2+  Cu105  1  0.87422100  0.62520804  0.87295163  1
  Cu2+  Cu106  1  0.37519504  0.37480641  0.86020664  1
  Cu2+  Cu107  1  0.62595682  0.37528520  0.87091557  1
  Cu2+  Cu108  1  0.37388052  0.12590432  0.64941751  1
  Cu2+  Cu109  1  0.12488183  0.87486412  0.14069752  1
  Cu2+  Cu110  1  0.12467458  0.62511189  0.65236695  1
  Cu2+  Cu111  1  0.62443566  0.37417286  0.14532628  1
  Cu2+  Cu112  1  0.37534778  0.87600231  0.15541509  1
  Cu2+  Cu113  1  0.87453824  0.37343413  0.15106816  1
  Cu2+  Cu114  1  0.37576963  0.87486733  0.64067388  1
  Cu2+  Cu115  1  0.62598425  0.12536850  0.64110130  1
  Cu2+  Cu116  1  0.62469570  0.87541260  0.15519823  1
  Cu2+  Cu117  1  0.12475731  0.12595016  0.14187979  1
  Cu2+  Cu118  1  0.87635744  0.12549510  0.64589212  1
  Cu2+  Cu119  1  0.12446848  0.37381292  0.64500934  1
  Cu2+  Cu120  1  0.87410741  0.87686328  0.14971694  1
  Cu2+  Cu121  1  0.62590116  0.62450510  0.63982530  1
  Cu2+  Cu122  1  0.37551909  0.12591119  0.15333272  1
  Cu2+  Cu123  1  0.37522399  0.62416096  0.15216948  1
  Cu2+  Cu124  1  0.87442440  0.62464007  0.14160312  1
  Cu2+  Cu125  1  0.87461302  0.87465837  0.65222178  1
  Cu2+  Cu126  1  0.87482356  0.37477048  0.64293677  1
  Cu2+  Cu127  1  0.12436540  0.87614474  0.65440597  1
  O2-  O128  1  0.12598453  0.12586605  0.00718893  1
  O2-  O129  1  0.12368216  0.12366064  0.50691342  1
  O2-  O130  1  0.12653210  0.37575062  0.00754524  1
  O2-  O131  1  0.12501312  0.37390900  0.50735259  1
  O2-  O132  1  0.12714733  0.62411059  0.00635130  1
  O2-  O133  1  0.12292207  0.62710184  0.49650941  1
  O2-  O134  1  0.12660509  0.87397945  0.00634137  1
  O2-  O135  1  0.12291368  0.87523689  0.49565250  1
  O2-  O136  1  0.37683232  0.12330255  -0.00434529  1
  O2-  O137  1  0.37156623  0.12494131  0.49807939  1
  O2-  O138  1  0.37652584  0.37364172  0.01935491  1
  O2-  O139  1  0.37434057  0.37587188  0.50823663  1
  O2-  O140  1  0.37720431  0.62712257  -0.00370648  1
  O2-  O141  1  0.37195402  0.62436023  0.50670724  1
  O2-  O142  1  0.37805094  0.87523091  -0.00538971  1
  O2-  O143  1  0.37399343  0.87392312  0.50649449  1
  O2-  O144  1  0.62378881  0.12512893  0.01893471  1
  O2-  O145  1  0.62579562  0.12405510  0.50779037  1
  O2-  O146  1  0.62381596  0.37527471  0.00771605  1
  O2-  O147  1  0.62538316  0.37479109  0.50793922  1
  O2-  O148  1  0.62334144  0.62612219  0.00743048  1
  O2-  O149  1  0.62636497  0.62565438  0.50658364  1
  O2-  O150  1  0.62196083  0.87443130  -0.00424276  1
  O2-  O151  1  0.62688544  0.87555235  0.50588724  1
  O2-  O152  1  0.87281788  0.12455915  0.00714530  1
  O2-  O153  1  0.87818019  0.12429798  0.50683536  1
  O2-  O154  1  0.87420365  0.37413442  -0.00260799  1
  O2-  O155  1  0.87444982  0.37616914  0.50750818  1
  O2-  O156  1  0.87260227  0.62543188  0.00737043  1
  O2-  O157  1  0.87844344  0.62622199  0.50681414  1
  O2-  O158  1  0.87195293  0.87628787  -0.00366803  1
  O2-  O159  1  0.87726195  0.87304942  0.49623775  1
  O2-  O160  1  0.12528020  0.00025639  0.16398336  1
  O2-  O161  1  0.12456481  0.00127400  0.66358804  1
  O2-  O162  1  0.12473415  0.25361521  0.16545233  1
  O2-  O163  1  0.12577138  0.24700105  0.66630362  1
  O2-  O164  1  0.12561479  0.49929229  0.16277099  1
  O2-  O165  1  0.12486082  0.50046917  0.66734969  1
  O2-  O166  1  0.12554966  0.74695765  0.16056389  1
  O2-  O167  1  0.12516777  0.75119574  0.66463783  1
  O2-  O168  1  0.37535888  0.00082089  0.16344229  1
  O2-  O169  1  0.37511354  0.00147367  0.66159123  1
  O2-  O170  1  0.37446656  0.25049746  0.17053568  1
  O2-  O171  1  0.37459551  0.25223882  0.66320577  1
  O2-  O172  1  0.37492270  0.49856034  0.16939361  1
  O2-  O173  1  0.37467376  0.49956404  0.66348710  1
  O2-  O174  1  0.37540588  0.74995794  0.16483834  1
  O2-  O175  1  0.37424606  0.74675476  0.66070947  1
  O2-  O176  1  0.62442057  0.00052873  0.16694650  1
  O2-  O177  1  0.62570213  -0.00213063  0.66215610  1
  O2-  O178  1  0.62527295  0.24828589  0.17054443  1
  O2-  O179  1  0.62490443  0.25273519  0.66482684  1
  O2-  O180  1  0.62443979  0.50227948  0.16540964  1
  O2-  O181  1  0.62467073  0.49712280  0.66553548  1
  O2-  O182  1  0.62434162  0.74923776  0.16374782  1
  O2-  O183  1  0.62629292  0.75241382  0.66233808  1
  O2-  O184  1  0.87393117  0.00223432  0.16188744  1
  O2-  O185  1  0.87560688  -0.00123641  0.66496038  1
  O2-  O186  1  0.87458838  0.24802658  0.16448445  1
  O2-  O187  1  0.87562313  0.25002625  0.66700843  1
  O2-  O188  1  0.87403884  0.49768126  0.16667604  1
  O2-  O189  1  0.87632391  0.50263130  0.66416673  1
  O2-  O190  1  0.87409115  0.75226506  0.16299680  1
  O2-  O191  1  0.87527739  0.74823861  0.66284909  1
  O2-  O192  1  -0.00318548  0.12560710  0.16204488  1
  O2-  O193  1  0.00281104  0.12474820  0.66728689  1
  O2-  O194  1  0.00130007  0.37542072  0.16133298  1
  O2-  O195  1  0.00006250  0.37470290  0.66751085  1
  O2-  O196  1  0.00272502  0.62375506  0.16025399  1
  O2-  O197  1  -0.00051336  0.62578021  0.66668421  1
  O2-  O198  1  -0.00175612  0.87538249  0.16030762  1
  O2-  O199  1  -0.00049720  0.87453513  0.66677849  1
  O2-  O200  1  0.25138695  0.12630772  0.16430886  1
  O2-  O201  1  0.24807987  0.12524814  0.66232730  1
  O2-  O202  1  0.24875074  0.37539226  0.16645446  1
  O2-  O203  1  0.25260876  0.37543413  0.66461350  1
  O2-  O204  1  0.24869889  0.62368265  0.16289316  1
  O2-  O205  1  0.25061007  0.62375844  0.66299234  1
  O2-  O206  1  0.25185617  0.87486947  0.16384672  1
  O2-  O207  1  0.24879483  0.87504323  0.66398893  1
  O2-  O208  1  0.50026277  0.12494821  0.16955595  1
  O2-  O209  1  0.49825391  0.12608754  0.66147366  1
  O2-  O210  1  0.49869451  0.37514528  0.17285200  1
  O2-  O211  1  0.50008089  0.37545930  0.66118778  1
  O2-  O212  1  0.50146716  0.62537290  0.16809519  1
  O2-  O213  1  0.49700804  0.62402310  0.66079559  1
  O2-  O214  1  0.49943102  0.87488975  0.16922621  1
  O2-  O215  1  0.50337021  0.87432282  0.65855220  1
  O2-  O216  1  0.75070019  0.12492389  0.16689588  1
  O2-  O217  1  0.75140800  0.12547283  0.66578247  1
  O2-  O218  1  0.75080624  0.37484950  0.16712368  1
  O2-  O219  1  0.74789835  0.37578041  0.66343757  1
  O2-  O220  1  0.74677345  0.62511264  0.16557303  1
  O2-  O221  1  0.75344619  0.62440387  0.66364442  1
  O2-  O222  1  0.74946760  0.87531736  0.16554635  1
  O2-  O223  1  0.74937210  0.87468965  0.66125178  1
  O2-  O224  1  0.12447115  0.00101726  0.34653125  1
  O2-  O225  1  0.12564201  0.00015332  0.84798073  1
  O2-  O226  1  0.12474988  0.24730242  0.35041261  1
  O2-  O227  1  0.12541779  0.25322891  0.85060248  1
  O2-  O228  1  0.12469729  0.50216917  0.34605772  1
  O2-  O229  1  0.12613868  0.49961696  0.85166411  1
  O2-  O230  1  0.12463526  0.75013443  0.34179874  1
  O2-  O231  1  0.12577009  0.74704094  0.84932314  1
  O2-  O232  1  0.37347943  0.00204601  0.34692585  1
  O2-  O233  1  0.37615689  -0.00049319  0.84257108  1
  O2-  O234  1  0.37439420  0.25143300  0.35172105  1
  O2-  O235  1  0.37579610  0.24977044  0.84764314  1
  O2-  O236  1  0.37454841  0.50009701  0.35276767  1
  O2-  O237  1  0.37551115  0.50063180  0.84787439  1
  O2-  O238  1  0.37401362  0.74720920  0.34978482  1
  O2-  O239  1  0.37602469  0.74972719  0.84106767  1
  O2-  O240  1  0.62541000  -0.00252157  0.34951227  1
  O2-  O241  1  0.62534881  -0.00094707  0.84524091  1
  O2-  O242  1  0.62436779  0.25236470  0.35253456  1
  O2-  O243  1  0.62482210  0.24843510  0.84932049  1
  O2-  O244  1  0.62448821  0.49716324  0.35030400  1
  O2-  O245  1  0.62458627  0.50323590  0.85009200  1
  O2-  O246  1  0.62511451  0.75316912  0.34849380  1
  O2-  O247  1  0.62425448  0.74884610  0.84506375  1
  O2-  O248  1  0.87568001  -0.00258328  0.34479149  1
  O2-  O249  1  0.87387851  0.00131081  0.84764287  1
  O2-  O250  1  0.87562187  0.25003228  0.34907641  1
  O2-  O251  1  0.87519814  0.24879093  0.84924357  1
  O2-  O252  1  0.87530005  0.50293961  0.35110227  1
  O2-  O253  1  0.87506437  0.49808219  0.84703256  1
  O2-  O254  1  0.87548805  0.74922684  0.34549685  1
  O2-  O255  1  0.87471270  0.75181895  0.84606784  1
  O2-  O256  1  0.00289998  0.12488335  0.34598397  1
  O2-  O257  1  -0.00318447  0.12490352  0.85177434  1
  O2-  O258  1  -0.00024475  0.37529574  0.34635940  1
  O2-  O259  1  0.00132840  0.37541222  0.85025894  1
  O2-  O260  1  -0.00134181  0.62534817  0.34289774  1
  O2-  O261  1  0.00296397  0.62413593  0.85161617  1
  O2-  O262  1  0.00042858  0.87453359  0.34080564  1
  O2-  O263  1  -0.00148831  0.87539419  0.85026677  1
  O2-  O264  1  0.24738035  0.12561308  0.34755934  1
  O2-  O265  1  0.25220637  0.12578430  0.84539801  1
  O2-  O266  1  0.25287517  0.37561128  0.34987929  1
  O2-  O267  1  0.24854644  0.37567386  0.84971959  1
  O2-  O268  1  0.24998322  0.62447807  0.34692386  1
  O2-  O269  1  0.24982456  0.62402811  0.84744975  1
  O2-  O270  1  0.24711054  0.87491133  0.34617369  1
  O2-  O271  1  0.25283992  0.87434089  0.84649027  1
  O2-  O272  1  0.49768472  0.12527491  0.35167381  1
  O2-  O273  1  0.50039612  0.12525808  0.84482710  1
  O2-  O274  1  0.49924058  0.37588011  0.35529639  1
  O2-  O275  1  0.49940417  0.37535102  0.84594281  1
  O2-  O276  1  0.49671366  0.62478891  0.35324515  1
  O2-  O277  1  0.50170386  0.62469430  0.84401657  1
  O2-  O278  1  0.50177691  0.87480434  0.35390079  1
  O2-  O279  1  0.50023026  0.87443258  0.83845837  1
  O2-  O280  1  0.75078400  0.12478517  0.35006137  1
  O2-  O281  1  0.75123041  0.12518188  0.85012864  1
  O2-  O282  1  0.74742086  0.37545878  0.35130737  1
  O2-  O283  1  0.75186545  0.37464249  0.84583259  1
  O2-  O284  1  0.75389028  0.62559300  0.35029414  1
  O2-  O285  1  0.74677537  0.62547146  0.84788986  1
  O2-  O286  1  0.75015766  0.87430686  0.34900879  1
  O2-  O287  1  0.74880865  0.87464299  0.84324005  1
