# generated using pymatgen
data_BaYFeCuO5
_symmetry_space_group_name_H-M   'P 1'
_cell_length_a   15.66436003
_cell_length_b   15.66319323
_cell_length_c   15.47149009
_cell_angle_alpha   89.99583961
_cell_angle_beta   89.99582337
_cell_angle_gamma   89.99874188
_symmetry_Int_Tables_number   1
_chemical_formula_structural   BaYFeCuO5
_chemical_formula_sum   'Ba32 Y32 Fe32 Cu32 O160'
_cell_volume   3795.99037972
_cell_formula_units_Z   32
loop_
 _symmetry_equiv_pos_site_id
 _symmetry_equiv_pos_as_xyz
  1  'x, y, z'
loop_
 _atom_type_symbol
 _atom_type_oxidation_number
  Ba2+  2.0
  Y3+  3.0
  Fe3+  3.0
  Cu2+  2.0
  O2-  -2.0
loop_
 _atom_site_type_symbol
 _atom_site_label
 _atom_site_symmetry_multiplicity
 _atom_site_fract_x
 _atom_site_fract_y
 _atom_site_fract_z
 _atom_site_occupancy
  Ba2+  Ba0  1  0.00635321  -0.00658789  0.01146953  1
  Ba2+  Ba1  1  0.00341621  -0.00822289  0.51226738  1
  Ba2+  Ba2  1  0.00074089  0.26094219  0.00546910  1
  Ba2+  Ba3  1  -0.00386415  0.25211427  0.51221131  1
  Ba2+  Ba4  1  0.00044870  0.50302984  0.01896981  1
  Ba2+  Ba5  1  -0.00760439  0.50267208  0.50594803  1
  Ba2+  Ba6  1  0.00617276  0.74331533  0.02373028  1
  Ba2+  Ba7  1  0.00017949  0.75494784  0.50697730  1
  Ba2+  Ba8  1  0.25636498  -0.00415781  0.01677570  1
  Ba2+  Ba9  1  0.24791011  -0.00939241  0.51093345  1
  Ba2+  Ba10  1  0.25388606  0.24723428  0.00951301  1
  Ba2+  Ba11  1  0.25076219  0.24938797  0.51724318  1
  Ba2+  Ba12  1  0.24581689  0.50614410  0.02246329  1
  Ba2+  Ba13  1  0.25649708  0.50682434  0.51368969  1
  Ba2+  Ba14  1  0.24946126  0.74929618  0.02809605  1
  Ba2+  Ba15  1  0.25318213  0.75244658  0.50980749  1
  Ba2+  Ba16  1  0.49266993  0.00475921  0.01524218  1
  Ba2+  Ba17  1  0.50193559  -0.00698382  0.49640035  1
  Ba2+  Ba18  1  0.50374687  0.24774214  0.01180086  1
  Ba2+  Ba19  1  0.50455873  0.25471437  0.51464826  1
  Ba2+  Ba20  1  0.50594187  0.50198785  0.01628713  1
  Ba2+  Ba21  1  0.50156381  0.50513209  0.51591941  1
  Ba2+  Ba22  1  0.49377164  0.74496025  0.02337437  1
  Ba2+  Ba23  1  0.49808225  0.74680330  0.50237324  1
  Ba2+  Ba24  1  0.74478000  0.00349608  0.01175081  1
  Ba2+  Ba25  1  0.74804671  -0.00610793  0.49647789  1
  Ba2+  Ba26  1  0.74373138  0.25854938  0.00594970  1
  Ba2+  Ba27  1  0.74805677  0.25762141  0.50790719  1
  Ba2+  Ba28  1  0.74784843  0.49794905  0.01080268  1
  Ba2+  Ba29  1  0.74792159  0.50153958  0.50740114  1
  Ba2+  Ba30  1  0.75027145  0.73897254  0.01795211  1
  Ba2+  Ba31  1  0.74888788  0.74918873  0.49759207  1
  Y3+  Y32  1  0.00042992  -0.00294790  0.26049772  1
  Y3+  Y33  1  0.00161136  -0.00207928  0.75406652  1
  Y3+  Y34  1  -0.00125115  0.25188893  0.25924208  1
  Y3+  Y35  1  -0.00079073  0.25115782  0.75533701  1
  Y3+  Y36  1  -0.00186704  0.50048957  0.26030797  1
  Y3+  Y37  1  -0.00160412  0.50005543  0.75350644  1
  Y3+  Y38  1  -0.00010248  0.75045446  0.26269757  1
  Y3+  Y39  1  0.00130627  0.75109139  0.75081047  1
  Y3+  Y40  1  0.25203009  -0.00256545  0.25874631  1
  Y3+  Y41  1  0.25082889  -0.00124170  0.75471507  1
  Y3+  Y42  1  0.25071546  0.24921300  0.25437701  1
  Y3+  Y43  1  0.25179315  0.24842158  0.75788936  1
  Y3+  Y44  1  0.25006349  0.50180842  0.25891082  1
  Y3+  Y45  1  0.25210093  0.50258530  0.75134577  1
  Y3+  Y46  1  0.25147249  0.75159041  0.26346748  1
  Y3+  Y47  1  0.25069654  0.75042971  0.74770561  1
  Y3+  Y48  1  0.49891635  0.00062155  0.25704382  1
  Y3+  Y49  1  0.49733172  -0.00072782  0.75862103  1
  Y3+  Y50  1  0.50207359  0.24829230  0.25393589  1
  Y3+  Y51  1  0.49990767  0.25191894  0.76087748  1
  Y3+  Y52  1  0.50154277  0.50291881  0.25819900  1
  Y3+  Y53  1  0.50155182  0.50015358  0.75412557  1
  Y3+  Y54  1  0.49834512  0.74847353  0.26320287  1
  Y3+  Y55  1  0.49859358  0.74817108  0.75096630  1
  Y3+  Y56  1  0.74785076  0.00001919  0.25898106  1
  Y3+  Y57  1  0.75131936  -0.00137107  0.75869670  1
  Y3+  Y58  1  0.74744781  0.25109983  0.25772672  1
  Y3+  Y59  1  0.74979663  0.25497179  0.75859346  1
  Y3+  Y60  1  0.74934279  0.50141282  0.25917491  1
  Y3+  Y61  1  0.74847480  0.49783194  0.75599872  1
  Y3+  Y62  1  0.74982275  0.74733667  0.26173203  1
  Y3+  Y63  1  0.75012062  0.74888575  0.75452841  1
  Fe3+  Fe64  1  0.62382165  0.87270736  0.88257225  1
  Fe3+  Fe65  1  0.37439544  0.87237543  0.87669079  1
  Fe3+  Fe66  1  0.62363521  0.37558532  0.37520054  1
  Fe3+  Fe67  1  0.12623034  0.37804150  0.87527616  1
  Fe3+  Fe68  1  0.37532578  0.12603410  0.37930154  1
  Fe3+  Fe69  1  0.12585530  0.37458898  0.37922901  1
  Fe3+  Fe70  1  0.12644724  0.87209499  0.87612202  1
  Fe3+  Fe71  1  0.87651910  0.62482151  0.87673553  1
  Fe3+  Fe72  1  0.12548199  0.12504688  0.37817533  1
  Fe3+  Fe73  1  0.62454950  0.12449448  0.87776424  1
  Fe3+  Fe74  1  0.12551242  0.12418862  0.87873569  1
  Fe3+  Fe75  1  0.87592407  0.12530966  0.88082684  1
  Fe3+  Fe76  1  0.12597886  0.62599638  0.87292132  1
  Fe3+  Fe77  1  0.12515238  0.62495928  0.37854196  1
  Fe3+  Fe78  1  0.37371140  0.62601528  0.87562938  1
  Fe3+  Fe79  1  0.87577939  0.87267330  0.88188357  1
  Fe3+  Fe80  1  0.37478626  0.37729255  0.87910511  1
  Fe3+  Fe81  1  0.62402504  0.62579316  0.87603516  1
  Fe3+  Fe82  1  0.37542593  0.37456715  0.37659428  1
  Fe3+  Fe83  1  0.87445047  0.12523314  0.37959827  1
  Fe3+  Fe84  1  0.62398838  0.87384796  0.13680520  1
  Fe3+  Fe85  1  0.62569344  0.12403101  0.63749342  1
  Fe3+  Fe86  1  0.37523890  0.37573365  0.13481165  1
  Fe3+  Fe87  1  0.87362560  0.12424784  0.63577630  1
  Fe3+  Fe88  1  0.12531247  0.37598256  0.63408661  1
  Fe3+  Fe89  1  0.37658546  0.12396999  0.63475950  1
  Fe3+  Fe90  1  0.87429412  0.37569957  0.13993333  1
  Fe3+  Fe91  1  0.12401958  0.12489930  0.13480463  1
  Fe3+  Fe92  1  0.87385994  0.62578745  0.63615631  1
  Fe3+  Fe93  1  0.87468629  0.87410898  0.13622633  1
  Fe3+  Fe94  1  0.62530227  0.87508478  0.63815052  1
  Fe3+  Fe95  1  0.87517031  0.12551186  0.13461621  1
  Cu2+  Cu96  1  0.37469178  0.62366894  0.37208543  1
  Cu2+  Cu97  1  0.62390344  0.37686182  0.87279103  1
  Cu2+  Cu98  1  0.37442029  0.12407453  0.87334387  1
  Cu2+  Cu99  1  0.62432856  0.12591419  0.36652920  1
  Cu2+  Cu100  1  0.62440882  0.87454569  0.35986919  1
  Cu2+  Cu101  1  0.37505435  0.87533536  0.37245753  1
  Cu2+  Cu102  1  0.62455009  0.62399720  0.37288382  1
  Cu2+  Cu103  1  0.87593306  0.37648349  0.86278268  1
  Cu2+  Cu104  1  0.87411933  0.37462021  0.37385103  1
  Cu2+  Cu105  1  0.12541359  0.87551485  0.37121666  1
  Cu2+  Cu106  1  0.87484916  0.87534263  0.37254744  1
  Cu2+  Cu107  1  0.87501205  0.62472695  0.36555989  1
  Cu2+  Cu108  1  0.12476920  0.37488322  0.15198950  1
  Cu2+  Cu109  1  0.37734967  0.87595889  0.63993860  1
  Cu2+  Cu110  1  0.37543412  0.87425450  0.15541098  1
  Cu2+  Cu111  1  0.62595800  0.12436771  0.15071163  1
  Cu2+  Cu112  1  0.12474709  0.62524785  0.15948743  1
  Cu2+  Cu113  1  0.87495954  0.62515051  0.15503246  1
  Cu2+  Cu114  1  0.37562911  0.37431384  0.65001897  1
  Cu2+  Cu115  1  0.37464978  0.62443256  0.15600474  1
  Cu2+  Cu116  1  0.12412159  0.62495089  0.64173269  1
  Cu2+  Cu117  1  0.62506331  0.37572625  0.14264142  1
  Cu2+  Cu118  1  0.62475994  0.37458956  0.65175938  1
  Cu2+  Cu119  1  0.87317593  0.87535938  0.64160204  1
  Cu2+  Cu120  1  0.62634967  0.62547324  0.64074350  1
  Cu2+  Cu121  1  0.62498598  0.62568554  0.15466511  1
  Cu2+  Cu122  1  0.37645690  0.62571852  0.63974778  1
  Cu2+  Cu123  1  0.37453925  0.12533007  0.14280869  1
  Cu2+  Cu124  1  0.12546546  0.87482869  0.64174291  1
  Cu2+  Cu125  1  0.12491005  0.87509163  0.15490358  1
  Cu2+  Cu126  1  0.12512594  0.12527485  0.64867002  1
  Cu2+  Cu127  1  0.87426559  0.37519267  0.64089105  1
  O2-  O128  1  0.12439573  0.12478712  0.00632688  1
  O2-  O129  1  0.12525178  0.12616836  0.49782027  1
  O2-  O130  1  0.12526838  0.37939162  -0.00448659  1
  O2-  O131  1  0.12587097  0.37346882  0.50543655  1
  O2-  O132  1  0.12610547  0.62549109  -0.00691617  1
  O2-  O133  1  0.12426182  0.62351192  0.49873025  1
  O2-  O134  1  0.12592118  0.87130891  -0.00362483  1
  O2-  O135  1  0.12472114  0.87557271  0.50621954  1
  O2-  O136  1  0.37319421  0.12489784  0.00727755  1
  O2-  O137  1  0.37632243  0.12588472  0.50659372  1
  O2-  O138  1  0.37329150  0.37744008  0.00606847  1
  O2-  O139  1  0.37560082  0.37241029  0.49660506  1
  O2-  O140  1  0.37205235  0.62631586  -0.00438561  1
  O2-  O141  1  0.37589365  0.62446977  0.50571565  1
  O2-  O142  1  0.37329907  0.87147331  -0.00290133  1
  O2-  O143  1  0.37716822  0.87677333  0.50610041  1
  O2-  O144  1  0.62483932  0.12455104  -0.00125079  1
  O2-  O145  1  0.62601481  0.12375655  0.51754728  1
  O2-  O146  1  0.62420410  0.37688534  0.00714230  1
  O2-  O147  1  0.62321278  0.37513419  0.49628360  1
  O2-  O148  1  0.62343620  0.62638515  -0.00324935  1
  O2-  O149  1  0.62601082  0.62479207  0.50672342  1
  O2-  O150  1  0.62371215  0.87260910  0.00838510  1
  O2-  O151  1  0.62620630  0.87652537  0.51762506  1
  O2-  O152  1  0.87653894  0.12638202  0.00769400  1
  O2-  O153  1  0.87348423  0.12395213  0.50756356  1
  O2-  O154  1  0.87624399  0.37625508  0.01886981  1
  O2-  O155  1  0.87456330  0.37320985  0.50725766  1
  O2-  O156  1  0.87777253  0.62496035  -0.00285054  1
  O2-  O157  1  0.87318651  0.62611349  0.51525726  1
  O2-  O158  1  0.87679695  0.87242263  0.00793308  1
  O2-  O159  1  0.87324518  0.87689468  0.50674755  1
  O2-  O160  1  0.12354679  0.00133308  0.16103846  1
  O2-  O161  1  0.12475563  0.00144289  0.66780097  1
  O2-  O162  1  0.12351554  0.24780457  0.16224351  1
  O2-  O163  1  0.12568073  0.25177536  0.66538263  1
  O2-  O164  1  0.12440843  0.50033693  0.16562035  1
  O2-  O165  1  0.12524373  0.49825017  0.65925648  1
  O2-  O166  1  0.12474408  0.75029125  0.16617979  1
  O2-  O167  1  0.12455225  0.74894636  0.66037773  1
  O2-  O168  1  0.37498335  -0.00108730  0.16573516  1
  O2-  O169  1  0.37574104  0.00320179  0.66573424  1
  O2-  O170  1  0.37410238  0.25281007  0.16273049  1
  O2-  O171  1  0.37504968  0.24791147  0.66560575  1
  O2-  O172  1  0.37396020  0.49887419  0.16314023  1
  O2-  O173  1  0.37581066  0.49835632  0.66299747  1
  O2-  O174  1  0.37445954  0.74912991  0.16714210  1
  O2-  O175  1  0.37623570  0.75067962  0.66027158  1
  O2-  O176  1  0.62548464  -0.00220495  0.16286300  1
  O2-  O177  1  0.62573270  0.00105347  0.67303931  1
  O2-  O178  1  0.62587378  0.24837398  0.16426355  1
  O2-  O179  1  0.62519067  0.24925233  0.66661610  1
  O2-  O180  1  0.62487799  0.50229055  0.16437077  1
  O2-  O181  1  0.62503459  0.49796437  0.66273769  1
  O2-  O182  1  0.62531482  0.75150200  0.16521430  1
  O2-  O183  1  0.62587629  0.75167800  0.66679526  1
  O2-  O184  1  0.87522630  -0.00028152  0.15971067  1
  O2-  O185  1  0.87506409  0.00301965  0.66949873  1
  O2-  O186  1  0.87555976  0.24873220  0.16600175  1
  O2-  O187  1  0.87507176  0.24718781  0.66551691  1
  O2-  O188  1  0.87575533  0.50028491  0.16684508  1
  O2-  O189  1  0.87518372  0.50144545  0.66339764  1
  O2-  O190  1  0.87483175  0.75134937  0.16395838  1
  O2-  O191  1  0.87452845  0.74879912  0.66631908  1
  O2-  O192  1  -0.00087476  0.12440672  0.16390120  1
  O2-  O193  1  -0.00187584  0.12546997  0.66397494  1
  O2-  O194  1  -0.00077712  0.37447065  0.16879707  1
  O2-  O195  1  0.00290265  0.37368137  0.66235081  1
  O2-  O196  1  0.00043052  0.62517832  0.16631320  1
  O2-  O197  1  -0.00119718  0.62496789  0.66320343  1
  O2-  O198  1  -0.00216599  0.87542040  0.16476550  1
  O2-  O199  1  0.00004833  0.87614417  0.66441689  1
  O2-  O200  1  0.24615033  0.12493936  0.16422448  1
  O2-  O201  1  0.25242311  0.12561260  0.66194362  1
  O2-  O202  1  0.25072404  0.37449205  0.16277145  1
  O2-  O203  1  0.24887773  0.37406325  0.66084067  1
  O2-  O204  1  0.24926202  0.62435633  0.16592680  1
  O2-  O205  1  0.24935627  0.62455731  0.65922370  1
  O2-  O206  1  0.25020282  0.87570979  0.16591356  1
  O2-  O207  1  0.25089072  0.87639544  0.66030509  1
  O2-  O208  1  0.50121929  0.12481127  0.16521690  1
  O2-  O209  1  0.49971587  0.12589969  0.66561069  1
  O2-  O210  1  0.49757080  0.37479294  0.16075882  1
  O2-  O211  1  0.50008184  0.37334857  0.66577094  1
  O2-  O212  1  0.49963586  0.62535964  0.16467029  1
  O2-  O213  1  0.50103056  0.62445585  0.66378438  1
  O2-  O214  1  0.50116058  0.87491100  0.16300397  1
  O2-  O215  1  0.50250320  0.87656697  0.66894147  1
  O2-  O216  1  0.75301538  0.12391237  0.16434523  1
  O2-  O217  1  0.75071741  0.12512977  0.66971097  1
  O2-  O218  1  0.75142729  0.37482018  0.16715926  1
  O2-  O219  1  0.74844157  0.37402471  0.66699320  1
  O2-  O220  1  0.74992518  0.62555563  0.16506514  1
  O2-  O221  1  0.75158268  0.62449870  0.66883529  1
  O2-  O222  1  0.75016422  0.87554446  0.16066887  1
  O2-  O223  1  0.74786328  0.87638199  0.67352294  1
  O2-  O224  1  0.12490857  0.00288705  0.34452219  1
  O2-  O225  1  0.12386918  -0.00013059  0.85101520  1
  O2-  O226  1  0.12511768  0.25040651  0.34550226  1
  O2-  O227  1  0.12476428  0.24929131  0.85016881  1
  O2-  O228  1  0.12498788  0.49808227  0.34940429  1
  O2-  O229  1  0.12548247  0.50086234  0.83990320  1
  O2-  O230  1  0.12439488  0.74855728  0.34963473  1
  O2-  O231  1  0.12449435  0.75009394  0.84008530  1
  O2-  O232  1  0.37532063  0.00378058  0.34978069  1
  O2-  O233  1  0.37453229  -0.00336196  0.84774506  1
  O2-  O234  1  0.37457454  0.24881031  0.34526838  1
  O2-  O235  1  0.37380050  0.25302334  0.85079527  1
  O2-  O236  1  0.37399935  0.49701231  0.34569550  1
  O2-  O237  1  0.37421781  0.50014354  0.84563033  1
  O2-  O238  1  0.37507546  0.74991425  0.35160896  1
  O2-  O239  1  0.37495953  0.74998793  0.84033432  1
  O2-  O240  1  0.62506118  0.00019473  0.34809151  1
  O2-  O241  1  0.62671699  -0.00249286  0.85301882  1
  O2-  O242  1  0.62425043  0.25086909  0.34697758  1
  O2-  O243  1  0.62570149  0.24854793  0.84915072  1
  O2-  O244  1  0.62482551  0.49818695  0.34624254  1
  O2-  O245  1  0.62493125  0.50288319  0.84566220  1
  O2-  O246  1  0.62510391  0.75065291  0.34985530  1
  O2-  O247  1  0.62589832  0.75129951  0.84718091  1
  O2-  O248  1  0.87416275  0.00384729  0.34525150  1
  O2-  O249  1  0.87579577  -0.00066927  0.85479610  1
  O2-  O250  1  0.87507926  0.24661175  0.34883129  1
  O2-  O251  1  0.87618359  0.24856900  0.85110728  1
  O2-  O252  1  0.87510425  0.50047189  0.35003499  1
  O2-  O253  1  0.87584652  0.50099556  0.84541106  1
  O2-  O254  1  0.87469126  0.74904458  0.34874059  1
  O2-  O255  1  0.87521013  0.75135545  0.84755944  1
  O2-  O256  1  -0.00081184  0.12548854  0.34842859  1
  O2-  O257  1  0.00002522  0.12498382  0.84981272  1
  O2-  O258  1  0.00292674  0.37351443  0.35207484  1
  O2-  O259  1  0.00156943  0.37434264  0.84501149  1
  O2-  O260  1  0.00033292  0.62419825  0.34978434  1
  O2-  O261  1  0.00043843  0.62517971  0.84308591  1
  O2-  O262  1  0.00020762  0.87630961  0.34867818  1
  O2-  O263  1  -0.00086264  0.87561638  0.84790179  1
  O2-  O264  1  0.25136697  0.12628166  0.34799941  1
  O2-  O265  1  0.24625474  0.12491201  0.84661471  1
  O2-  O266  1  0.24877817  0.37327570  0.34663481  1
  O2-  O267  1  0.25098130  0.37482776  0.84403892  1
  O2-  O268  1  0.24815509  0.62397877  0.34845040  1
  O2-  O269  1  0.25014687  0.62527317  0.83953227  1
  O2-  O270  1  0.25006141  0.87642002  0.34971782  1
  O2-  O271  1  0.24951908  0.87491288  0.84185343  1
  O2-  O272  1  0.49819624  0.12537119  0.34999800  1
  O2-  O273  1  0.50203368  0.12416082  0.84723943  1
  O2-  O274  1  0.49942443  0.37394092  0.34230809  1
  O2-  O275  1  0.49654704  0.37549430  0.84970048  1
  O2-  O276  1  0.49950348  0.62429496  0.34877400  1
  O2-  O277  1  0.49923102  0.62564805  0.84471608  1
  O2-  O278  1  0.50127572  0.87607472  0.34738112  1
  O2-  O279  1  0.50118457  0.87502375  0.85002393  1
  O2-  O280  1  0.75077489  0.12476222  0.35008897  1
  O2-  O281  1  0.75209814  0.12411559  0.85222855  1
  O2-  O282  1  0.74770060  0.37372509  0.34835984  1
  O2-  O283  1  0.75169191  0.37520259  0.85136850  1
  O2-  O284  1  0.75131468  0.62495796  0.34971866  1
  O2-  O285  1  0.75043057  0.62583458  0.84942536  1
  O2-  O286  1  0.74822086  0.87582035  0.34575437  1
  O2-  O287  1  0.75071028  0.87543274  0.85624348  1
