# generated using pymatgen
data_BaYFeCuO5
_symmetry_space_group_name_H-M   'P 1'
_cell_length_a   15.67221109
_cell_length_b   15.67294342
_cell_length_c   15.49212076
_cell_angle_alpha   89.99433645
_cell_angle_beta   90.00032538
_cell_angle_gamma   89.99905161
_symmetry_Int_Tables_number   1
_chemical_formula_structural   BaYFeCuO5
_chemical_formula_sum   'Ba32 Y32 Fe32 Cu32 O160'
_cell_volume   3805.32460893
_cell_formula_units_Z   32
loop_
 _symmetry_equiv_pos_site_id
 _symmetry_equiv_pos_as_xyz
  1  'x, y, z'
loop_
 _atom_type_symbol
 _atom_type_oxidation_number
  Ba2+  2.0
  Y3+  3.0
  Fe3+  3.0
  Cu2+  2.0
  O2-  -2.0
loop_
 _atom_site_type_symbol
 _atom_site_label
 _atom_site_symmetry_multiplicity
 _atom_site_fract_x
 _atom_site_fract_y
 _atom_site_fract_z
 _atom_site_occupancy
  Ba2+  Ba0  1  0.00020116  0.00077918  0.01669165  1
  Ba2+  Ba1  1  -0.00356794  -0.00494882  0.52108446  1
  Ba2+  Ba2  1  0.00055402  0.25546218  0.01475058  1
  Ba2+  Ba3  1  -0.00495730  0.25480012  0.52183696  1
  Ba2+  Ba4  1  -0.00215112  0.49751261  0.01221747  1
  Ba2+  Ba5  1  -0.00153357  0.50269955  0.51118846  1
  Ba2+  Ba6  1  -0.00317245  0.74569780  0.01208625  1
  Ba2+  Ba7  1  -0.00065831  0.74655343  0.51152233  1
  Ba2+  Ba8  1  0.24737522  0.00669144  0.01659493  1
  Ba2+  Ba9  1  0.24866691  -0.00898976  0.51788641  1
  Ba2+  Ba10  1  0.24830949  0.25195356  0.00675628  1
  Ba2+  Ba11  1  0.24914483  0.25937551  0.51829916  1
  Ba2+  Ba12  1  0.24661736  0.49626787  0.00199346  1
  Ba2+  Ba13  1  0.24928863  0.50070908  0.51822689  1
  Ba2+  Ba14  1  0.24491758  0.74535878  0.01253473  1
  Ba2+  Ba15  1  0.24733644  0.74903262  0.51834021  1
  Ba2+  Ba16  1  0.49791346  0.00278659  0.01221473  1
  Ba2+  Ba17  1  0.50079048  0.00139381  0.50547324  1
  Ba2+  Ba18  1  0.49319336  0.25249773  0.00613006  1
  Ba2+  Ba19  1  0.50734514  0.25666038  0.50516970  1
  Ba2+  Ba20  1  0.50044291  0.50057644  -0.00486741  1
  Ba2+  Ba21  1  0.49818384  0.49339261  0.51681117  1
  Ba2+  Ba22  1  0.50498993  0.74465599  0.00144933  1
  Ba2+  Ba23  1  0.49040149  0.74872355  0.51818002  1
  Ba2+  Ba24  1  0.75416163  -0.00438764  0.01205928  1
  Ba2+  Ba25  1  0.75584218  0.00570366  0.51139056  1
  Ba2+  Ba26  1  0.75650251  0.25671619  0.01646721  1
  Ba2+  Ba27  1  0.74852986  0.25379016  0.51052964  1
  Ba2+  Ba28  1  0.75635563  0.50057533  0.00739256  1
  Ba2+  Ba29  1  0.75421860  0.49534095  0.51219926  1
  Ba2+  Ba30  1  0.75350613  0.74449203  0.00173203  1
  Ba2+  Ba31  1  0.76113849  0.74702881  0.51147960  1
  Y3+  Y32  1  0.00141694  0.00131138  0.25378267  1
  Y3+  Y33  1  -0.00229386  -0.00198289  0.75672792  1
  Y3+  Y34  1  -0.00006575  0.25172766  0.25104744  1
  Y3+  Y35  1  -0.00102467  0.25415392  0.76025293  1
  Y3+  Y36  1  -0.00070673  0.50191147  0.25426186  1
  Y3+  Y37  1  -0.00263152  0.49840509  0.76059195  1
  Y3+  Y38  1  0.00035386  0.74539904  0.25676473  1
  Y3+  Y39  1  -0.00368792  0.74918990  0.75759320  1
  Y3+  Y40  1  0.24912048  0.00206124  0.25379470  1
  Y3+  Y41  1  0.25063734  -0.00026458  0.75821556  1
  Y3+  Y42  1  0.24877819  0.24983450  0.25244767  1
  Y3+  Y43  1  0.25049144  0.25274528  0.76142362  1
  Y3+  Y44  1  0.24583458  0.50050397  0.25514417  1
  Y3+  Y45  1  0.25104442  0.49757068  0.75986036  1
  Y3+  Y46  1  0.24610721  0.74844666  0.25590867  1
  Y3+  Y47  1  0.25106179  0.74937805  0.75766821  1
  Y3+  Y48  1  0.50074573  0.00184983  0.25554779  1
  Y3+  Y49  1  0.49852728  0.00104500  0.75910562  1
  Y3+  Y50  1  0.50252336  0.25053590  0.25715308  1
  Y3+  Y51  1  0.49882239  0.25168054  0.75785642  1
  Y3+  Y52  1  0.50297937  0.49761909  0.25994788  1
  Y3+  Y53  1  0.49883869  0.49879393  0.75633922  1
  Y3+  Y54  1  0.50166141  0.75047766  0.25750604  1
  Y3+  Y55  1  0.49846692  0.74773317  0.75835763  1
  Y3+  Y56  1  0.74906124  0.00130995  0.25650492  1
  Y3+  Y57  1  0.75241158  -0.00079702  0.75689837  1
  Y3+  Y58  1  0.74898750  0.25275586  0.25713949  1
  Y3+  Y59  1  0.75163292  0.25323219  0.75609213  1
  Y3+  Y60  1  0.75210463  0.49899475  0.25772356  1
  Y3+  Y61  1  0.75282777  0.50013771  0.75845013  1
  Y3+  Y62  1  0.75184340  0.74724584  0.25762563  1
  Y3+  Y63  1  0.75417054  0.74727625  0.75846070  1
  Fe3+  Fe64  1  0.87491186  0.12537714  0.87726042  1
  Fe3+  Fe65  1  0.37415390  0.87490397  0.87981233  1
  Fe3+  Fe66  1  0.37387470  0.12593660  0.37989751  1
  Fe3+  Fe67  1  0.12408207  0.62458002  0.87640024  1
  Fe3+  Fe68  1  0.37372553  0.87461700  0.37499978  1
  Fe3+  Fe69  1  0.12433334  0.37513674  0.37648884  1
  Fe3+  Fe70  1  0.12442285  0.12596355  0.38034065  1
  Fe3+  Fe71  1  0.62599229  0.12568185  0.87996193  1
  Fe3+  Fe72  1  0.37373793  0.62466332  0.37831688  1
  Fe3+  Fe73  1  0.62591065  0.87484237  0.87673752  1
  Fe3+  Fe74  1  0.12385908  0.12505064  0.87503478  1
  Fe3+  Fe75  1  0.37366172  0.37535392  0.37672785  1
  Fe3+  Fe76  1  0.62579641  0.87472118  0.38067716  1
  Fe3+  Fe77  1  0.62510707  0.62459088  0.38307022  1
  Fe3+  Fe78  1  0.87622578  0.87539249  0.37567665  1
  Fe3+  Fe79  1  0.87644478  0.37503096  0.37514620  1
  Fe3+  Fe80  1  0.12383142  0.87497869  0.87746046  1
  Fe3+  Fe81  1  0.62626943  0.37496584  0.87729170  1
  Fe3+  Fe82  1  0.12438768  0.87502959  0.37551641  1
  Fe3+  Fe83  1  0.87653876  0.12614299  0.37537825  1
  Fe3+  Fe84  1  0.12412325  0.12537164  0.63486116  1
  Fe3+  Fe85  1  0.37585461  0.37642020  0.13769504  1
  Fe3+  Fe86  1  0.37533586  0.87383447  0.13423223  1
  Fe3+  Fe87  1  0.62554991  0.12560237  0.63819934  1
  Fe3+  Fe88  1  0.37519289  0.12588856  0.63475512  1
  Fe3+  Fe89  1  0.12426485  0.62409882  0.64075056  1
  Fe3+  Fe90  1  0.37589571  0.62358117  0.13695000  1
  Fe3+  Fe91  1  0.62524877  0.62373670  0.13924793  1
  Fe3+  Fe92  1  0.62567722  0.12622761  0.13481429  1
  Fe3+  Fe93  1  0.62544289  0.87466949  0.63498954  1
  Fe3+  Fe94  1  0.87459404  0.87353857  0.13819243  1
  Fe3+  Fe95  1  0.62536155  0.62431961  0.63636249  1
  Cu2+  Cu96  1  0.37426838  0.12463321  0.87374480  1
  Cu2+  Cu97  1  0.37556988  0.37508578  0.86332494  1
  Cu2+  Cu98  1  0.12516537  0.62440162  0.36458166  1
  Cu2+  Cu99  1  0.37408702  0.62515863  0.86530696  1
  Cu2+  Cu100  1  0.87564941  0.62426416  0.37344554  1
  Cu2+  Cu101  1  0.62594919  0.37567827  0.37300625  1
  Cu2+  Cu102  1  0.87609216  0.62411486  0.87251175  1
  Cu2+  Cu103  1  0.87535951  0.87506613  0.86435073  1
  Cu2+  Cu104  1  0.62564514  0.62428539  0.85939088  1
  Cu2+  Cu105  1  0.12398612  0.37499803  0.87275560  1
  Cu2+  Cu106  1  0.87460656  0.37478959  0.87175845  1
  Cu2+  Cu107  1  0.62551191  0.12499420  0.36379332  1
  Cu2+  Cu108  1  0.12426021  0.87442804  0.65365364  1
  Cu2+  Cu109  1  0.12559551  0.37602490  0.14049412  1
  Cu2+  Cu110  1  0.87519226  0.37548868  0.65249208  1
  Cu2+  Cu111  1  0.37456964  0.62395675  0.65367206  1
  Cu2+  Cu112  1  0.12428873  0.37527775  0.65374440  1
  Cu2+  Cu113  1  0.62542133  0.37502071  0.64312754  1
  Cu2+  Cu114  1  0.12467726  0.87440240  0.14678607  1
  Cu2+  Cu115  1  0.62474296  0.37627505  0.14777938  1
  Cu2+  Cu116  1  0.87438893  0.12522343  0.14870819  1
  Cu2+  Cu117  1  0.12483475  0.62452125  0.14806813  1
  Cu2+  Cu118  1  0.37566388  0.12654876  0.14123806  1
  Cu2+  Cu119  1  0.62534416  0.87398387  0.14989683  1
  Cu2+  Cu120  1  0.87510790  0.12591503  0.65187849  1
  Cu2+  Cu121  1  0.12461502  0.12591135  0.14935505  1
  Cu2+  Cu122  1  0.87485043  0.37625828  0.14315472  1
  Cu2+  Cu123  1  0.37476526  0.37389058  0.65326341  1
  Cu2+  Cu124  1  0.87528651  0.62375988  0.64279154  1
  Cu2+  Cu125  1  0.87391252  0.87423507  0.65192970  1
  Cu2+  Cu126  1  0.87440840  0.62463494  0.14327515  1
  Cu2+  Cu127  1  0.37597451  0.87601006  0.65384424  1
  O2-  O128  1  0.12432941  0.12397308  -0.00481563  1
  O2-  O129  1  0.12433244  0.12533337  0.50594273  1
  O2-  O130  1  0.12598329  0.37462890  0.00614419  1
  O2-  O131  1  0.12459321  0.37465267  0.49658765  1
  O2-  O132  1  0.12488757  0.62542448  -0.00280868  1
  O2-  O133  1  0.12570224  0.62478125  0.51961810  1
  O2-  O134  1  0.12544983  0.87634855  -0.00273240  1
  O2-  O135  1  0.12526591  0.87533336  0.49550206  1
  O2-  O136  1  0.37514233  0.12450311  0.00667401  1
  O2-  O137  1  0.37492249  0.12525665  0.50653542  1
  O2-  O138  1  0.37625577  0.37691194  0.01717270  1
  O2-  O139  1  0.37313328  0.37466556  0.49722342  1
  O2-  O140  1  0.37716586  0.62457497  0.01704514  1
  O2-  O141  1  0.37237143  0.62632579  0.49847972  1
  O2-  O142  1  0.37561485  0.87452959  0.00625519  1
  O2-  O143  1  0.37343550  0.87490634  0.49503564  1
  O2-  O144  1  0.62572581  0.12528051  0.00639104  1
  O2-  O145  1  0.62447373  0.12429347  0.51778932  1
  O2-  O146  1  0.62475910  0.37507664  -0.00237322  1
  O2-  O147  1  0.62561567  0.37547648  0.50826679  1
  O2-  O148  1  0.62426362  0.62443661  0.01904842  1
  O2-  O149  1  0.62387430  0.62572515  0.50935119  1
  O2-  O150  1  0.62497135  0.87500127  -0.00330645  1
  O2-  O151  1  0.62487913  0.87559352  0.50735595  1
  O2-  O152  1  0.87493097  0.12386787  -0.00283302  1
  O2-  O153  1  0.87721664  0.12537770  0.49551677  1
  O2-  O154  1  0.87474069  0.37513975  0.00732852  1
  O2-  O155  1  0.87655253  0.37396228  0.49584814  1
  O2-  O156  1  0.87508543  0.62534151  0.00760396  1
  O2-  O157  1  0.87615208  0.62446959  0.50775942  1
  O2-  O158  1  0.87348313  0.87349425  0.01729881  1
  O2-  O159  1  0.87606394  0.87652944  0.49609835  1
  O2-  O160  1  0.12606975  0.00068698  0.16397449  1
  O2-  O161  1  0.12510413  0.00102002  0.66109992  1
  O2-  O162  1  0.12506411  0.24911536  0.16419189  1
  O2-  O163  1  0.12462150  0.24880167  0.66271704  1
  O2-  O164  1  0.12549422  0.50147666  0.16516875  1
  O2-  O165  1  0.12571212  0.49945972  0.66674135  1
  O2-  O166  1  0.12465011  0.74932599  0.16452444  1
  O2-  O167  1  0.12573083  0.74995237  0.66620198  1
  O2-  O168  1  0.37509542  -0.00283646  0.16310946  1
  O2-  O169  1  0.37536182  0.00272769  0.66344430  1
  O2-  O170  1  0.37632350  0.25233690  0.16746451  1
  O2-  O171  1  0.37437847  0.24729396  0.66436961  1
  O2-  O172  1  0.37531219  0.50039871  0.17027459  1
  O2-  O173  1  0.37492087  0.49856189  0.66447413  1
  O2-  O174  1  0.37621029  0.75067391  0.16347182  1
  O2-  O175  1  0.37583731  0.75096532  0.66540931  1
  O2-  O176  1  0.62506928  0.00134638  0.16258803  1
  O2-  O177  1  0.62505181  -0.00096478  0.66519036  1
  O2-  O178  1  0.62479091  0.24942006  0.16243567  1
  O2-  O179  1  0.62509583  0.24831466  0.66722563  1
  O2-  O180  1  0.62514976  0.50048604  0.17023801  1
  O2-  O181  1  0.62420110  0.50247787  0.66324180  1
  O2-  O182  1  0.62429745  0.74891031  0.16970681  1
  O2-  O183  1  0.62337082  0.75010146  0.66150742  1
  O2-  O184  1  0.87389249  -0.00042745  0.16422526  1
  O2-  O185  1  0.87387025  -0.00059818  0.66341084  1
  O2-  O186  1  0.87487343  0.24899800  0.16267767  1
  O2-  O187  1  0.87504413  0.25198167  0.66352685  1
  O2-  O188  1  0.87429550  0.50050428  0.16570440  1
  O2-  O189  1  0.87480788  0.49773164  0.66610174  1
  O2-  O190  1  0.87489535  0.75082711  0.16796193  1
  O2-  O191  1  0.87446933  0.75069199  0.66551798  1
  O2-  O192  1  -0.00001664  0.12411005  0.16205581  1
  O2-  O193  1  0.00082879  0.12420585  0.66048913  1
  O2-  O194  1  0.00038454  0.37550798  0.16206392  1
  O2-  O195  1  -0.00147340  0.37489685  0.66493978  1
  O2-  O196  1  0.00099615  0.62507563  0.16375543  1
  O2-  O197  1  0.00102298  0.62477489  0.66621200  1
  O2-  O198  1  -0.00040951  0.87595018  0.16334807  1
  O2-  O199  1  -0.00121706  0.87532487  0.66330720  1
  O2-  O200  1  0.24878362  0.12531217  0.16594377  1
  O2-  O201  1  0.24977792  0.12419778  0.65876824  1
  O2-  O202  1  0.25180477  0.37495454  0.16453355  1
  O2-  O203  1  0.25001745  0.37382238  0.66526100  1
  O2-  O204  1  0.25101408  0.62628392  0.16413152  1
  O2-  O205  1  0.24987525  0.62539492  0.66702593  1
  O2-  O206  1  0.25146116  0.87429227  0.15984063  1
  O2-  O207  1  0.25091454  0.87572980  0.66450308  1
  O2-  O208  1  0.50371169  0.12434064  0.16603720  1
  O2-  O209  1  0.49880735  0.12435226  0.66661870  1
  O2-  O210  1  0.49985654  0.37552825  0.16864370  1
  O2-  O211  1  0.49849803  0.37392784  0.66590724  1
  O2-  O212  1  0.49986379  0.62509337  0.17240226  1
  O2-  O213  1  0.50060620  0.62528605  0.66425598  1
  O2-  O214  1  0.49862975  0.87573933  0.16560465  1
  O2-  O215  1  0.50241681  0.87602625  0.66430179  1
  O2-  O216  1  0.74782167  0.12506414  0.16355989  1
  O2-  O217  1  0.75038347  0.12458291  0.66574836  1
  O2-  O218  1  0.74879145  0.37516897  0.16578875  1
  O2-  O219  1  0.75262162  0.37505819  0.66437147  1
  O2-  O220  1  0.74833136  0.62531558  0.17008989  1
  O2-  O221  1  0.74770592  0.62544084  0.66409411  1
  O2-  O222  1  0.75039335  0.87503720  0.16924489  1
  O2-  O223  1  0.74752993  0.87445682  0.66282853  1
  O2-  O224  1  0.12534682  0.00200906  0.34691663  1
  O2-  O225  1  0.12477598  -0.00078526  0.84258113  1
  O2-  O226  1  0.12633112  0.24861307  0.34710634  1
  O2-  O227  1  0.12484683  0.24867905  0.84609070  1
  O2-  O228  1  0.12500557  0.49945039  0.34800902  1
  O2-  O229  1  0.12581665  0.50122152  0.84837933  1
  O2-  O230  1  0.12564069  0.75024215  0.34792072  1
  O2-  O231  1  0.12544046  0.75053635  0.84676940  1
  O2-  O232  1  0.37564813  0.00152320  0.34707934  1
  O2-  O233  1  0.37536598  -0.00379756  0.84721565  1
  O2-  O234  1  0.37419382  0.24841239  0.34928326  1
  O2-  O235  1  0.37561556  0.25101468  0.84832612  1
  O2-  O236  1  0.37585653  0.50018842  0.34858302  1
  O2-  O237  1  0.37567634  0.49987731  0.84963039  1
  O2-  O238  1  0.37455904  0.75045293  0.34384376  1
  O2-  O239  1  0.37550643  0.75240967  0.85028814  1
  O2-  O240  1  0.62352807  -0.00222181  0.34850547  1
  O2-  O241  1  0.62487140  0.00068902  0.84761644  1
  O2-  O242  1  0.62532438  0.24903332  0.34759595  1
  O2-  O243  1  0.62484080  0.24894745  0.84863502  1
  O2-  O244  1  0.62382483  0.50312304  0.35264002  1
  O2-  O245  1  0.62399667  0.49985891  0.84690078  1
  O2-  O246  1  0.62479326  0.75096903  0.35260694  1
  O2-  O247  1  0.62463133  0.74980355  0.84617634  1
  O2-  O248  1  0.87539030  0.00027929  0.34396091  1
  O2-  O249  1  0.87435439  0.00069811  0.84674660  1
  O2-  O250  1  0.87516570  0.24999954  0.34340884  1
  O2-  O251  1  0.87411591  0.24812215  0.84639785  1
  O2-  O252  1  0.87591560  0.49836368  0.34752101  1
  O2-  O253  1  0.87447139  0.49958637  0.84937205  1
  O2-  O254  1  0.87471866  0.75195086  0.34884927  1
  O2-  O255  1  0.87448992  0.75096681  0.84934934  1
  O2-  O256  1  0.00201205  0.12534681  0.34483173  1
  O2-  O257  1  -0.00056055  0.12426869  0.84263000  1
  O2-  O258  1  0.00079339  0.37406698  0.34275326  1
  O2-  O259  1  -0.00097526  0.37468029  0.84876356  1
  O2-  O260  1  0.00154100  0.62523506  0.34840614  1
  O2-  O261  1  0.00151847  0.62556099  0.84658079  1
  O2-  O262  1  0.00066847  0.87556549  0.34347748  1
  O2-  O263  1  0.00017607  0.87524545  0.84693571  1
  O2-  O264  1  0.24973285  0.12400612  0.35003614  1
  O2-  O265  1  0.24760038  0.12427344  0.84282252  1
  O2-  O266  1  0.24961180  0.37485375  0.34393398  1
  O2-  O267  1  0.25192045  0.37450838  0.85022309  1
  O2-  O268  1  0.25058009  0.62506788  0.34578880  1
  O2-  O269  1  0.24923914  0.62564635  0.84839201  1
  O2-  O270  1  0.24954747  0.87643494  0.34172884  1
  O2-  O271  1  0.25074593  0.87512967  0.84843648  1
  O2-  O272  1  0.49798890  0.12476270  0.35131998  1
  O2-  O273  1  0.50375971  0.12405026  0.85017642  1
  O2-  O274  1  0.49789982  0.37336400  0.34966591  1
  O2-  O275  1  0.50095409  0.37476015  0.84848622  1
  O2-  O276  1  0.50070226  0.62722522  0.35201167  1
  O2-  O277  1  0.49945392  0.62579417  0.84916397  1
  O2-  O278  1  0.50087462  0.87550488  0.34927358  1
  O2-  O279  1  0.49905650  0.87464506  0.84853909  1
  O2-  O280  1  0.75103658  0.12390315  0.34754604  1
  O2-  O281  1  0.74866363  0.12390810  0.84779051  1
  O2-  O282  1  0.75212385  0.37487025  0.34813719  1
  O2-  O283  1  0.74833610  0.37513577  0.84648181  1
  O2-  O284  1  0.74690823  0.62584653  0.35300603  1
  O2-  O285  1  0.74984931  0.62518602  0.84808280  1
  O2-  O286  1  0.74887466  0.87625607  0.35093764  1
  O2-  O287  1  0.74961176  0.87478126  0.84637205  1
