# generated using pymatgen
data_BaYFeCuO5
_symmetry_space_group_name_H-M   'P 1'
_cell_length_a   15.67255301
_cell_length_b   15.67306248
_cell_length_c   15.49003932
_cell_angle_alpha   90.00705880
_cell_angle_beta   90.00205582
_cell_angle_gamma   89.99864798
_symmetry_Int_Tables_number   1
_chemical_formula_structural   BaYFeCuO5
_chemical_formula_sum   'Ba32 Y32 Fe32 Cu32 O160'
_cell_volume   3804.92524657
_cell_formula_units_Z   32
loop_
 _symmetry_equiv_pos_site_id
 _symmetry_equiv_pos_as_xyz
  1  'x, y, z'
loop_
 _atom_type_symbol
 _atom_type_oxidation_number
  Ba2+  2.0
  Y3+  3.0
  Fe3+  3.0
  Cu2+  2.0
  O2-  -2.0
loop_
 _atom_site_type_symbol
 _atom_site_label
 _atom_site_symmetry_multiplicity
 _atom_site_fract_x
 _atom_site_fract_y
 _atom_site_fract_z
 _atom_site_occupancy
  Ba2+  Ba0  1  0.00315188  0.00420949  0.00185327  1
  Ba2+  Ba1  1  0.00188544  -0.00139828  0.50689966  1
  Ba2+  Ba2  1  0.00390570  0.24591125  0.01236180  1
  Ba2+  Ba3  1  0.00770800  0.24824909  0.50645919  1
  Ba2+  Ba4  1  -0.00020039  0.49212829  0.01756892  1
  Ba2+  Ba5  1  0.00740715  0.50221138  0.50622950  1
  Ba2+  Ba6  1  0.00014814  0.75784878  0.00645997  1
  Ba2+  Ba7  1  0.00102240  0.75085767  0.50601598  1
  Ba2+  Ba8  1  0.24683713  0.00371652  0.01120410  1
  Ba2+  Ba9  1  0.25011424  -0.00297104  0.52134483  1
  Ba2+  Ba10  1  0.24571211  0.24624088  0.01116731  1
  Ba2+  Ba11  1  0.24270046  0.24780376  0.50599570  1
  Ba2+  Ba12  1  0.25194946  0.49423708  0.01277886  1
  Ba2+  Ba13  1  0.24342932  0.50363253  0.49506833  1
  Ba2+  Ba14  1  0.25294207  0.75494217  0.01143895  1
  Ba2+  Ba15  1  0.24985331  0.75088568  0.50568975  1
  Ba2+  Ba16  1  0.49762121  0.00244763  0.01901145  1
  Ba2+  Ba17  1  0.49503272  -0.00715617  0.52157406  1
  Ba2+  Ba18  1  0.49282736  0.24337035  0.01638927  1
  Ba2+  Ba19  1  0.49304497  0.24407952  0.51124244  1
  Ba2+  Ba20  1  0.48947225  0.50180229  0.01133352  1
  Ba2+  Ba21  1  0.49789588  0.51077925  0.50593938  1
  Ba2+  Ba22  1  0.49407203  0.75297010  0.01467693  1
  Ba2+  Ba23  1  0.49995876  0.75236746  0.52025604  1
  Ba2+  Ba24  1  0.75333947  0.00396723  0.01136339  1
  Ba2+  Ba25  1  0.75475961  -0.00703129  0.51110803  1
  Ba2+  Ba26  1  0.75746863  0.24321401  0.01680346  1
  Ba2+  Ba27  1  0.75585294  0.24460265  0.51128372  1
  Ba2+  Ba28  1  0.75892706  0.49904886  0.01767422  1
  Ba2+  Ba29  1  0.75126762  0.51108409  0.51758891  1
  Ba2+  Ba30  1  0.75420560  0.75561670  0.01057377  1
  Ba2+  Ba31  1  0.74967194  0.75121581  0.51925150  1
  Y3+  Y32  1  0.00200930  0.00135598  0.25402766  1
  Y3+  Y33  1  0.00056193  0.00094987  0.76283107  1
  Y3+  Y34  1  0.00337162  0.24961338  0.25630206  1
  Y3+  Y35  1  0.00287544  0.24892482  0.75967856  1
  Y3+  Y36  1  0.00235509  0.49809161  0.25777493  1
  Y3+  Y37  1  0.00293450  0.49803796  0.75730264  1
  Y3+  Y38  1  0.00083719  0.75114972  0.25536862  1
  Y3+  Y39  1  0.00116558  0.75218916  0.76119640  1
  Y3+  Y40  1  0.24868188  0.00047399  0.25189641  1
  Y3+  Y41  1  0.24859742  0.00079938  0.76305676  1
  Y3+  Y42  1  0.24681009  0.25012838  0.25529273  1
  Y3+  Y43  1  0.24721467  0.24911704  0.76016505  1
  Y3+  Y44  1  0.24866057  0.49946567  0.25578654  1
  Y3+  Y45  1  0.24792105  0.49827837  0.76115331  1
  Y3+  Y46  1  0.25034169  0.74994791  0.25322833  1
  Y3+  Y47  1  0.24956689  0.75180492  0.76239439  1
  Y3+  Y48  1  0.49927142  -0.00042216  0.25228787  1
  Y3+  Y49  1  0.49721816  0.00031093  0.75750501  1
  Y3+  Y50  1  0.49772614  0.24817357  0.25602329  1
  Y3+  Y51  1  0.49712541  0.24815531  0.75621198  1
  Y3+  Y52  1  0.49649044  0.50128793  0.25526947  1
  Y3+  Y53  1  0.49859487  0.50159569  0.75867494  1
  Y3+  Y54  1  0.49756454  0.75070542  0.25286339  1
  Y3+  Y55  1  0.49919387  0.74986684  0.75969753  1
  Y3+  Y56  1  0.75010072  0.00034693  0.25460735  1
  Y3+  Y57  1  0.75338941  0.00044425  0.75889677  1
  Y3+  Y58  1  0.75182452  0.24781441  0.25586173  1
  Y3+  Y59  1  0.75273745  0.24786942  0.75613549  1
  Y3+  Y60  1  0.75192878  0.50016175  0.25597738  1
  Y3+  Y61  1  0.75036171  0.50126390  0.75611174  1
  Y3+  Y62  1  0.75119581  0.75213804  0.25479323  1
  Y3+  Y63  1  0.75011164  0.75042017  0.75798063  1
  Fe3+  Fe64  1  0.62511808  0.87639148  0.87770700  1
  Fe3+  Fe65  1  0.62406676  0.12339862  0.37929631  1
  Fe3+  Fe66  1  0.87503990  0.37534093  0.37950479  1
  Fe3+  Fe67  1  0.12564606  0.87578329  0.37490820  1
  Fe3+  Fe68  1  0.62536851  0.37379417  0.87981540  1
  Fe3+  Fe69  1  0.12538441  0.62401701  0.88234829  1
  Fe3+  Fe70  1  0.87521063  0.37416069  0.87539112  1
  Fe3+  Fe71  1  0.62517197  0.62442422  0.88032351  1
  Fe3+  Fe72  1  0.62473299  0.12572692  0.87577831  1
  Fe3+  Fe73  1  0.62459176  0.87458210  0.37515231  1
  Fe3+  Fe74  1  0.37489897  0.37360831  0.87659106  1
  Fe3+  Fe75  1  0.87580521  0.62431558  0.87793825  1
  Fe3+  Fe76  1  0.87506545  0.62664086  0.37550941  1
  Fe3+  Fe77  1  0.37549448  0.87643835  0.87718003  1
  Fe3+  Fe78  1  0.37506334  0.87497817  0.37367494  1
  Fe3+  Fe79  1  0.87625050  0.12341253  0.37706928  1
  Fe3+  Fe80  1  0.37468643  0.37504929  0.37889244  1
  Fe3+  Fe81  1  0.37330175  0.12230869  0.37668129  1
  Fe3+  Fe82  1  0.62474187  0.62703650  0.37360746  1
  Fe3+  Fe83  1  0.62501191  0.37531669  0.37956301  1
  Fe3+  Fe84  1  0.12423025  0.62520804  0.13572613  1
  Fe3+  Fe85  1  0.62544228  0.12340832  0.63387053  1
  Fe3+  Fe86  1  0.87701187  0.37521513  0.63374242  1
  Fe3+  Fe87  1  0.12465127  0.12387912  0.64069749  1
  Fe3+  Fe88  1  0.87744901  0.87488032  0.64091530  1
  Fe3+  Fe89  1  0.62557137  0.62534636  0.13315565  1
  Fe3+  Fe90  1  0.62396650  0.37514720  0.63237553  1
  Fe3+  Fe91  1  0.37263747  0.37575209  0.63357678  1
  Fe3+  Fe92  1  0.37243016  0.62498137  0.64016120  1
  Fe3+  Fe93  1  0.62441406  0.37412650  0.13408788  1
  Fe3+  Fe94  1  0.12542328  0.62614871  0.64087460  1
  Fe3+  Fe95  1  0.87622499  0.87671137  0.13823621  1
  Cu2+  Cu96  1  0.37455717  0.62497411  0.87500617  1
  Cu2+  Cu97  1  0.87502234  0.87516403  0.36144577  1
  Cu2+  Cu98  1  0.87438704  0.87540689  0.86503085  1
  Cu2+  Cu99  1  0.12485514  0.37448556  0.37270095  1
  Cu2+  Cu100  1  0.12445057  0.37470089  0.87482249  1
  Cu2+  Cu101  1  0.12515363  0.12579075  0.87039075  1
  Cu2+  Cu102  1  0.37481843  0.62635441  0.36044381  1
  Cu2+  Cu103  1  0.12517870  0.87540308  0.87551137  1
  Cu2+  Cu104  1  0.12484297  0.62664569  0.35835260  1
  Cu2+  Cu105  1  0.37491160  0.12533506  0.87297354  1
  Cu2+  Cu106  1  0.12591899  0.12345703  0.36214468  1
  Cu2+  Cu107  1  0.87519853  0.12603221  0.87297693  1
  Cu2+  Cu108  1  0.62530419  0.87538941  0.14470539  1
  Cu2+  Cu109  1  0.87605552  0.62553007  0.14893612  1
  Cu2+  Cu110  1  0.37428799  0.87581819  0.14847946  1
  Cu2+  Cu111  1  0.12525252  0.37439447  0.14227201  1
  Cu2+  Cu112  1  0.12620164  0.37546801  0.64203893  1
  Cu2+  Cu113  1  0.87682113  0.12453701  0.14355497  1
  Cu2+  Cu114  1  0.12480433  0.12484551  0.14554281  1
  Cu2+  Cu115  1  0.12453502  0.87554977  0.13986051  1
  Cu2+  Cu116  1  0.12506798  0.87467019  0.65610769  1
  Cu2+  Cu117  1  0.87534343  0.37379697  0.15454884  1
  Cu2+  Cu118  1  0.87649399  0.12466478  0.64965822  1
  Cu2+  Cu119  1  0.37366053  0.87385139  0.65596508  1
  Cu2+  Cu120  1  0.37459512  0.37412964  0.15297322  1
  Cu2+  Cu121  1  0.37350558  0.62476740  0.14059365  1
  Cu2+  Cu122  1  0.37313900  0.12530177  0.14221869  1
  Cu2+  Cu123  1  0.62540757  0.87546503  0.65431680  1
  Cu2+  Cu124  1  0.37357236  0.12502161  0.65081558  1
  Cu2+  Cu125  1  0.62421300  0.62506212  0.65550215  1
  Cu2+  Cu126  1  0.62501396  0.12538028  0.15117320  1
  Cu2+  Cu127  1  0.87692686  0.62540077  0.65316052  1
  O2-  O128  1  0.12471374  0.12599058  0.00795861  1
  O2-  O129  1  0.12551120  0.12258394  0.51938873  1
  O2-  O130  1  0.12433568  0.37508577  0.00859053  1
  O2-  O131  1  0.12536751  0.37587351  0.50659679  1
  O2-  O132  1  0.12387056  0.62336563  0.00866057  1
  O2-  O133  1  0.12597145  0.62731945  0.52025638  1
  O2-  O134  1  0.12458747  0.87488187  0.00749348  1
  O2-  O135  1  0.12652408  0.87449022  0.49542063  1
  O2-  O136  1  0.37522193  0.12551240  0.00682216  1
  O2-  O137  1  0.37459051  0.12070970  0.49690895  1
  O2-  O138  1  0.37739608  0.37325833  -0.00281747  1
  O2-  O139  1  0.37469080  0.37702682  0.50645284  1
  O2-  O140  1  0.37518120  0.62444003  0.00788277  1
  O2-  O141  1  0.37327663  0.62617007  0.51963727  1
  O2-  O142  1  0.37734513  0.87686517  -0.00216874  1
  O2-  O143  1  0.37531217  0.87375347  0.49405792  1
  O2-  O144  1  0.62500125  0.12768574  -0.00400803  1
  O2-  O145  1  0.62447833  0.12272627  0.50495602  1
  O2-  O146  1  0.62514893  0.37325549  0.00529945  1
  O2-  O147  1  0.62445016  0.37690475  0.50553742  1
  O2-  O148  1  0.62623306  0.62320496  0.00603903  1
  O2-  O149  1  0.62485161  0.62793195  0.49387664  1
  O2-  O150  1  0.62507979  0.87680850  -0.00223725  1
  O2-  O151  1  0.62399329  0.87287813  0.49509431  1
  O2-  O152  1  0.87496096  0.12559723  0.00714285  1
  O2-  O153  1  0.87460391  0.12268014  0.49754164  1
  O2-  O154  1  0.87299643  0.37429052  -0.00443959  1
  O2-  O155  1  0.87416264  0.37670899  0.50565341  1
  O2-  O156  1  0.87366033  0.62273920  -0.00228202  1
  O2-  O157  1  0.87370682  0.62755418  0.49572642  1
  O2-  O158  1  0.87440825  0.87693904  0.01733102  1
  O2-  O159  1  0.87692320  0.87331690  0.52002371  1
  O2-  O160  1  0.12502166  0.00095613  0.16334806  1
  O2-  O161  1  0.12491574  -0.00068144  0.66796295  1
  O2-  O162  1  0.12493681  0.24928245  0.16659752  1
  O2-  O163  1  0.12538253  0.24852106  0.66578972  1
  O2-  O164  1  0.12429614  0.50212910  0.16492757  1
  O2-  O165  1  0.12527186  0.50179208  0.66838009  1
  O2-  O166  1  0.12446999  0.74761587  0.16176630  1
  O2-  O167  1  0.12528260  0.75022367  0.67084119  1
  O2-  O168  1  0.37525216  -0.00130614  0.16228682  1
  O2-  O169  1  0.37555964  -0.00134237  0.66321894  1
  O2-  O170  1  0.37556869  0.25100016  0.16968843  1
  O2-  O171  1  0.37577955  0.25215954  0.65917726  1
  O2-  O172  1  0.37515943  0.49812187  0.16718692  1
  O2-  O173  1  0.37637430  0.49904206  0.66617371  1
  O2-  O174  1  0.37519886  0.75230302  0.16142039  1
  O2-  O175  1  0.37490176  0.74934195  0.66872308  1
  O2-  O176  1  0.62494800  0.00079674  0.16375182  1
  O2-  O177  1  0.62473073  0.00188043  0.66118068  1
  O2-  O178  1  0.62483348  0.25221950  0.16750961  1
  O2-  O179  1  0.62522261  0.24998364  0.65693054  1
  O2-  O180  1  0.62593654  0.49924619  0.16169361  1
  O2-  O181  1  0.62433723  0.49757296  0.66460469  1
  O2-  O182  1  0.62549642  0.74811025  0.15786653  1
  O2-  O183  1  0.62547917  0.75001833  0.66715960  1
  O2-  O184  1  0.87442607  -0.00067443  0.16778032  1
  O2-  O185  1  0.87526515  -0.00037392  0.66731028  1
  O2-  O186  1  0.87428279  0.25031253  0.16875830  1
  O2-  O187  1  0.87347400  0.25166744  0.65880337  1
  O2-  O188  1  0.87426077  0.49944804  0.16471762  1
  O2-  O189  1  0.87403857  0.49879566  0.66142841  1
  O2-  O190  1  0.87458931  0.75093773  0.16352679  1
  O2-  O191  1  0.87465002  0.75007547  0.66961012  1
  O2-  O192  1  0.00137546  0.12591780  0.16724871  1
  O2-  O193  1  0.00075178  0.12516226  0.66847322  1
  O2-  O194  1  -0.00146202  0.37485830  0.16796408  1
  O2-  O195  1  -0.00211994  0.37550446  0.66298220  1
  O2-  O196  1  0.00117350  0.62428207  0.16496188  1
  O2-  O197  1  0.00132053  0.62515930  0.66940766  1
  O2-  O198  1  -0.00132397  0.87490747  0.16817721  1
  O2-  O199  1  0.00038511  0.87437333  0.67004204  1
  O2-  O200  1  0.24863282  0.12570419  0.16483754  1
  O2-  O201  1  0.24948677  0.12422409  0.66863847  1
  O2-  O202  1  0.25117920  0.37528550  0.16647368  1
  O2-  O203  1  0.25283178  0.37547670  0.66604017  1
  O2-  O204  1  0.24693090  0.62440556  0.16436301  1
  O2-  O205  1  0.24996107  0.62516541  0.67359382  1
  O2-  O206  1  0.25122239  0.87486447  0.16232955  1
  O2-  O207  1  0.24936951  0.87453632  0.66693654  1
  O2-  O208  1  0.50075021  0.12595172  0.16549468  1
  O2-  O209  1  0.50092158  0.12589859  0.66023568  1
  O2-  O210  1  0.50189328  0.37511124  0.16460448  1
  O2-  O211  1  0.49989679  0.37455310  0.66031740  1
  O2-  O212  1  0.50311680  0.62378921  0.16157981  1
  O2-  O213  1  0.49861693  0.62493017  0.66710931  1
  O2-  O214  1  0.49932034  0.87523587  0.16133215  1
  O2-  O215  1  0.50013770  0.87388571  0.66268245  1
  O2-  O216  1  0.74894461  0.12585374  0.16607227  1
  O2-  O217  1  0.74886521  0.12532003  0.66074770  1
  O2-  O218  1  0.74818646  0.37458025  0.16399473  1
  O2-  O219  1  0.74919349  0.37556356  0.65936942  1
  O2-  O220  1  0.74858793  0.62392302  0.16144743  1
  O2-  O221  1  0.74986613  0.62413779  0.66328767  1
  O2-  O222  1  0.75075013  0.87533391  0.16595380  1
  O2-  O223  1  0.75089936  0.87502886  0.66559122  1
  O2-  O224  1  0.12510627  -0.00097200  0.34521352  1
  O2-  O225  1  0.12468987  0.00138093  0.85104551  1
  O2-  O226  1  0.12519159  0.24784511  0.35076012  1
  O2-  O227  1  0.12462112  0.24943021  0.84859910  1
  O2-  O228  1  0.12492320  0.50211052  0.34902422  1
  O2-  O229  1  0.12466888  0.50227812  0.85013101  1
  O2-  O230  1  0.12489867  0.75115099  0.34450495  1
  O2-  O231  1  0.12402086  0.74679154  0.85350577  1
  O2-  O232  1  0.37576197  -0.00046627  0.34243996  1
  O2-  O233  1  0.37573010  -0.00111851  0.84631771  1
  O2-  O234  1  0.37674060  0.25031915  0.35306174  1
  O2-  O235  1  0.37627991  0.25182861  0.84260865  1
  O2-  O236  1  0.37617253  0.49938479  0.35184789  1
  O2-  O237  1  0.37627070  0.49752360  0.84716051  1
  O2-  O238  1  0.37531950  0.75056317  0.34372020  1
  O2-  O239  1  0.37633811  0.75205355  0.84996824  1
  O2-  O240  1  0.62483758  0.00114329  0.34706697  1
  O2-  O241  1  0.62585048  0.00036419  0.84396682  1
  O2-  O242  1  0.62476567  0.24997562  0.35350977  1
  O2-  O243  1  0.62518959  0.25214842  0.84142639  1
  O2-  O244  1  0.62471520  0.49870822  0.34645440  1
  O2-  O245  1  0.62564169  0.49893235  0.85002337  1
  O2-  O246  1  0.62518029  0.75030753  0.33943198  1
  O2-  O247  1  0.62544342  0.74879107  0.85137666  1
  O2-  O248  1  0.87406359  0.00023757  0.34878457  1
  O2-  O249  1  0.87409103  -0.00096865  0.85037498  1
  O2-  O250  1  0.87340425  0.25071008  0.35191166  1
  O2-  O251  1  0.87405703  0.25227931  0.84179258  1
  O2-  O252  1  0.87400109  0.49910843  0.34836271  1
  O2-  O253  1  0.87361921  0.49991734  0.84295421  1
  O2-  O254  1  0.87440650  0.75012513  0.34493867  1
  O2-  O255  1  0.87427397  0.74906226  0.85173219  1
  O2-  O256  1  0.00021650  0.12483319  0.35013888  1
  O2-  O257  1  0.00104018  0.12573594  0.85075010  1
  O2-  O258  1  -0.00316868  0.37522556  0.35185709  1
  O2-  O259  1  -0.00167200  0.37551833  0.84616823  1
  O2-  O260  1  -0.00085572  0.62517145  0.34827167  1
  O2-  O261  1  0.00052638  0.62409342  0.85092106  1
  O2-  O262  1  -0.00000547  0.87463273  0.34985921  1
  O2-  O263  1  -0.00182738  0.87505308  0.85265914  1
  O2-  O264  1  0.25066680  0.12531286  0.34672034  1
  O2-  O265  1  0.24881185  0.12612447  0.85107559  1
  O2-  O266  1  0.25315456  0.37542742  0.35048223  1
  O2-  O267  1  0.25115198  0.37479404  0.84888150  1
  O2-  O268  1  0.24980275  0.62523527  0.34890015  1
  O2-  O269  1  0.24736093  0.62449771  0.85373352  1
  O2-  O270  1  0.25047801  0.87408561  0.34352936  1
  O2-  O271  1  0.25150597  0.87490838  0.84994470  1
  O2-  O272  1  0.50094083  0.12563473  0.34784583  1
  O2-  O273  1  0.50246281  0.12602461  0.84256420  1
  O2-  O274  1  0.50034147  0.37527914  0.35013203  1
  O2-  O275  1  0.50253952  0.37501993  0.84468782  1
  O2-  O276  1  0.50098657  0.62421378  0.34401582  1
  O2-  O277  1  0.50361920  0.62355281  0.85018674  1
  O2-  O278  1  0.50020548  0.87474105  0.34220724  1
  O2-  O279  1  0.50118325  0.87541704  0.84433743  1
  O2-  O280  1  0.74817093  0.12550433  0.34905790  1
  O2-  O281  1  0.74789505  0.12633449  0.84367751  1
  O2-  O282  1  0.74940234  0.37494794  0.34914628  1
  O2-  O283  1  0.74792561  0.37508982  0.84356916  1
  O2-  O284  1  0.74973129  0.62436513  0.34214991  1
  O2-  O285  1  0.74870711  0.62408496  0.84714042  1
  O2-  O286  1  0.74939889  0.87531970  0.34776372  1
  O2-  O287  1  0.74914422  0.87455980  0.84726512  1
