# generated using pymatgen
data_BaYFeCuO5
_symmetry_space_group_name_H-M   'P 1'
_cell_length_a   15.67227662
_cell_length_b   15.66791085
_cell_length_c   15.47754300
_cell_angle_alpha   90.00736356
_cell_angle_beta   90.00017352
_cell_angle_gamma   89.99468616
_symmetry_Int_Tables_number   1
_chemical_formula_structural   BaYFeCuO5
_chemical_formula_sum   'Ba32 Y32 Fe32 Cu32 O160'
_cell_volume   3800.53900634
_cell_formula_units_Z   32
loop_
 _symmetry_equiv_pos_site_id
 _symmetry_equiv_pos_as_xyz
  1  'x, y, z'
loop_
 _atom_type_symbol
 _atom_type_oxidation_number
  Ba2+  2.0
  Y3+  3.0
  Fe3+  3.0
  Cu2+  2.0
  O2-  -2.0
loop_
 _atom_site_type_symbol
 _atom_site_label
 _atom_site_symmetry_multiplicity
 _atom_site_fract_x
 _atom_site_fract_y
 _atom_site_fract_z
 _atom_site_occupancy
  Ba2+  Ba0  1  -0.00408771  -0.00405847  0.01116494  1
  Ba2+  Ba1  1  0.01022887  -0.00301306  0.51004133  1
  Ba2+  Ba2  1  -0.00922457  0.24785017  0.01922656  1
  Ba2+  Ba3  1  0.00733167  0.25658768  0.50540087  1
  Ba2+  Ba4  1  0.00054168  0.50119852  0.01546520  1
  Ba2+  Ba5  1  0.00063158  0.49639972  0.51604927  1
  Ba2+  Ba6  1  0.00533856  0.75502611  0.01212219  1
  Ba2+  Ba7  1  0.00230828  0.74996257  0.52087930  1
  Ba2+  Ba8  1  0.25447285  -0.00510331  0.01330393  1
  Ba2+  Ba9  1  0.25069156  -0.00017203  0.50656789  1
  Ba2+  Ba10  1  0.25405567  0.24431993  0.01256243  1
  Ba2+  Ba11  1  0.24682570  0.24696594  0.51112740  1
  Ba2+  Ba12  1  0.24936126  0.50979965  0.01729377  1
  Ba2+  Ba13  1  0.24720153  0.49783144  0.51201293  1
  Ba2+  Ba14  1  0.24942637  0.75114683  0.01978726  1
  Ba2+  Ba15  1  0.25065480  0.75517532  0.50639409  1
  Ba2+  Ba16  1  0.50060327  -0.00097170  0.00631822  1
  Ba2+  Ba17  1  0.49274298  -0.00627658  0.50766414  1
  Ba2+  Ba18  1  0.50101988  0.23849573  0.01871802  1
  Ba2+  Ba19  1  0.49214174  0.25211968  0.51600730  1
  Ba2+  Ba20  1  0.49575542  0.50533825  0.01157295  1
  Ba2+  Ba21  1  0.50232581  0.50353464  0.51243986  1
  Ba2+  Ba22  1  0.49528715  0.75731857  -0.00094388  1
  Ba2+  Ba23  1  0.50158769  0.75194137  0.50206144  1
  Ba2+  Ba24  1  0.74900502  0.00066202  0.00721350  1
  Ba2+  Ba25  1  0.74804470  -0.01082362  0.51148328  1
  Ba2+  Ba26  1  0.75360991  0.24235857  0.02443915  1
  Ba2+  Ba27  1  0.75270816  0.26130686  0.51032428  1
  Ba2+  Ba28  1  0.75428190  0.49527480  0.01157605  1
  Ba2+  Ba29  1  0.75051022  0.50207095  0.51742462  1
  Ba2+  Ba30  1  0.75015082  0.76111026  -0.00513983  1
  Ba2+  Ba31  1  0.74483708  0.74734886  0.51652647  1
  Y3+  Y32  1  0.00323140  -0.00014577  0.26081827  1
  Y3+  Y33  1  0.00145957  -0.00163912  0.75266972  1
  Y3+  Y34  1  -0.00003741  0.25111401  0.26240499  1
  Y3+  Y35  1  0.00160661  0.25096315  0.75107613  1
  Y3+  Y36  1  -0.00010596  0.49799301  0.25920318  1
  Y3+  Y37  1  0.00046179  0.49961211  0.75328615  1
  Y3+  Y38  1  0.00312853  0.75061144  0.25760022  1
  Y3+  Y39  1  0.00006469  0.75154560  0.75484727  1
  Y3+  Y40  1  0.24995038  -0.00093671  0.26482827  1
  Y3+  Y41  1  0.25044355  -0.00050862  0.75012170  1
  Y3+  Y42  1  0.24914368  0.24704884  0.26203532  1
  Y3+  Y43  1  0.24948762  0.24917502  0.75168649  1
  Y3+  Y44  1  0.24972519  0.50288449  0.25832075  1
  Y3+  Y45  1  0.24844844  0.49888533  0.75488252  1
  Y3+  Y46  1  0.25073154  0.75032152  0.26142548  1
  Y3+  Y47  1  0.24928452  0.75280878  0.75311388  1
  Y3+  Y48  1  0.49818791  -0.00047736  0.26342304  1
  Y3+  Y49  1  0.49819783  -0.00265936  0.75276650  1
  Y3+  Y50  1  0.49865017  0.24586802  0.25918065  1
  Y3+  Y51  1  0.49818945  0.24982585  0.75357094  1
  Y3+  Y52  1  0.49923165  0.50408205  0.25853730  1
  Y3+  Y53  1  0.50062138  0.50007358  0.75611119  1
  Y3+  Y54  1  0.49941553  0.74960988  0.26399060  1
  Y3+  Y55  1  0.50055346  0.75340750  0.75287650  1
  Y3+  Y56  1  0.74880732  0.00024825  0.26060919  1
  Y3+  Y57  1  0.74994069  -0.00442550  0.75521515  1
  Y3+  Y58  1  0.75274546  0.24996818  0.25995098  1
  Y3+  Y59  1  0.75047472  0.25206255  0.75230294  1
  Y3+  Y60  1  0.75119739  0.49990011  0.25949908  1
  Y3+  Y61  1  0.75036841  0.50069379  0.75398963  1
  Y3+  Y62  1  0.74697190  0.74988364  0.26283111  1
  Y3+  Y63  1  0.74960662  0.75160622  0.75324625  1
  Fe3+  Fe64  1  0.12627831  0.87602167  0.87580038  1
  Fe3+  Fe65  1  0.37480618  0.37455253  0.88029524  1
  Fe3+  Fe66  1  0.37353597  0.62660912  0.87615134  1
  Fe3+  Fe67  1  0.87522984  0.12498326  0.87275839  1
  Fe3+  Fe68  1  0.62500053  0.37331161  0.88018937  1
  Fe3+  Fe69  1  0.62410392  0.37569899  0.37538997  1
  Fe3+  Fe70  1  0.12504084  0.62545681  0.87604345  1
  Fe3+  Fe71  1  0.37461104  0.37585066  0.37516595  1
  Fe3+  Fe72  1  0.62497120  0.12537722  0.38138186  1
  Fe3+  Fe73  1  0.62565563  0.12503181  0.87296236  1
  Fe3+  Fe74  1  0.87570678  0.62575430  0.87865397  1
  Fe3+  Fe75  1  0.37454535  0.12375895  0.87438979  1
  Fe3+  Fe76  1  0.12437302  0.62453631  0.37746519  1
  Fe3+  Fe77  1  0.87595229  0.87326377  0.37946378  1
  Fe3+  Fe78  1  0.12442491  0.12496052  0.87924412  1
  Fe3+  Fe79  1  0.87515509  0.37380517  0.87598843  1
  Fe3+  Fe80  1  0.87567401  0.62512453  0.37828225  1
  Fe3+  Fe81  1  0.87560054  0.12449615  0.38104676  1
  Fe3+  Fe82  1  0.62511995  0.62557646  0.87957432  1
  Fe3+  Fe83  1  0.12489116  0.37408727  0.88070526  1
  Fe3+  Fe84  1  0.37502373  0.37461318  0.13504179  1
  Fe3+  Fe85  1  0.37569215  0.87506915  0.14287859  1
  Fe3+  Fe86  1  0.12503257  0.12348846  0.13599423  1
  Fe3+  Fe87  1  0.87553473  0.12476307  0.63253059  1
  Fe3+  Fe88  1  0.62548682  0.62746786  0.13380213  1
  Fe3+  Fe89  1  0.62470227  0.37444481  0.13478253  1
  Fe3+  Fe90  1  0.87433784  0.87497588  0.13991616  1
  Fe3+  Fe91  1  0.12527711  0.37431548  0.13518703  1
  Fe3+  Fe92  1  0.62504930  0.12484179  0.63308209  1
  Fe3+  Fe93  1  0.62442070  0.87521047  0.14066029  1
  Fe3+  Fe94  1  0.37465595  0.62552643  0.63684892  1
  Fe3+  Fe95  1  0.87429550  0.62689262  0.13406404  1
  Cu2+  Cu96  1  0.87523313  0.37651987  0.37334705  1
  Cu2+  Cu97  1  0.62412794  0.87570737  0.85981064  1
  Cu2+  Cu98  1  0.37473037  0.12534704  0.37532292  1
  Cu2+  Cu99  1  0.62550904  0.62379437  0.37376241  1
  Cu2+  Cu100  1  0.37360991  0.87553364  0.85953976  1
  Cu2+  Cu101  1  0.12472137  0.12510902  0.37253404  1
  Cu2+  Cu102  1  0.12445468  0.87357195  0.37279534  1
  Cu2+  Cu103  1  0.87655640  0.87551052  0.86001168  1
  Cu2+  Cu104  1  0.62539682  0.87495173  0.37481877  1
  Cu2+  Cu105  1  0.37453325  0.87422432  0.37195454  1
  Cu2+  Cu106  1  0.37453492  0.62429012  0.36858243  1
  Cu2+  Cu107  1  0.12624732  0.37631733  0.36928348  1
  Cu2+  Cu108  1  0.87618663  0.12307998  0.15809480  1
  Cu2+  Cu109  1  0.12418759  0.62525759  0.15187463  1
  Cu2+  Cu110  1  0.87504856  0.37534883  0.15257765  1
  Cu2+  Cu111  1  0.62376076  0.62524086  0.64416964  1
  Cu2+  Cu112  1  0.87568719  0.37527613  0.64152942  1
  Cu2+  Cu113  1  0.87537037  0.87500402  0.64671182  1
  Cu2+  Cu114  1  0.37467290  0.37612899  0.65122542  1
  Cu2+  Cu115  1  0.37403196  0.12347674  0.15510348  1
  Cu2+  Cu116  1  0.37453186  0.87427219  0.64166012  1
  Cu2+  Cu117  1  0.62497137  0.12356936  0.15689484  1
  Cu2+  Cu118  1  0.62417143  0.37523421  0.65103937  1
  Cu2+  Cu119  1  0.62406632  0.87498867  0.64224971  1
  Cu2+  Cu120  1  0.37469996  0.12465609  0.64064994  1
  Cu2+  Cu121  1  0.87539858  0.62538590  0.65055545  1
  Cu2+  Cu122  1  0.12563852  0.87560360  0.15372752  1
  Cu2+  Cu123  1  0.12488612  0.12488048  0.64141752  1
  Cu2+  Cu124  1  0.12580328  0.37505175  0.64254360  1
  Cu2+  Cu125  1  0.12583881  0.87490338  0.64180271  1
  Cu2+  Cu126  1  0.37618379  0.62637479  0.15259985  1
  Cu2+  Cu127  1  0.12568317  0.62516781  0.64886928  1
  O2-  O128  1  0.12412697  0.12433542  0.00635055  1
  O2-  O129  1  0.12429932  0.12584958  0.50674966  1
  O2-  O130  1  0.12398762  0.37363609  0.00644048  1
  O2-  O131  1  0.12701753  0.37647027  0.50642649  1
  O2-  O132  1  0.12470686  0.62591981  -0.00372601  1
  O2-  O133  1  0.12314593  0.62304140  0.49766253  1
  O2-  O134  1  0.12636491  0.87632474  -0.00350249  1
  O2-  O135  1  0.12473775  0.87321413  0.50638704  1
  O2-  O136  1  0.37551068  0.12356697  -0.00507926  1
  O2-  O137  1  0.37552116  0.12645838  0.50725499  1
  O2-  O138  1  0.37533255  0.37386035  0.00595514  1
  O2-  O139  1  0.37532856  0.37699262  0.49558051  1
  O2-  O140  1  0.37369969  0.62695160  -0.00310843  1
  O2-  O141  1  0.37560638  0.62362240  0.51613650  1
  O2-  O142  1  0.37595852  0.87595731  0.02160967  1
  O2-  O143  1  0.37433634  0.87335697  0.50783213  1
  O2-  O144  1  0.62653803  0.12518589  -0.00663661  1
  O2-  O145  1  0.62484774  0.12644440  0.50678402  1
  O2-  O146  1  0.62592723  0.37127598  0.00574042  1
  O2-  O147  1  0.62327156  0.37700217  0.49568509  1
  O2-  O148  1  0.62574786  0.62803076  0.00701188  1
  O2-  O149  1  0.62524216  0.62294094  0.50808999  1
  O2-  O150  1  0.62428442  0.87605096  0.01998330  1
  O2-  O151  1  0.62538540  0.87446434  0.50806450  1
  O2-  O152  1  0.87393622  0.12429332  -0.00674365  1
  O2-  O153  1  0.87560037  0.12520169  0.50646481  1
  O2-  O154  1  0.87409768  0.37187154  -0.00368606  1
  O2-  O155  1  0.87477711  0.37694930  0.50626996  1
  O2-  O156  1  0.87442988  0.62676432  0.00609722  1
  O2-  O157  1  0.87591073  0.62447981  0.49824958  1
  O2-  O158  1  0.87366659  0.87669224  0.01910133  1
  O2-  O159  1  0.87607760  0.87171890  0.49973568  1
  O2-  O160  1  0.12486496  0.00185533  0.16514032  1
  O2-  O161  1  0.12457799  -0.00008805  0.66482025  1
  O2-  O162  1  0.12510276  0.24977427  0.16133663  1
  O2-  O163  1  0.12543572  0.25002198  0.66657287  1
  O2-  O164  1  0.12489981  0.49777871  0.15988046  1
  O2-  O165  1  0.12492300  0.50107262  0.66730908  1
  O2-  O166  1  0.12500454  0.74998509  0.16330321  1
  O2-  O167  1  0.12474977  0.74890475  0.66515348  1
  O2-  O168  1  0.37460317  -0.00059323  0.17016696  1
  O2-  O169  1  0.37512702  -0.00036686  0.66379314  1
  O2-  O170  1  0.37508330  0.25064516  0.16154067  1
  O2-  O171  1  0.37498334  0.25223829  0.66466334  1
  O2-  O172  1  0.37558421  0.49908624  0.15957477  1
  O2-  O173  1  0.37524208  0.50058000  0.66886786  1
  O2-  O174  1  0.37534527  0.75049550  0.16906387  1
  O2-  O175  1  0.37454891  0.74821657  0.66708182  1
  O2-  O176  1  0.62507783  -0.00049011  0.17026343  1
  O2-  O177  1  0.62585337  0.00296433  0.66289341  1
  O2-  O178  1  0.62480195  0.25040867  0.16293401  1
  O2-  O179  1  0.62505318  0.24912297  0.66141643  1
  O2-  O180  1  0.62518818  0.50025360  0.15516832  1
  O2-  O181  1  0.62456811  0.49860992  0.67012494  1
  O2-  O182  1  0.62559626  0.74935829  0.16826739  1
  O2-  O183  1  0.62529520  0.75022700  0.66759967  1
  O2-  O184  1  0.87574961  -0.00146541  0.17016972  1
  O2-  O185  1  0.87414991  0.00174918  0.66156967  1
  O2-  O186  1  0.87513551  0.24904302  0.16529219  1
  O2-  O187  1  0.87441343  0.24771323  0.66124549  1
  O2-  O188  1  0.87438171  0.50234532  0.15884023  1
  O2-  O189  1  0.87496196  0.50110318  0.66796610  1
  O2-  O190  1  0.87451153  0.74939680  0.16491469  1
  O2-  O191  1  0.87499639  0.74987899  0.66681340  1
  O2-  O192  1  0.00229382  0.12523104  0.16366094  1
  O2-  O193  1  -0.00288007  0.12506783  0.66447622  1
  O2-  O194  1  0.00173594  0.37442491  0.16263292  1
  O2-  O195  1  0.00044267  0.37527211  0.66542105  1
  O2-  O196  1  -0.00223655  0.62522489  0.15994476  1
  O2-  O197  1  0.00054729  0.62501096  0.66560431  1
  O2-  O198  1  0.00034304  0.87477405  0.16372108  1
  O2-  O199  1  -0.00045750  0.87477876  0.66489995  1
  O2-  O200  1  0.24775701  0.12532145  0.16255783  1
  O2-  O201  1  0.24999994  0.12577192  0.66574724  1
  O2-  O202  1  0.25033433  0.37475832  0.15778310  1
  O2-  O203  1  0.25116562  0.37558419  0.66835428  1
  O2-  O204  1  0.24964339  0.62473338  0.16319546  1
  O2-  O205  1  0.25045576  0.62362326  0.66516802  1
  O2-  O206  1  0.25020994  0.87494241  0.16724801  1
  O2-  O207  1  0.24971260  0.87497195  0.66377432  1
  O2-  O208  1  0.49916560  0.12477491  0.16514583  1
  O2-  O209  1  0.50279171  0.12632497  0.66316388  1
  O2-  O210  1  0.49993305  0.37475463  0.15785940  1
  O2-  O211  1  0.49972911  0.37527223  0.66756062  1
  O2-  O212  1  0.50342215  0.62474963  0.16406749  1
  O2-  O213  1  0.49793093  0.62399571  0.66990388  1
  O2-  O214  1  0.50057377  0.87523106  0.17145982  1
  O2-  O215  1  0.49958583  0.87508267  0.66548473  1
  O2-  O216  1  0.75098019  0.12466317  0.16721599  1
  O2-  O217  1  0.75008522  0.12614800  0.65918355  1
  O2-  O218  1  0.74805226  0.37450133  0.16242799  1
  O2-  O219  1  0.74873115  0.37602519  0.66446616  1
  O2-  O220  1  0.74938209  0.62442386  0.16256517  1
  O2-  O221  1  0.75074992  0.62466275  0.66715391  1
  O2-  O222  1  0.74934160  0.87559697  0.16968782  1
  O2-  O223  1  0.75087001  0.87441462  0.66475182  1
  O2-  O224  1  0.12454098  -0.00061411  0.34993328  1
  O2-  O225  1  0.12469947  0.00210272  0.84754578  1
  O2-  O226  1  0.12476818  0.25062194  0.34640881  1
  O2-  O227  1  0.12491977  0.25023437  0.85068596  1
  O2-  O228  1  0.12511678  0.50203980  0.34275453  1
  O2-  O229  1  0.12522247  0.49816486  0.85025812  1
  O2-  O230  1  0.12476327  0.74745607  0.34637339  1
  O2-  O231  1  0.12435149  0.75015462  0.84640000  1
  O2-  O232  1  0.37464492  -0.00107769  0.35268488  1
  O2-  O233  1  0.37447285  0.00053475  0.84646126  1
  O2-  O234  1  0.37513071  0.25201498  0.34472085  1
  O2-  O235  1  0.37537893  0.25115067  0.84767911  1
  O2-  O236  1  0.37545052  0.49951610  0.34306138  1
  O2-  O237  1  0.37517880  0.49854219  0.85136152  1
  O2-  O238  1  0.37515330  0.74914514  0.35178480  1
  O2-  O239  1  0.37535163  0.75017698  0.84870407  1
  O2-  O240  1  0.62617294  0.00297128  0.35315271  1
  O2-  O241  1  0.62531630  0.00014508  0.84604933  1
  O2-  O242  1  0.62522486  0.24883300  0.34682144  1
  O2-  O243  1  0.62446993  0.25159259  0.84368345  1
  O2-  O244  1  0.62459230  0.49811744  0.33973666  1
  O2-  O245  1  0.62543752  0.49945876  0.85535415  1
  O2-  O246  1  0.62503179  0.74975261  0.35080844  1
  O2-  O247  1  0.62457989  0.74925584  0.85203859  1
  O2-  O248  1  0.87448812  0.00072611  0.35242508  1
  O2-  O249  1  0.87539661  0.00089338  0.84455209  1
  O2-  O250  1  0.87491477  0.24741083  0.35059678  1
  O2-  O251  1  0.87511440  0.25055631  0.84116482  1
  O2-  O252  1  0.87501703  0.50223619  0.34235008  1
  O2-  O253  1  0.87394298  0.50064433  0.85133242  1
  O2-  O254  1  0.87525843  0.74930520  0.34449917  1
  O2-  O255  1  0.87546872  0.74853465  0.85172161  1
  O2-  O256  1  -0.00284555  0.12487545  0.34828005  1
  O2-  O257  1  0.00140485  0.12601817  0.84698947  1
  O2-  O258  1  0.00068738  0.37538554  0.34755755  1
  O2-  O259  1  0.00117691  0.37509797  0.84824730  1
  O2-  O260  1  -0.00033543  0.62449409  0.34231684  1
  O2-  O261  1  -0.00078541  0.62376953  0.84878566  1
  O2-  O262  1  -0.00227657  0.87491592  0.34524308  1
  O2-  O263  1  0.00171086  0.87592416  0.84788433  1
  O2-  O264  1  0.24963355  0.12535495  0.34805386  1
  O2-  O265  1  0.24845441  0.12651789  0.84895805  1
  O2-  O266  1  0.25170269  0.37567130  0.34154822  1
  O2-  O267  1  0.24987983  0.37413829  0.85294599  1
  O2-  O268  1  0.24951808  0.62420962  0.34826372  1
  O2-  O269  1  0.24941195  0.62412707  0.84531408  1
  O2-  O270  1  0.25047973  0.87409006  0.35042727  1
  O2-  O271  1  0.24896566  0.87568849  0.84552803  1
  O2-  O272  1  0.50298842  0.12548264  0.34996172  1
  O2-  O273  1  0.49980568  0.12515263  0.84479940  1
  O2-  O274  1  0.49993399  0.37498039  0.34037203  1
  O2-  O275  1  0.50014315  0.37539200  0.85235776  1
  O2-  O276  1  0.49870107  0.62407598  0.34918755  1
  O2-  O277  1  0.50118895  0.62392930  0.85235169  1
  O2-  O278  1  0.49930144  0.87495323  0.35212934  1
  O2-  O279  1  0.49856255  0.87579177  0.84965162  1
  O2-  O280  1  0.75028416  0.12589936  0.35214488  1
  O2-  O281  1  0.75006241  0.12532678  0.84046107  1
  O2-  O282  1  0.74785580  0.37471627  0.34579256  1
  O2-  O283  1  0.74864576  0.37511049  0.84739321  1
  O2-  O284  1  0.75210370  0.62434543  0.34541797  1
  O2-  O285  1  0.74984912  0.62545075  0.85218424  1
  O2-  O286  1  0.75253992  0.87481098  0.34898399  1
  O2-  O287  1  0.75084365  0.87507263  0.84983991  1
