# generated using pymatgen
data_BaYFeCuO5
_symmetry_space_group_name_H-M   'P 1'
_cell_length_a   15.66329966
_cell_length_b   15.66582748
_cell_length_c   15.46932874
_cell_angle_alpha   89.99599330
_cell_angle_beta   90.00392111
_cell_angle_gamma   90.00311779
_symmetry_Int_Tables_number   1
_chemical_formula_structural   BaYFeCuO5
_chemical_formula_sum   'Ba32 Y32 Fe32 Cu32 O160'
_cell_volume   3795.84143728
_cell_formula_units_Z   32
loop_
 _symmetry_equiv_pos_site_id
 _symmetry_equiv_pos_as_xyz
  1  'x, y, z'
loop_
 _atom_type_symbol
 _atom_type_oxidation_number
  Ba2+  2.0
  Y3+  3.0
  Fe3+  3.0
  Cu2+  2.0
  O2-  -2.0
loop_
 _atom_site_type_symbol
 _atom_site_label
 _atom_site_symmetry_multiplicity
 _atom_site_fract_x
 _atom_site_fract_y
 _atom_site_fract_z
 _atom_site_occupancy
  Ba2+  Ba0  1  -0.00311377  -0.00793906  0.01101017  1
  Ba2+  Ba1  1  0.00257362  -0.01177189  0.50206994  1
  Ba2+  Ba2  1  -0.00498422  0.25266452  0.02450180  1
  Ba2+  Ba3  1  -0.00040331  0.25812783  0.50632429  1
  Ba2+  Ba4  1  -0.00719339  0.49671633  0.02266704  1
  Ba2+  Ba5  1  -0.00026314  0.50373065  0.50610839  1
  Ba2+  Ba6  1  -0.00499679  0.75785794  0.01078798  1
  Ba2+  Ba7  1  0.00267235  0.75116870  0.50119812  1
  Ba2+  Ba8  1  0.25501538  -0.00524927  0.00634555  1
  Ba2+  Ba9  1  0.25522078  -0.01069541  0.51110762  1
  Ba2+  Ba10  1  0.25229102  0.24495993  0.01119698  1
  Ba2+  Ba11  1  0.25180904  0.24841838  0.50636959  1
  Ba2+  Ba12  1  0.24424390  0.49583563  0.01157813  1
  Ba2+  Ba13  1  0.24731642  0.50768115  0.51324270  1
  Ba2+  Ba14  1  0.24947066  0.76111149  0.00688904  1
  Ba2+  Ba15  1  0.25082586  0.75399912  0.51958771  1
  Ba2+  Ba16  1  0.49258693  -0.00345057  0.01044454  1
  Ba2+  Ba17  1  0.49921123  -0.00647591  0.51756091  1
  Ba2+  Ba18  1  0.49870563  0.24627869  0.01072947  1
  Ba2+  Ba19  1  0.50325906  0.24360925  0.51272305  1
  Ba2+  Ba20  1  0.51236002  0.50263838  0.01048003  1
  Ba2+  Ba21  1  0.50279848  0.50738720  0.51298423  1
  Ba2+  Ba22  1  0.50537797  0.75402395  0.01152498  1
  Ba2+  Ba23  1  0.49931000  0.75490234  0.51816208  1
  Ba2+  Ba24  1  0.75622648  -0.00578693  0.01645102  1
  Ba2+  Ba25  1  0.74205700  -0.00726428  0.50755273  1
  Ba2+  Ba26  1  0.75464503  0.25417152  0.02354306  1
  Ba2+  Ba27  1  0.74521080  0.25355059  0.50965081  1
  Ba2+  Ba28  1  0.74981039  0.50275675  0.02156143  1
  Ba2+  Ba29  1  0.74993916  0.50284965  0.50628587  1
  Ba2+  Ba30  1  0.75081351  0.74943189  0.01666715  1
  Ba2+  Ba31  1  0.74731332  0.75251507  0.50102122  1
  Y3+  Y32  1  0.00009183  -0.00484029  0.25633127  1
  Y3+  Y33  1  0.00123006  -0.00386988  0.75953966  1
  Y3+  Y34  1  0.00068893  0.25075631  0.25957212  1
  Y3+  Y35  1  -0.00099488  0.24983974  0.75325325  1
  Y3+  Y36  1  -0.00063351  0.50046440  0.25917715  1
  Y3+  Y37  1  -0.00137198  0.50135052  0.75403535  1
  Y3+  Y38  1  -0.00185744  0.75301636  0.25685833  1
  Y3+  Y39  1  0.00157970  0.75324048  0.75932852  1
  Y3+  Y40  1  0.25158094  -0.00406282  0.25505908  1
  Y3+  Y41  1  0.25230459  -0.00303535  0.75987330  1
  Y3+  Y42  1  0.25006095  0.24924252  0.25614172  1
  Y3+  Y43  1  0.25190626  0.24638299  0.75832516  1
  Y3+  Y44  1  0.24886763  0.49874407  0.25696846  1
  Y3+  Y45  1  0.24974877  0.50285334  0.75766943  1
  Y3+  Y46  1  0.25035754  0.75586973  0.25633170  1
  Y3+  Y47  1  0.24996168  0.75435615  0.75903083  1
  Y3+  Y48  1  0.49826192  -0.00457548  0.25601860  1
  Y3+  Y49  1  0.49752431  -0.00123672  0.75802624  1
  Y3+  Y50  1  0.50040995  0.24948298  0.25543754  1
  Y3+  Y51  1  0.49901704  0.24592583  0.75794038  1
  Y3+  Y52  1  0.50313043  0.50071500  0.25527450  1
  Y3+  Y53  1  0.50200887  0.50412580  0.75890696  1
  Y3+  Y54  1  0.50114478  0.75394941  0.25594819  1
  Y3+  Y55  1  0.50057593  0.75144439  0.75887014  1
  Y3+  Y56  1  0.75026786  -0.00480817  0.25827411  1
  Y3+  Y57  1  0.74861444  -0.00173920  0.75592266  1
  Y3+  Y58  1  0.74889190  0.25100524  0.25880430  1
  Y3+  Y59  1  0.74993641  0.24954507  0.75288586  1
  Y3+  Y60  1  0.74889133  0.50208646  0.25738363  1
  Y3+  Y61  1  0.74935352  0.50254499  0.75609316  1
  Y3+  Y62  1  0.75025549  0.75132091  0.25663750  1
  Y3+  Y63  1  0.74774889  0.75038606  0.75892684  1
  Fe3+  Fe64  1  0.62394090  0.12333291  0.37538331  1
  Fe3+  Fe65  1  0.37561942  0.37549813  0.87937637  1
  Fe3+  Fe66  1  0.12331037  0.62497765  0.88059347  1
  Fe3+  Fe67  1  0.12573291  0.12347248  0.37926463  1
  Fe3+  Fe68  1  0.62661036  0.12486788  0.87990890  1
  Fe3+  Fe69  1  0.12279062  0.37424681  0.87724552  1
  Fe3+  Fe70  1  0.87465123  0.12355423  0.37937404  1
  Fe3+  Fe71  1  0.87483945  0.12558478  0.87643841  1
  Fe3+  Fe72  1  0.12631638  0.62673314  0.37399356  1
  Fe3+  Fe73  1  0.62708643  0.37423713  0.87715243  1
  Fe3+  Fe74  1  0.12353700  0.12494789  0.87976891  1
  Fe3+  Fe75  1  0.37610750  0.37600373  0.37925665  1
  Fe3+  Fe76  1  0.62397480  0.62641175  0.37541098  1
  Fe3+  Fe77  1  0.37521715  0.62547576  0.88082267  1
  Fe3+  Fe78  1  0.37558939  0.12299723  0.37641997  1
  Fe3+  Fe79  1  0.87456689  0.37487091  0.87383585  1
  Fe3+  Fe80  1  0.62600272  0.87562215  0.87824232  1
  Fe3+  Fe81  1  0.37489763  0.62719323  0.37511176  1
  Fe3+  Fe82  1  0.87467936  0.62526659  0.87825572  1
  Fe3+  Fe83  1  0.87396389  0.37584989  0.37645282  1
  Fe3+  Fe84  1  0.12459912  0.12322386  0.13617651  1
  Fe3+  Fe85  1  0.62413580  0.37607276  0.63705203  1
  Fe3+  Fe86  1  0.12579736  0.37533662  0.63616716  1
  Fe3+  Fe87  1  0.62555178  0.12314838  0.13499243  1
  Fe3+  Fe88  1  0.87473763  0.87402177  0.63791168  1
  Fe3+  Fe89  1  0.12526152  0.12298479  0.63377957  1
  Fe3+  Fe90  1  0.37539443  0.37556996  0.63574732  1
  Fe3+  Fe91  1  0.87509422  0.12379589  0.63173929  1
  Fe3+  Fe92  1  0.37489476  0.62552406  0.13312959  1
  Fe3+  Fe93  1  0.37585373  0.37545747  0.13479754  1
  Fe3+  Fe94  1  0.87497882  0.62692290  0.63625985  1
  Fe3+  Fe95  1  0.12447760  0.62632441  0.13438249  1
  Cu2+  Cu96  1  0.62652564  0.62526893  0.87398240  1
  Cu2+  Cu97  1  0.12664474  0.87453613  0.37122450  1
  Cu2+  Cu98  1  0.62347390  0.37522978  0.36476573  1
  Cu2+  Cu99  1  0.12470954  0.87573739  0.87375157  1
  Cu2+  Cu100  1  0.87364204  0.87528325  0.87165688  1
  Cu2+  Cu101  1  0.37522110  0.12471696  0.87396065  1
  Cu2+  Cu102  1  0.87480603  0.62585689  0.36370509  1
  Cu2+  Cu103  1  0.37560177  0.87407163  0.37051795  1
  Cu2+  Cu104  1  0.12633186  0.37525161  0.36600678  1
  Cu2+  Cu105  1  0.37627013  0.87444581  0.87230761  1
  Cu2+  Cu106  1  0.87459350  0.87482677  0.36487578  1
  Cu2+  Cu107  1  0.62331941  0.87470350  0.37123285  1
  Cu2+  Cu108  1  0.12448725  0.87542986  0.64404756  1
  Cu2+  Cu109  1  0.12449168  0.62649926  0.65399144  1
  Cu2+  Cu110  1  0.62509083  0.62650904  0.14215379  1
  Cu2+  Cu111  1  0.62517673  0.87428810  0.64411339  1
  Cu2+  Cu112  1  0.87560722  0.62557382  0.15289992  1
  Cu2+  Cu113  1  0.62483580  0.12423192  0.65096614  1
  Cu2+  Cu114  1  0.87513948  0.12416182  0.15530437  1
  Cu2+  Cu115  1  0.37523355  0.87426221  0.14154577  1
  Cu2+  Cu116  1  0.87452284  0.37584126  0.64482664  1
  Cu2+  Cu117  1  0.12508044  0.37456452  0.15209204  1
  Cu2+  Cu118  1  0.12494715  0.87505296  0.14205648  1
  Cu2+  Cu119  1  0.62531600  0.87563716  0.14842771  1
  Cu2+  Cu120  1  0.37422234  0.12434080  0.64978136  1
  Cu2+  Cu121  1  0.87453011  0.37533988  0.15898163  1
  Cu2+  Cu122  1  0.37471460  0.62557012  0.65449454  1
  Cu2+  Cu123  1  0.62495329  0.37422539  0.15126568  1
  Cu2+  Cu124  1  0.62541313  0.62622957  0.65091059  1
  Cu2+  Cu125  1  0.37483261  0.12425494  0.14193275  1
  Cu2+  Cu126  1  0.87468027  0.87437145  0.14466135  1
  Cu2+  Cu127  1  0.37521992  0.87464891  0.64665209  1
  O2-  O128  1  0.12227341  0.12634900  0.00745087  1
  O2-  O129  1  0.12627047  0.12405410  0.50652735  1
  O2-  O130  1  0.12026389  0.37382778  -0.00279550  1
  O2-  O131  1  0.12847328  0.37600275  0.51552315  1
  O2-  O132  1  0.12193728  0.62332706  0.00680170  1
  O2-  O133  1  0.12729642  0.62574107  0.49465859  1
  O2-  O134  1  0.12398667  0.87655573  0.00735404  1
  O2-  O135  1  0.12566875  0.87391051  0.50758577  1
  O2-  O136  1  0.37462256  0.12747668  0.00710189  1
  O2-  O137  1  0.37577537  0.12473608  0.49663230  1
  O2-  O138  1  0.37519999  0.37562008  0.00665623  1
  O2-  O139  1  0.37558850  0.37576890  0.50748831  1
  O2-  O140  1  0.37508916  0.62207781  0.00671404  1
  O2-  O141  1  0.37387066  0.62585371  0.49538759  1
  O2-  O142  1  0.37604877  0.87402201  0.00700835  1
  O2-  O143  1  0.37569080  0.87338426  0.50905544  1
  O2-  O144  1  0.62803897  0.12575525  0.00609415  1
  O2-  O145  1  0.62396377  0.12462227  0.49577318  1
  O2-  O146  1  0.62915883  0.37314996  -0.00257434  1
  O2-  O147  1  0.62129991  0.37607359  0.51623623  1
  O2-  O148  1  0.62745445  0.62428042  0.00776376  1
  O2-  O149  1  0.62335046  0.62566515  0.49618950  1
  O2-  O150  1  0.62709683  0.87715230  -0.00103068  1
  O2-  O151  1  0.62384800  0.87391581  0.50750860  1
  O2-  O152  1  0.87494614  0.12835334  -0.00377964  1
  O2-  O153  1  0.87475912  0.12415074  0.50533658  1
  O2-  O154  1  0.87509731  0.37347153  -0.00583672  1
  O2-  O155  1  0.87432580  0.37620879  0.49742142  1
  O2-  O156  1  0.87550583  0.62248324  -0.00141062  1
  O2-  O157  1  0.87554058  0.62627471  0.51582890  1
  O2-  O158  1  0.87362629  0.87530857  0.00840634  1
  O2-  O159  1  0.87534114  0.87339179  0.51728149  1
  O2-  O160  1  0.12411741  0.00203463  0.16540013  1
  O2-  O161  1  0.12500291  0.00292040  0.66579608  1
  O2-  O162  1  0.12452380  0.24830152  0.16575115  1
  O2-  O163  1  0.12531277  0.24872208  0.66222643  1
  O2-  O164  1  0.12494740  0.50108647  0.16216902  1
  O2-  O165  1  0.12631643  0.49944832  0.66607150  1
  O2-  O166  1  0.12579619  0.74738321  0.16156686  1
  O2-  O167  1  0.12530614  0.74976703  0.66906585  1
  O2-  O168  1  0.37495698  -0.00042859  0.16430014  1
  O2-  O169  1  0.37441467  0.00102772  0.66687157  1
  O2-  O170  1  0.37487758  0.25306934  0.16471205  1
  O2-  O171  1  0.37507344  0.25171210  0.66271798  1
  O2-  O172  1  0.37459040  0.49948629  0.16333921  1
  O2-  O173  1  0.37391345  0.49887190  0.66389944  1
  O2-  O174  1  0.37398594  0.74672101  0.16171528  1
  O2-  O175  1  0.37461839  0.74856450  0.66924591  1
  O2-  O176  1  0.62608463  0.00122864  0.16314554  1
  O2-  O177  1  0.62510888  0.00118405  0.66604351  1
  O2-  O178  1  0.62534576  0.24806779  0.16376542  1
  O2-  O179  1  0.62336690  0.25056769  0.66429472  1
  O2-  O180  1  0.62514197  0.49857941  0.16441937  1
  O2-  O181  1  0.62418803  0.50034706  0.66579734  1
  O2-  O182  1  0.62506871  0.75209920  0.16326277  1
  O2-  O183  1  0.62418509  0.74871498  0.66788094  1
  O2-  O184  1  0.87520505  0.00050014  0.16782033  1
  O2-  O185  1  0.87501876  0.00123943  0.66474102  1
  O2-  O186  1  0.87548486  0.25025486  0.16756159  1
  O2-  O187  1  0.87559742  0.24817948  0.65793271  1
  O2-  O188  1  0.87532739  0.49977790  0.16473805  1
  O2-  O189  1  0.87510313  0.50138749  0.66400016  1
  O2-  O190  1  0.87514557  0.74898827  0.16537118  1
  O2-  O191  1  0.87555633  0.75020831  0.67071626  1
  O2-  O192  1  0.00109255  0.12579794  0.16715290  1
  O2-  O193  1  0.00001688  0.12571028  0.66046750  1
  O2-  O194  1  -0.00038183  0.37427461  0.16676929  1
  O2-  O195  1  0.00112359  0.37477711  0.66111625  1
  O2-  O196  1  0.00166221  0.62403953  0.16473701  1
  O2-  O197  1  -0.00016659  0.62477457  0.66502461  1
  O2-  O198  1  0.00005249  0.87485941  0.16587853  1
  O2-  O199  1  -0.00185258  0.87589117  0.66806203  1
  O2-  O200  1  0.24724533  0.12609928  0.16396209  1
  O2-  O201  1  0.24805680  0.12629743  0.66556777  1
  O2-  O202  1  0.25193425  0.37475048  0.16220279  1
  O2-  O203  1  0.25141256  0.37465485  0.66818572  1
  O2-  O204  1  0.24965821  0.62204643  0.15749982  1
  O2-  O205  1  0.24927124  0.62489733  0.66854331  1
  O2-  O206  1  0.24991266  0.87561686  0.16378233  1
  O2-  O207  1  0.25004192  0.87504837  0.66743045  1
  O2-  O208  1  0.50287550  0.12570605  0.15984044  1
  O2-  O209  1  0.49937594  0.12516358  0.66643134  1
  O2-  O210  1  0.49855334  0.37495236  0.16133066  1
  O2-  O211  1  0.49817775  0.37579338  0.66802384  1
  O2-  O212  1  0.49703766  0.62373997  0.16083786  1
  O2-  O213  1  0.49988373  0.62442012  0.66638484  1
  O2-  O214  1  0.50123650  0.87509414  0.16300757  1
  O2-  O215  1  0.49996208  0.87500231  0.66711762  1
  O2-  O216  1  0.74912659  0.12567284  0.16447227  1
  O2-  O217  1  0.75194367  0.12582285  0.66050118  1
  O2-  O218  1  0.75005671  0.37422732  0.16592207  1
  O2-  O219  1  0.74871561  0.37443101  0.66131068  1
  O2-  O220  1  0.75148630  0.62483739  0.16632122  1
  O2-  O221  1  0.75060809  0.62516852  0.66423071  1
  O2-  O222  1  0.74908623  0.87522641  0.16672502  1
  O2-  O223  1  0.75162857  0.87542216  0.66554172  1
  O2-  O224  1  0.12490775  0.00246207  0.34952282  1
  O2-  O225  1  0.12407622  0.00334632  0.84996019  1
  O2-  O226  1  0.12584726  0.24774954  0.35124519  1
  O2-  O227  1  0.12519495  0.24946392  0.84446130  1
  O2-  O228  1  0.12593442  0.50100576  0.34581914  1
  O2-  O229  1  0.12488692  0.50032686  0.84843074  1
  O2-  O230  1  0.12496724  0.74921602  0.34379049  1
  O2-  O231  1  0.12557152  0.74679796  0.85294768  1
  O2-  O232  1  0.37460791  0.00079657  0.34654690  1
  O2-  O233  1  0.37525968  -0.00039825  0.85038246  1
  O2-  O234  1  0.37491387  0.25059832  0.34893648  1
  O2-  O235  1  0.37447167  0.25368411  0.84731119  1
  O2-  O236  1  0.37446388  0.49931090  0.34740368  1
  O2-  O237  1  0.37485147  0.49979875  0.84866175  1
  O2-  O238  1  0.37497533  0.74901083  0.34362407  1
  O2-  O239  1  0.37400950  0.74687674  0.85266535  1
  O2-  O240  1  0.62508957  0.00100992  0.34567370  1
  O2-  O241  1  0.62553353  0.00204690  0.84895503  1
  O2-  O242  1  0.62404058  0.24891391  0.34713469  1
  O2-  O243  1  0.62536929  0.24882844  0.84597966  1
  O2-  O244  1  0.62430704  0.50099964  0.34744116  1
  O2-  O245  1  0.62486216  0.49761419  0.84732080  1
  O2-  O246  1  0.62477262  0.74880724  0.34562303  1
  O2-  O247  1  0.62520633  0.75170267  0.85030174  1
  O2-  O248  1  0.87567326  0.00127488  0.35158732  1
  O2-  O249  1  0.87538058  0.00220377  0.84690494  1
  O2-  O250  1  0.87521336  0.24856959  0.35074050  1
  O2-  O251  1  0.87499388  0.25010305  0.83900054  1
  O2-  O252  1  0.87510162  0.49945111  0.34805229  1
  O2-  O253  1  0.87570286  0.49946609  0.84400155  1
  O2-  O254  1  0.87529541  0.75091696  0.34925402  1
  O2-  O255  1  0.87545902  0.74877115  0.85088778  1
  O2-  O256  1  -0.00000720  0.12565070  0.35286815  1
  O2-  O257  1  0.00052428  0.12647496  0.84423232  1
  O2-  O258  1  -0.00044656  0.37443883  0.35042615  1
  O2-  O259  1  -0.00030053  0.37430008  0.84065786  1
  O2-  O260  1  0.00041105  0.62482913  0.34858705  1
  O2-  O261  1  0.00073809  0.62425637  0.84667789  1
  O2-  O262  1  -0.00086715  0.87517935  0.35007031  1
  O2-  O263  1  -0.00017416  0.87550365  0.85015081  1
  O2-  O264  1  0.24947979  0.12607003  0.34759286  1
  O2-  O265  1  0.24693104  0.12636430  0.85134693  1
  O2-  O266  1  0.25297246  0.37425384  0.34739585  1
  O2-  O267  1  0.25032008  0.37570426  0.85179858  1
  O2-  O268  1  0.25064841  0.62447311  0.33946701  1
  O2-  O269  1  0.24933460  0.62236303  0.85439610  1
  O2-  O270  1  0.25086975  0.87549380  0.34686220  1
  O2-  O271  1  0.25021592  0.87565759  0.85105160  1
  O2-  O272  1  0.49943711  0.12554051  0.34176106  1
  O2-  O273  1  0.50331899  0.12652052  0.85173287  1
  O2-  O274  1  0.49730300  0.37490621  0.34558101  1
  O2-  O275  1  0.49949636  0.37470912  0.85135720  1
  O2-  O276  1  0.49944595  0.62411850  0.34208748  1
  O2-  O277  1  0.49769823  0.62378505  0.85174154  1
  O2-  O278  1  0.49933232  0.87501109  0.34613403  1
  O2-  O279  1  0.50248834  0.87546998  0.84891057  1
  O2-  O280  1  0.75117495  0.12515420  0.34873784  1
  O2-  O281  1  0.74925967  0.12585159  0.84381948  1
  O2-  O282  1  0.74985831  0.37437542  0.34942626  1
  O2-  O283  1  0.75061063  0.37413436  0.84110866  1
  O2-  O284  1  0.74947625  0.62497244  0.34969830  1
  O2-  O285  1  0.75226512  0.62427970  0.84547017  1
  O2-  O286  1  0.75075580  0.87517158  0.35093720  1
  O2-  O287  1  0.74805301  0.87634384  0.84555701  1
