# generated using pymatgen
data_BaYFeCuO5
_symmetry_space_group_name_H-M   'P 1'
_cell_length_a   15.67341572
_cell_length_b   15.68135505
_cell_length_c   15.49776412
_cell_angle_alpha   89.99951209
_cell_angle_beta   90.00262654
_cell_angle_gamma   90.00223898
_symmetry_Int_Tables_number   1
_chemical_formula_structural   BaYFeCuO5
_chemical_formula_sum   'Ba32 Y32 Fe32 Cu32 O160'
_cell_volume   3809.04660946
_cell_formula_units_Z   32
loop_
 _symmetry_equiv_pos_site_id
 _symmetry_equiv_pos_as_xyz
  1  'x, y, z'
loop_
 _atom_type_symbol
 _atom_type_oxidation_number
  Ba2+  2.0
  Y3+  3.0
  Fe3+  3.0
  Cu2+  2.0
  O2-  -2.0
loop_
 _atom_site_type_symbol
 _atom_site_label
 _atom_site_symmetry_multiplicity
 _atom_site_fract_x
 _atom_site_fract_y
 _atom_site_fract_z
 _atom_site_occupancy
  Ba2+  Ba0  1  0.00833410  0.00134547  0.01068375  1
  Ba2+  Ba1  1  0.00150879  0.00014003  0.50749748  1
  Ba2+  Ba2  1  0.00054458  0.24815375  0.01051748  1
  Ba2+  Ba3  1  -0.00055031  0.25288829  0.51391076  1
  Ba2+  Ba4  1  -0.01086915  0.50053519  0.01845664  1
  Ba2+  Ba5  1  -0.00083916  0.50170205  0.51220969  1
  Ba2+  Ba6  1  -0.00105877  0.74929916  0.01653092  1
  Ba2+  Ba7  1  0.00188782  0.74480783  0.50617960  1
  Ba2+  Ba8  1  0.24564862  -0.00418989  0.01665262  1
  Ba2+  Ba9  1  0.25294856  -0.00238034  0.50073595  1
  Ba2+  Ba10  1  0.24486532  0.24380099  0.00647452  1
  Ba2+  Ba11  1  0.24937108  0.24933893  0.50666823  1
  Ba2+  Ba12  1  0.25755746  0.50799580  0.00646493  1
  Ba2+  Ba13  1  0.24575170  0.50246765  0.50225046  1
  Ba2+  Ba14  1  0.25731427  0.75242356  0.01714454  1
  Ba2+  Ba15  1  0.24890138  0.75084284  0.49665058  1
  Ba2+  Ba16  1  0.50582209  -0.00454510  0.01658726  1
  Ba2+  Ba17  1  0.49699943  -0.00189285  0.51311918  1
  Ba2+  Ba18  1  0.51087851  0.24881570  0.01011363  1
  Ba2+  Ba19  1  0.49915633  0.24802995  0.50629241  1
  Ba2+  Ba20  1  0.50434764  0.50767198  0.01736609  1
  Ba2+  Ba21  1  0.49454185  0.49503483  0.50175926  1
  Ba2+  Ba22  1  0.49977563  0.74810567  0.02262611  1
  Ba2+  Ba23  1  0.49301853  0.75726179  0.50768214  1
  Ba2+  Ba24  1  0.74010210  0.00115948  0.01018208  1
  Ba2+  Ba25  1  0.74931298  0.00071170  0.51873671  1
  Ba2+  Ba26  1  0.74471997  0.25432718  0.01717859  1
  Ba2+  Ba27  1  0.75280974  0.25201136  0.51164926  1
  Ba2+  Ba28  1  0.74798661  0.50082485  0.02845042  1
  Ba2+  Ba29  1  0.75932080  0.49615176  0.50948048  1
  Ba2+  Ba30  1  0.74462358  0.74441128  0.02330864  1
  Ba2+  Ba31  1  0.75711949  0.75249631  0.51501125  1
  Y3+  Y32  1  0.00262463  0.00035299  0.25510855  1
  Y3+  Y33  1  0.00167391  0.00110272  0.75932586  1
  Y3+  Y34  1  -0.00208830  0.24992635  0.25688418  1
  Y3+  Y35  1  0.00146486  0.25037601  0.75817841  1
  Y3+  Y36  1  -0.00309893  0.50091228  0.26287591  1
  Y3+  Y37  1  -0.00023166  0.50051731  0.75135749  1
  Y3+  Y38  1  0.00126863  0.74870895  0.26115150  1
  Y3+  Y39  1  -0.00035846  0.74806280  0.75236185  1
  Y3+  Y40  1  0.25001051  -0.00267136  0.25699938  1
  Y3+  Y41  1  0.24951607  0.00018715  0.75866664  1
  Y3+  Y42  1  0.25051394  0.24831978  0.25551365  1
  Y3+  Y43  1  0.24713083  0.24856095  0.76060566  1
  Y3+  Y44  1  0.25154756  0.50336439  0.25867779  1
  Y3+  Y45  1  0.24897541  0.50266391  0.75810032  1
  Y3+  Y46  1  0.25126213  0.75087237  0.25968090  1
  Y3+  Y47  1  0.25103724  0.74920767  0.75609922  1
  Y3+  Y48  1  0.49869445  -0.00145895  0.25778769  1
  Y3+  Y49  1  0.50200690  -0.00039398  0.75620480  1
  Y3+  Y50  1  0.50067793  0.24891175  0.25627481  1
  Y3+  Y51  1  0.50396825  0.24907766  0.75770778  1
  Y3+  Y52  1  0.49844307  0.50170562  0.25806699  1
  Y3+  Y53  1  0.49956746  0.50075240  0.75706536  1
  Y3+  Y54  1  0.49659952  0.75041364  0.25918188  1
  Y3+  Y55  1  0.49818619  0.75106434  0.75419671  1
  Y3+  Y56  1  0.74845039  0.00171471  0.25499300  1
  Y3+  Y57  1  0.74720002  0.00056837  0.75747323  1
  Y3+  Y58  1  0.75070796  0.25102817  0.25807892  1
  Y3+  Y59  1  0.74793071  0.25019667  0.75520051  1
  Y3+  Y60  1  0.75283303  0.49908000  0.26224614  1
  Y3+  Y61  1  0.75192956  0.49880991  0.74873071  1
  Y3+  Y62  1  0.75049185  0.74782467  0.26011527  1
  Y3+  Y63  1  0.75124792  0.75042328  0.75111642  1
  Fe3+  Fe64  1  0.87501155  0.87708080  0.37515360  1
  Fe3+  Fe65  1  0.12456157  0.12516875  0.37502213  1
  Fe3+  Fe66  1  0.87358148  0.37645866  0.87656595  1
  Fe3+  Fe67  1  0.12396199  0.37727419  0.88101906  1
  Fe3+  Fe68  1  0.12493267  0.37469317  0.37426314  1
  Fe3+  Fe69  1  0.62524538  0.87221023  0.87475683  1
  Fe3+  Fe70  1  0.12386540  0.62573579  0.88050588  1
  Fe3+  Fe71  1  0.87304241  0.62462454  0.87493472  1
  Fe3+  Fe72  1  0.62545668  0.87550547  0.37684353  1
  Fe3+  Fe73  1  0.37655465  0.12367181  0.88176542  1
  Fe3+  Fe74  1  0.62624755  0.62530836  0.87293976  1
  Fe3+  Fe75  1  0.62528540  0.12423437  0.37683359  1
  Fe3+  Fe76  1  0.62466130  0.62540521  0.38006440  1
  Fe3+  Fe77  1  0.87414442  0.87372792  0.88020341  1
  Fe3+  Fe78  1  0.12485018  0.87301303  0.87816824  1
  Fe3+  Fe79  1  0.87357139  0.12532779  0.88051414  1
  Fe3+  Fe80  1  0.62461204  0.37446431  0.37686416  1
  Fe3+  Fe81  1  0.37618889  0.87416846  0.87785925  1
  Fe3+  Fe82  1  0.37626755  0.37550001  0.88211181  1
  Fe3+  Fe83  1  0.62670724  0.37776841  0.87518092  1
  Fe3+  Fe84  1  0.37383126  0.62525123  0.63607377  1
  Fe3+  Fe85  1  0.37391857  0.37426733  0.64087945  1
  Fe3+  Fe86  1  0.62392105  0.62451837  0.63111411  1
  Fe3+  Fe87  1  0.37401999  0.12501548  0.64024943  1
  Fe3+  Fe88  1  0.37548835  0.37500239  0.13479505  1
  Fe3+  Fe89  1  0.12489830  0.62478491  0.13652256  1
  Fe3+  Fe90  1  0.87439477  0.87489898  0.13446751  1
  Fe3+  Fe91  1  0.37567307  0.12401298  0.13536782  1
  Fe3+  Fe92  1  0.87599008  0.12477478  0.63986977  1
  Fe3+  Fe93  1  0.87434189  0.12507466  0.13451153  1
  Fe3+  Fe94  1  0.12507541  0.37618418  0.13446551  1
  Fe3+  Fe95  1  0.12585420  0.87536837  0.63720159  1
  Cu2+  Cu96  1  0.12455276  0.87539997  0.36243886  1
  Cu2+  Cu97  1  0.37536435  0.62510097  0.36606788  1
  Cu2+  Cu98  1  0.37427694  0.37400913  0.35920530  1
  Cu2+  Cu99  1  0.37684078  0.62652195  0.87337826  1
  Cu2+  Cu100  1  0.12478217  0.12413200  0.87471728  1
  Cu2+  Cu101  1  0.12490702  0.62478206  0.37116942  1
  Cu2+  Cu102  1  0.37502104  0.12494344  0.36039805  1
  Cu2+  Cu103  1  0.87470022  0.62564337  0.37326089  1
  Cu2+  Cu104  1  0.87584144  0.37323027  0.37320972  1
  Cu2+  Cu105  1  0.87484060  0.12415943  0.36139508  1
  Cu2+  Cu106  1  0.62549406  0.12499566  0.87308457  1
  Cu2+  Cu107  1  0.37514562  0.87602778  0.37165220  1
  Cu2+  Cu108  1  0.37471976  0.62533712  0.14437033  1
  Cu2+  Cu109  1  0.37515941  0.87514918  0.15256541  1
  Cu2+  Cu110  1  0.62471224  0.87457854  0.64634656  1
  Cu2+  Cu111  1  0.12674522  0.37473522  0.65395027  1
  Cu2+  Cu112  1  0.62355682  0.37527026  0.64502245  1
  Cu2+  Cu113  1  0.12645484  0.62546976  0.64081722  1
  Cu2+  Cu114  1  0.87593260  0.62529604  0.63924326  1
  Cu2+  Cu115  1  0.62558599  0.87396691  0.15455367  1
  Cu2+  Cu116  1  0.87653166  0.87678807  0.65280032  1
  Cu2+  Cu117  1  0.87539035  0.62536952  0.15639205  1
  Cu2+  Cu118  1  0.12500281  0.12532217  0.14212643  1
  Cu2+  Cu119  1  0.12566598  0.12484723  0.65255744  1
  Cu2+  Cu120  1  0.87522687  0.37478083  0.15296757  1
  Cu2+  Cu121  1  0.37322253  0.87592565  0.64289554  1
  Cu2+  Cu122  1  0.62507065  0.62485115  0.16002739  1
  Cu2+  Cu123  1  0.62433416  0.37575929  0.15578228  1
  Cu2+  Cu124  1  0.62441863  0.12525619  0.64873971  1
  Cu2+  Cu125  1  0.12420732  0.87358223  0.15190863  1
  Cu2+  Cu126  1  0.87618627  0.37321133  0.64211289  1
  Cu2+  Cu127  1  0.62481267  0.12498655  0.14280985  1
  O2-  O128  1  0.12467114  0.12456888  0.00763920  1
  O2-  O129  1  0.12459061  0.12626457  0.49490774  1
  O2-  O130  1  0.12336499  0.37794292  0.00736633  1
  O2-  O131  1  0.12615681  0.37322819  0.49448240  1
  O2-  O132  1  0.12335368  0.62533800  0.00795577  1
  O2-  O133  1  0.12610019  0.62473662  0.50671492  1
  O2-  O134  1  0.12431346  0.87156730  -0.00158075  1
  O2-  O135  1  0.12561829  0.87643334  0.51673543  1
  O2-  O136  1  0.37686556  0.12293353  0.00849062  1
  O2-  O137  1  0.37346036  0.12655139  0.52004925  1
  O2-  O138  1  0.37755580  0.37639151  0.00862693  1
  O2-  O139  1  0.37255996  0.37237499  0.52077728  1
  O2-  O140  1  0.37711267  0.62626301  0.00875015  1
  O2-  O141  1  0.37370986  0.62319546  0.51588934  1
  O2-  O142  1  0.37788229  0.87385881  -0.00183928  1
  O2-  O143  1  0.37359293  0.87689254  0.50682673  1
  O2-  O144  1  0.62557552  0.12508394  0.00727248  1
  O2-  O145  1  0.62484041  0.12449148  0.49688389  1
  O2-  O146  1  0.62663547  0.37983868  -0.00472888  1
  O2-  O147  1  0.62303736  0.37272086  0.49701081  1
  O2-  O148  1  0.62698287  0.62501970  -0.00695317  1
  O2-  O149  1  0.62345204  0.62464035  0.50522365  1
  O2-  O150  1  0.62527896  0.86986989  -0.00517924  1
  O2-  O151  1  0.62618758  0.87734888  0.49680268  1
  O2-  O152  1  0.87298946  0.12589874  0.00729858  1
  O2-  O153  1  0.87675201  0.12380043  0.51940800  1
  O2-  O154  1  0.87121007  0.37845627  -0.00327357  1
  O2-  O155  1  0.87697551  0.37226396  0.50695841  1
  O2-  O156  1  0.87141070  0.62448922  -0.00506213  1
  O2-  O157  1  0.87552457  0.62638427  0.50585873  1
  O2-  O158  1  0.87311472  0.87215931  0.00588883  1
  O2-  O159  1  0.87505578  0.87916331  0.49515534  1
  O2-  O160  1  0.12523919  -0.00162555  0.16269157  1
  O2-  O161  1  0.12480985  -0.00003005  0.66788706  1
  O2-  O162  1  0.12482213  0.25366223  0.16002429  1
  O2-  O163  1  0.12605833  0.24974104  0.66807900  1
  O2-  O164  1  0.12596780  0.50003158  0.16215583  1
  O2-  O165  1  0.12640088  0.49870571  0.66640648  1
  O2-  O166  1  0.12341316  0.74777666  0.16413179  1
  O2-  O167  1  0.12481495  0.75192653  0.66660063  1
  O2-  O168  1  0.37477830  0.00045754  0.16196261  1
  O2-  O169  1  0.37499133  0.00198620  0.66911591  1
  O2-  O170  1  0.37577232  0.25006516  0.16055342  1
  O2-  O171  1  0.37450794  0.24957080  0.67568118  1
  O2-  O172  1  0.37454853  0.49711276  0.16491870  1
  O2-  O173  1  0.37459758  0.49995291  0.67011938  1
  O2-  O174  1  0.37520724  0.75166581  0.16697299  1
  O2-  O175  1  0.37469766  0.74888763  0.66366811  1
  O2-  O176  1  0.62559447  -0.00176870  0.16195832  1
  O2-  O177  1  0.62508358  -0.00070125  0.66553036  1
  O2-  O178  1  0.62415900  0.25166154  0.16292986  1
  O2-  O179  1  0.62436469  0.25052648  0.66616257  1
  O2-  O180  1  0.62501211  0.50037340  0.16779002  1
  O2-  O181  1  0.62371243  0.50184998  0.65923834  1
  O2-  O182  1  0.62538797  0.74929199  0.16728020  1
  O2-  O183  1  0.62498787  0.74830674  0.65797502  1
  O2-  O184  1  0.87382590  -0.00026921  0.15735146  1
  O2-  O185  1  0.87518905  0.00140547  0.67234939  1
  O2-  O186  1  0.87529016  0.24913215  0.16130879  1
  O2-  O187  1  0.87576667  0.24770373  0.67011394  1
  O2-  O188  1  0.87459573  0.50001167  0.16708357  1
  O2-  O189  1  0.87619070  0.49899089  0.66062876  1
  O2-  O190  1  0.87535595  0.75137399  0.16310641  1
  O2-  O191  1  0.87594427  0.75259240  0.66257517  1
  O2-  O192  1  -0.00329816  0.12462726  0.16190635  1
  O2-  O193  1  0.00101292  0.12516995  0.66909154  1
  O2-  O194  1  0.00157907  0.37629471  0.16130306  1
  O2-  O195  1  0.00288871  0.37370229  0.66716685  1
  O2-  O196  1  0.00134644  0.62370291  0.16336731  1
  O2-  O197  1  0.00045290  0.62486784  0.66504492  1
  O2-  O198  1  -0.00275669  0.87559712  0.16136112  1
  O2-  O199  1  0.00119926  0.87656387  0.66918519  1
  O2-  O200  1  0.25320082  0.12537624  0.16285199  1
  O2-  O201  1  0.24987198  0.12574310  0.67113280  1
  O2-  O202  1  0.25049481  0.37422123  0.15986358  1
  O2-  O203  1  0.25096567  0.37440909  0.67482107  1
  O2-  O204  1  0.24697461  0.62557064  0.16370608  1
  O2-  O205  1  0.25227103  0.62454583  0.67150630  1
  O2-  O206  1  0.24943352  0.87415722  0.16414533  1
  O2-  O207  1  0.24818891  0.87590071  0.67074363  1
  O2-  O208  1  0.49733600  0.12425833  0.16472276  1
  O2-  O209  1  0.49987140  0.12546159  0.66656056  1
  O2-  O210  1  0.49826583  0.37550954  0.16394461  1
  O2-  O211  1  0.49837582  0.37456746  0.66733191  1
  O2-  O212  1  0.50097474  0.62475370  0.16744201  1
  O2-  O213  1  0.50019622  0.62494979  0.66323513  1
  O2-  O214  1  0.50110796  0.87465179  0.16527008  1
  O2-  O215  1  0.50025588  0.87561974  0.66233138  1
  O2-  O216  1  0.75262279  0.12572952  0.16370950  1
  O2-  O217  1  0.74952691  0.12468938  0.66463259  1
  O2-  O218  1  0.74966665  0.37492159  0.16572598  1
  O2-  O219  1  0.74842709  0.37415511  0.65948812  1
  O2-  O220  1  0.75043011  0.62510349  0.16695810  1
  O2-  O221  1  0.74739539  0.62517681  0.65757320  1
  O2-  O222  1  0.75173291  0.87407856  0.16160215  1
  O2-  O223  1  0.75091894  0.87592527  0.66222849  1
  O2-  O224  1  0.12493550  0.00078450  0.34584633  1
  O2-  O225  1  0.12451534  -0.00302353  0.84928479  1
  O2-  O226  1  0.12600113  0.24939663  0.34099253  1
  O2-  O227  1  0.12479546  0.25363027  0.85309524  1
  O2-  O228  1  0.12582837  0.49847836  0.34503508  1
  O2-  O229  1  0.12483294  0.50082862  0.85079467  1
  O2-  O230  1  0.12523759  0.75135419  0.34893602  1
  O2-  O231  1  0.12383976  0.74866978  0.84731769  1
  O2-  O232  1  0.37470916  0.00143409  0.34590287  1
  O2-  O233  1  0.37572089  -0.00000401  0.85006515  1
  O2-  O234  1  0.37426309  0.24934024  0.34498035  1
  O2-  O235  1  0.37459456  0.25076250  0.85840569  1
  O2-  O236  1  0.37487465  0.49957365  0.34947897  1
  O2-  O237  1  0.37492339  0.49713856  0.85198963  1
  O2-  O238  1  0.37447684  0.74946632  0.35062037  1
  O2-  O239  1  0.37518952  0.75199912  0.84429573  1
  O2-  O240  1  0.62465625  0.00031722  0.34327807  1
  O2-  O241  1  0.62570072  -0.00293985  0.84875599  1
  O2-  O242  1  0.62446581  0.24927120  0.34454466  1
  O2-  O243  1  0.62554725  0.25299210  0.84900452  1
  O2-  O244  1  0.62314909  0.50063584  0.35085326  1
  O2-  O245  1  0.62549680  0.50038934  0.83951478  1
  O2-  O246  1  0.62515232  0.74935774  0.35046021  1
  O2-  O247  1  0.62615348  0.74972586  0.83854587  1
  O2-  O248  1  0.87548911  -0.00035975  0.34033575  1
  O2-  O249  1  0.87439347  -0.00102429  0.85601083  1
  O2-  O250  1  0.87481673  0.24749498  0.34557624  1
  O2-  O251  1  0.87544553  0.25016472  0.85179721  1
  O2-  O252  1  0.87532585  0.49964388  0.35142277  1
  O2-  O253  1  0.87554935  0.50032808  0.84120538  1
  O2-  O254  1  0.87466866  0.75287295  0.34665273  1
  O2-  O255  1  0.87504259  0.75067931  0.84530462  1
  O2-  O256  1  0.00041703  0.12477472  0.34444153  1
  O2-  O257  1  -0.00375106  0.12473301  0.85231175  1
  O2-  O258  1  0.00191360  0.37357883  0.34404623  1
  O2-  O259  1  0.00059136  0.37587144  0.85042227  1
  O2-  O260  1  -0.00004355  0.62583138  0.34751831  1
  O2-  O261  1  0.00026082  0.62508881  0.84825338  1
  O2-  O262  1  -0.00024562  0.87577534  0.34490842  1
  O2-  O263  1  -0.00179463  0.87470209  0.85111279  1
  O2-  O264  1  0.24986430  0.12497397  0.34621654  1
  O2-  O265  1  0.25358496  0.12521876  0.85362194  1
  O2-  O266  1  0.24989890  0.37455809  0.34306193  1
  O2-  O267  1  0.24953931  0.37579992  0.85827535  1
  O2-  O268  1  0.25162754  0.62480304  0.34761749  1
  O2-  O269  1  0.24689729  0.62500386  0.85414201  1
  O2-  O270  1  0.24867208  0.87556837  0.34894964  1
  O2-  O271  1  0.25009058  0.87445059  0.85029311  1
  O2-  O272  1  0.50018879  0.12564167  0.34773315  1
  O2-  O273  1  0.49741548  0.12573051  0.84942052  1
  O2-  O274  1  0.49944554  0.37401875  0.34789782  1
  O2-  O275  1  0.49963635  0.37521779  0.84856880  1
  O2-  O276  1  0.50121003  0.62500532  0.35108844  1
  O2-  O277  1  0.50252131  0.62497984  0.84370581  1
  O2-  O278  1  0.50192486  0.87509655  0.34805795  1
  O2-  O279  1  0.50056775  0.87452545  0.84348525  1
  O2-  O280  1  0.74924909  0.12430145  0.34616553  1
  O2-  O281  1  0.75306958  0.12478852  0.84737395  1
  O2-  O282  1  0.74807427  0.37443032  0.34887640  1
  O2-  O283  1  0.75059439  0.37560739  0.84017948  1
  O2-  O284  1  0.74663984  0.62459379  0.35034586  1
  O2-  O285  1  0.75056526  0.62516653  0.83739452  1
  O2-  O286  1  0.74921488  0.87601313  0.34268614  1
  O2-  O287  1  0.75152276  0.87437767  0.84520856  1
