# generated using pymatgen
data_BaYFeCuO5
_symmetry_space_group_name_H-M   'P 1'
_cell_length_a   15.66655278
_cell_length_b   15.66903775
_cell_length_c   15.48367207
_cell_angle_alpha   90.00466187
_cell_angle_beta   89.99122135
_cell_angle_gamma   90.00567633
_symmetry_Int_Tables_number   1
_chemical_formula_structural   BaYFeCuO5
_chemical_formula_sum   'Ba32 Y32 Fe32 Cu32 O160'
_cell_volume   3800.92875567
_cell_formula_units_Z   32
loop_
 _symmetry_equiv_pos_site_id
 _symmetry_equiv_pos_as_xyz
  1  'x, y, z'
loop_
 _atom_type_symbol
 _atom_type_oxidation_number
  Ba2+  2.0
  Y3+  3.0
  Fe3+  3.0
  Cu2+  2.0
  O2-  -2.0
loop_
 _atom_site_type_symbol
 _atom_site_label
 _atom_site_symmetry_multiplicity
 _atom_site_fract_x
 _atom_site_fract_y
 _atom_site_fract_z
 _atom_site_occupancy
  Ba2+  Ba0  1  0.00202479  -0.00221144  0.01910482  1
  Ba2+  Ba1  1  0.00045551  0.00063716  0.52069523  1
  Ba2+  Ba2  1  -0.00053123  0.25057232  0.02545918  1
  Ba2+  Ba3  1  0.00090545  0.24706362  0.51009698  1
  Ba2+  Ba4  1  -0.00054914  0.50351450  0.01547498  1
  Ba2+  Ba5  1  0.00046271  0.50301902  0.51246958  1
  Ba2+  Ba6  1  0.00223651  0.74770087  0.01039824  1
  Ba2+  Ba7  1  0.00019839  0.74922930  0.52367843  1
  Ba2+  Ba8  1  0.24253744  -0.00546026  0.00574682  1
  Ba2+  Ba9  1  0.24499175  0.00738544  0.51107816  1
  Ba2+  Ba10  1  0.24518753  0.25439229  0.02437416  1
  Ba2+  Ba11  1  0.24535289  0.24160534  0.50253322  1
  Ba2+  Ba12  1  0.24217080  0.49752065  0.01785230  1
  Ba2+  Ba13  1  0.23795359  0.50213626  0.50161185  1
  Ba2+  Ba14  1  0.23993526  0.75281590  0.00136153  1
  Ba2+  Ba15  1  0.23740053  0.74950364  0.51222480  1
  Ba2+  Ba16  1  0.49953192  0.00128621  0.00667531  1
  Ba2+  Ba17  1  0.50424464  0.00839008  0.50249334  1
  Ba2+  Ba18  1  0.50413868  0.25406619  0.01270669  1
  Ba2+  Ba19  1  0.50398769  0.24112447  0.50300853  1
  Ba2+  Ba20  1  0.50350423  0.49471163  0.01239094  1
  Ba2+  Ba21  1  0.50522642  0.49477699  0.50251822  1
  Ba2+  Ba22  1  0.49959595  0.74963422  0.00669631  1
  Ba2+  Ba23  1  0.50508063  0.75590342  0.50169857  1
  Ba2+  Ba24  1  0.75572234  0.00556865  0.02104714  1
  Ba2+  Ba25  1  0.74938163  0.00274949  0.51046817  1
  Ba2+  Ba26  1  0.75204440  0.25090286  0.01831371  1
  Ba2+  Ba27  1  0.74968376  0.24613656  0.51084761  1
  Ba2+  Ba28  1  0.75495757  0.50058967  0.01192491  1
  Ba2+  Ba29  1  0.75725824  0.49613706  0.51264769  1
  Ba2+  Ba30  1  0.75788653  0.74427607  0.01484732  1
  Ba2+  Ba31  1  0.75741531  0.75523766  0.51268261  1
  Y3+  Y32  1  0.00160106  -0.00027937  0.25370034  1
  Y3+  Y33  1  0.00176432  -0.00107058  0.75618311  1
  Y3+  Y34  1  0.00224492  0.24959440  0.25873722  1
  Y3+  Y35  1  -0.00131564  0.24909784  0.75153944  1
  Y3+  Y36  1  0.00186771  0.50168395  0.25578257  1
  Y3+  Y37  1  -0.00099977  0.50348011  0.75796442  1
  Y3+  Y38  1  0.00121797  0.74905265  0.25134816  1
  Y3+  Y39  1  0.00182574  0.74819131  0.76145611  1
  Y3+  Y40  1  0.24791614  0.00173323  0.25853633  1
  Y3+  Y41  1  0.24831721  -0.00038693  0.75623191  1
  Y3+  Y42  1  0.24787630  0.24883952  0.26240640  1
  Y3+  Y43  1  0.24991550  0.24715875  0.75239093  1
  Y3+  Y44  1  0.24560973  0.49997173  0.25870780  1
  Y3+  Y45  1  0.24671054  0.50188921  0.75703830  1
  Y3+  Y46  1  0.24541418  0.74933751  0.25610206  1
  Y3+  Y47  1  0.24522755  0.75097604  0.75989048  1
  Y3+  Y48  1  0.50125324  0.00252437  0.26010189  1
  Y3+  Y49  1  0.49805207  0.00223151  0.75595972  1
  Y3+  Y50  1  0.50098966  0.24816851  0.26129339  1
  Y3+  Y51  1  0.50034456  0.24781276  0.75443752  1
  Y3+  Y52  1  0.50073170  0.49907413  0.25839812  1
  Y3+  Y53  1  0.50032866  0.49846311  0.75790582  1
  Y3+  Y54  1  0.50154213  0.75014286  0.25749285  1
  Y3+  Y55  1  0.49820316  0.75140980  0.75923420  1
  Y3+  Y56  1  0.74968370  0.00090287  0.25760717  1
  Y3+  Y57  1  0.75150863  0.00181355  0.75410190  1
  Y3+  Y58  1  0.74960854  0.24872407  0.25925788  1
  Y3+  Y59  1  0.75042901  0.24973831  0.75400386  1
  Y3+  Y60  1  0.75221037  0.50079285  0.25596475  1
  Y3+  Y61  1  0.75351319  0.49937608  0.75867309  1
  Y3+  Y62  1  0.75200389  0.74976410  0.25417259  1
  Y3+  Y63  1  0.75431306  0.74899456  0.75885829  1
  Fe3+  Fe64  1  0.12394370  0.37340999  0.87525070  1
  Fe3+  Fe65  1  0.37428014  0.37475113  0.37962617  1
  Fe3+  Fe66  1  0.87521360  0.87628888  0.87772315  1
  Fe3+  Fe67  1  0.87593280  0.37354648  0.87622215  1
  Fe3+  Fe68  1  0.37400923  0.87554855  0.38083475  1
  Fe3+  Fe69  1  0.37360406  0.62388445  0.88007309  1
  Fe3+  Fe70  1  0.37346647  0.37392831  0.87709035  1
  Fe3+  Fe71  1  0.62778454  0.62523765  0.37970026  1
  Fe3+  Fe72  1  0.87690902  0.62650084  0.37605515  1
  Fe3+  Fe73  1  0.12374476  0.12688134  0.87698777  1
  Fe3+  Fe74  1  0.87604657  0.37508410  0.37608845  1
  Fe3+  Fe75  1  0.62562552  0.62390845  0.87767673  1
  Fe3+  Fe76  1  0.37334171  0.12606066  0.88053506  1
  Fe3+  Fe77  1  0.87631056  0.12359775  0.37553065  1
  Fe3+  Fe78  1  0.87602628  0.12587333  0.87599693  1
  Fe3+  Fe79  1  0.37413825  0.62602663  0.38072809  1
  Fe3+  Fe80  1  0.62626782  0.12610121  0.87752512  1
  Fe3+  Fe81  1  0.12252106  0.87478912  0.37691670  1
  Fe3+  Fe82  1  0.87642270  0.87488573  0.37504765  1
  Fe3+  Fe83  1  0.62630965  0.87590906  0.88026016  1
  Fe3+  Fe84  1  0.37469924  0.12538014  0.13637475  1
  Fe3+  Fe85  1  0.62558544  0.62568152  0.63509902  1
  Fe3+  Fe86  1  0.62539813  0.37468610  0.63693288  1
  Fe3+  Fe87  1  0.62515081  0.87534903  0.63883192  1
  Fe3+  Fe88  1  0.37425394  0.87499230  0.13809248  1
  Fe3+  Fe89  1  0.12438714  0.37505017  0.63535352  1
  Fe3+  Fe90  1  0.37448020  0.62471365  0.13626824  1
  Fe3+  Fe91  1  0.62584990  0.37493005  0.14157171  1
  Fe3+  Fe92  1  0.37481539  0.62516065  0.63374969  1
  Fe3+  Fe93  1  0.62498793  0.87519895  0.13562634  1
  Fe3+  Fe94  1  0.37420485  0.37491129  0.63256340  1
  Fe3+  Fe95  1  0.37424046  0.87520582  0.63520331  1
  Cu2+  Cu96  1  0.62541537  0.37413737  0.86181724  1
  Cu2+  Cu97  1  0.12332136  0.87647057  0.87087939  1
  Cu2+  Cu98  1  0.12268756  0.12307598  0.37078512  1
  Cu2+  Cu99  1  0.62671133  0.37535822  0.36579624  1
  Cu2+  Cu100  1  0.37432798  0.12396335  0.37248897  1
  Cu2+  Cu101  1  0.12458282  0.62328715  0.87303940  1
  Cu2+  Cu102  1  0.87553566  0.62445434  0.87275980  1
  Cu2+  Cu103  1  0.37475762  0.87568282  0.86514483  1
  Cu2+  Cu104  1  0.62725286  0.12477255  0.37074747  1
  Cu2+  Cu105  1  0.12338919  0.37516464  0.36678931  1
  Cu2+  Cu106  1  0.12276110  0.62693581  0.37162418  1
  Cu2+  Cu107  1  0.62643220  0.87454289  0.36260246  1
  Cu2+  Cu108  1  0.12465925  0.37486701  0.15640297  1
  Cu2+  Cu109  1  0.12485285  0.87488637  0.65191981  1
  Cu2+  Cu110  1  0.87534570  0.87508484  0.65265977  1
  Cu2+  Cu111  1  0.87464529  0.62526032  0.65157938  1
  Cu2+  Cu112  1  0.62483608  0.12435525  0.64305945  1
  Cu2+  Cu113  1  0.62437748  0.12501479  0.15149008  1
  Cu2+  Cu114  1  0.87581127  0.62450003  0.14197903  1
  Cu2+  Cu115  1  0.87527439  0.37500061  0.64768899  1
  Cu2+  Cu116  1  0.37487551  0.12467078  0.64041724  1
  Cu2+  Cu117  1  0.87570229  0.12540872  0.15303322  1
  Cu2+  Cu118  1  0.12602469  0.87482005  0.14213351  1
  Cu2+  Cu119  1  0.37498602  0.37479335  0.15582442  1
  Cu2+  Cu120  1  0.12608712  0.12484310  0.15134835  1
  Cu2+  Cu121  1  0.87478050  0.12463187  0.64786791  1
  Cu2+  Cu122  1  0.12588125  0.62527370  0.14185076  1
  Cu2+  Cu123  1  0.62454014  0.62477708  0.15011012  1
  Cu2+  Cu124  1  0.87555274  0.37481214  0.15333694  1
  Cu2+  Cu125  1  0.12482989  0.12515513  0.64180302  1
  Cu2+  Cu126  1  0.87516847  0.87513845  0.14731384  1
  Cu2+  Cu127  1  0.12476050  0.62454069  0.64403922  1
  O2-  O128  1  0.12530145  0.12809976  -0.00301708  1
  O2-  O129  1  0.12276897  0.12371236  0.50632055  1
  O2-  O130  1  0.12483591  0.37256787  -0.00455456  1
  O2-  O131  1  0.12439498  0.37549801  0.51464354  1
  O2-  O132  1  0.12654563  0.62327737  0.00730010  1
  O2-  O133  1  0.12327482  0.62635156  0.50790742  1
  O2-  O134  1  0.12449091  0.87589205  0.00647456  1
  O2-  O135  1  0.12186520  0.87475571  0.49743652  1
  O2-  O136  1  0.37384133  0.12670008  0.00742054  1
  O2-  O137  1  0.37546248  0.12394653  0.50657643  1
  O2-  O138  1  0.37406969  0.37441796  -0.00318117  1
  O2-  O139  1  0.37481675  0.37541224  0.50657632  1
  O2-  O140  1  0.37495610  0.62366552  0.00789592  1
  O2-  O141  1  0.37535778  0.62598421  0.50734769  1
  O2-  O142  1  0.37596612  0.87462905  0.01810825  1
  O2-  O143  1  0.37515058  0.87499635  0.50803401  1
  O2-  O144  1  0.62557947  0.12646927  -0.00242297  1
  O2-  O145  1  0.62692849  0.12404555  0.50673358  1
  O2-  O146  1  0.62459576  0.37530048  0.02038451  1
  O2-  O147  1  0.62590170  0.37561286  0.51654312  1
  O2-  O148  1  0.62364895  0.62326302  -0.00194100  1
  O2-  O149  1  0.62647910  0.62675346  0.50754648  1
  O2-  O150  1  0.62500353  0.87533092  0.00734533  1
  O2-  O151  1  0.62534878  0.87434990  0.51846206  1
  O2-  O152  1  0.87531508  0.12736795  -0.00427894  1
  O2-  O153  1  0.87546464  0.12289755  0.49595455  1
  O2-  O154  1  0.87569022  0.37270974  -0.00368751  1
  O2-  O155  1  0.87581987  0.37534658  0.49659556  1
  O2-  O156  1  0.87455596  0.62354676  0.00675790  1
  O2-  O157  1  0.87501284  0.62687839  0.49652785  1
  O2-  O158  1  0.87343093  0.87723931  -0.00202397  1
  O2-  O159  1  0.87670590  0.87489093  0.49518563  1
  O2-  O160  1  0.12676784  0.00115000  0.16303711  1
  O2-  O161  1  0.12563088  -0.00128742  0.66505307  1
  O2-  O162  1  0.12666282  0.25004921  0.16662798  1
  O2-  O163  1  0.12548936  0.25200963  0.66250894  1
  O2-  O164  1  0.12618650  0.49868014  0.16615151  1
  O2-  O165  1  0.12523857  0.49825470  0.66587365  1
  O2-  O166  1  0.12663767  0.75016019  0.16400357  1
  O2-  O167  1  0.12513130  0.75074111  0.66742163  1
  O2-  O168  1  0.37623843  0.00143977  0.16445953  1
  O2-  O169  1  0.37476307  -0.00369242  0.66659515  1
  O2-  O170  1  0.37505374  0.24846809  0.16498495  1
  O2-  O171  1  0.37539450  0.25363317  0.66305997  1
  O2-  O172  1  0.37603276  0.50130830  0.16636636  1
  O2-  O173  1  0.37634541  0.50050852  0.66198526  1
  O2-  O174  1  0.37641118  0.74870216  0.16740617  1
  O2-  O175  1  0.37614606  0.74992640  0.66396243  1
  O2-  O176  1  0.62361245  -0.00111174  0.16170262  1
  O2-  O177  1  0.62424194  -0.00216527  0.66896358  1
  O2-  O178  1  0.62448259  0.24996880  0.16718481  1
  O2-  O179  1  0.62469285  0.25161162  0.66493167  1
  O2-  O180  1  0.62399166  0.49939786  0.16989137  1
  O2-  O181  1  0.62406694  0.50180540  0.66346038  1
  O2-  O182  1  0.62368520  0.75167412  0.16314563  1
  O2-  O183  1  0.62400497  0.74894228  0.66766267  1
  O2-  O184  1  0.87456240  0.00063908  0.16188212  1
  O2-  O185  1  0.87440835  0.00069884  0.66326541  1
  O2-  O186  1  0.87478883  0.24974392  0.16579711  1
  O2-  O187  1  0.87386732  0.24834617  0.65984192  1
  O2-  O188  1  0.87486156  0.49855488  0.16602727  1
  O2-  O189  1  0.87410766  0.50095036  0.66419838  1
  O2-  O190  1  0.87406068  0.75120149  0.16297159  1
  O2-  O191  1  0.87444806  0.74993721  0.66632181  1
  O2-  O192  1  0.00113143  0.12527400  0.16157676  1
  O2-  O193  1  -0.00210651  0.12480355  0.66188193  1
  O2-  O194  1  0.00011137  0.37468803  0.16281414  1
  O2-  O195  1  -0.00045724  0.37501182  0.66177685  1
  O2-  O196  1  0.00074704  0.62480913  0.16180959  1
  O2-  O197  1  -0.00166975  0.62524108  0.66554805  1
  O2-  O198  1  -0.00076348  0.87527230  0.16015731  1
  O2-  O199  1  -0.00030236  0.87509681  0.66352722  1
  O2-  O200  1  0.25219221  0.12542042  0.16632100  1
  O2-  O201  1  0.24989617  0.12468620  0.66501800  1
  O2-  O202  1  0.25022945  0.37548618  0.16790689  1
  O2-  O203  1  0.25125883  0.37633625  0.66275393  1
  O2-  O204  1  0.25309482  0.62426601  0.16728028  1
  O2-  O205  1  0.25355141  0.62546080  0.66500713  1
  O2-  O206  1  0.25259251  0.87499051  0.17047524  1
  O2-  O207  1  0.25133965  0.87334759  0.66304107  1
  O2-  O208  1  0.49775026  0.12554183  0.16509800  1
  O2-  O209  1  0.49989054  0.12448446  0.66736492  1
  O2-  O210  1  0.50049711  0.37512411  0.16987688  1
  O2-  O211  1  0.49891044  0.37630665  0.66489222  1
  O2-  O212  1  0.49785328  0.62491392  0.16806377  1
  O2-  O213  1  0.50006021  0.62563777  0.66329832  1
  O2-  O214  1  0.50097004  0.87457703  0.16821519  1
  O2-  O215  1  0.49842378  0.87385734  0.66791557  1
  O2-  O216  1  0.74995159  0.12485196  0.16327747  1
  O2-  O217  1  0.75164558  0.12419830  0.66228092  1
  O2-  O218  1  0.75015220  0.37501136  0.16585609  1
  O2-  O219  1  0.74998903  0.37609437  0.66467667  1
  O2-  O220  1  0.74888153  0.62489305  0.16474099  1
  O2-  O221  1  0.74805888  0.62573205  0.66232986  1
  O2-  O222  1  0.74790041  0.87506814  0.16187730  1
  O2-  O223  1  0.74988064  0.87400319  0.66573192  1
  O2-  O224  1  0.12547851  -0.00305879  0.34470406  1
  O2-  O225  1  0.12568079  0.00324362  0.84716036  1
  O2-  O226  1  0.12483706  0.25033584  0.35089702  1
  O2-  O227  1  0.12564050  0.24944438  0.84025588  1
  O2-  O228  1  0.12527714  0.50027061  0.35023196  1
  O2-  O229  1  0.12575848  0.49730136  0.84626111  1
  O2-  O230  1  0.12528529  0.75220172  0.34518677  1
  O2-  O231  1  0.12552729  0.74997816  0.85136212  1
  O2-  O232  1  0.37575090  -0.00407245  0.34772825  1
  O2-  O233  1  0.37549676  0.00268310  0.85197898  1
  O2-  O234  1  0.37521489  0.25313319  0.35028496  1
  O2-  O235  1  0.37530599  0.24835207  0.84551741  1
  O2-  O236  1  0.37561187  0.50076100  0.35266800  1
  O2-  O237  1  0.37536103  0.50046686  0.84583406  1
  O2-  O238  1  0.37741539  0.74999434  0.35174274  1
  O2-  O239  1  0.37586915  0.74807480  0.85062704  1
  O2-  O240  1  0.62505853  -0.00155830  0.34632489  1
  O2-  O241  1  0.62366605  -0.00029636  0.85042767  1
  O2-  O242  1  0.62490675  0.25143240  0.34976425  1
  O2-  O243  1  0.62389030  0.24918664  0.84634348  1
  O2-  O244  1  0.62468629  0.50267214  0.35293743  1
  O2-  O245  1  0.62356983  0.49987570  0.84596332  1
  O2-  O246  1  0.62408016  0.74726117  0.34849339  1
  O2-  O247  1  0.62323830  0.75119421  0.85045913  1
  O2-  O248  1  0.87427023  -0.00104535  0.34330150  1
  O2-  O249  1  0.87396644  0.00097634  0.84461943  1
  O2-  O250  1  0.87541712  0.24970830  0.34792949  1
  O2-  O251  1  0.87447180  0.24963141  0.84096805  1
  O2-  O252  1  0.87488282  0.50107790  0.34758243  1
  O2-  O253  1  0.87456688  0.49772558  0.84740274  1
  O2-  O254  1  0.87405602  0.75020112  0.34357854  1
  O2-  O255  1  0.87404051  0.75178159  0.84972328  1
  O2-  O256  1  -0.00197174  0.12403819  0.34373529  1
  O2-  O257  1  -0.00031708  0.12552640  0.84291892  1
  O2-  O258  1  -0.00076227  0.37551917  0.34553289  1
  O2-  O259  1  -0.00002220  0.37409740  0.84218313  1
  O2-  O260  1  -0.00181407  0.62573648  0.34344992  1
  O2-  O261  1  0.00020105  0.62445494  0.84906684  1
  O2-  O262  1  -0.00051969  0.87463668  0.34085184  1
  O2-  O263  1  -0.00223452  0.87593378  0.84623465  1
  O2-  O264  1  0.24913594  0.12440005  0.35008786  1
  O2-  O265  1  0.25102954  0.12517302  0.84740238  1
  O2-  O266  1  0.25092804  0.37601506  0.35259641  1
  O2-  O267  1  0.25015661  0.37466494  0.84238214  1
  O2-  O268  1  0.25270226  0.62578762  0.35167812  1
  O2-  O269  1  0.25279455  0.62468367  0.84899124  1
  O2-  O270  1  0.25084771  0.87350950  0.35190560  1
  O2-  O271  1  0.25087430  0.87534729  0.84785508  1
  O2-  O272  1  0.50061758  0.12457428  0.34945147  1
  O2-  O273  1  0.49861255  0.12520585  0.85024242  1
  O2-  O274  1  0.49897024  0.37642837  0.35341427  1
  O2-  O275  1  0.49879711  0.37509849  0.84751082  1
  O2-  O276  1  0.50015332  0.62492748  0.35399585  1
  O2-  O277  1  0.49840671  0.62470980  0.84744852  1
  O2-  O278  1  0.49925589  0.87388718  0.35287452  1
  O2-  O279  1  0.50190154  0.87488591  0.85167711  1
  O2-  O280  1  0.75259620  0.12454253  0.34603242  1
  O2-  O281  1  0.74998301  0.12523511  0.84365331  1
  O2-  O282  1  0.75144441  0.37590508  0.34722185  1
  O2-  O283  1  0.75036581  0.37463242  0.84691837  1
  O2-  O284  1  0.75010903  0.62573727  0.34767126  1
  O2-  O285  1  0.74773185  0.62480438  0.84553428  1
  O2-  O286  1  0.75074717  0.87396330  0.34558750  1
  O2-  O287  1  0.74832550  0.87509003  0.84705072  1
