# generated using pymatgen
data_BaYFeCuO5
_symmetry_space_group_name_H-M   'P 1'
_cell_length_a   15.66469695
_cell_length_b   15.66330811
_cell_length_c   15.47085780
_cell_angle_alpha   89.99825221
_cell_angle_beta   89.99397243
_cell_angle_gamma   90.00197435
_symmetry_Int_Tables_number   1
_chemical_formula_structural   BaYFeCuO5
_chemical_formula_sum   'Ba32 Y32 Fe32 Cu32 O160'
_cell_volume   3795.94472325
_cell_formula_units_Z   32
loop_
 _symmetry_equiv_pos_site_id
 _symmetry_equiv_pos_as_xyz
  1  'x, y, z'
loop_
 _atom_type_symbol
 _atom_type_oxidation_number
  Ba2+  2.0
  Y3+  3.0
  Fe3+  3.0
  Cu2+  2.0
  O2-  -2.0
loop_
 _atom_site_type_symbol
 _atom_site_label
 _atom_site_symmetry_multiplicity
 _atom_site_fract_x
 _atom_site_fract_y
 _atom_site_fract_z
 _atom_site_occupancy
  Ba2+  Ba0  1  -0.00710276  -0.00523424  0.00655494  1
  Ba2+  Ba1  1  0.00084649  -0.00126273  0.50189647  1
  Ba2+  Ba2  1  -0.00458163  0.25410138  0.01292745  1
  Ba2+  Ba3  1  -0.00384918  0.25498132  0.50740953  1
  Ba2+  Ba4  1  -0.00370898  0.49590075  0.02378712  1
  Ba2+  Ba5  1  -0.00488315  0.49331550  0.50698417  1
  Ba2+  Ba6  1  -0.00635911  0.75543219  0.01710126  1
  Ba2+  Ba7  1  0.00039701  0.75249663  0.50185268  1
  Ba2+  Ba8  1  0.25543917  -0.00360195  0.02283715  1
  Ba2+  Ba9  1  0.25619801  -0.00204850  0.51125893  1
  Ba2+  Ba10  1  0.25452251  0.25384173  0.01224282  1
  Ba2+  Ba11  1  0.25205969  0.24679354  0.50676597  1
  Ba2+  Ba12  1  0.25348041  0.49651371  0.01284373  1
  Ba2+  Ba13  1  0.24424143  0.49306257  0.50674103  1
  Ba2+  Ba14  1  0.25456861  0.75312802  0.02303619  1
  Ba2+  Ba15  1  0.24912446  0.76217937  0.51080359  1
  Ba2+  Ba16  1  0.50519360  0.00080645  0.01417339  1
  Ba2+  Ba17  1  0.49953792  0.00160071  0.52202956  1
  Ba2+  Ba18  1  0.50310843  0.24631613  0.01164039  1
  Ba2+  Ba19  1  0.50524428  0.24467169  0.51245306  1
  Ba2+  Ba20  1  0.49645072  0.49590112  0.01135440  1
  Ba2+  Ba21  1  0.51248728  0.49985789  0.50625358  1
  Ba2+  Ba22  1  0.49877617  0.75725154  0.01603755  1
  Ba2+  Ba23  1  0.50662530  0.75345316  0.51745164  1
  Ba2+  Ba24  1  0.74724511  -0.00111092  0.00126975  1
  Ba2+  Ba25  1  0.74486335  0.00398429  0.51403470  1
  Ba2+  Ba26  1  0.74688195  0.24636852  0.01123808  1
  Ba2+  Ba27  1  0.74653053  0.25283935  0.51258943  1
  Ba2+  Ba28  1  0.75401346  0.49496459  0.02296814  1
  Ba2+  Ba29  1  0.74545553  0.49892741  0.50596454  1
  Ba2+  Ba30  1  0.75289473  0.75891028  0.01088349  1
  Ba2+  Ba31  1  0.74354456  0.74370268  0.50574122  1
  Y3+  Y32  1  -0.00018744  -0.00206969  0.25769026  1
  Y3+  Y33  1  -0.00159562  -0.00111912  0.75862388  1
  Y3+  Y34  1  0.00018708  0.25088981  0.25939015  1
  Y3+  Y35  1  -0.00057162  0.25074337  0.75610916  1
  Y3+  Y36  1  -0.00136995  0.49925281  0.26028160  1
  Y3+  Y37  1  0.00046216  0.49817459  0.75346631  1
  Y3+  Y38  1  -0.00185896  0.75171369  0.25786654  1
  Y3+  Y39  1  -0.00062490  0.75213050  0.75694906  1
  Y3+  Y40  1  0.25101506  0.00009864  0.26081140  1
  Y3+  Y41  1  0.25120548  -0.00016322  0.75206681  1
  Y3+  Y42  1  0.25076436  0.24876735  0.26128560  1
  Y3+  Y43  1  0.25099750  0.25019654  0.75414626  1
  Y3+  Y44  1  0.24905719  0.49858317  0.25961818  1
  Y3+  Y45  1  0.24955693  0.49854051  0.75523195  1
  Y3+  Y46  1  0.24962787  0.75242608  0.25902424  1
  Y3+  Y47  1  0.24914770  0.75196873  0.75281240  1
  Y3+  Y48  1  0.50018798  0.00207615  0.25281793  1
  Y3+  Y49  1  0.50269083  0.00079502  0.75906903  1
  Y3+  Y50  1  0.50214788  0.24775849  0.25771076  1
  Y3+  Y51  1  0.50144333  0.24837310  0.75674125  1
  Y3+  Y52  1  0.50341506  0.49986483  0.25969936  1
  Y3+  Y53  1  0.50220862  0.49986281  0.75416584  1
  Y3+  Y54  1  0.50153505  0.75014617  0.25530353  1
  Y3+  Y55  1  0.50314384  0.75162682  0.75678997  1
  Y3+  Y56  1  0.74879336  -0.00026966  0.25245798  1
  Y3+  Y57  1  0.74826780  -0.00002954  0.76359939  1
  Y3+  Y58  1  0.74757665  0.25004801  0.25680445  1
  Y3+  Y59  1  0.74797556  0.24905055  0.75811799  1
  Y3+  Y60  1  0.74915785  0.50091103  0.26092771  1
  Y3+  Y61  1  0.74805773  0.49902043  0.75238603  1
  Y3+  Y62  1  0.75072886  0.74945158  0.25566561  1
  Y3+  Y63  1  0.74838880  0.75169173  0.75902905  1
  Fe3+  Fe64  1  0.87440565  0.37597450  0.87451554  1
  Fe3+  Fe65  1  0.37707432  0.37411530  0.38046256  1
  Fe3+  Fe66  1  0.62552035  0.12365876  0.37534333  1
  Fe3+  Fe67  1  0.12462083  0.62536195  0.88060606  1
  Fe3+  Fe68  1  0.62563465  0.62463395  0.88086991  1
  Fe3+  Fe69  1  0.37595698  0.62584271  0.38015098  1
  Fe3+  Fe70  1  0.12529043  0.12462677  0.88079344  1
  Fe3+  Fe71  1  0.87252804  0.87584987  0.37927523  1
  Fe3+  Fe72  1  0.37445447  0.62539009  0.87593694  1
  Fe3+  Fe73  1  0.62442739  0.87591127  0.37533572  1
  Fe3+  Fe74  1  0.87535316  0.62368381  0.87798283  1
  Fe3+  Fe75  1  0.12659573  0.87472508  0.87773803  1
  Fe3+  Fe76  1  0.87293092  0.37397836  0.37511640  1
  Fe3+  Fe77  1  0.37402093  0.12502864  0.87661272  1
  Fe3+  Fe78  1  0.62458640  0.37584266  0.87693798  1
  Fe3+  Fe79  1  0.37772656  0.87597019  0.37571866  1
  Fe3+  Fe80  1  0.12484172  0.62549838  0.37888850  1
  Fe3+  Fe81  1  0.12429343  0.12451529  0.37919707  1
  Fe3+  Fe82  1  0.12524261  0.37541951  0.87690426  1
  Fe3+  Fe83  1  0.37434037  0.87516568  0.87415610  1
  Fe3+  Fe84  1  0.87350241  0.87507329  0.63522404  1
  Fe3+  Fe85  1  0.87435965  0.12495651  0.63825002  1
  Fe3+  Fe86  1  0.12425755  0.62543740  0.63327429  1
  Fe3+  Fe87  1  0.12491148  0.62502544  0.13656074  1
  Fe3+  Fe88  1  0.37626491  0.37484834  0.63472301  1
  Fe3+  Fe89  1  0.12502999  0.12497518  0.13587089  1
  Fe3+  Fe90  1  0.87437392  0.62506405  0.63500474  1
  Fe3+  Fe91  1  0.12407363  0.12465552  0.63516777  1
  Fe3+  Fe92  1  0.87500462  0.12482227  0.13853900  1
  Fe3+  Fe93  1  0.37597034  0.37450057  0.14244066  1
  Fe3+  Fe94  1  0.37536036  0.62553513  0.63241365  1
  Fe3+  Fe95  1  0.62523390  0.62478057  0.13489119  1
  Cu2+  Cu96  1  0.87583808  0.12618197  0.86514064  1
  Cu2+  Cu97  1  0.62493517  0.37396022  0.37145830  1
  Cu2+  Cu98  1  0.62383414  0.87423352  0.87303854  1
  Cu2+  Cu99  1  0.87534762  0.87409260  0.87066555  1
  Cu2+  Cu100  1  0.62436485  0.12583502  0.87306395  1
  Cu2+  Cu101  1  0.12523035  0.87556942  0.37283422  1
  Cu2+  Cu102  1  0.37714954  0.12399940  0.37423861  1
  Cu2+  Cu103  1  0.12480045  0.37421478  0.37387793  1
  Cu2+  Cu104  1  0.37511280  0.37527165  0.85916841  1
  Cu2+  Cu105  1  0.87468305  0.62557692  0.36726134  1
  Cu2+  Cu106  1  0.62447508  0.62661248  0.36976136  1
  Cu2+  Cu107  1  0.87367963  0.12452784  0.36529467  1
  Cu2+  Cu108  1  0.62466834  0.37436882  0.64144413  1
  Cu2+  Cu109  1  0.12287335  0.87631231  0.63975513  1
  Cu2+  Cu110  1  0.37515402  0.62422003  0.15318032  1
  Cu2+  Cu111  1  0.62568277  0.62535780  0.64299404  1
  Cu2+  Cu112  1  0.12478500  0.87561428  0.15138618  1
  Cu2+  Cu113  1  0.12538792  0.37424894  0.15344838  1
  Cu2+  Cu114  1  0.62605899  0.12450247  0.65469244  1
  Cu2+  Cu115  1  0.62673597  0.87560117  0.65284905  1
  Cu2+  Cu116  1  0.87396988  0.37450294  0.65000868  1
  Cu2+  Cu117  1  0.12482173  0.37373324  0.63944568  1
  Cu2+  Cu118  1  0.37459309  0.12567038  0.15151813  1
  Cu2+  Cu119  1  0.87456414  0.37376560  0.15651508  1
  Cu2+  Cu120  1  0.37581482  0.12530095  0.64117568  1
  Cu2+  Cu121  1  0.87448676  0.87610942  0.14550812  1
  Cu2+  Cu122  1  0.62499388  0.37501402  0.15171787  1
  Cu2+  Cu123  1  0.37544912  0.87532951  0.15496229  1
  Cu2+  Cu124  1  0.62546013  0.12510609  0.14115029  1
  Cu2+  Cu125  1  0.37634034  0.87473421  0.65050943  1
  Cu2+  Cu126  1  0.87501361  0.62483780  0.15188525  1
  Cu2+  Cu127  1  0.62582041  0.87527342  0.14105076  1
  O2-  O128  1  0.12621450  0.12523405  0.00720317  1
  O2-  O129  1  0.12362321  0.12457460  0.50754228  1
  O2-  O130  1  0.12527645  0.37664091  -0.00295216  1
  O2-  O131  1  0.12448264  0.37380008  0.50667285  1
  O2-  O132  1  0.12525128  0.62477716  0.00666554  1
  O2-  O133  1  0.12457298  0.62552184  0.50637081  1
  O2-  O134  1  0.12774970  0.87328783  -0.00225718  1
  O2-  O135  1  0.12340932  0.87610342  0.50656305  1
  O2-  O136  1  0.37197431  0.12561926  -0.00306306  1
  O2-  O137  1  0.37622213  0.12410342  0.50724780  1
  O2-  O138  1  0.37431486  0.37578960  0.02115468  1
  O2-  O139  1  0.37655998  0.37442862  0.50760177  1
  O2-  O140  1  0.37296787  0.62457671  -0.00400142  1
  O2-  O141  1  0.37528612  0.62631536  0.50612954  1
  O2-  O142  1  0.37223940  0.87384248  -0.00559686  1
  O2-  O143  1  0.37903645  0.87520537  0.49631298  1
  O2-  O144  1  0.62475510  0.12622715  0.00653426  1
  O2-  O145  1  0.62512037  0.12283928  0.49620894  1
  O2-  O146  1  0.62485587  0.37693853  -0.00282402  1
  O2-  O147  1  0.62525563  0.37377409  0.50686212  1
  O2-  O148  1  0.62505256  0.62336805  0.00657156  1
  O2-  O149  1  0.62437844  0.62627844  0.50708218  1
  O2-  O150  1  0.62433018  0.87369333  0.00666279  1
  O2-  O151  1  0.62477820  0.87674314  0.49568629  1
  O2-  O152  1  0.87724552  0.12555911  0.01790611  1
  O2-  O153  1  0.87463850  0.12432134  0.51807459  1
  O2-  O154  1  0.87623561  0.37683885  -0.00505679  1
  O2-  O155  1  0.87258378  0.37401508  0.49643318  1
  O2-  O156  1  0.87704699  0.62233247  -0.00195360  1
  O2-  O157  1  0.87524375  0.62605531  0.51471456  1
  O2-  O158  1  0.87580089  0.87528794  0.00664742  1
  O2-  O159  1  0.87268338  0.87531923  0.50756078  1
  O2-  O160  1  0.12521268  0.00161806  0.16376496  1
  O2-  O161  1  0.12420824  0.00320866  0.66613755  1
  O2-  O162  1  0.12562013  0.24825239  0.16373767  1
  O2-  O163  1  0.12446238  0.24647885  0.66599347  1
  O2-  O164  1  0.12532454  0.50135295  0.16505789  1
  O2-  O165  1  0.12548971  0.50335090  0.66231606  1
  O2-  O166  1  0.12514095  0.74868487  0.16423355  1
  O2-  O167  1  0.12415981  0.74717202  0.66296699  1
  O2-  O168  1  0.37418403  0.00040830  0.16288829  1
  O2-  O169  1  0.37511032  -0.00170243  0.66388306  1
  O2-  O170  1  0.37409497  0.25063665  0.16986252  1
  O2-  O171  1  0.37532761  0.25248960  0.66376063  1
  O2-  O172  1  0.37425029  0.49904652  0.17184261  1
  O2-  O173  1  0.37396643  0.50096713  0.66022294  1
  O2-  O174  1  0.37401857  0.74954376  0.16450004  1
  O2-  O175  1  0.37445024  0.74890044  0.65974644  1
  O2-  O176  1  0.62482798  0.00015736  0.16269425  1
  O2-  O177  1  0.62620366  -0.00011693  0.66633580  1
  O2-  O178  1  0.62444104  0.25141182  0.16466609  1
  O2-  O179  1  0.62468406  0.24831282  0.66472298  1
  O2-  O180  1  0.62503537  0.50151130  0.16518557  1
  O2-  O181  1  0.62486599  0.50024810  0.66395794  1
  O2-  O182  1  0.62511750  0.74680054  0.16288316  1
  O2-  O183  1  0.62584745  0.75150172  0.66572810  1
  O2-  O184  1  0.87665553  0.00197664  0.16907795  1
  O2-  O185  1  0.87431530  -0.00103713  0.66626185  1
  O2-  O186  1  0.87635278  0.24952323  0.16622392  1
  O2-  O187  1  0.87535778  0.25014210  0.66528172  1
  O2-  O188  1  0.87604539  0.49847596  0.16584853  1
  O2-  O189  1  0.87553964  0.49944199  0.66093822  1
  O2-  O190  1  0.87593202  0.74951473  0.16675485  1
  O2-  O191  1  0.87537878  0.75100663  0.66387360  1
  O2-  O192  1  0.00187294  0.12543136  0.16777893  1
  O2-  O193  1  -0.00013124  0.12471131  0.66691055  1
  O2-  O194  1  0.00066050  0.37476714  0.16553871  1
  O2-  O195  1  -0.00161293  0.37484869  0.66283928  1
  O2-  O196  1  0.00164106  0.62489548  0.16500950  1
  O2-  O197  1  0.00027551  0.62481628  0.66471918  1
  O2-  O198  1  0.00064776  0.87481416  0.16794167  1
  O2-  O199  1  -0.00420952  0.87538030  0.66417262  1
  O2-  O200  1  0.24825444  0.12517729  0.16670581  1
  O2-  O201  1  0.24764528  0.12520250  0.66096780  1
  O2-  O202  1  0.25034564  0.37499482  0.16965099  1
  O2-  O203  1  0.25314509  0.37540431  0.66246466  1
  O2-  O204  1  0.24810285  0.62454351  0.16564828  1
  O2-  O205  1  0.25004155  0.62560524  0.66062492  1
  O2-  O206  1  0.25050550  0.87484069  0.16695868  1
  O2-  O207  1  0.25075447  0.87473880  0.65909321  1
  O2-  O208  1  0.49850130  0.12603750  0.16182732  1
  O2-  O209  1  0.50225947  0.12445567  0.66492761  1
  O2-  O210  1  0.49999246  0.37577312  0.16719871  1
  O2-  O211  1  0.49740482  0.37597772  0.66458443  1
  O2-  O212  1  0.50132922  0.62404994  0.16204904  1
  O2-  O213  1  0.49689762  0.62558904  0.66427291  1
  O2-  O214  1  0.49869408  0.87378759  0.16139595  1
  O2-  O215  1  0.50170994  0.87438591  0.66395414  1
  O2-  O216  1  0.75160726  0.12577668  0.16543825  1
  O2-  O217  1  0.75045889  0.12498426  0.66804470  1
  O2-  O218  1  0.74971893  0.37512659  0.16349721  1
  O2-  O219  1  0.75063261  0.37443307  0.66451670  1
  O2-  O220  1  0.74914381  0.62428748  0.16265629  1
  O2-  O221  1  0.75241816  0.62526892  0.66772525  1
  O2-  O222  1  0.75047172  0.87441721  0.16618168  1
  O2-  O223  1  0.75185487  0.87496321  0.66575600  1
  O2-  O224  1  0.12415723  0.00259201  0.34832222  1
  O2-  O225  1  0.12463101  0.00105362  0.84948605  1
  O2-  O226  1  0.12467500  0.24675022  0.34864424  1
  O2-  O227  1  0.12561913  0.24923325  0.84947541  1
  O2-  O228  1  0.12548803  0.50311861  0.35031217  1
  O2-  O229  1  0.12575282  0.50129600  0.84577615  1
  O2-  O230  1  0.12524528  0.74738690  0.34942126  1
  O2-  O231  1  0.12554890  0.74848813  0.84610146  1
  O2-  O232  1  0.37516620  -0.00157253  0.34571753  1
  O2-  O233  1  0.37350854  0.00013020  0.84471942  1
  O2-  O234  1  0.37521194  0.25193871  0.35273538  1
  O2-  O235  1  0.37312593  0.25019768  0.84706883  1
  O2-  O236  1  0.37437325  0.50050747  0.35521721  1
  O2-  O237  1  0.37389787  0.50103778  0.84362913  1
  O2-  O238  1  0.37472834  0.74916010  0.34782933  1
  O2-  O239  1  0.37375737  0.74938243  0.84118938  1
  O2-  O240  1  0.62593631  -0.00074879  0.34285603  1
  O2-  O241  1  0.62460418  0.00017196  0.85079158  1
  O2-  O242  1  0.62516317  0.24784047  0.34751612  1
  O2-  O243  1  0.62452220  0.25269557  0.84750059  1
  O2-  O244  1  0.62492844  0.50075086  0.34991404  1
  O2-  O245  1  0.62432624  0.50134980  0.84533372  1
  O2-  O246  1  0.62494023  0.75218515  0.34527289  1
  O2-  O247  1  0.62474623  0.74624723  0.84910678  1
  O2-  O248  1  0.87505191  -0.00164536  0.35173667  1
  O2-  O249  1  0.87633223  0.00150555  0.85002677  1
  O2-  O250  1  0.87512290  0.24954250  0.34795800  1
  O2-  O251  1  0.87606854  0.25171982  0.84727791  1
  O2-  O252  1  0.87499680  0.49993806  0.34938283  1
  O2-  O253  1  0.87592189  0.50011019  0.84062302  1
  O2-  O254  1  0.87498334  0.75206079  0.35112973  1
  O2-  O255  1  0.87599637  0.74675233  0.84528771  1
  O2-  O256  1  0.00028019  0.12448191  0.35215823  1
  O2-  O257  1  0.00254161  0.12561249  0.85013062  1
  O2-  O258  1  -0.00237409  0.37518312  0.34861757  1
  O2-  O259  1  0.00095646  0.37538806  0.84392935  1
  O2-  O260  1  0.00177276  0.62555698  0.35065079  1
  O2-  O261  1  0.00229744  0.62461621  0.84691824  1
  O2-  O262  1  -0.00342752  0.87478347  0.35205836  1
  O2-  O263  1  0.00307944  0.87454180  0.84601392  1
  O2-  O264  1  0.24762271  0.12492299  0.35196995  1
  O2-  O265  1  0.24820121  0.12544716  0.84376007  1
  O2-  O266  1  0.25344825  0.37523963  0.35243994  1
  O2-  O267  1  0.24918148  0.37572864  0.84524779  1
  O2-  O268  1  0.25056205  0.62495366  0.35108270  1
  O2-  O269  1  0.24785153  0.62441302  0.84477897  1
  O2-  O270  1  0.25233952  0.87474168  0.34988559  1
  O2-  O271  1  0.24935673  0.87480777  0.83970007  1
  O2-  O272  1  0.50280813  0.12436207  0.34416372  1
  O2-  O273  1  0.49720184  0.12591802  0.84726150  1
  O2-  O274  1  0.49785793  0.37596205  0.34943161  1
  O2-  O275  1  0.49995064  0.37668227  0.84731584  1
  O2-  O276  1  0.49670403  0.62489431  0.34668025  1
  O2-  O277  1  0.50095416  0.62430104  0.84833582  1
  O2-  O278  1  0.50067726  0.87460327  0.34181968  1
  O2-  O279  1  0.49736565  0.87398679  0.84646796  1
  O2-  O280  1  0.74945083  0.12423316  0.34683387  1
  O2-  O281  1  0.75169549  0.12568570  0.85157564  1
  O2-  O282  1  0.75055679  0.37515434  0.34626253  1
  O2-  O283  1  0.74973462  0.37602573  0.84556361  1
  O2-  O284  1  0.75049714  0.62607508  0.34747424  1
  O2-  O285  1  0.74898343  0.62439812  0.84968202  1
  O2-  O286  1  0.75037154  0.87456933  0.34785776  1
  O2-  O287  1  0.75004112  0.87427427  0.84977944  1
