# generated using pymatgen
data_BaYFeCuO5
_symmetry_space_group_name_H-M   'P 1'
_cell_length_a   15.65472501
_cell_length_b   15.65442410
_cell_length_c   15.45278117
_cell_angle_alpha   90.00549778
_cell_angle_beta   90.00188816
_cell_angle_gamma   90.00052291
_symmetry_Int_Tables_number   1
_chemical_formula_structural   BaYFeCuO5
_chemical_formula_sum   'Ba32 Y32 Fe32 Cu32 O160'
_cell_volume   3786.94668517
_cell_formula_units_Z   32
loop_
 _symmetry_equiv_pos_site_id
 _symmetry_equiv_pos_as_xyz
  1  'x, y, z'
loop_
 _atom_type_symbol
 _atom_type_oxidation_number
  Ba2+  2.0
  Y3+  3.0
  Fe3+  3.0
  Cu2+  2.0
  O2-  -2.0
loop_
 _atom_site_type_symbol
 _atom_site_label
 _atom_site_symmetry_multiplicity
 _atom_site_fract_x
 _atom_site_fract_y
 _atom_site_fract_z
 _atom_site_occupancy
  Ba2+  Ba0  1  -0.00445389  0.00730145  0.01107761  1
  Ba2+  Ba1  1  -0.01184759  0.00112695  0.50090900  1
  Ba2+  Ba2  1  -0.00534196  0.24245352  0.01109742  1
  Ba2+  Ba3  1  -0.01175599  0.24887867  0.51220155  1
  Ba2+  Ba4  1  -0.00562645  0.50304133  0.01158793  1
  Ba2+  Ba5  1  -0.00549367  0.50759940  0.51112897  1
  Ba2+  Ba6  1  -0.00468706  0.74685980  0.01256657  1
  Ba2+  Ba7  1  -0.00529646  0.74250485  0.50283310  1
  Ba2+  Ba8  1  0.25422051  0.00143006  0.01257712  1
  Ba2+  Ba9  1  0.25491911  -0.00509917  0.51256274  1
  Ba2+  Ba10  1  0.24705830  0.23978616  0.01160796  1
  Ba2+  Ba11  1  0.25495000  0.25463670  0.51213712  1
  Ba2+  Ba12  1  0.25219174  0.51096847  0.01158730  1
  Ba2+  Ba13  1  0.24742685  0.50336014  0.51132843  1
  Ba2+  Ba14  1  0.25960430  0.74812223  0.00993761  1
  Ba2+  Ba15  1  0.24732745  0.74702507  0.51134876  1
  Ba2+  Ba16  1  0.49849218  -0.00482994  0.01073985  1
  Ba2+  Ba17  1  0.50634095  -0.00410729  0.52231512  1
  Ba2+  Ba18  1  0.50509326  0.24640594  0.01051007  1
  Ba2+  Ba19  1  0.50643283  0.25361579  0.51098988  1
  Ba2+  Ba20  1  0.50311123  0.50731855  0.01609983  1
  Ba2+  Ba21  1  0.50801022  0.49953626  0.50587344  1
  Ba2+  Ba22  1  0.49746073  0.75042236  0.01568771  1
  Ba2+  Ba23  1  0.50780546  0.75226691  0.51754670  1
  Ba2+  Ba24  1  0.75195344  0.00142982  0.01147792  1
  Ba2+  Ba25  1  0.75062246  0.00141938  0.51269334  1
  Ba2+  Ba26  1  0.75354102  0.24835226  0.01187672  1
  Ba2+  Ba27  1  0.75152928  0.24800385  0.51211991  1
  Ba2+  Ba28  1  0.74941482  0.49902970  0.01839146  1
  Ba2+  Ba29  1  0.75030664  0.50473702  0.50656140  1
  Ba2+  Ba30  1  0.74816189  0.75093397  0.01852444  1
  Ba2+  Ba31  1  0.74996593  0.74599324  0.50648001  1
  Y3+  Y32  1  -0.00342498  0.00126606  0.25572430  1
  Y3+  Y33  1  -0.00174231  0.00281650  0.76013498  1
  Y3+  Y34  1  -0.00285114  0.24764821  0.25518768  1
  Y3+  Y35  1  -0.00284422  0.24737498  0.75948605  1
  Y3+  Y36  1  -0.00023707  0.50235960  0.25998716  1
  Y3+  Y37  1  -0.00186782  0.50199269  0.75432244  1
  Y3+  Y38  1  -0.00114602  0.74873280  0.26112055  1
  Y3+  Y39  1  -0.00073357  0.74741240  0.75517857  1
  Y3+  Y40  1  0.24990397  -0.00009620  0.25406628  1
  Y3+  Y41  1  0.25061047  -0.00226267  0.76054374  1
  Y3+  Y42  1  0.24888603  0.24832673  0.25537838  1
  Y3+  Y43  1  0.24915192  0.25044013  0.75811880  1
  Y3+  Y44  1  0.24896466  0.50356468  0.25720635  1
  Y3+  Y45  1  0.25061682  0.50192863  0.75655358  1
  Y3+  Y46  1  0.24996657  0.74828194  0.25550261  1
  Y3+  Y47  1  0.25222787  0.74976984  0.75832114  1
  Y3+  Y48  1  0.49937350  -0.00223470  0.25243434  1
  Y3+  Y49  1  0.50172016  -0.00189235  0.75925383  1
  Y3+  Y50  1  0.50177436  0.25110077  0.25573950  1
  Y3+  Y51  1  0.50192288  0.24991247  0.75710759  1
  Y3+  Y52  1  0.50307503  0.50178881  0.25667153  1
  Y3+  Y53  1  0.50011682  0.50182247  0.75648220  1
  Y3+  Y54  1  0.50118577  0.74925398  0.25416125  1
  Y3+  Y55  1  0.49952392  0.75036454  0.75878385  1
  Y3+  Y56  1  0.75341219  -0.00078558  0.25692058  1
  Y3+  Y57  1  0.74996674  0.00323720  0.75810620  1
  Y3+  Y58  1  0.75118795  0.25066444  0.25653130  1
  Y3+  Y59  1  0.75189982  0.24672252  0.75766263  1
  Y3+  Y60  1  0.74731007  0.50047047  0.26053935  1
  Y3+  Y61  1  0.75203094  0.50221769  0.75403339  1
  Y3+  Y62  1  0.74983932  0.74981867  0.26071075  1
  Y3+  Y63  1  0.74939679  0.74783917  0.75400530  1
  Fe3+  Fe64  1  0.12455783  0.87542012  0.37939399  1
  Fe3+  Fe65  1  0.12428866  0.37463222  0.37927086  1
  Fe3+  Fe66  1  0.87456657  0.37615915  0.87659270  1
  Fe3+  Fe67  1  0.37623945  0.62599385  0.37903468  1
  Fe3+  Fe68  1  0.12479548  0.12520214  0.38050468  1
  Fe3+  Fe69  1  0.12442058  0.87485018  0.88041296  1
  Fe3+  Fe70  1  0.87451712  0.87363241  0.87793978  1
  Fe3+  Fe71  1  0.62622724  0.62500854  0.87673466  1
  Fe3+  Fe72  1  0.37639947  0.12430831  0.37904965  1
  Fe3+  Fe73  1  0.62491119  0.87594209  0.37519928  1
  Fe3+  Fe74  1  0.37518983  0.37605403  0.88001936  1
  Fe3+  Fe75  1  0.62500028  0.12425882  0.37640390  1
  Fe3+  Fe76  1  0.37544777  0.37541952  0.37618025  1
  Fe3+  Fe77  1  0.37613725  0.87476664  0.37727170  1
  Fe3+  Fe78  1  0.12437816  0.37516290  0.87975342  1
  Fe3+  Fe79  1  0.62599996  0.87449349  0.87702021  1
  Fe3+  Fe80  1  0.37600144  0.12488711  0.87522580  1
  Fe3+  Fe81  1  0.87422252  0.37510488  0.37641830  1
  Fe3+  Fe82  1  0.12426580  0.62545743  0.87683483  1
  Fe3+  Fe83  1  0.62582849  0.37539914  0.87794597  1
  Fe3+  Fe84  1  0.12456172  0.12416982  0.63408989  1
  Fe3+  Fe85  1  0.87489316  0.87488865  0.63770687  1
  Fe3+  Fe86  1  0.87422147  0.62482948  0.14134732  1
  Fe3+  Fe87  1  0.37609740  0.62499417  0.63518181  1
  Fe3+  Fe88  1  0.62544952  0.12406241  0.13723509  1
  Fe3+  Fe89  1  0.12371927  0.87409130  0.13557932  1
  Fe3+  Fe90  1  0.37471932  0.37528404  0.13413881  1
  Fe3+  Fe91  1  0.12383170  0.37555466  0.13430072  1
  Fe3+  Fe92  1  0.37589065  0.12515136  0.63523219  1
  Fe3+  Fe93  1  0.62689280  0.37539186  0.63853472  1
  Fe3+  Fe94  1  0.12361142  0.37498182  0.63499096  1
  Fe3+  Fe95  1  0.12356587  0.87494645  0.63494325  1
  Cu2+  Cu96  1  0.37549257  0.87431919  0.87224803  1
  Cu2+  Cu97  1  0.87366153  0.12584270  0.37138877  1
  Cu2+  Cu98  1  0.87398094  0.12481707  0.87174686  1
  Cu2+  Cu99  1  0.12527910  0.12462332  0.87286105  1
  Cu2+  Cu100  1  0.87423273  0.62511706  0.86297282  1
  Cu2+  Cu101  1  0.12571742  0.62504273  0.37429784  1
  Cu2+  Cu102  1  0.87443871  0.87494237  0.36501140  1
  Cu2+  Cu103  1  0.87379681  0.62430339  0.37086069  1
  Cu2+  Cu104  1  0.62493141  0.37427813  0.36278707  1
  Cu2+  Cu105  1  0.62382075  0.62613140  0.37264797  1
  Cu2+  Cu106  1  0.62496535  0.12506516  0.86690399  1
  Cu2+  Cu107  1  0.37627312  0.62472476  0.87088665  1
  Cu2+  Cu108  1  0.62527455  0.37468987  0.14817834  1
  Cu2+  Cu109  1  0.37517166  0.87482186  0.65082591  1
  Cu2+  Cu110  1  0.87368511  0.12481508  0.14397581  1
  Cu2+  Cu111  1  0.87507322  0.37483336  0.65030338  1
  Cu2+  Cu112  1  0.62523474  0.62469728  0.64139851  1
  Cu2+  Cu113  1  0.87511238  0.12396475  0.64316498  1
  Cu2+  Cu114  1  0.62597306  0.62553332  0.15240571  1
  Cu2+  Cu115  1  0.87512880  0.37576001  0.15236493  1
  Cu2+  Cu116  1  0.37427699  0.87432597  0.14194353  1
  Cu2+  Cu117  1  0.37539838  0.37534338  0.65018969  1
  Cu2+  Cu118  1  0.87540588  0.87421460  0.15113122  1
  Cu2+  Cu119  1  0.62585263  0.87506241  0.14927603  1
  Cu2+  Cu120  1  0.37535715  0.62458777  0.14497157  1
  Cu2+  Cu121  1  0.62512766  0.12524598  0.65152920  1
  Cu2+  Cu122  1  0.12421063  0.12418217  0.14288942  1
  Cu2+  Cu123  1  0.87452844  0.62569905  0.64261490  1
  Cu2+  Cu124  1  0.37565543  0.12561788  0.15154247  1
  Cu2+  Cu125  1  0.62640885  0.87503106  0.65313759  1
  Cu2+  Cu126  1  0.12401752  0.62550363  0.15002810  1
  Cu2+  Cu127  1  0.12501223  0.62570438  0.64187322  1
  O2-  O128  1  0.12562087  0.12410475  0.00701679  1
  O2-  O129  1  0.12495401  0.12506841  0.50714972  1
  O2-  O130  1  0.12469393  0.37536426  0.00658917  1
  O2-  O131  1  0.12481049  0.37426581  0.50662390  1
  O2-  O132  1  0.12355377  0.62549373  -0.00259838  1
  O2-  O133  1  0.12672907  0.62467842  0.50714734  1
  O2-  O134  1  0.12441284  0.87445151  0.00739131  1
  O2-  O135  1  0.12445420  0.87584368  0.50721851  1
  O2-  O136  1  0.37559171  0.12591577  -0.00377790  1
  O2-  O137  1  0.37630334  0.12473522  0.50567212  1
  O2-  O138  1  0.37410278  0.37521999  0.00658364  1
  O2-  O139  1  0.37586055  0.37428092  0.49652697  1
  O2-  O140  1  0.37604305  0.62416460  0.00718851  1
  O2-  O141  1  0.37619022  0.62521652  0.50635316  1
  O2-  O142  1  0.37458349  0.87501810  0.00729698  1
  O2-  O143  1  0.37699753  0.87611121  0.49730428  1
  O2-  O144  1  0.62505927  0.12507681  0.01587087  1
  O2-  O145  1  0.62375211  0.12414149  0.49703970  1
  O2-  O146  1  0.62494723  0.37581590  -0.00164331  1
  O2-  O147  1  0.62562311  0.37437340  0.51742823  1
  O2-  O148  1  0.62674699  0.62517669  -0.00249666  1
  O2-  O149  1  0.62337397  0.62534643  0.50656263  1
  O2-  O150  1  0.62572319  0.87383834  -0.00265459  1
  O2-  O151  1  0.62474649  0.87714063  0.49579869  1
  O2-  O152  1  0.87333031  0.12510853  0.00836301  1
  O2-  O153  1  0.87409548  0.12501104  0.50756496  1
  O2-  O154  1  0.87536631  0.37614704  -0.00306515  1
  O2-  O155  1  0.87445412  0.37517407  0.49717717  1
  O2-  O156  1  0.87388002  0.62490861  0.01977911  1
  O2-  O157  1  0.87386865  0.62520184  0.50700199  1
  O2-  O158  1  0.87476136  0.87362491  -0.00156779  1
  O2-  O159  1  0.87525953  0.87463421  0.51683378  1
  O2-  O160  1  0.12479615  -0.00304493  0.16633889  1
  O2-  O161  1  0.12657212  0.00035888  0.66278222  1
  O2-  O162  1  0.12541079  0.25287514  0.16514114  1
  O2-  O163  1  0.12635544  0.24931322  0.66209944  1
  O2-  O164  1  0.12543349  0.49865663  0.16344398  1
  O2-  O165  1  0.12540560  0.49717091  0.66352723  1
  O2-  O166  1  0.12430436  0.75113575  0.16500197  1
  O2-  O167  1  0.12576682  0.75321747  0.66382073  1
  O2-  O168  1  0.37398850  0.00138654  0.16506873  1
  O2-  O169  1  0.37454901  0.00194652  0.66271687  1
  O2-  O170  1  0.37370819  0.25240540  0.16392148  1
  O2-  O171  1  0.37377396  0.24811646  0.66301206  1
  O2-  O172  1  0.37410099  0.49699156  0.16468405  1
  O2-  O173  1  0.37440878  0.50139151  0.66360899  1
  O2-  O174  1  0.37439622  0.74886288  0.16669648  1
  O2-  O175  1  0.37472740  0.74891890  0.66256265  1
  O2-  O176  1  0.62426225  -0.00014595  0.16307807  1
  O2-  O177  1  0.62447287  0.00051489  0.66492192  1
  O2-  O178  1  0.62450242  0.24924140  0.16547334  1
  O2-  O179  1  0.62507470  0.25049874  0.66634501  1
  O2-  O180  1  0.62486887  0.49977061  0.16520101  1
  O2-  O181  1  0.62466756  0.49832917  0.66616796  1
  O2-  O182  1  0.62524952  0.75069685  0.16410569  1
  O2-  O183  1  0.62491421  0.75104616  0.66316134  1
  O2-  O184  1  0.87573181  -0.00182754  0.16509489  1
  O2-  O185  1  0.87586960  -0.00164303  0.66731098  1
  O2-  O186  1  0.87526780  0.25185418  0.16445005  1
  O2-  O187  1  0.87592849  0.25011432  0.66475949  1
  O2-  O188  1  0.87530772  0.50057580  0.16659822  1
  O2-  O189  1  0.87610372  0.49910520  0.66405326  1
  O2-  O190  1  0.87537993  0.74913948  0.16757970  1
  O2-  O191  1  0.87570982  0.75209520  0.66692221  1
  O2-  O192  1  -0.00114642  0.12503820  0.16695804  1
  O2-  O193  1  0.00385055  0.12493460  0.66561565  1
  O2-  O194  1  0.00173306  0.37560341  0.16393791  1
  O2-  O195  1  0.00134366  0.37363337  0.66334328  1
  O2-  O196  1  -0.00074095  0.62484050  0.16782549  1
  O2-  O197  1  0.00014935  0.62522356  0.66449103  1
  O2-  O198  1  0.00138270  0.87422829  0.16604007  1
  O2-  O199  1  0.00134319  0.87594441  0.66719015  1
  O2-  O200  1  0.25128878  0.12523522  0.16742658  1
  O2-  O201  1  0.24985201  0.12530670  0.65847996  1
  O2-  O202  1  0.24934116  0.37483198  0.16294033  1
  O2-  O203  1  0.24833095  0.37459549  0.66363302  1
  O2-  O204  1  0.24824678  0.62470620  0.16675931  1
  O2-  O205  1  0.25309596  0.62480011  0.66281377  1
  O2-  O206  1  0.24664375  0.87470125  0.16556325  1
  O2-  O207  1  0.24818653  0.87569190  0.66344992  1
  O2-  O208  1  0.50059099  0.12575766  0.16482481  1
  O2-  O209  1  0.49835762  0.12594390  0.66163839  1
  O2-  O210  1  0.49787211  0.37471856  0.16129522  1
  O2-  O211  1  0.50064205  0.37421913  0.66683084  1
  O2-  O212  1  0.50231432  0.62453134  0.16456739  1
  O2-  O213  1  0.49749798  0.62479727  0.66336434  1
  O2-  O214  1  0.50096321  0.87475509  0.16198854  1
  O2-  O215  1  0.50098215  0.87548976  0.66360975  1
  O2-  O216  1  0.74810547  0.12475395  0.16640300  1
  O2-  O217  1  0.74892742  0.12493549  0.66502783  1
  O2-  O218  1  0.75047592  0.37526465  0.16381506  1
  O2-  O219  1  0.75082760  0.37431300  0.66540828  1
  O2-  O220  1  0.74997978  0.62488822  0.16793706  1
  O2-  O221  1  0.75001351  0.62479775  0.66330299  1
  O2-  O222  1  0.75054225  0.87486133  0.16462742  1
  O2-  O223  1  0.75048505  0.87589696  0.66479369  1
  O2-  O224  1  0.12562937  0.00071036  0.35180890  1
  O2-  O225  1  0.12539972  -0.00336305  0.84742750  1
  O2-  O226  1  0.12629482  0.24942423  0.35038081  1
  O2-  O227  1  0.12568809  0.25357370  0.84732648  1
  O2-  O228  1  0.12618277  0.49643436  0.34851326  1
  O2-  O229  1  0.12538797  0.49887715  0.84760217  1
  O2-  O230  1  0.12553643  0.75369577  0.35007978  1
  O2-  O231  1  0.12469053  0.75084409  0.84723145  1
  O2-  O232  1  0.37378030  0.00119566  0.34801610  1
  O2-  O233  1  0.37480930  0.00113709  0.84659291  1
  O2-  O234  1  0.37409794  0.24830466  0.34807078  1
  O2-  O235  1  0.37452698  0.25236845  0.84699406  1
  O2-  O236  1  0.37430422  0.50097781  0.34858095  1
  O2-  O237  1  0.37432046  0.49683014  0.84774465  1
  O2-  O238  1  0.37411285  0.74979508  0.34915203  1
  O2-  O239  1  0.37468610  0.74952601  0.84702189  1
  O2-  O240  1  0.62412445  0.00012738  0.34316215  1
  O2-  O241  1  0.62498516  -0.00025097  0.84875707  1
  O2-  O242  1  0.62315855  0.24896201  0.34773325  1
  O2-  O243  1  0.62429376  0.25090808  0.84877984  1
  O2-  O244  1  0.62338673  0.49868774  0.35017415  1
  O2-  O245  1  0.62496585  0.49968414  0.84580526  1
  O2-  O246  1  0.62418315  0.75261418  0.34702578  1
  O2-  O247  1  0.62535670  0.74959278  0.84481496  1
  O2-  O248  1  0.87566513  -0.00043431  0.34907133  1
  O2-  O249  1  0.87538892  -0.00185802  0.84869350  1
  O2-  O250  1  0.87551670  0.25191319  0.34653025  1
  O2-  O251  1  0.87560554  0.25160705  0.84782502  1
  O2-  O252  1  0.87537281  0.49799658  0.34739351  1
  O2-  O253  1  0.87596901  0.50026037  0.84685366  1
  O2-  O254  1  0.87531419  0.75069036  0.35052902  1
  O2-  O255  1  0.87610146  0.74964626  0.84799877  1
  O2-  O256  1  0.00279338  0.12535057  0.35106285  1
  O2-  O257  1  -0.00063087  0.12508244  0.84939991  1
  O2-  O258  1  0.00159238  0.37405513  0.34818402  1
  O2-  O259  1  0.00103802  0.37555401  0.84746634  1
  O2-  O260  1  -0.00019768  0.62471164  0.35067623  1
  O2-  O261  1  0.00038424  0.62449803  0.84740213  1
  O2-  O262  1  0.00118656  0.87603360  0.35157493  1
  O2-  O263  1  0.00078481  0.87465761  0.84935607  1
  O2-  O264  1  0.25027104  0.12525923  0.35224310  1
  O2-  O265  1  0.25252318  0.12581655  0.84237652  1
  O2-  O266  1  0.24920113  0.37389654  0.34756729  1
  O2-  O267  1  0.24982840  0.37510413  0.84972326  1
  O2-  O268  1  0.25362257  0.62502348  0.35032986  1
  O2-  O269  1  0.24784221  0.62456268  0.84569847  1
  O2-  O270  1  0.24958602  0.87627150  0.34940331  1
  O2-  O271  1  0.24726228  0.87424474  0.84885664  1
  O2-  O272  1  0.49822812  0.12520039  0.34663892  1
  O2-  O273  1  0.49913499  0.12601154  0.84496688  1
  O2-  O274  1  0.49884377  0.37463897  0.34541567  1
  O2-  O275  1  0.49911671  0.37482200  0.84942444  1
  O2-  O276  1  0.49676048  0.62489858  0.34788119  1
  O2-  O277  1  0.50259960  0.62420762  0.84542205  1
  O2-  O278  1  0.49899356  0.87576566  0.34300029  1
  O2-  O279  1  0.50218880  0.87496588  0.84700572  1
  O2-  O280  1  0.74797095  0.12530972  0.34749348  1
  O2-  O281  1  0.74920163  0.12536349  0.84922266  1
  O2-  O282  1  0.74957622  0.37457289  0.34775180  1
  O2-  O283  1  0.75007381  0.37518523  0.84617905  1
  O2-  O284  1  0.74912673  0.62476556  0.35069637  1
  O2-  O285  1  0.74968202  0.62472274  0.84558399  1
  O2-  O286  1  0.74991129  0.87563536  0.34827933  1
  O2-  O287  1  0.75028973  0.87465358  0.84559595  1
