# generated using pymatgen
data_BaYFeCuO5
_symmetry_space_group_name_H-M   'P 1'
_cell_length_a   15.67519181
_cell_length_b   15.67640326
_cell_length_c   15.50304446
_cell_angle_alpha   90.00587852
_cell_angle_beta   90.00514673
_cell_angle_gamma   90.00587595
_symmetry_Int_Tables_number   1
_chemical_formula_structural   BaYFeCuO5
_chemical_formula_sum   'Ba32 Y32 Fe32 Cu32 O160'
_cell_volume   3809.57279482
_cell_formula_units_Z   32
loop_
 _symmetry_equiv_pos_site_id
 _symmetry_equiv_pos_as_xyz
  1  'x, y, z'
loop_
 _atom_type_symbol
 _atom_type_oxidation_number
  Ba2+  2.0
  Y3+  3.0
  Fe3+  3.0
  Cu2+  2.0
  O2-  -2.0
loop_
 _atom_site_type_symbol
 _atom_site_label
 _atom_site_symmetry_multiplicity
 _atom_site_fract_x
 _atom_site_fract_y
 _atom_site_fract_z
 _atom_site_occupancy
  Ba2+  Ba0  1  -0.00595268  0.00609342  0.01259200  1
  Ba2+  Ba1  1  -0.00409093  0.00257982  0.50143409  1
  Ba2+  Ba2  1  -0.00071830  0.25198047  0.01827240  1
  Ba2+  Ba3  1  0.00509911  0.24590029  0.50136509  1
  Ba2+  Ba4  1  0.00602750  0.49618948  0.01759848  1
  Ba2+  Ba5  1  0.00826820  0.50598827  0.50683406  1
  Ba2+  Ba6  1  0.00182554  0.74624687  0.01116732  1
  Ba2+  Ba7  1  -0.00062954  0.74385810  0.50765107  1
  Ba2+  Ba8  1  0.25065912  0.01059620  -0.00342688  1
  Ba2+  Ba9  1  0.25548005  0.00336566  0.51431066  1
  Ba2+  Ba10  1  0.25008607  0.25302917  0.00666682  1
  Ba2+  Ba11  1  0.25338628  0.25305553  0.50170392  1
  Ba2+  Ba12  1  0.24910603  0.49861881  0.02419302  1
  Ba2+  Ba13  1  0.25305532  0.50208180  0.50160012  1
  Ba2+  Ba14  1  0.24902193  0.73753048  0.01089452  1
  Ba2+  Ba15  1  0.25394617  0.74119611  0.51133581  1
  Ba2+  Ba16  1  0.50751497  0.00199062  0.00668896  1
  Ba2+  Ba17  1  0.50190521  0.00166179  0.52248128  1
  Ba2+  Ba18  1  0.50003442  0.25082016  0.00409536  1
  Ba2+  Ba19  1  0.49896835  0.24919323  0.51692913  1
  Ba2+  Ba20  1  0.49816250  0.49968668  0.01941761  1
  Ba2+  Ba21  1  0.49065846  0.49646021  0.51034100  1
  Ba2+  Ba22  1  0.50549744  0.74742156  0.01594619  1
  Ba2+  Ba23  1  0.49374180  0.75292824  0.51801368  1
  Ba2+  Ba24  1  0.74813159  -0.00011986  0.02146947  1
  Ba2+  Ba25  1  0.74591011  0.00263208  0.51185206  1
  Ba2+  Ba26  1  0.75067803  0.24919398  0.01968978  1
  Ba2+  Ba27  1  0.74389252  0.24288519  0.51487868  1
  Ba2+  Ba28  1  0.74558121  0.49462913  0.01098690  1
  Ba2+  Ba29  1  0.74980202  0.50045188  0.51556510  1
  Ba2+  Ba30  1  0.74392204  0.75563886  0.01499119  1
  Ba2+  Ba31  1  0.75315961  0.75616069  0.51117104  1
  Y3+  Y32  1  -0.00227232  -0.00108955  0.25747158  1
  Y3+  Y33  1  0.00002300  0.00120588  0.75827331  1
  Y3+  Y34  1  0.00105699  0.25134344  0.25885814  1
  Y3+  Y35  1  0.00008360  0.24912822  0.75635404  1
  Y3+  Y36  1  0.00425949  0.50029389  0.25833509  1
  Y3+  Y37  1  0.00197294  0.50318083  0.75569782  1
  Y3+  Y38  1  0.00053357  0.74946309  0.25702819  1
  Y3+  Y39  1  0.00211313  0.74655445  0.75825013  1
  Y3+  Y40  1  0.24910433  0.00037251  0.25860462  1
  Y3+  Y41  1  0.25193847  0.00145550  0.75903631  1
  Y3+  Y42  1  0.24994234  0.25362562  0.26058171  1
  Y3+  Y43  1  0.25294653  0.25005737  0.75651945  1
  Y3+  Y44  1  0.25043201  0.50081953  0.26235211  1
  Y3+  Y45  1  0.25020648  0.50221812  0.75267562  1
  Y3+  Y46  1  0.24957172  0.74528100  0.25818463  1
  Y3+  Y47  1  0.24997054  0.74637693  0.75636222  1
  Y3+  Y48  1  0.50368461  0.00069197  0.25532884  1
  Y3+  Y49  1  0.50129666  0.00054372  0.75848406  1
  Y3+  Y50  1  0.49956953  0.25005963  0.26054634  1
  Y3+  Y51  1  0.50010879  0.25045270  0.75395480  1
  Y3+  Y52  1  0.49563921  0.50037903  0.26054321  1
  Y3+  Y53  1  0.49872162  0.49752771  0.75208042  1
  Y3+  Y54  1  0.49997288  0.74870526  0.25531454  1
  Y3+  Y55  1  0.49959042  0.75188144  0.75778335  1
  Y3+  Y56  1  0.74894057  -0.00050529  0.25704508  1
  Y3+  Y57  1  0.74716093  0.00001603  0.75588405  1
  Y3+  Y58  1  0.74895404  0.24766614  0.25926161  1
  Y3+  Y59  1  0.74740436  0.24954663  0.75307955  1
  Y3+  Y60  1  0.74926470  0.49972630  0.25651678  1
  Y3+  Y61  1  0.74929690  0.49904550  0.75489461  1
  Y3+  Y62  1  0.74911063  0.75297455  0.25446360  1
  Y3+  Y63  1  0.74869041  0.75132118  0.75756504  1
  Fe3+  Fe64  1  0.87447509  0.37471467  0.87531060  1
  Fe3+  Fe65  1  0.12555069  0.87458298  0.38044233  1
  Fe3+  Fe66  1  0.87391445  0.12625755  0.87568993  1
  Fe3+  Fe67  1  0.87458768  0.62386486  0.87985751  1
  Fe3+  Fe68  1  0.12522231  0.37554082  0.87560510  1
  Fe3+  Fe69  1  0.62405209  0.87533784  0.37698597  1
  Fe3+  Fe70  1  0.37571378  0.87527694  0.37583792  1
  Fe3+  Fe71  1  0.62660122  0.12641862  0.87588135  1
  Fe3+  Fe72  1  0.87437914  0.87517598  0.87885872  1
  Fe3+  Fe73  1  0.37638984  0.12374550  0.37696775  1
  Fe3+  Fe74  1  0.37553939  0.37651013  0.87568162  1
  Fe3+  Fe75  1  0.87364884  0.62543497  0.37523523  1
  Fe3+  Fe76  1  0.62428722  0.62356976  0.87543753  1
  Fe3+  Fe77  1  0.87379421  0.12464548  0.37613381  1
  Fe3+  Fe78  1  0.87481213  0.37567143  0.37945738  1
  Fe3+  Fe79  1  0.37544624  0.62293093  0.87624348  1
  Fe3+  Fe80  1  0.62487696  0.37478899  0.37947548  1
  Fe3+  Fe81  1  0.37541618  0.87434901  0.88024624  1
  Fe3+  Fe82  1  0.62432934  0.62585344  0.37945996  1
  Fe3+  Fe83  1  0.12492463  0.87502658  0.88078674  1
  Fe3+  Fe84  1  0.12577038  0.12565470  0.13996314  1
  Fe3+  Fe85  1  0.87640025  0.87544019  0.63835742  1
  Fe3+  Fe86  1  0.37534881  0.12591227  0.13731008  1
  Fe3+  Fe87  1  0.37381584  0.87552125  0.13300401  1
  Fe3+  Fe88  1  0.12533208  0.12485277  0.63819618  1
  Fe3+  Fe89  1  0.12586479  0.37506990  0.63556498  1
  Fe3+  Fe90  1  0.12595139  0.87541767  0.13468692  1
  Fe3+  Fe91  1  0.62331843  0.37412020  0.14011095  1
  Fe3+  Fe92  1  0.87412924  0.62407064  0.13478079  1
  Fe3+  Fe93  1  0.62440140  0.62575731  0.63383629  1
  Fe3+  Fe94  1  0.12563485  0.87466955  0.63577448  1
  Fe3+  Fe95  1  0.87675205  0.37452727  0.63279876  1
  Cu2+  Cu96  1  0.12582376  0.62275466  0.87385897  1
  Cu2+  Cu97  1  0.37641090  0.62675882  0.37179815  1
  Cu2+  Cu98  1  0.12553614  0.12391773  0.36381072  1
  Cu2+  Cu99  1  0.37642507  0.12616233  0.86297553  1
  Cu2+  Cu100  1  0.62503612  0.37525980  0.85990935  1
  Cu2+  Cu101  1  0.12502931  0.62636468  0.37157754  1
  Cu2+  Cu102  1  0.87456709  0.87447022  0.36269206  1
  Cu2+  Cu103  1  0.37554745  0.37461960  0.37293098  1
  Cu2+  Cu104  1  0.62552408  0.87497313  0.87275409  1
  Cu2+  Cu105  1  0.62406694  0.12430654  0.37289585  1
  Cu2+  Cu106  1  0.12415077  0.12648601  0.86349568  1
  Cu2+  Cu107  1  0.12477988  0.37546702  0.36665830  1
  Cu2+  Cu108  1  0.12571513  0.37438776  0.15620842  1
  Cu2+  Cu109  1  0.62376254  0.87555026  0.14201065  1
  Cu2+  Cu110  1  0.62493116  0.37540935  0.64500222  1
  Cu2+  Cu111  1  0.37492600  0.62472652  0.15268090  1
  Cu2+  Cu112  1  0.87476339  0.37540482  0.15483348  1
  Cu2+  Cu113  1  0.12562849  0.62548617  0.64135721  1
  Cu2+  Cu114  1  0.12472983  0.62454606  0.14362311  1
  Cu2+  Cu115  1  0.62480159  0.62375355  0.15279683  1
  Cu2+  Cu116  1  0.87473704  0.62552928  0.65104582  1
  Cu2+  Cu117  1  0.37550488  0.62469216  0.64240538  1
  Cu2+  Cu118  1  0.37438847  0.12494368  0.65299099  1
  Cu2+  Cu119  1  0.62424590  0.12453777  0.64268812  1
  Cu2+  Cu120  1  0.87584767  0.87462428  0.14833951  1
  Cu2+  Cu121  1  0.37481476  0.37410603  0.15431331  1
  Cu2+  Cu122  1  0.37402991  0.87511150  0.65466068  1
  Cu2+  Cu123  1  0.62469138  0.87456941  0.65099285  1
  Cu2+  Cu124  1  0.87580603  0.12458612  0.64888834  1
  Cu2+  Cu125  1  0.37337502  0.37458419  0.64084820  1
  Cu2+  Cu126  1  0.87516007  0.12558289  0.15515708  1
  Cu2+  Cu127  1  0.62451905  0.12618140  0.15210167  1
  O2-  O128  1  0.12473567  0.12650441  0.01969501  1
  O2-  O129  1  0.12530809  0.12232709  0.51834248  1
  O2-  O130  1  0.12439574  0.37478460  -0.00384826  1
  O2-  O131  1  0.12466498  0.37380854  0.51537655  1
  O2-  O132  1  0.12450204  0.62278973  0.00778715  1
  O2-  O133  1  0.12499906  0.62725908  0.50662819  1
  O2-  O134  1  0.12500386  0.87628421  0.00785010  1
  O2-  O135  1  0.12543942  0.87481128  0.50818148  1
  O2-  O136  1  0.37401408  0.12760375  0.01723412  1
  O2-  O137  1  0.37650469  0.12227251  0.49737324  1
  O2-  O138  1  0.37531857  0.37690731  -0.00415632  1
  O2-  O139  1  0.37400591  0.37337990  0.50680519  1
  O2-  O140  1  0.37581044  0.62155758  -0.00349087  1
  O2-  O141  1  0.37664261  0.62663898  0.50608661  1
  O2-  O142  1  0.37386394  0.87485041  0.00652181  1
  O2-  O143  1  0.37586203  0.87665952  0.49573111  1
  O2-  O144  1  0.62779173  0.12716031  -0.00354962  1
  O2-  O145  1  0.62379803  0.12337773  0.50771350  1
  O2-  O146  1  0.62417270  0.37440398  0.01940979  1
  O2-  O147  1  0.62634604  0.37532331  0.49953783  1
  O2-  O148  1  0.62497136  0.62248754  -0.00433955  1
  O2-  O149  1  0.62522039  0.62702984  0.50542049  1
  O2-  O150  1  0.62478162  0.87542587  0.00692950  1
  O2-  O151  1  0.62338639  0.87462428  0.49707285  1
  O2-  O152  1  0.87390124  0.12797447  -0.00423848  1
  O2-  O153  1  0.87473408  0.12379596  0.49670978  1
  O2-  O154  1  0.87432009  0.37405220  -0.00484241  1
  O2-  O155  1  0.87583419  0.37552818  0.50554662  1
  O2-  O156  1  0.87368565  0.62278954  0.00596777  1
  O2-  O157  1  0.87307114  0.62611118  0.49536891  1
  O2-  O158  1  0.87484870  0.87574194  -0.00099614  1
  O2-  O159  1  0.87738402  0.87460958  0.51807005  1
  O2-  O160  1  0.12470850  -0.00093098  0.16632436  1
  O2-  O161  1  0.12582537  -0.00142176  0.66829688  1
  O2-  O162  1  0.12447199  0.24979808  0.16861116  1
  O2-  O163  1  0.12440660  0.24960361  0.66620941  1
  O2-  O164  1  0.12487497  0.49809737  0.16650866  1
  O2-  O165  1  0.12391756  0.49908882  0.66268390  1
  O2-  O166  1  0.12510340  0.75276330  0.16248126  1
  O2-  O167  1  0.12504691  0.75247616  0.66675568  1
  O2-  O168  1  0.37370021  -0.00052505  0.16248835  1
  O2-  O169  1  0.37406252  -0.00028229  0.66806905  1
  O2-  O170  1  0.37461472  0.24931019  0.16816015  1
  O2-  O171  1  0.37484400  0.24861076  0.66459228  1
  O2-  O172  1  0.37497810  0.49957354  0.16682545  1
  O2-  O173  1  0.37506783  0.50001415  0.66139669  1
  O2-  O174  1  0.37404513  0.75131538  0.16015736  1
  O2-  O175  1  0.37494515  0.75114835  0.66717645  1
  O2-  O176  1  0.62526818  0.00220407  0.16328928  1
  O2-  O177  1  0.62461987  -0.00184831  0.66607234  1
  O2-  O178  1  0.62528442  0.25042944  0.16892471  1
  O2-  O179  1  0.62490908  0.25108835  0.66319021  1
  O2-  O180  1  0.62468363  0.49888382  0.16871955  1
  O2-  O181  1  0.62628629  0.50185330  0.66030410  1
  O2-  O182  1  0.62476894  0.74810662  0.16373586  1
  O2-  O183  1  0.62486631  0.74910453  0.66348313  1
  O2-  O184  1  0.87583540  0.00031702  0.16354069  1
  O2-  O185  1  0.87579418  -0.00086220  0.66762952  1
  O2-  O186  1  0.87534680  0.25071623  0.16718992  1
  O2-  O187  1  0.87603785  0.25129070  0.65895904  1
  O2-  O188  1  0.87429919  0.50119367  0.16387639  1
  O2-  O189  1  0.87494005  0.49880764  0.66125275  1
  O2-  O190  1  0.87472071  0.74773329  0.16076464  1
  O2-  O191  1  0.87571260  0.75097090  0.66902907  1
  O2-  O192  1  0.00068394  0.12504358  0.16749772  1
  O2-  O193  1  0.00107639  0.12383157  0.66677591  1
  O2-  O194  1  -0.00038956  0.37517421  0.16636468  1
  O2-  O195  1  -0.00060829  0.37519245  0.66426004  1
  O2-  O196  1  -0.00309606  0.62469146  0.16341877  1
  O2-  O197  1  -0.00138017  0.62601809  0.66626385  1
  O2-  O198  1  0.00240268  0.87485667  0.16545357  1
  O2-  O199  1  0.00211026  0.87498393  0.66772575  1
  O2-  O200  1  0.24995967  0.12503068  0.16991563  1
  O2-  O201  1  0.24940807  0.12376618  0.66846810  1
  O2-  O202  1  0.25082304  0.37452260  0.16636254  1
  O2-  O203  1  0.24765568  0.37434476  0.66717867  1
  O2-  O204  1  0.25078288  0.62460366  0.16658809  1
  O2-  O205  1  0.25069369  0.62611606  0.66492486  1
  O2-  O206  1  0.24968272  0.87517631  0.16458463  1
  O2-  O207  1  0.24823444  0.87545839  0.66618666  1
  O2-  O208  1  0.49928991  0.12499899  0.16413698  1
  O2-  O209  1  0.49799140  0.12407976  0.66581355  1
  O2-  O210  1  0.49939304  0.37504606  0.16698272  1
  O2-  O211  1  0.50040872  0.37480149  0.66248008  1
  O2-  O212  1  0.49976859  0.62483418  0.16415985  1
  O2-  O213  1  0.50289660  0.62552904  0.66172227  1
  O2-  O214  1  0.49613111  0.87506150  0.16122928  1
  O2-  O215  1  0.49922068  0.87516741  0.66583123  1
  O2-  O216  1  0.75040684  0.12562805  0.16456544  1
  O2-  O217  1  0.75152260  0.12471604  0.66138252  1
  O2-  O218  1  0.74919389  0.37501527  0.16681191  1
  O2-  O219  1  0.75286025  0.37521330  0.66048687  1
  O2-  O220  1  0.75118902  0.62410952  0.16263709  1
  O2-  O221  1  0.74823164  0.62587341  0.66186109  1
  O2-  O222  1  0.75070184  0.87502345  0.16455628  1
  O2-  O223  1  0.75075703  0.87429218  0.66336458  1
  O2-  O224  1  0.12409674  -0.00282759  0.34929180  1
  O2-  O225  1  0.12463603  -0.00084554  0.85237224  1
  O2-  O226  1  0.12455711  0.24953923  0.35201253  1
  O2-  O227  1  0.12471065  0.25084202  0.84613957  1
  O2-  O228  1  0.12439530  0.49997556  0.35054793  1
  O2-  O229  1  0.12457598  0.49759874  0.84284745  1
  O2-  O230  1  0.12425288  0.75330869  0.34645413  1
  O2-  O231  1  0.12541458  0.75280098  0.85172285  1
  O2-  O232  1  0.37459178  -0.00078939  0.34179391  1
  O2-  O233  1  0.37481351  -0.00079557  0.85316472  1
  O2-  O234  1  0.37425190  0.24778404  0.34939512  1
  O2-  O235  1  0.37564674  0.25102690  0.84760452  1
  O2-  O236  1  0.37528407  0.50047970  0.35167394  1
  O2-  O237  1  0.37566855  0.49973396  0.84098970  1
  O2-  O238  1  0.37500784  0.75273799  0.34316080  1
  O2-  O239  1  0.37435746  0.75057929  0.84989053  1
  O2-  O240  1  0.62539448  -0.00202349  0.34543686  1
  O2-  O241  1  0.62498128  0.00219735  0.84806646  1
  O2-  O242  1  0.62567723  0.25153167  0.34962017  1
  O2-  O243  1  0.62571728  0.25031204  0.84569537  1
  O2-  O244  1  0.62628411  0.50139512  0.35092777  1
  O2-  O245  1  0.62587992  0.50039909  0.84308663  1
  O2-  O246  1  0.62551664  0.74938702  0.34654375  1
  O2-  O247  1  0.62554109  0.74752146  0.84636746  1
  O2-  O248  1  0.87560244  -0.00016151  0.34726698  1
  O2-  O249  1  0.87632167  0.00042960  0.84813293  1
  O2-  O250  1  0.87558738  0.25159918  0.35068838  1
  O2-  O251  1  0.87434267  0.25035833  0.84084098  1
  O2-  O252  1  0.87421069  0.49905128  0.34759248  1
  O2-  O253  1  0.87449245  0.50087267  0.84534149  1
  O2-  O254  1  0.87466067  0.74944541  0.34417908  1
  O2-  O255  1  0.87539119  0.74839507  0.85134847  1
  O2-  O256  1  -0.00038152  0.12447390  0.34956789  1
  O2-  O257  1  -0.00126486  0.12557583  0.84755222  1
  O2-  O258  1  -0.00190098  0.37562259  0.35101837  1
  O2-  O259  1  -0.00073836  0.37496298  0.84425287  1
  O2-  O260  1  -0.00218151  0.62554168  0.34653901  1
  O2-  O261  1  -0.00290650  0.62483223  0.85013607  1
  O2-  O262  1  0.00130090  0.87459137  0.35115168  1
  O2-  O263  1  0.00090551  0.87470557  0.84955955  1
  O2-  O264  1  0.25025973  0.12324284  0.35012591  1
  O2-  O265  1  0.25000764  0.12480987  0.85218515  1
  O2-  O266  1  0.24875537  0.37532622  0.35106233  1
  O2-  O267  1  0.25055530  0.37408033  0.84664733  1
  O2-  O268  1  0.25019084  0.62628009  0.35028896  1
  O2-  O269  1  0.25231502  0.62519683  0.84632941  1
  O2-  O270  1  0.24893506  0.87542398  0.34806550  1
  O2-  O271  1  0.25003251  0.87637412  0.85195422  1
  O2-  O272  1  0.49844614  0.12407807  0.34470528  1
  O2-  O273  1  0.50160648  0.12595138  0.84874722  1
  O2-  O274  1  0.50211075  0.37557459  0.34803062  1
  O2-  O275  1  0.50006543  0.37502677  0.84573140  1
  O2-  O276  1  0.50355761  0.62581991  0.34759529  1
  O2-  O277  1  0.49953003  0.62494617  0.84275272  1
  O2-  O278  1  0.50048206  0.87457182  0.34195875  1
  O2-  O279  1  0.49687607  0.87470968  0.85012393  1
  O2-  O280  1  0.75132245  0.12465690  0.34739298  1
  O2-  O281  1  0.75041027  0.12537100  0.84153635  1
  O2-  O282  1  0.75141855  0.37555375  0.34856194  1
  O2-  O283  1  0.75042376  0.37608008  0.84366103  1
  O2-  O284  1  0.74827737  0.62535530  0.34565504  1
  O2-  O285  1  0.75132881  0.62419801  0.84554977  1
  O2-  O286  1  0.74909507  0.87406614  0.34779100  1
  O2-  O287  1  0.75261950  0.87460887  0.84466403  1
