# generated using pymatgen
data_BaYFeCuO5
_symmetry_space_group_name_H-M   'P 1'
_cell_length_a   15.68630864
_cell_length_b   15.68731186
_cell_length_c   15.53121885
_cell_angle_alpha   89.99989736
_cell_angle_beta   90.00360534
_cell_angle_gamma   90.01503664
_symmetry_Int_Tables_number   1
_chemical_formula_structural   BaYFeCuO5
_chemical_formula_sum   'Ba32 Y32 Fe32 Cu32 O160'
_cell_volume   3821.86031261
_cell_formula_units_Z   32
loop_
 _symmetry_equiv_pos_site_id
 _symmetry_equiv_pos_as_xyz
  1  'x, y, z'
loop_
 _atom_type_symbol
 _atom_type_oxidation_number
  Ba2+  2.0
  Y3+  3.0
  Fe3+  3.0
  Cu2+  2.0
  O2-  -2.0
loop_
 _atom_site_type_symbol
 _atom_site_label
 _atom_site_symmetry_multiplicity
 _atom_site_fract_x
 _atom_site_fract_y
 _atom_site_fract_z
 _atom_site_occupancy
  Ba2+  Ba0  1  -0.00458829  0.00309505  0.00188904  1
  Ba2+  Ba1  1  0.00498050  0.00585571  0.51437267  1
  Ba2+  Ba2  1  0.00445746  0.24688838  0.00158735  1
  Ba2+  Ba3  1  0.00278184  0.25209689  0.52889537  1
  Ba2+  Ba4  1  0.00436629  0.50459289  0.01182730  1
  Ba2+  Ba5  1  0.00270969  0.50328645  0.51818040  1
  Ba2+  Ba6  1  -0.00551447  0.74631773  0.01271172  1
  Ba2+  Ba7  1  0.00520066  0.74067986  0.50232104  1
  Ba2+  Ba8  1  0.25736679  0.00353054  0.01245553  1
  Ba2+  Ba9  1  0.25138405  -0.00264624  0.50045624  1
  Ba2+  Ba10  1  0.25151730  0.25085943  -0.00491933  1
  Ba2+  Ba11  1  0.24835320  0.25341211  0.51381958  1
  Ba2+  Ba12  1  0.25330728  0.49974240  0.00455622  1
  Ba2+  Ba13  1  0.24681089  0.49984223  0.51728394  1
  Ba2+  Ba14  1  0.25718760  0.74517511  0.02324980  1
  Ba2+  Ba15  1  0.24908475  0.74826846  0.50680653  1
  Ba2+  Ba16  1  0.50102024  -0.00139482  0.02982654  1
  Ba2+  Ba17  1  0.49510600  -0.00745569  0.50348235  1
  Ba2+  Ba18  1  0.50006534  0.24915646  0.02010860  1
  Ba2+  Ba19  1  0.48773997  0.25140106  0.50239564  1
  Ba2+  Ba20  1  0.50241799  0.50405314  0.01213596  1
  Ba2+  Ba21  1  0.48813961  0.49833226  0.51095402  1
  Ba2+  Ba22  1  0.50255587  0.74892636  0.02439654  1
  Ba2+  Ba23  1  0.49456995  0.75709971  0.51065285  1
  Ba2+  Ba24  1  0.74641551  -0.00138708  0.02017132  1
  Ba2+  Ba25  1  0.74814552  -0.00273481  0.51051979  1
  Ba2+  Ba26  1  0.74375011  0.24463959  0.02209195  1
  Ba2+  Ba27  1  0.76068552  0.25036982  0.51673199  1
  Ba2+  Ba28  1  0.74218362  0.50733348  0.01619085  1
  Ba2+  Ba29  1  0.76300732  0.50195348  0.51136937  1
  Ba2+  Ba30  1  0.74415987  0.74844480  0.01252690  1
  Ba2+  Ba31  1  0.75122929  0.74928570  0.50723312  1
  Y3+  Y32  1  0.00108367  -0.00085999  0.25670491  1
  Y3+  Y33  1  0.00058257  0.00064596  0.75944233  1
  Y3+  Y34  1  -0.00026800  0.24969254  0.25182214  1
  Y3+  Y35  1  0.00225824  0.25022692  0.76095405  1
  Y3+  Y36  1  0.00029703  0.50474973  0.25761465  1
  Y3+  Y37  1  0.00115273  0.50127535  0.75624656  1
  Y3+  Y38  1  0.00134442  0.74636048  0.25998816  1
  Y3+  Y39  1  -0.00069753  0.74843130  0.75578640  1
  Y3+  Y40  1  0.25260002  -0.00156177  0.25968906  1
  Y3+  Y41  1  0.24990837  -0.00006039  0.75730281  1
  Y3+  Y42  1  0.25306588  0.25039067  0.25957568  1
  Y3+  Y43  1  0.24933123  0.25248234  0.75811467  1
  Y3+  Y44  1  0.24936072  0.50169467  0.25865606  1
  Y3+  Y45  1  0.25029989  0.49896781  0.75563948  1
  Y3+  Y46  1  0.24932606  0.74949102  0.26101016  1
  Y3+  Y47  1  0.25159651  0.74894771  0.75298813  1
  Y3+  Y48  1  0.49822691  -0.00224988  0.26397714  1
  Y3+  Y49  1  0.50011746  -0.00369959  0.74984562  1
  Y3+  Y50  1  0.49798456  0.25006176  0.26060568  1
  Y3+  Y51  1  0.49771425  0.25240590  0.75444036  1
  Y3+  Y52  1  0.50025388  0.50032293  0.25768358  1
  Y3+  Y53  1  0.49818673  0.50044304  0.75640696  1
  Y3+  Y54  1  0.50056569  0.75122465  0.26139448  1
  Y3+  Y55  1  0.50048077  0.75074485  0.75230394  1
  Y3+  Y56  1  0.74825472  -0.00100112  0.26083696  1
  Y3+  Y57  1  0.74974824  -0.00262291  0.75366579  1
  Y3+  Y58  1  0.74878698  0.24958897  0.25629453  1
  Y3+  Y59  1  0.75071286  0.25025693  0.75529057  1
  Y3+  Y60  1  0.74987154  0.50261886  0.25707376  1
  Y3+  Y61  1  0.74978018  0.50291011  0.75616951  1
  Y3+  Y62  1  0.74904122  0.74808721  0.26031078  1
  Y3+  Y63  1  0.74881224  0.74994368  0.75524724  1
  Fe3+  Fe64  1  0.87153487  0.12440161  0.87542130  1
  Fe3+  Fe65  1  0.12368471  0.37503302  0.37582686  1
  Fe3+  Fe66  1  0.37696830  0.62658585  0.87429703  1
  Fe3+  Fe67  1  0.12442464  0.12680904  0.37556683  1
  Fe3+  Fe68  1  0.87738385  0.37466872  0.37392570  1
  Fe3+  Fe69  1  0.62487018  0.12590919  0.38021003  1
  Fe3+  Fe70  1  0.62320354  0.12378502  0.87323650  1
  Fe3+  Fe71  1  0.12657324  0.62652657  0.87672525  1
  Fe3+  Fe72  1  0.12603874  0.87365543  0.88192869  1
  Fe3+  Fe73  1  0.37681109  0.87451502  0.87703037  1
  Fe3+  Fe74  1  0.37412032  0.62412649  0.37681822  1
  Fe3+  Fe75  1  0.62479223  0.62402258  0.38102272  1
  Fe3+  Fe76  1  0.62479966  0.37475820  0.87591340  1
  Fe3+  Fe77  1  0.87716173  0.87493915  0.38056867  1
  Fe3+  Fe78  1  0.87330412  0.62583650  0.87643907  1
  Fe3+  Fe79  1  0.87332485  0.37602915  0.87953574  1
  Fe3+  Fe80  1  0.37842631  0.12379761  0.87483623  1
  Fe3+  Fe81  1  0.87688486  0.12636499  0.37615056  1
  Fe3+  Fe82  1  0.62575920  0.37542711  0.38050220  1
  Fe3+  Fe83  1  0.62397928  0.87509659  0.87464420  1
  Fe3+  Fe84  1  0.37464846  0.37540204  0.13868156  1
  Fe3+  Fe85  1  0.62422338  0.12556321  0.63131841  1
  Fe3+  Fe86  1  0.37326843  0.12458016  0.63603509  1
  Fe3+  Fe87  1  0.87693388  0.87436369  0.63484440  1
  Fe3+  Fe88  1  0.62433716  0.62452871  0.63283091  1
  Fe3+  Fe89  1  0.12544089  0.87459962  0.13550726  1
  Fe3+  Fe90  1  0.12615662  0.37524593  0.13518780  1
  Fe3+  Fe91  1  0.87456063  0.37560012  0.13231438  1
  Fe3+  Fe92  1  0.12661924  0.12489267  0.13589683  1
  Fe3+  Fe93  1  0.12508948  0.87493270  0.63798959  1
  Fe3+  Fe94  1  0.62514079  0.37541754  0.63215924  1
  Fe3+  Fe95  1  0.87480025  0.87448185  0.14015957  1
  Cu2+  Cu96  1  0.37391201  0.12514592  0.36618804  1
  Cu2+  Cu97  1  0.37313413  0.37647793  0.37267229  1
  Cu2+  Cu98  1  0.12389790  0.87514109  0.36380034  1
  Cu2+  Cu99  1  0.62597094  0.87428859  0.37525917  1
  Cu2+  Cu100  1  0.37629760  0.37548332  0.86253737  1
  Cu2+  Cu101  1  0.12621067  0.12401052  0.86394114  1
  Cu2+  Cu102  1  0.37359722  0.87335290  0.37202834  1
  Cu2+  Cu103  1  0.62376091  0.62610776  0.86899197  1
  Cu2+  Cu104  1  0.12554883  0.62346915  0.37174565  1
  Cu2+  Cu105  1  0.87539973  0.62408835  0.37260215  1
  Cu2+  Cu106  1  0.12462484  0.37675126  0.86483547  1
  Cu2+  Cu107  1  0.87408518  0.87452753  0.86242346  1
  Cu2+  Cu108  1  0.12590362  0.62507033  0.15084873  1
  Cu2+  Cu109  1  0.87545162  0.12410474  0.65259416  1
  Cu2+  Cu110  1  0.37462727  0.12532754  0.15709640  1
  Cu2+  Cu111  1  0.87528091  0.37558816  0.65595819  1
  Cu2+  Cu112  1  0.87554574  0.62614892  0.64230792  1
  Cu2+  Cu113  1  0.62380446  0.12414202  0.15950147  1
  Cu2+  Cu114  1  0.87522020  0.12414478  0.15070562  1
  Cu2+  Cu115  1  0.62494612  0.87462265  0.15954305  1
  Cu2+  Cu116  1  0.62469222  0.37517345  0.15448695  1
  Cu2+  Cu117  1  0.87452400  0.62547786  0.15241781  1
  Cu2+  Cu118  1  0.37420175  0.37466114  0.64207627  1
  Cu2+  Cu119  1  0.62533520  0.87441506  0.63750312  1
  Cu2+  Cu120  1  0.12462932  0.37512326  0.65667419  1
  Cu2+  Cu121  1  0.12571488  0.12464531  0.65650583  1
  Cu2+  Cu122  1  0.12548228  0.62583954  0.64291022  1
  Cu2+  Cu123  1  0.37479784  0.87432825  0.15618839  1
  Cu2+  Cu124  1  0.37540525  0.62416760  0.15595252  1
  Cu2+  Cu125  1  0.37509076  0.62495250  0.64877297  1
  Cu2+  Cu126  1  0.62434856  0.62545571  0.14665836  1
  Cu2+  Cu127  1  0.37275765  0.87548368  0.64040620  1
  O2-  O128  1  0.12709540  0.12380024  0.01596951  1
  O2-  O129  1  0.12269820  0.12842174  0.49507025  1
  O2-  O130  1  0.12761769  0.37499202  0.01544379  1
  O2-  O131  1  0.12129221  0.37402650  0.49559705  1
  O2-  O132  1  0.12666254  0.62699144  -0.00322103  1
  O2-  O133  1  0.12575625  0.62336181  0.50787674  1
  O2-  O134  1  0.12587580  0.87407962  0.00868228  1
  O2-  O135  1  0.12342633  0.87647442  0.51823355  1
  O2-  O136  1  0.38110881  0.12329886  -0.00517199  1
  O2-  O137  1  0.37040693  0.12557477  0.51573659  1
  O2-  O138  1  0.37595935  0.37358043  0.01881396  1
  O2-  O139  1  0.37228934  0.37515554  0.50796551  1
  O2-  O140  1  0.37817542  0.62661495  -0.00558110  1
  O2-  O141  1  0.37284696  0.62375287  0.49709789  1
  O2-  O142  1  0.37899515  0.87469344  -0.00357156  1
  O2-  O143  1  0.37134962  0.87510544  0.50624904  1
  O2-  O144  1  0.62314942  0.12318363  -0.00693678  1
  O2-  O145  1  0.62587539  0.12724123  0.50537768  1
  O2-  O146  1  0.62498767  0.37311347  -0.00429109  1
  O2-  O147  1  0.62687231  0.37492160  0.50606695  1
  O2-  O148  1  0.62354987  0.62642018  0.00691679  1
  O2-  O149  1  0.62520189  0.62284206  0.50661041  1
  O2-  O150  1  0.62335819  0.87627834  -0.00523874  1
  O2-  O151  1  0.62679185  0.87584095  0.50612280  1
  O2-  O152  1  0.86896497  0.12291028  -0.00470182  1
  O2-  O153  1  0.87945853  0.12888056  0.49551565  1
  O2-  O154  1  0.87152907  0.37554179  0.00533361  1
  O2-  O155  1  0.87928953  0.37305519  0.49376580  1
  O2-  O156  1  0.87237555  0.62567072  -0.00346080  1
  O2-  O157  1  0.87639739  0.62440955  0.50702691  1
  O2-  O158  1  0.87306802  0.87597446  0.02040694  1
  O2-  O159  1  0.87913411  0.87555431  0.50772434  1
  O2-  O160  1  0.12548804  -0.00153469  0.16554418  1
  O2-  O161  1  0.12382853  -0.00034335  0.66827288  1
  O2-  O162  1  0.12459070  0.25025072  0.16404896  1
  O2-  O163  1  0.12417320  0.24972939  0.66727765  1
  O2-  O164  1  0.12396501  0.49973770  0.16378904  1
  O2-  O165  1  0.12467025  0.49912056  0.66511647  1
  O2-  O166  1  0.12545324  0.75105792  0.16485057  1
  O2-  O167  1  0.12446685  0.75176240  0.66676536  1
  O2-  O168  1  0.37516001  0.00010584  0.16721303  1
  O2-  O169  1  0.37445342  0.00209739  0.66515596  1
  O2-  O170  1  0.37613783  0.25068639  0.16862778  1
  O2-  O171  1  0.37441442  0.24803723  0.66684430  1
  O2-  O172  1  0.37620707  0.49950274  0.16527875  1
  O2-  O173  1  0.37483424  0.50120760  0.66498592  1
  O2-  O174  1  0.37521383  0.74898327  0.16499729  1
  O2-  O175  1  0.37466060  0.74852217  0.66080872  1
  O2-  O176  1  0.62500664  -0.00033828  0.16920531  1
  O2-  O177  1  0.62546026  0.00326543  0.65925100  1
  O2-  O178  1  0.62473804  0.24920244  0.16618974  1
  O2-  O179  1  0.62670587  0.25039672  0.66052948  1
  O2-  O180  1  0.62540108  0.49936013  0.16706114  1
  O2-  O181  1  0.62561685  0.49972850  0.66220214  1
  O2-  O182  1  0.62529851  0.75101452  0.16914254  1
  O2-  O183  1  0.62491234  0.74674357  0.66096186  1
  O2-  O184  1  0.87468925  -0.00090443  0.17053621  1
  O2-  O185  1  0.87605472  -0.00153065  0.66084828  1
  O2-  O186  1  0.87384787  0.25108044  0.15886796  1
  O2-  O187  1  0.87496967  0.24974269  0.66611770  1
  O2-  O188  1  0.87433827  0.49902271  0.16105996  1
  O2-  O189  1  0.87486343  0.49939443  0.66579836  1
  O2-  O190  1  0.87483205  0.75033943  0.16964129  1
  O2-  O191  1  0.87576321  0.75306545  0.66345222  1
  O2-  O192  1  0.00134345  0.12410987  0.16098298  1
  O2-  O193  1  0.00047213  0.12483716  0.66848357  1
  O2-  O194  1  -0.00146725  0.37443292  0.15739892  1
  O2-  O195  1  -0.00028911  0.37488248  0.66990120  1
  O2-  O196  1  -0.00019867  0.62594948  0.16323824  1
  O2-  O197  1  -0.00016104  0.62497485  0.66755624  1
  O2-  O198  1  0.00184876  0.87461330  0.16456844  1
  O2-  O199  1  -0.00070852  0.87604738  0.67092175  1
  O2-  O200  1  0.24974131  0.12456046  0.16629701  1
  O2-  O201  1  0.24983861  0.12536158  0.66876932  1
  O2-  O202  1  0.25002854  0.37549821  0.16857183  1
  O2-  O203  1  0.24815528  0.37466739  0.66677956  1
  O2-  O204  1  0.25090926  0.62458539  0.16431237  1
  O2-  O205  1  0.25219000  0.62489732  0.66490161  1
  O2-  O206  1  0.24876787  0.87475401  0.16317401  1
  O2-  O207  1  0.24775799  0.87555840  0.66991193  1
  O2-  O208  1  0.49934847  0.12514273  0.17062440  1
  O2-  O209  1  0.50089549  0.12630806  0.65753856  1
  O2-  O210  1  0.49980584  0.37453532  0.17020715  1
  O2-  O211  1  0.50345123  0.37488023  0.65973202  1
  O2-  O212  1  0.49895922  0.62481892  0.16939191  1
  O2-  O213  1  0.50066575  0.62375036  0.65845290  1
  O2-  O214  1  0.49999479  0.87494561  0.16887342  1
  O2-  O215  1  0.49949749  0.87503218  0.65802593  1
  O2-  O216  1  0.74927406  0.12449528  0.16702322  1
  O2-  O217  1  0.74870307  0.12556375  0.65775756  1
  O2-  O218  1  0.75132632  0.37455058  0.16422674  1
  O2-  O219  1  0.74867398  0.37507000  0.66014013  1
  O2-  O220  1  0.75059724  0.62549424  0.16840625  1
  O2-  O221  1  0.74736168  0.62463877  0.66120901  1
  O2-  O222  1  0.74989353  0.87541770  0.17025347  1
  O2-  O223  1  0.75336808  0.87516034  0.66036300  1
  O2-  O224  1  0.12425323  0.00122008  0.34812720  1
  O2-  O225  1  0.12447010  -0.00301667  0.85111233  1
  O2-  O226  1  0.12447245  0.25014297  0.34118436  1
  O2-  O227  1  0.12503954  0.25071093  0.85190497  1
  O2-  O228  1  0.12414355  0.49813285  0.34497813  1
  O2-  O229  1  0.12488315  0.50198881  0.84793527  1
  O2-  O230  1  0.12417979  0.75085174  0.34992114  1
  O2-  O231  1  0.12485939  0.75128143  0.84669924  1
  O2-  O232  1  0.37416571  0.00037700  0.35123321  1
  O2-  O233  1  0.37543294  -0.00105658  0.84319589  1
  O2-  O234  1  0.37488348  0.24972691  0.35062056  1
  O2-  O235  1  0.37599154  0.25001705  0.84804834  1
  O2-  O236  1  0.37519650  0.50163609  0.34574988  1
  O2-  O237  1  0.37550652  0.50025474  0.84812378  1
  O2-  O238  1  0.37484053  0.74740250  0.34756646  1
  O2-  O239  1  0.37514979  0.75120128  0.84117032  1
  O2-  O240  1  0.62540358  0.00345073  0.35273370  1
  O2-  O241  1  0.62526663  -0.00046819  0.83917578  1
  O2-  O242  1  0.62536123  0.25031871  0.35034911  1
  O2-  O243  1  0.62511039  0.24966997  0.84169096  1
  O2-  O244  1  0.62560371  0.49942292  0.35040044  1
  O2-  O245  1  0.62523824  0.49854892  0.84548058  1
  O2-  O246  1  0.62586911  0.74640066  0.35226486  1
  O2-  O247  1  0.62542182  0.75213038  0.84289694  1
  O2-  O248  1  0.87590510  0.00014532  0.35176613  1
  O2-  O249  1  0.87460531  0.00029639  0.84433048  1
  O2-  O250  1  0.87454470  0.25006197  0.33943672  1
  O2-  O251  1  0.87392590  0.25106334  0.84927642  1
  O2-  O252  1  0.87438032  0.49787071  0.34408809  1
  O2-  O253  1  0.87443017  0.49944516  0.84800657  1
  O2-  O254  1  0.87577675  0.75203367  0.35328438  1
  O2-  O255  1  0.87452155  0.74967474  0.84560396  1
  O2-  O256  1  -0.00012455  0.12521146  0.33994596  1
  O2-  O257  1  -0.00104820  0.12490595  0.85252847  1
  O2-  O258  1  -0.00006470  0.37457087  0.33712669  1
  O2-  O259  1  -0.00298181  0.37491096  0.85444706  1
  O2-  O260  1  0.00046196  0.62472665  0.34756973  1
  O2-  O261  1  -0.00013234  0.62590679  0.84879123  1
  O2-  O262  1  -0.00175162  0.87535771  0.34691758  1
  O2-  O263  1  0.00123423  0.87492817  0.85510141  1
  O2-  O264  1  0.24906824  0.12468924  0.34738611  1
  O2-  O265  1  0.25183126  0.12474594  0.85062636  1
  O2-  O266  1  0.24763853  0.37464448  0.34754272  1
  O2-  O267  1  0.25055897  0.37539606  0.85114564  1
  O2-  O268  1  0.25067906  0.62503876  0.34672197  1
  O2-  O269  1  0.25088090  0.62532852  0.84566466  1
  O2-  O270  1  0.24748131  0.87487213  0.34753100  1
  O2-  O271  1  0.24973508  0.87547292  0.85135768  1
  O2-  O272  1  0.50079713  0.12590910  0.35506729  1
  O2-  O273  1  0.50060066  0.12503459  0.83591691  1
  O2-  O274  1  0.50279897  0.37494860  0.35418695  1
  O2-  O275  1  0.50123219  0.37514637  0.84189338  1
  O2-  O276  1  0.50154854  0.62383055  0.35144195  1
  O2-  O277  1  0.49833462  0.62513922  0.83991386  1
  O2-  O278  1  0.50007304  0.87453678  0.35254036  1
  O2-  O279  1  0.50016702  0.87497324  0.83835235  1
  O2-  O280  1  0.74972880  0.12604020  0.35026591  1
  O2-  O281  1  0.74851328  0.12484262  0.83878611  1
  O2-  O282  1  0.74923173  0.37452393  0.34815904  1
  O2-  O283  1  0.75088744  0.37507704  0.84259526  1
  O2-  O284  1  0.74737635  0.62378201  0.35164573  1
  O2-  O285  1  0.75121965  0.62535443  0.84340441  1
  O2-  O286  1  0.75444968  0.87570693  0.35310132  1
  O2-  O287  1  0.74908037  0.87516509  0.84308176  1
