# generated using pymatgen
data_BaYFeCuO5
_symmetry_space_group_name_H-M   'P 1'
_cell_length_a   15.67513309
_cell_length_b   15.67821247
_cell_length_c   15.50103831
_cell_angle_alpha   90.00046506
_cell_angle_beta   90.00232122
_cell_angle_gamma   89.99817888
_symmetry_Int_Tables_number   1
_chemical_formula_structural   BaYFeCuO5
_chemical_formula_sum   'Ba32 Y32 Fe32 Cu32 O160'
_cell_volume   3809.50520841
_cell_formula_units_Z   32
loop_
 _symmetry_equiv_pos_site_id
 _symmetry_equiv_pos_as_xyz
  1  'x, y, z'
loop_
 _atom_type_symbol
 _atom_type_oxidation_number
  Ba2+  2.0
  Y3+  3.0
  Fe3+  3.0
  Cu2+  2.0
  O2-  -2.0
loop_
 _atom_site_type_symbol
 _atom_site_label
 _atom_site_symmetry_multiplicity
 _atom_site_fract_x
 _atom_site_fract_y
 _atom_site_fract_z
 _atom_site_occupancy
  Ba2+  Ba0  1  0.00933258  0.00051315  0.01847050  1
  Ba2+  Ba1  1  -0.00818676  -0.00099680  0.50802202  1
  Ba2+  Ba2  1  0.00536566  0.25622518  0.02301750  1
  Ba2+  Ba3  1  -0.00773373  0.25105893  0.50729411  1
  Ba2+  Ba4  1  -0.00079566  0.50047849  0.02114993  1
  Ba2+  Ba5  1  0.00033342  0.50033790  0.50582881  1
  Ba2+  Ba6  1  0.00193595  0.74182340  0.01602496  1
  Ba2+  Ba7  1  -0.00040625  0.75019970  0.50624110  1
  Ba2+  Ba8  1  0.24965006  0.00820715  0.01733693  1
  Ba2+  Ba9  1  0.24953190  -0.00883191  0.49540441  1
  Ba2+  Ba10  1  0.25541282  0.25212314  0.01645832  1
  Ba2+  Ba11  1  0.25220265  0.25957475  0.50220537  1
  Ba2+  Ba12  1  0.25415180  0.49802637  0.01659056  1
  Ba2+  Ba13  1  0.24699176  0.49553305  0.49596822  1
  Ba2+  Ba14  1  0.24828462  0.74217690  0.01675944  1
  Ba2+  Ba15  1  0.24446769  0.75311924  0.49030439  1
  Ba2+  Ba16  1  0.50153412  0.01032120  0.01059448  1
  Ba2+  Ba17  1  0.50608072  -0.00309872  0.49982765  1
  Ba2+  Ba18  1  0.49641119  0.24944727  0.01025196  1
  Ba2+  Ba19  1  0.50369255  0.25484264  0.51887189  1
  Ba2+  Ba20  1  0.49551429  0.49757198  0.01626544  1
  Ba2+  Ba21  1  0.49834899  0.49022607  0.51150381  1
  Ba2+  Ba22  1  0.50121341  0.74260939  0.01694234  1
  Ba2+  Ba23  1  0.50051004  0.75885209  0.49533729  1
  Ba2+  Ba24  1  0.73961680  0.00262614  0.01099186  1
  Ba2+  Ba25  1  0.75247897  0.00380580  0.51364890  1
  Ba2+  Ba26  1  0.74225379  0.25363741  0.01446195  1
  Ba2+  Ba27  1  0.75081120  0.24799849  0.52198019  1
  Ba2+  Ba28  1  0.75180165  0.50028735  0.01890502  1
  Ba2+  Ba29  1  0.75437780  0.49518172  0.52159638  1
  Ba2+  Ba30  1  0.74882232  0.74206462  0.01514353  1
  Ba2+  Ba31  1  0.75515635  0.75453652  0.51475613  1
  Y3+  Y32  1  0.00055983  0.00104777  0.25890352  1
  Y3+  Y33  1  -0.00207457  0.00075114  0.75607593  1
  Y3+  Y34  1  0.00030099  0.25106076  0.25966406  1
  Y3+  Y35  1  -0.00191266  0.24944215  0.75384084  1
  Y3+  Y36  1  0.00161923  0.49983906  0.25688599  1
  Y3+  Y37  1  -0.00234263  0.50136851  0.75633147  1
  Y3+  Y38  1  0.00196849  0.74816297  0.25550199  1
  Y3+  Y39  1  -0.00276021  0.74802428  0.75867314  1
  Y3+  Y40  1  0.24964634  0.00016459  0.25594354  1
  Y3+  Y41  1  0.25156389  0.00124836  0.76037941  1
  Y3+  Y42  1  0.25188117  0.25269343  0.25694382  1
  Y3+  Y43  1  0.25442109  0.25142095  0.75872597  1
  Y3+  Y44  1  0.25074666  0.49820955  0.25697993  1
  Y3+  Y45  1  0.25378259  0.49868401  0.75890719  1
  Y3+  Y46  1  0.24833615  0.74911786  0.25544280  1
  Y3+  Y47  1  0.25116977  0.74794251  0.76135734  1
  Y3+  Y48  1  0.50189853  0.00071946  0.25424459  1
  Y3+  Y49  1  0.50056209  0.00388271  0.76139195  1
  Y3+  Y50  1  0.49900834  0.25127656  0.25386917  1
  Y3+  Y51  1  0.49873456  0.25001794  0.76027905  1
  Y3+  Y52  1  0.49825707  0.49824064  0.25599752  1
  Y3+  Y53  1  0.49614308  0.49735823  0.75767758  1
  Y3+  Y54  1  0.50099296  0.75035296  0.25575517  1
  Y3+  Y55  1  0.49835285  0.74827345  0.75981684  1
  Y3+  Y56  1  0.74787915  0.00124251  0.25559033  1
  Y3+  Y57  1  0.74992333  0.00300202  0.75860827  1
  Y3+  Y58  1  0.74915782  0.24971362  0.25405870  1
  Y3+  Y59  1  0.74852261  0.24858521  0.75674096  1
  Y3+  Y60  1  0.74995835  0.50018721  0.25263377  1
  Y3+  Y61  1  0.75258788  0.49987624  0.75726275  1
  Y3+  Y62  1  0.74872434  0.74925336  0.25346061  1
  Y3+  Y63  1  0.75307607  0.74787961  0.75961115  1
  Fe3+  Fe64  1  0.87375488  0.87529401  0.37264961  1
  Fe3+  Fe65  1  0.12489823  0.87476383  0.88008244  1
  Fe3+  Fe66  1  0.12493535  0.62258741  0.87769491  1
  Fe3+  Fe67  1  0.87542196  0.87513129  0.88192546  1
  Fe3+  Fe68  1  0.12464565  0.12698631  0.87614852  1
  Fe3+  Fe69  1  0.87405496  0.62468098  0.37532819  1
  Fe3+  Fe70  1  0.12472121  0.12561341  0.37953149  1
  Fe3+  Fe71  1  0.62473054  0.87400334  0.87956239  1
  Fe3+  Fe72  1  0.87563371  0.12616292  0.88136303  1
  Fe3+  Fe73  1  0.87583013  0.37479565  0.87742799  1
  Fe3+  Fe74  1  0.87296258  0.37484395  0.37456557  1
  Fe3+  Fe75  1  0.62639424  0.62442644  0.37977396  1
  Fe3+  Fe76  1  0.12495726  0.37495602  0.87648561  1
  Fe3+  Fe77  1  0.62590332  0.12645098  0.37610018  1
  Fe3+  Fe78  1  0.37552521  0.62493467  0.37836822  1
  Fe3+  Fe79  1  0.62473999  0.62270750  0.87595436  1
  Fe3+  Fe80  1  0.62594996  0.37480694  0.37569702  1
  Fe3+  Fe81  1  0.62475723  0.37581259  0.87576971  1
  Fe3+  Fe82  1  0.37489431  0.87496434  0.88381751  1
  Fe3+  Fe83  1  0.37653247  0.12540327  0.37934963  1
  Fe3+  Fe84  1  0.62414976  0.62532442  0.63336509  1
  Fe3+  Fe85  1  0.62452438  0.87499983  0.64022742  1
  Fe3+  Fe86  1  0.37511009  0.87522170  0.13692286  1
  Fe3+  Fe87  1  0.37469155  0.87472123  0.63885419  1
  Fe3+  Fe88  1  0.87501380  0.87528758  0.13408121  1
  Fe3+  Fe89  1  0.37411233  0.62590360  0.63234241  1
  Fe3+  Fe90  1  0.12509583  0.37521811  0.63634224  1
  Fe3+  Fe91  1  0.12624461  0.12445031  0.63269369  1
  Fe3+  Fe92  1  0.12524580  0.87445070  0.63907700  1
  Fe3+  Fe93  1  0.12600525  0.62538637  0.63627659  1
  Fe3+  Fe94  1  0.87513092  0.12569081  0.13441079  1
  Fe3+  Fe95  1  0.37495547  0.12365893  0.63372646  1
  Cu2+  Cu96  1  0.62520372  0.12645499  0.87269222  1
  Cu2+  Cu97  1  0.62684918  0.87485989  0.35920902  1
  Cu2+  Cu98  1  0.12433579  0.62448987  0.36193216  1
  Cu2+  Cu99  1  0.12314389  0.87553186  0.35832762  1
  Cu2+  Cu100  1  0.37518165  0.62403579  0.87489072  1
  Cu2+  Cu101  1  0.87522459  0.62351796  0.87464681  1
  Cu2+  Cu102  1  0.37424056  0.12550888  0.87322158  1
  Cu2+  Cu103  1  0.37493388  0.37491556  0.87241529  1
  Cu2+  Cu104  1  0.87310958  0.12565438  0.37067866  1
  Cu2+  Cu105  1  0.37538694  0.87553740  0.35816537  1
  Cu2+  Cu106  1  0.37685071  0.37435896  0.37189893  1
  Cu2+  Cu107  1  0.12415008  0.37454757  0.36276182  1
  Cu2+  Cu108  1  0.87491575  0.37444196  0.15028390  1
  Cu2+  Cu109  1  0.62405087  0.62399973  0.15212564  1
  Cu2+  Cu110  1  0.37527218  0.37487726  0.14393406  1
  Cu2+  Cu111  1  0.62465184  0.87500082  0.14587038  1
  Cu2+  Cu112  1  0.12574048  0.37528825  0.15482877  1
  Cu2+  Cu113  1  0.62420301  0.37553300  0.14929713  1
  Cu2+  Cu114  1  0.12514525  0.87479010  0.14981430  1
  Cu2+  Cu115  1  0.12495717  0.12654069  0.15625920  1
  Cu2+  Cu116  1  0.87556968  0.62530388  0.64844212  1
  Cu2+  Cu117  1  0.37502975  0.12561835  0.14501902  1
  Cu2+  Cu118  1  0.37493204  0.62461641  0.14498172  1
  Cu2+  Cu119  1  0.87524050  0.12457016  0.64219958  1
  Cu2+  Cu120  1  0.62364597  0.12451660  0.65227121  1
  Cu2+  Cu121  1  0.62437486  0.12631326  0.14185768  1
  Cu2+  Cu122  1  0.62486640  0.37556206  0.65293747  1
  Cu2+  Cu123  1  0.12583294  0.62357151  0.15351624  1
  Cu2+  Cu124  1  0.87579952  0.37479780  0.65171182  1
  Cu2+  Cu125  1  0.37353472  0.37495487  0.64158638  1
  Cu2+  Cu126  1  0.87542331  0.62471580  0.14220274  1
  Cu2+  Cu127  1  0.87482548  0.87493550  0.65561359  1
  O2-  O128  1  0.12375602  0.12742142  -0.00370863  1
  O2-  O129  1  0.12500664  0.12333209  0.50653090  1
  O2-  O130  1  0.12446516  0.37509346  -0.00352435  1
  O2-  O131  1  0.12453889  0.37579539  0.51577533  1
  O2-  O132  1  0.12496690  0.62181044  -0.00167994  1
  O2-  O133  1  0.12556769  0.62751057  0.51641359  1
  O2-  O134  1  0.12509230  0.87546817  -0.00015140  1
  O2-  O135  1  0.12541241  0.87404051  0.51910149  1
  O2-  O136  1  0.37348622  0.12499461  0.00892637  1
  O2-  O137  1  0.37661603  0.12295647  0.50679572  1
  O2-  O138  1  0.37486765  0.37493366  0.00857244  1
  O2-  O139  1  0.37537748  0.37508934  0.50683534  1
  O2-  O140  1  0.37487943  0.62503014  0.00837420  1
  O2-  O141  1  0.37412359  0.62753163  0.50654303  1
  O2-  O142  1  0.37464703  0.87508753  0.00948879  1
  O2-  O143  1  0.37442077  0.87434474  0.51923550  1
  O2-  O144  1  0.62527239  0.12680798  0.00711324  1
  O2-  O145  1  0.62597329  0.12534535  0.49640960  1
  O2-  O146  1  0.62491511  0.37810880  -0.00414188  1
  O2-  O147  1  0.62809435  0.37404278  0.49571367  1
  O2-  O148  1  0.62448443  0.62246394  -0.00382891  1
  O2-  O149  1  0.62656977  0.62638654  0.50586754  1
  O2-  O150  1  0.62430239  0.87244370  -0.00060393  1
  O2-  O151  1  0.62534943  0.87494263  0.51989656  1
  O2-  O152  1  0.87744489  0.12625629  0.00675651  1
  O2-  O153  1  0.87409742  0.12440338  0.50614390  1
  O2-  O154  1  0.87678965  0.37459765  -0.00279832  1
  O2-  O155  1  0.87272297  0.37482673  0.49500366  1
  O2-  O156  1  0.87584913  0.62433748  0.00744153  1
  O2-  O157  1  0.87346820  0.62580293  0.49558220  1
  O2-  O158  1  0.87630494  0.87535971  0.00711973  1
  O2-  O159  1  0.87353661  0.87543923  0.49348722  1
  O2-  O160  1  0.12511175  0.00124237  0.16514616  1
  O2-  O161  1  0.12506365  0.00061881  0.66653410  1
  O2-  O162  1  0.12489042  0.25084963  0.16737695  1
  O2-  O163  1  0.12544628  0.24798860  0.66086880  1
  O2-  O164  1  0.12581000  0.49926753  0.16615690  1
  O2-  O165  1  0.12412221  0.50082971  0.66468968  1
  O2-  O166  1  0.12521504  0.74883584  0.16352034  1
  O2-  O167  1  0.12504858  0.75000780  0.67138844  1
  O2-  O168  1  0.37430504  -0.00248296  0.16545712  1
  O2-  O169  1  0.37534165  0.00076962  0.66887304  1
  O2-  O170  1  0.37456141  0.25035601  0.16722120  1
  O2-  O171  1  0.37461282  0.24618329  0.66306018  1
  O2-  O172  1  0.37498053  0.49989150  0.16769147  1
  O2-  O173  1  0.37512623  0.50375066  0.66282812  1
  O2-  O174  1  0.37506699  0.75256743  0.16471998  1
  O2-  O175  1  0.37480027  0.74891889  0.66970138  1
  O2-  O176  1  0.62494239  -0.00040520  0.16447219  1
  O2-  O177  1  0.62476744  -0.00106450  0.66959730  1
  O2-  O178  1  0.62476667  0.25225404  0.16259089  1
  O2-  O179  1  0.62504925  0.25018827  0.66353328  1
  O2-  O180  1  0.62459007  0.49951986  0.16606957  1
  O2-  O181  1  0.62459690  0.50241623  0.65874504  1
  O2-  O182  1  0.62438414  0.74927019  0.16500684  1
  O2-  O183  1  0.62522171  0.74855520  0.66616979  1
  O2-  O184  1  0.87577752  0.00052576  0.16048372  1
  O2-  O185  1  0.87463870  -0.00108402  0.66918059  1
  O2-  O186  1  0.87562840  0.24867829  0.16206207  1
  O2-  O187  1  0.87496393  0.25080725  0.66492978  1
  O2-  O188  1  0.87477174  0.49830918  0.16450197  1
  O2-  O189  1  0.87563721  0.49973956  0.66193845  1
  O2-  O190  1  0.87523623  0.75298569  0.16247707  1
  O2-  O191  1  0.87468283  0.75036948  0.66657703  1
  O2-  O192  1  -0.00138453  0.12528490  0.16522930  1
  O2-  O193  1  0.00347202  0.12392420  0.66242161  1
  O2-  O194  1  0.00060543  0.37477476  0.16519455  1
  O2-  O195  1  0.00078342  0.37386106  0.66357236  1
  O2-  O196  1  0.00180160  0.62437885  0.16541774  1
  O2-  O197  1  0.00039825  0.62633511  0.66394421  1
  O2-  O198  1  -0.00125954  0.87602432  0.16246389  1
  O2-  O199  1  0.00015425  0.87529497  0.66618213  1
  O2-  O200  1  0.24842094  0.12530356  0.16997979  1
  O2-  O201  1  0.25055131  0.12310949  0.66228542  1
  O2-  O202  1  0.24920753  0.37486066  0.16762905  1
  O2-  O203  1  0.24778520  0.37477020  0.66748424  1
  O2-  O204  1  0.24907119  0.62506985  0.16828657  1
  O2-  O205  1  0.25135622  0.62569231  0.66678969  1
  O2-  O206  1  0.25104679  0.87508463  0.16514814  1
  O2-  O207  1  0.25032185  0.87535973  0.67190067  1
  O2-  O208  1  0.50011347  0.12494500  0.16688159  1
  O2-  O209  1  0.49802570  0.12430690  0.66434641  1
  O2-  O210  1  0.50122228  0.37566710  0.16580075  1
  O2-  O211  1  0.50043175  0.37497508  0.66331209  1
  O2-  O212  1  0.50103171  0.62522399  0.16937294  1
  O2-  O213  1  0.49918559  0.62613280  0.65974868  1
  O2-  O214  1  0.49850758  0.87474705  0.16515193  1
  O2-  O215  1  0.49944926  0.87429834  0.67025897  1
  O2-  O216  1  0.75299439  0.12509729  0.16010931  1
  O2-  O217  1  0.74806915  0.12424292  0.66673829  1
  O2-  O218  1  0.74917636  0.37523664  0.15945285  1
  O2-  O219  1  0.75047558  0.37518903  0.66357118  1
  O2-  O220  1  0.74827145  0.62536037  0.16256657  1
  O2-  O221  1  0.74886785  0.62562689  0.66180352  1
  O2-  O222  1  0.75165736  0.87535580  0.15913804  1
  O2-  O223  1  0.74962790  0.87466898  0.66786800  1
  O2-  O224  1  0.12473610  0.00192675  0.34972934  1
  O2-  O225  1  0.12450141  0.00001266  0.84700272  1
  O2-  O226  1  0.12573777  0.24799025  0.35135514  1
  O2-  O227  1  0.12450797  0.25021286  0.84113676  1
  O2-  O228  1  0.12455712  0.49933758  0.35040422  1
  O2-  O229  1  0.12507849  0.49908487  0.84317228  1
  O2-  O230  1  0.12463608  0.75075344  0.34819627  1
  O2-  O231  1  0.12486616  0.75021190  0.85010964  1
  O2-  O232  1  0.37509092  0.00125588  0.34993776  1
  O2-  O233  1  0.37475090  -0.00310208  0.85137211  1
  O2-  O234  1  0.37497077  0.24658709  0.35002969  1
  O2-  O235  1  0.37492876  0.25004109  0.84765414  1
  O2-  O236  1  0.37573593  0.50311700  0.35125844  1
  O2-  O237  1  0.37498618  0.49942713  0.84678057  1
  O2-  O238  1  0.37485279  0.74930733  0.34931506  1
  O2-  O239  1  0.37485023  0.75330611  0.85128059  1
  O2-  O240  1  0.62515002  0.00021427  0.34768967  1
  O2-  O241  1  0.62517837  -0.00173292  0.85114328  1
  O2-  O242  1  0.62512190  0.25026335  0.34345756  1
  O2-  O243  1  0.62539405  0.25205104  0.84656058  1
  O2-  O244  1  0.62449315  0.50183787  0.34911089  1
  O2-  O245  1  0.62519043  0.49922062  0.84003092  1
  O2-  O246  1  0.62576625  0.74837098  0.35008955  1
  O2-  O247  1  0.62531629  0.74981497  0.84592955  1
  O2-  O248  1  0.87501435  -0.00126965  0.34366820  1
  O2-  O249  1  0.87570593  0.00048663  0.85287307  1
  O2-  O250  1  0.87428674  0.25202746  0.34446499  1
  O2-  O251  1  0.87565632  0.24856066  0.84706829  1
  O2-  O252  1  0.87495590  0.50023187  0.34546249  1
  O2-  O253  1  0.87509007  0.49754763  0.84470548  1
  O2-  O254  1  0.87478410  0.74921773  0.34388219  1
  O2-  O255  1  0.87492578  0.75295580  0.85099033  1
  O2-  O256  1  0.00261544  0.12521263  0.35002614  1
  O2-  O257  1  -0.00138902  0.12456793  0.84448010  1
  O2-  O258  1  -0.00120877  0.37454298  0.34865219  1
  O2-  O259  1  -0.00003236  0.37417682  0.84295252  1
  O2-  O260  1  -0.00077553  0.62541011  0.34815821  1
  O2-  O261  1  0.00215525  0.62496983  0.84565189  1
  O2-  O262  1  -0.00141567  0.87499818  0.34537291  1
  O2-  O263  1  -0.00100325  0.87556884  0.84838045  1
  O2-  O264  1  0.25048140  0.12354024  0.35527533  1
  O2-  O265  1  0.24773680  0.12482758  0.84479823  1
  O2-  O266  1  0.24937739  0.37510843  0.35160789  1
  O2-  O267  1  0.24885193  0.37437713  0.84757465  1
  O2-  O268  1  0.25107025  0.62572034  0.35241455  1
  O2-  O269  1  0.24774428  0.62490348  0.84731471  1
  O2-  O270  1  0.24880760  0.87560664  0.35025019  1
  O2-  O271  1  0.25047928  0.87538928  0.85102295  1
  O2-  O272  1  0.49973650  0.12362335  0.34911186  1
  O2-  O273  1  0.49984868  0.12506393  0.84897567  1
  O2-  O274  1  0.50253828  0.37547904  0.34721556  1
  O2-  O275  1  0.50080913  0.37512985  0.84634683  1
  O2-  O276  1  0.50080972  0.62725710  0.35384654  1
  O2-  O277  1  0.50197340  0.62472280  0.84322204  1
  O2-  O278  1  0.50133821  0.87460051  0.35045508  1
  O2-  O279  1  0.49896287  0.87453932  0.85045116  1
  O2-  O280  1  0.74734108  0.12477065  0.34137083  1
  O2-  O281  1  0.75372452  0.12470188  0.85074173  1
  O2-  O282  1  0.74924121  0.37607175  0.34023527  1
  O2-  O283  1  0.75081215  0.37452724  0.84526262  1
  O2-  O284  1  0.74883405  0.62516362  0.34448564  1
  O2-  O285  1  0.74825977  0.62473595  0.84532136  1
  O2-  O286  1  0.75096068  0.87459013  0.34098289  1
  O2-  O287  1  0.75150780  0.87544726  0.85065011  1
