# generated using pymatgen
data_BaYFeCuO5
_symmetry_space_group_name_H-M   'P 1'
_cell_length_a   15.67311571
_cell_length_b   15.67208277
_cell_length_c   15.49167945
_cell_angle_alpha   89.99218189
_cell_angle_beta   90.00021509
_cell_angle_gamma   90.00065833
_symmetry_Int_Tables_number   1
_chemical_formula_structural   BaYFeCuO5
_chemical_formula_sum   'Ba32 Y32 Fe32 Cu32 O160'
_cell_volume   3805.22686732
_cell_formula_units_Z   32
loop_
 _symmetry_equiv_pos_site_id
 _symmetry_equiv_pos_as_xyz
  1  'x, y, z'
loop_
 _atom_type_symbol
 _atom_type_oxidation_number
  Ba2+  2.0
  Y3+  3.0
  Fe3+  3.0
  Cu2+  2.0
  O2-  -2.0
loop_
 _atom_site_type_symbol
 _atom_site_label
 _atom_site_symmetry_multiplicity
 _atom_site_fract_x
 _atom_site_fract_y
 _atom_site_fract_z
 _atom_site_occupancy
  Ba2+  Ba0  1  -0.00263534  -0.00489243  0.00233959  1
  Ba2+  Ba1  1  -0.00996651  0.00070432  0.51816214  1
  Ba2+  Ba2  1  -0.00739489  0.25492538  0.01106193  1
  Ba2+  Ba3  1  -0.00430656  0.25470551  0.52251102  1
  Ba2+  Ba4  1  -0.00598683  0.50090524  0.00722195  1
  Ba2+  Ba5  1  0.00732795  0.49767251  0.51615704  1
  Ba2+  Ba6  1  0.00037348  0.74851147  -0.00485558  1
  Ba2+  Ba7  1  0.00374474  0.74641910  0.51030539  1
  Ba2+  Ba8  1  0.25212424  -0.00883282  0.01211961  1
  Ba2+  Ba9  1  0.26174795  0.00277654  0.51082947  1
  Ba2+  Ba10  1  0.25226878  0.25384979  0.01240514  1
  Ba2+  Ba11  1  0.25675601  0.25251152  0.51661518  1
  Ba2+  Ba12  1  0.24422526  0.49782714  0.00163891  1
  Ba2+  Ba13  1  0.24829108  0.50066717  0.52057228  1
  Ba2+  Ba14  1  0.24482931  0.75718541  0.00295204  1
  Ba2+  Ba15  1  0.25209264  0.74314660  0.51684886  1
  Ba2+  Ba16  1  0.49378946  -0.00607212  0.00729319  1
  Ba2+  Ba17  1  0.50038058  0.00329400  0.52333536  1
  Ba2+  Ba18  1  0.49725843  0.25385207  0.01125778  1
  Ba2+  Ba19  1  0.49852575  0.24543052  0.51043550  1
  Ba2+  Ba20  1  0.50536997  0.49792334  0.01373008  1
  Ba2+  Ba21  1  0.49497279  0.49479758  0.51277396  1
  Ba2+  Ba22  1  0.50110065  0.75590198  0.00616372  1
  Ba2+  Ba23  1  0.49589560  0.75590828  0.52287464  1
  Ba2+  Ba24  1  0.75632245  -0.00225315  -0.00189571  1
  Ba2+  Ba25  1  0.74734444  0.00213250  0.52743074  1
  Ba2+  Ba26  1  0.75782855  0.25451032  0.01096288  1
  Ba2+  Ba27  1  0.74897577  0.24686975  0.51908227  1
  Ba2+  Ba28  1  0.75508738  0.50072163  0.01744697  1
  Ba2+  Ba29  1  0.74936148  0.49017408  0.50545521  1
  Ba2+  Ba30  1  0.75407187  0.74633622  0.00213148  1
  Ba2+  Ba31  1  0.74922021  0.76055713  0.51734272  1
  Y3+  Y32  1  0.00117184  0.00051667  0.25387867  1
  Y3+  Y33  1  -0.00168241  -0.00072102  0.76072558  1
  Y3+  Y34  1  -0.00115744  0.25083810  0.25186138  1
  Y3+  Y35  1  -0.00323976  0.25111571  0.76025502  1
  Y3+  Y36  1  -0.00031507  0.50047562  0.25623637  1
  Y3+  Y37  1  0.00011221  0.50082197  0.75846489  1
  Y3+  Y38  1  0.00199276  0.74835746  0.25779087  1
  Y3+  Y39  1  0.00100256  0.74864841  0.75794119  1
  Y3+  Y40  1  0.25181419  -0.00026799  0.25451532  1
  Y3+  Y41  1  0.25133156  -0.00164928  0.75925728  1
  Y3+  Y42  1  0.25125594  0.24756958  0.25721075  1
  Y3+  Y43  1  0.25142334  0.25128107  0.75628166  1
  Y3+  Y44  1  0.24720474  0.50130294  0.25864687  1
  Y3+  Y45  1  0.24884112  0.50057902  0.75578351  1
  Y3+  Y46  1  0.24844731  0.75138245  0.25664866  1
  Y3+  Y47  1  0.24884098  0.74978558  0.75921233  1
  Y3+  Y48  1  0.49668436  0.00141738  0.25429241  1
  Y3+  Y49  1  0.49903095  -0.00159704  0.75949525  1
  Y3+  Y50  1  0.50004422  0.24888593  0.25666051  1
  Y3+  Y51  1  0.49804237  0.24875445  0.75665835  1
  Y3+  Y52  1  0.50343026  0.49947548  0.25727987  1
  Y3+  Y53  1  0.49714015  0.49942009  0.75800379  1
  Y3+  Y54  1  0.49993941  0.75045636  0.25366296  1
  Y3+  Y55  1  0.49823723  0.75302252  0.76006437  1
  Y3+  Y56  1  0.75129739  0.00184562  0.25276064  1
  Y3+  Y57  1  0.75139226  -0.00067017  0.76061429  1
  Y3+  Y58  1  0.75046320  0.25164508  0.25233155  1
  Y3+  Y59  1  0.75308270  0.24899489  0.76117667  1
  Y3+  Y60  1  0.75022300  0.49926828  0.25437276  1
  Y3+  Y61  1  0.75323426  0.49954263  0.75970085  1
  Y3+  Y62  1  0.75025880  0.74749385  0.25619686  1
  Y3+  Y63  1  0.75113595  0.75196360  0.75935499  1
  Fe3+  Fe64  1  0.87484144  0.62470630  0.38132259  1
  Fe3+  Fe65  1  0.62444653  0.62581917  0.38109293  1
  Fe3+  Fe66  1  0.62465480  0.12492067  0.87962309  1
  Fe3+  Fe67  1  0.12445504  0.37436005  0.87570392  1
  Fe3+  Fe68  1  0.37448183  0.62453428  0.87946523  1
  Fe3+  Fe69  1  0.62512416  0.37519149  0.87735358  1
  Fe3+  Fe70  1  0.62522827  0.62451322  0.87616283  1
  Fe3+  Fe71  1  0.37520807  0.37483634  0.37578924  1
  Fe3+  Fe72  1  0.87398372  0.87625624  0.37783339  1
  Fe3+  Fe73  1  0.12526032  0.87606347  0.38153399  1
  Fe3+  Fe74  1  0.37639473  0.87513198  0.37592538  1
  Fe3+  Fe75  1  0.37532704  0.62527208  0.37690404  1
  Fe3+  Fe76  1  0.62575613  0.12425729  0.37461974  1
  Fe3+  Fe77  1  0.12509835  0.12515418  0.87926544  1
  Fe3+  Fe78  1  0.12488632  0.37382535  0.37695273  1
  Fe3+  Fe79  1  0.12447973  0.12531931  0.38073636  1
  Fe3+  Fe80  1  0.62479166  0.87688241  0.37649008  1
  Fe3+  Fe81  1  0.37396307  0.12538614  0.87812471  1
  Fe3+  Fe82  1  0.87458655  0.12531703  0.37560399  1
  Fe3+  Fe83  1  0.87495548  0.37345701  0.37587326  1
  Fe3+  Fe84  1  0.37418595  0.37685828  0.13794238  1
  Fe3+  Fe85  1  0.62649030  0.87497861  0.13488858  1
  Fe3+  Fe86  1  0.62513582  0.12474923  0.13174114  1
  Fe3+  Fe87  1  0.37451848  0.62544183  0.13343485  1
  Fe3+  Fe88  1  0.62467362  0.62486508  0.63498316  1
  Fe3+  Fe89  1  0.62487082  0.37422916  0.63908538  1
  Fe3+  Fe90  1  0.12536453  0.87585380  0.63565776  1
  Fe3+  Fe91  1  0.87407366  0.62450067  0.63511822  1
  Fe3+  Fe92  1  0.12498708  0.12522962  0.63562248  1
  Fe3+  Fe93  1  0.12453069  0.62522174  0.13667261  1
  Fe3+  Fe94  1  0.87633741  0.87309634  0.13740698  1
  Fe3+  Fe95  1  0.12508208  0.12485085  0.13324948  1
  Cu2+  Cu96  1  0.87553292  0.87383694  0.86157261  1
  Cu2+  Cu97  1  0.37484367  0.37538964  0.86394815  1
  Cu2+  Cu98  1  0.62536524  0.37394277  0.36284904  1
  Cu2+  Cu99  1  0.87482084  0.37623331  0.87071877  1
  Cu2+  Cu100  1  0.37552662  0.12463768  0.37162313  1
  Cu2+  Cu101  1  0.87579501  0.12549253  0.87415476  1
  Cu2+  Cu102  1  0.12557705  0.62456324  0.37504745  1
  Cu2+  Cu103  1  0.62526987  0.87502411  0.86616587  1
  Cu2+  Cu104  1  0.87500451  0.62435425  0.87123490  1
  Cu2+  Cu105  1  0.12476897  0.87554993  0.87090740  1
  Cu2+  Cu106  1  0.37402626  0.87459646  0.87170381  1
  Cu2+  Cu107  1  0.12505200  0.62442325  0.86337049  1
  Cu2+  Cu108  1  0.62475913  0.37472639  0.14946944  1
  Cu2+  Cu109  1  0.62472267  0.87517879  0.65673462  1
  Cu2+  Cu110  1  0.87577805  0.37648449  0.14321997  1
  Cu2+  Cu111  1  0.87614044  0.87400434  0.65395827  1
  Cu2+  Cu112  1  0.12473931  0.37410206  0.65296724  1
  Cu2+  Cu113  1  0.37549544  0.37510459  0.65367853  1
  Cu2+  Cu114  1  0.37453743  0.87349801  0.14194744  1
  Cu2+  Cu115  1  0.62520565  0.12513360  0.65868249  1
  Cu2+  Cu116  1  0.37363570  0.87521561  0.65490918  1
  Cu2+  Cu117  1  0.87553408  0.12396425  0.13837194  1
  Cu2+  Cu118  1  0.87413752  0.37591894  0.65334322  1
  Cu2+  Cu119  1  0.87605784  0.62623554  0.14369006  1
  Cu2+  Cu120  1  0.12406093  0.87419708  0.14262588  1
  Cu2+  Cu121  1  0.87537846  0.12502366  0.65661797  1
  Cu2+  Cu122  1  0.37579473  0.62527684  0.65427697  1
  Cu2+  Cu123  1  0.37472474  0.12503756  0.64513911  1
  Cu2+  Cu124  1  0.12544369  0.37558065  0.14967063  1
  Cu2+  Cu125  1  0.62522854  0.62578952  0.14858782  1
  Cu2+  Cu126  1  0.12479405  0.62514071  0.64375007  1
  Cu2+  Cu127  1  0.37496691  0.12516535  0.14544911  1
  O2-  O128  1  0.12560734  0.12512415  0.00575027  1
  O2-  O129  1  0.12393171  0.12558799  0.50695571  1
  O2-  O130  1  0.12499277  0.37410538  -0.00400638  1
  O2-  O131  1  0.12558193  0.37243250  0.49707203  1
  O2-  O132  1  0.12464974  0.62539180  0.01638591  1
  O2-  O133  1  0.12565194  0.62472270  0.50892414  1
  O2-  O134  1  0.12348496  0.87502940  0.00689873  1
  O2-  O135  1  0.12574621  0.87690782  0.50786653  1
  O2-  O136  1  0.37376866  0.12634277  -0.00173134  1
  O2-  O137  1  0.37622624  0.12516464  0.50705976  1
  O2-  O138  1  0.37430861  0.37764543  0.01717120  1
  O2-  O139  1  0.37504058  0.37502121  0.49643337  1
  O2-  O140  1  0.37456783  0.62434884  0.00659798  1
  O2-  O141  1  0.37704375  0.62518429  0.49695407  1
  O2-  O142  1  0.37460715  0.87292543  0.00637889  1
  O2-  O143  1  0.37720126  0.87546609  0.49618653  1
  O2-  O144  1  0.62436616  0.12502587  0.00533814  1
  O2-  O145  1  0.62603523  0.12394725  0.49473967  1
  O2-  O146  1  0.62482067  0.37625006  -0.00248470  1
  O2-  O147  1  0.62433394  0.37254921  0.51853865  1
  O2-  O148  1  0.62543510  0.62430452  -0.00382205  1
  O2-  O149  1  0.62368272  0.62587607  0.50732555  1
  O2-  O150  1  0.62711941  0.87409210  0.01460500  1
  O2-  O151  1  0.62371472  0.87828775  0.49659880  1
  O2-  O152  1  0.87592087  0.12399598  0.00609982  1
  O2-  O153  1  0.87318780  0.12548088  0.49561665  1
  O2-  O154  1  0.87493133  0.37741665  0.00717775  1
  O2-  O155  1  0.87379651  0.37211175  0.49614801  1
  O2-  O156  1  0.87554609  0.62568399  0.00707499  1
  O2-  O157  1  0.87337638  0.62423993  0.50777749  1
  O2-  O158  1  0.87604893  0.87179834  0.01668303  1
  O2-  O159  1  0.87209150  0.87844279  0.49802643  1
  O2-  O160  1  0.12591436  0.00267553  0.16434577  1
  O2-  O161  1  0.12405555  0.00030622  0.66360550  1
  O2-  O162  1  0.12599579  0.24898072  0.16048595  1
  O2-  O163  1  0.12482928  0.24872967  0.66347734  1
  O2-  O164  1  0.12557228  0.50061018  0.16628781  1
  O2-  O165  1  0.12503318  0.49803365  0.66429571  1
  O2-  O166  1  0.12549797  0.74792273  0.17034176  1
  O2-  O167  1  0.12574557  0.75319934  0.66301003  1
  O2-  O168  1  0.37428427  0.00065412  0.16248071  1
  O2-  O169  1  0.37464554  -0.00101394  0.66697282  1
  O2-  O170  1  0.37507805  0.25116823  0.16364681  1
  O2-  O171  1  0.37483084  0.25096793  0.66527801  1
  O2-  O172  1  0.37585911  0.50231492  0.16552903  1
  O2-  O173  1  0.37586572  0.50019376  0.66495297  1
  O2-  O174  1  0.37519893  0.74633625  0.16418728  1
  O2-  O175  1  0.37455768  0.75050802  0.66603407  1
  O2-  O176  1  0.62530678  0.00086065  0.16116765  1
  O2-  O177  1  0.62473905  0.00019526  0.66772906  1
  O2-  O178  1  0.62404434  0.24821400  0.15985705  1
  O2-  O179  1  0.62579067  0.24994455  0.66822448  1
  O2-  O180  1  0.62508511  0.50038341  0.16646171  1
  O2-  O181  1  0.62415679  0.50140003  0.66223922  1
  O2-  O182  1  0.62526469  0.75105948  0.16791490  1
  O2-  O183  1  0.62511941  0.74871272  0.66239399  1
  O2-  O184  1  0.87569317  -0.00243584  0.16406707  1
  O2-  O185  1  0.87601544  -0.00053536  0.66639876  1
  O2-  O186  1  0.87560987  0.25053165  0.16059794  1
  O2-  O187  1  0.87427644  0.25041380  0.66633620  1
  O2-  O188  1  0.87484147  0.50068529  0.16708295  1
  O2-  O189  1  0.87410646  0.50194586  0.66265385  1
  O2-  O190  1  0.87521129  0.75122745  0.17189919  1
  O2-  O191  1  0.87394596  0.74797644  0.66223708  1
  O2-  O192  1  0.00319925  0.12503561  0.16436859  1
  O2-  O193  1  0.00130303  0.12534172  0.66366187  1
  O2-  O194  1  0.00205780  0.37564565  0.16508097  1
  O2-  O195  1  -0.00131218  0.37464688  0.66317704  1
  O2-  O196  1  0.00210815  0.62472849  0.17041496  1
  O2-  O197  1  -0.00338989  0.62494567  0.66246091  1
  O2-  O198  1  -0.00095953  0.87465335  0.17084305  1
  O2-  O199  1  0.00207164  0.87496127  0.66229662  1
  O2-  O200  1  0.24853873  0.12550587  0.16426709  1
  O2-  O201  1  0.24675139  0.12489119  0.66404088  1
  O2-  O202  1  0.25081459  0.37532172  0.16607131  1
  O2-  O203  1  0.25078055  0.37507369  0.66410839  1
  O2-  O204  1  0.25081558  0.62467635  0.16497779  1
  O2-  O205  1  0.25163472  0.62468728  0.66683890  1
  O2-  O206  1  0.25001081  0.87461936  0.16589594  1
  O2-  O207  1  0.24808936  0.87615705  0.66337576  1
  O2-  O208  1  0.50154653  0.12485412  0.16033032  1
  O2-  O209  1  0.50081395  0.12496110  0.66736200  1
  O2-  O210  1  0.49919453  0.37596722  0.16497920  1
  O2-  O211  1  0.50061985  0.37495572  0.66755968  1
  O2-  O212  1  0.49891992  0.62472561  0.16106125  1
  O2-  O213  1  0.50186255  0.62580552  0.66487874  1
  O2-  O214  1  0.50187123  0.87464360  0.16166287  1
  O2-  O215  1  0.49890258  0.87487824  0.66620278  1
  O2-  O216  1  0.74722540  0.12528306  0.16043471  1
  O2-  O217  1  0.75084338  0.12419777  0.66732600  1
  O2-  O218  1  0.74843521  0.37564566  0.16409456  1
  O2-  O219  1  0.74920829  0.37550314  0.66646583  1
  O2-  O220  1  0.74879352  0.62505472  0.16717553  1
  O2-  O221  1  0.74922654  0.62515368  0.66157714  1
  O2-  O222  1  0.75040943  0.87425681  0.16695562  1
  O2-  O223  1  0.75052390  0.87531256  0.66548257  1
  O2-  O224  1  0.12450367  0.00015676  0.34940815  1
  O2-  O225  1  0.12507619  0.00298352  0.84823686  1
  O2-  O226  1  0.12501628  0.24830903  0.34408315  1
  O2-  O227  1  0.12530355  0.24873927  0.84681954  1
  O2-  O228  1  0.12452163  0.49765721  0.34782402  1
  O2-  O229  1  0.12571785  0.49942714  0.84750134  1
  O2-  O230  1  0.12510008  0.75363987  0.35297530  1
  O2-  O231  1  0.12459272  0.74851722  0.84755483  1
  O2-  O232  1  0.37462373  -0.00219973  0.34460524  1
  O2-  O233  1  0.37407548  0.00196763  0.84910192  1
  O2-  O234  1  0.37522405  0.25171016  0.34556878  1
  O2-  O235  1  0.37489766  0.24911307  0.84789492  1
  O2-  O236  1  0.37615270  0.49997679  0.34543581  1
  O2-  O237  1  0.37436588  0.50201502  0.84960766  1
  O2-  O238  1  0.37560221  0.75053359  0.34433959  1
  O2-  O239  1  0.37484337  0.74678045  0.85037218  1
  O2-  O240  1  0.62536143  -0.00000742  0.33988447  1
  O2-  O241  1  0.62520283  0.00124074  0.85230686  1
  O2-  O242  1  0.62542206  0.24883194  0.34320368  1
  O2-  O243  1  0.62400251  0.24900389  0.85001706  1
  O2-  O244  1  0.62528759  0.50202280  0.35261263  1
  O2-  O245  1  0.62413087  0.49984513  0.84298505  1
  O2-  O246  1  0.62547013  0.74918071  0.34988433  1
  O2-  O247  1  0.62447476  0.74946764  0.84658560  1
  O2-  O248  1  0.87591896  0.00035644  0.34283979  1
  O2-  O249  1  0.87554963  -0.00188942  0.85096346  1
  O2-  O250  1  0.87513282  0.24956525  0.34123836  1
  O2-  O251  1  0.87529913  0.25096138  0.85022827  1
  O2-  O252  1  0.87424524  0.50054159  0.35013296  1
  O2-  O253  1  0.87529591  0.50005985  0.84594711  1
  O2-  O254  1  0.87407394  0.74926736  0.35296311  1
  O2-  O255  1  0.87571041  0.75053232  0.84651273  1
  O2-  O256  1  0.00086988  0.12472976  0.34721714  1
  O2-  O257  1  0.00295745  0.12486454  0.84837371  1
  O2-  O258  1  -0.00054378  0.37400806  0.34564577  1
  O2-  O259  1  0.00132561  0.37524515  0.84622778  1
  O2-  O260  1  -0.00334789  0.62553239  0.35307456  1
  O2-  O261  1  0.00163046  0.62499285  0.84661740  1
  O2-  O262  1  0.00069373  0.87534498  0.35232409  1
  O2-  O263  1  -0.00081943  0.87459215  0.84658017  1
  O2-  O264  1  0.24648948  0.12430571  0.34930363  1
  O2-  O265  1  0.24894733  0.12565543  0.84700526  1
  O2-  O266  1  0.24998339  0.37449839  0.34532938  1
  O2-  O267  1  0.24971618  0.37474842  0.84777149  1
  O2-  O268  1  0.25227350  0.62529441  0.34630787  1
  O2-  O269  1  0.25114391  0.62475129  0.85153713  1
  O2-  O270  1  0.24903253  0.87587946  0.34869299  1
  O2-  O271  1  0.24957427  0.87462383  0.84677063  1
  O2-  O272  1  0.50194678  0.12502813  0.34312555  1
  O2-  O273  1  0.50041391  0.12470718  0.85035089  1
  O2-  O274  1  0.50029807  0.37513300  0.34700040  1
  O2-  O275  1  0.50009473  0.37543082  0.84899652  1
  O2-  O276  1  0.50162209  0.62519404  0.34483598  1
  O2-  O277  1  0.49858193  0.62474913  0.84857498  1
  O2-  O278  1  0.50063289  0.87458003  0.34142319  1
  O2-  O279  1  0.50036912  0.87496547  0.85053617  1
  O2-  O280  1  0.75085184  0.12507516  0.34090593  1
  O2-  O281  1  0.74734183  0.12483515  0.85153853  1
  O2-  O282  1  0.75057727  0.37520759  0.34690037  1
  O2-  O283  1  0.74811962  0.37522199  0.84726149  1
  O2-  O284  1  0.74966834  0.62475906  0.35189997  1
  O2-  O285  1  0.74814476  0.62543890  0.84444074  1
  O2-  O286  1  0.74992624  0.87502171  0.34495645  1
  O2-  O287  1  0.75081971  0.87409556  0.85026859  1
