# generated using pymatgen
data_BaYFeCuO5
_symmetry_space_group_name_H-M   'P 1'
_cell_length_a   15.67006041
_cell_length_b   15.67294924
_cell_length_c   15.49120389
_cell_angle_alpha   89.99797751
_cell_angle_beta   89.99945569
_cell_angle_gamma   89.99851533
_symmetry_Int_Tables_number   1
_chemical_formula_structural   BaYFeCuO5
_chemical_formula_sum   'Ba32 Y32 Fe32 Cu32 O160'
_cell_volume   3804.57865679
_cell_formula_units_Z   32
loop_
 _symmetry_equiv_pos_site_id
 _symmetry_equiv_pos_as_xyz
  1  'x, y, z'
loop_
 _atom_type_symbol
 _atom_type_oxidation_number
  Ba2+  2.0
  Y3+  3.0
  Fe3+  3.0
  Cu2+  2.0
  O2-  -2.0
loop_
 _atom_site_type_symbol
 _atom_site_label
 _atom_site_symmetry_multiplicity
 _atom_site_fract_x
 _atom_site_fract_y
 _atom_site_fract_z
 _atom_site_occupancy
  Ba2+  Ba0  1  0.00508505  -0.00005793  0.00556213  1
  Ba2+  Ba1  1  0.00332997  0.00030158  0.52884011  1
  Ba2+  Ba2  1  0.00433008  0.25136396  0.00584155  1
  Ba2+  Ba3  1  0.00209260  0.25252390  0.51767876  1
  Ba2+  Ba4  1  -0.00665022  0.49643218  0.01300445  1
  Ba2+  Ba5  1  0.00054858  0.49553840  0.51592000  1
  Ba2+  Ba6  1  -0.00637591  0.75227399  0.01083971  1
  Ba2+  Ba7  1  0.00216161  0.75094680  0.52645278  1
  Ba2+  Ba8  1  0.24791760  -0.00420793  0.00202540  1
  Ba2+  Ba9  1  0.24903097  0.00280547  0.52522530  1
  Ba2+  Ba10  1  0.24082642  0.24778368  0.00294664  1
  Ba2+  Ba11  1  0.24763365  0.24777831  0.50606325  1
  Ba2+  Ba12  1  0.25357732  0.50318084  0.00251166  1
  Ba2+  Ba13  1  0.24169666  0.49300600  0.50648871  1
  Ba2+  Ba14  1  0.25982577  0.75273023  0.00282981  1
  Ba2+  Ba15  1  0.24284866  0.75621888  0.52483942  1
  Ba2+  Ba16  1  0.50378149  -0.00970378  0.00228234  1
  Ba2+  Ba17  1  0.48704567  0.00389973  0.51181323  1
  Ba2+  Ba18  1  0.50960030  0.25104645  0.00624858  1
  Ba2+  Ba19  1  0.49382598  0.25171890  0.50088070  1
  Ba2+  Ba20  1  0.50452805  0.50743717  0.01983768  1
  Ba2+  Ba21  1  0.50129378  0.48983793  0.50282329  1
  Ba2+  Ba22  1  0.49967566  0.75158700  0.01176054  1
  Ba2+  Ba23  1  0.49393685  0.75512624  0.51162008  1
  Ba2+  Ba24  1  0.74352810  -0.00685054  0.00616734  1
  Ba2+  Ba25  1  0.76076822  0.00148209  0.51696275  1
  Ba2+  Ba26  1  0.74752657  0.25620756  0.01451624  1
  Ba2+  Ba27  1  0.75483604  0.25710647  0.51018481  1
  Ba2+  Ba28  1  0.74883084  0.50106791  0.02949814  1
  Ba2+  Ba29  1  0.75537038  0.49206934  0.50892956  1
  Ba2+  Ba30  1  0.74591690  0.74970287  0.02220687  1
  Ba2+  Ba31  1  0.76113733  0.74969390  0.51512722  1
  Y3+  Y32  1  0.00138715  0.00079697  0.24997294  1
  Y3+  Y33  1  0.00183142  0.00140598  0.76218276  1
  Y3+  Y34  1  0.00122583  0.25133749  0.25729393  1
  Y3+  Y35  1  0.00197818  0.25105311  0.75788806  1
  Y3+  Y36  1  -0.00127816  0.49697054  0.26000841  1
  Y3+  Y37  1  0.00115391  0.49816887  0.75413781  1
  Y3+  Y38  1  -0.00132167  0.75026652  0.25267818  1
  Y3+  Y39  1  0.00083743  0.74980828  0.75852527  1
  Y3+  Y40  1  0.25089187  0.00141242  0.25263264  1
  Y3+  Y41  1  0.25014371  0.00007138  0.76210676  1
  Y3+  Y42  1  0.24914628  0.24927482  0.25904472  1
  Y3+  Y43  1  0.24711316  0.24882640  0.75831523  1
  Y3+  Y44  1  0.25034153  0.49907126  0.25802627  1
  Y3+  Y45  1  0.24823913  0.50029473  0.75838854  1
  Y3+  Y46  1  0.25221925  0.74989363  0.25180780  1
  Y3+  Y47  1  0.25100303  0.75149852  0.76303590  1
  Y3+  Y48  1  0.49790104  -0.00104430  0.25629564  1
  Y3+  Y49  1  0.49923333  -0.00021370  0.75954259  1
  Y3+  Y50  1  0.49888071  0.25028293  0.26178475  1
  Y3+  Y51  1  0.50117777  0.24959044  0.75499003  1
  Y3+  Y52  1  0.50021308  0.49916746  0.25969376  1
  Y3+  Y53  1  0.49940885  0.50007953  0.75578212  1
  Y3+  Y54  1  0.49880125  0.75064479  0.25323725  1
  Y3+  Y55  1  0.49808171  0.75134256  0.76085075  1
  Y3+  Y56  1  0.74982762  -0.00161945  0.25496918  1
  Y3+  Y57  1  0.74885857  0.00089850  0.75856221  1
  Y3+  Y58  1  0.75016207  0.25264143  0.26168989  1
  Y3+  Y59  1  0.75034251  0.25152819  0.75308095  1
  Y3+  Y60  1  0.75083918  0.49734803  0.26297518  1
  Y3+  Y61  1  0.75147449  0.49810107  0.74824835  1
  Y3+  Y62  1  0.74994701  0.75055056  0.25595003  1
  Y3+  Y63  1  0.75028443  0.75033879  0.75522057  1
  Fe3+  Fe64  1  0.37674749  0.12621351  0.88040298  1
  Fe3+  Fe65  1  0.87286341  0.12648473  0.87928314  1
  Fe3+  Fe66  1  0.37315762  0.62585124  0.38071171  1
  Fe3+  Fe67  1  0.87360329  0.37652044  0.87552163  1
  Fe3+  Fe68  1  0.37154694  0.87529608  0.37613080  1
  Fe3+  Fe69  1  0.62511742  0.62654442  0.38032135  1
  Fe3+  Fe70  1  0.12419713  0.12243200  0.37547157  1
  Fe3+  Fe71  1  0.87344884  0.87401683  0.87623629  1
  Fe3+  Fe72  1  0.12365993  0.62475770  0.87955198  1
  Fe3+  Fe73  1  0.87237834  0.62337381  0.87547472  1
  Fe3+  Fe74  1  0.12448978  0.62717800  0.37648256  1
  Fe3+  Fe75  1  0.37608614  0.37554469  0.88100875  1
  Fe3+  Fe76  1  0.12465417  0.87535789  0.37463181  1
  Fe3+  Fe77  1  0.87746099  0.12367697  0.37603438  1
  Fe3+  Fe78  1  0.62660861  0.37760319  0.87429645  1
  Fe3+  Fe79  1  0.62511947  0.87559441  0.38090919  1
  Fe3+  Fe80  1  0.87826852  0.87608085  0.37500141  1
  Fe3+  Fe81  1  0.87728468  0.62596577  0.37692554  1
  Fe3+  Fe82  1  0.62536103  0.12339256  0.38137241  1
  Fe3+  Fe83  1  0.62682812  0.62395911  0.87350755  1
  Fe3+  Fe84  1  0.37370751  0.62460284  0.63481179  1
  Fe3+  Fe85  1  0.62453176  0.12551416  0.63456352  1
  Fe3+  Fe86  1  0.37546965  0.12548922  0.13349586  1
  Fe3+  Fe87  1  0.62471281  0.87574628  0.63398793  1
  Fe3+  Fe88  1  0.12534079  0.37539628  0.13755167  1
  Fe3+  Fe89  1  0.12564362  0.87421886  0.13322434  1
  Fe3+  Fe90  1  0.12464545  0.62424236  0.13323922  1
  Fe3+  Fe91  1  0.62457282  0.62499215  0.63138963  1
  Fe3+  Fe92  1  0.87422997  0.12571452  0.13301040  1
  Fe3+  Fe93  1  0.62464989  0.12489086  0.13929729  1
  Fe3+  Fe94  1  0.37362229  0.37412952  0.63942570  1
  Fe3+  Fe95  1  0.37551586  0.37415038  0.13561348  1
  Cu2+  Cu96  1  0.12455050  0.37647798  0.86596305  1
  Cu2+  Cu97  1  0.12426451  0.37436409  0.37207497  1
  Cu2+  Cu98  1  0.62519297  0.37432676  0.37403464  1
  Cu2+  Cu99  1  0.62600994  0.12635720  0.86273559  1
  Cu2+  Cu100  1  0.37635833  0.87524888  0.87187814  1
  Cu2+  Cu101  1  0.37325961  0.37517823  0.36307103  1
  Cu2+  Cu102  1  0.37273696  0.12348270  0.37230470  1
  Cu2+  Cu103  1  0.12406487  0.87371535  0.86749918  1
  Cu2+  Cu104  1  0.87733523  0.37357867  0.37212024  1
  Cu2+  Cu105  1  0.12434793  0.12538350  0.87312723  1
  Cu2+  Cu106  1  0.37708948  0.62371506  0.87261572  1
  Cu2+  Cu107  1  0.62625711  0.87314997  0.86919684  1
  Cu2+  Cu108  1  0.87451905  0.87596318  0.14619397  1
  Cu2+  Cu109  1  0.62536415  0.62439371  0.15913279  1
  Cu2+  Cu110  1  0.87662326  0.37408732  0.64241946  1
  Cu2+  Cu111  1  0.12660501  0.37434768  0.64442799  1
  Cu2+  Cu112  1  0.87546258  0.12535965  0.65472594  1
  Cu2+  Cu113  1  0.37458748  0.12605765  0.64578233  1
  Cu2+  Cu114  1  0.62440950  0.37425410  0.15810464  1
  Cu2+  Cu115  1  0.12532292  0.87572992  0.66045200  1
  Cu2+  Cu116  1  0.87516545  0.87572209  0.65568234  1
  Cu2+  Cu117  1  0.12544525  0.12588046  0.13896630  1
  Cu2+  Cu118  1  0.12529984  0.12511988  0.65744033  1
  Cu2+  Cu119  1  0.37482466  0.62391751  0.14151850  1
  Cu2+  Cu120  1  0.62345193  0.37440263  0.63907884  1
  Cu2+  Cu121  1  0.12607530  0.62505340  0.65419838  1
  Cu2+  Cu122  1  0.62418282  0.87540748  0.14487966  1
  Cu2+  Cu123  1  0.87492662  0.37371915  0.15381088  1
  Cu2+  Cu124  1  0.87517195  0.62405530  0.15255138  1
  Cu2+  Cu125  1  0.37517466  0.87515426  0.65598699  1
  Cu2+  Cu126  1  0.37519854  0.87572083  0.14053914  1
  Cu2+  Cu127  1  0.87594197  0.62466989  0.64896004  1
  O2-  O128  1  0.12371521  0.12599749  0.00581518  1
  O2-  O129  1  0.12375110  0.12099056  0.49557616  1
  O2-  O130  1  0.12468725  0.37744281  0.01716461  1
  O2-  O131  1  0.12531268  0.37362477  0.50861091  1
  O2-  O132  1  0.12400665  0.62378568  0.00656509  1
  O2-  O133  1  0.12472716  0.62918469  0.49629640  1
  O2-  O134  1  0.12453794  0.87228403  0.01274674  1
  O2-  O135  1  0.12412965  0.87618428  0.49464073  1
  O2-  O136  1  0.37860988  0.12669303  0.00727656  1
  O2-  O137  1  0.37183850  0.12465590  0.50807586  1
  O2-  O138  1  0.37768378  0.37547361  0.00850238  1
  O2-  O139  1  0.37197235  0.37402492  0.51851448  1
  O2-  O140  1  0.37784412  0.62302310  0.00749463  1
  O2-  O141  1  0.37144354  0.62619338  0.50695586  1
  O2-  O142  1  0.37708095  0.87531499  0.00611080  1
  O2-  O143  1  0.37023263  0.87514302  0.49648976  1
  O2-  O144  1  0.62597196  0.12596175  0.01896719  1
  O2-  O145  1  0.62505027  0.12325998  0.50789615  1
  O2-  O146  1  0.62726914  0.37897134  -0.00549143  1
  O2-  O147  1  0.62398240  0.37357432  0.50638868  1
  O2-  O148  1  0.62755810  0.62329835  -0.00637378  1
  O2-  O149  1  0.62473666  0.62716828  0.50548358  1
  O2-  O150  1  0.62584840  0.87249742  0.00649032  1
  O2-  O151  1  0.62483979  0.87672931  0.50666238  1
  O2-  O152  1  0.87116779  0.12700059  0.00586646  1
  O2-  O153  1  0.87995428  0.12194823  0.49591773  1
  O2-  O154  1  0.87036226  0.37793327  -0.00446327  1
  O2-  O155  1  0.87827051  0.37361820  0.50681052  1
  O2-  O156  1  0.87014707  0.62292133  -0.00475823  1
  O2-  O157  1  0.88004661  0.62821332  0.49670938  1
  O2-  O158  1  0.87072192  0.87228811  -0.00341700  1
  O2-  O159  1  0.87977249  0.87679417  0.49486826  1
  O2-  O160  1  0.12541797  -0.00155379  0.15980228  1
  O2-  O161  1  0.12504673  0.00031201  0.66867855  1
  O2-  O162  1  0.12501886  0.25230728  0.16630003  1
  O2-  O163  1  0.12560635  0.24826793  0.66738128  1
  O2-  O164  1  0.12462449  0.50051824  0.16720564  1
  O2-  O165  1  0.12636940  0.50148734  0.66517796  1
  O2-  O166  1  0.12374487  0.74825890  0.16144573  1
  O2-  O167  1  0.12552724  0.75053358  0.66640483  1
  O2-  O168  1  0.37555478  0.00330401  0.16162771  1
  O2-  O169  1  0.37527186  -0.00109323  0.66815262  1
  O2-  O170  1  0.37645255  0.25034255  0.16386175  1
  O2-  O171  1  0.37497273  0.25117603  0.67172582  1
  O2-  O172  1  0.37561073  0.49622352  0.16689531  1
  O2-  O173  1  0.37423637  0.50179439  0.66527818  1
  O2-  O174  1  0.37590217  0.74965271  0.16383612  1
  O2-  O175  1  0.37512489  0.74875950  0.66325422  1
  O2-  O176  1  0.62499265  0.00191190  0.16847765  1
  O2-  O177  1  0.62583182  -0.00018051  0.66362766  1
  O2-  O178  1  0.62451521  0.24942690  0.16803610  1
  O2-  O179  1  0.62462523  0.24727534  0.66473237  1
  O2-  O180  1  0.62492895  0.49907531  0.16822326  1
  O2-  O181  1  0.62398009  0.50323729  0.65773817  1
  O2-  O182  1  0.62491758  0.74873927  0.16688375  1
  O2-  O183  1  0.62487610  0.75060679  0.65792681  1
  O2-  O184  1  0.87313510  0.00232351  0.15852110  1
  O2-  O185  1  0.87458202  0.00032471  0.66826956  1
  O2-  O186  1  0.87388260  0.24838378  0.16269927  1
  O2-  O187  1  0.87560985  0.24853959  0.66773320  1
  O2-  O188  1  0.87441749  0.49871797  0.16711332  1
  O2-  O189  1  0.87619176  0.50107684  0.66096268  1
  O2-  O190  1  0.87433719  0.74981285  0.16150519  1
  O2-  O191  1  0.87534524  0.75043794  0.66244143  1
  O2-  O192  1  -0.00294727  0.12499963  0.15738273  1
  O2-  O193  1  0.00032970  0.12466409  0.66836191  1
  O2-  O194  1  0.00009132  0.37528333  0.16350182  1
  O2-  O195  1  0.00116038  0.37451696  0.66686323  1
  O2-  O196  1  0.00094326  0.62417262  0.15796748  1
  O2-  O197  1  0.00110715  0.62539872  0.66694824  1
  O2-  O198  1  0.00030549  0.87499815  0.15924049  1
  O2-  O199  1  -0.00003150  0.87540858  0.66785613  1
  O2-  O200  1  0.25312293  0.12672666  0.16080590  1
  O2-  O201  1  0.24880790  0.12427420  0.67061740  1
  O2-  O202  1  0.25149679  0.37493630  0.16416201  1
  O2-  O203  1  0.25175501  0.37536399  0.67284621  1
  O2-  O204  1  0.24625077  0.62412112  0.16301980  1
  O2-  O205  1  0.25200668  0.62602929  0.66803227  1
  O2-  O206  1  0.24826465  0.87373842  0.16224920  1
  O2-  O207  1  0.25034978  0.87524504  0.66851536  1
  O2-  O208  1  0.49887702  0.12576537  0.16943828  1
  O2-  O209  1  0.50279542  0.12406471  0.66496203  1
  O2-  O210  1  0.49864170  0.37487483  0.16559350  1
  O2-  O211  1  0.49744026  0.37561155  0.66756102  1
  O2-  O212  1  0.50170316  0.62369159  0.17064311  1
  O2-  O213  1  0.49914010  0.62574491  0.65932245  1
  O2-  O214  1  0.49984629  0.87533144  0.16857117  1
  O2-  O215  1  0.50210153  0.87548355  0.66211998  1
  O2-  O216  1  0.75066766  0.12580359  0.16817999  1
  O2-  O217  1  0.74858605  0.12468608  0.66080613  1
  O2-  O218  1  0.74980412  0.37425318  0.16828297  1
  O2-  O219  1  0.75027558  0.37451868  0.65863414  1
  O2-  O220  1  0.75035357  0.62474760  0.16872137  1
  O2-  O221  1  0.74855964  0.62580808  0.65629836  1
  O2-  O222  1  0.75073271  0.87486769  0.16763097  1
  O2-  O223  1  0.74828372  0.87526727  0.65897615  1
  O2-  O224  1  0.12464056  -0.00118272  0.33883389  1
  O2-  O225  1  0.12473023  -0.00122331  0.85226388  1
  O2-  O226  1  0.12537353  0.24744937  0.34789845  1
  O2-  O227  1  0.12467539  0.25215153  0.85094713  1
  O2-  O228  1  0.12555889  0.50240574  0.34900544  1
  O2-  O229  1  0.12495448  0.50215436  0.84889292  1
  O2-  O230  1  0.12542120  0.75049844  0.34044331  1
  O2-  O231  1  0.12431576  0.74737645  0.85009957  1
  O2-  O232  1  0.37507960  -0.00312759  0.34307743  1
  O2-  O233  1  0.37688326  0.00360163  0.85220328  1
  O2-  O234  1  0.37411966  0.25105304  0.34852326  1
  O2-  O235  1  0.37626896  0.25103698  0.85456172  1
  O2-  O236  1  0.37474305  0.50246641  0.35188371  1
  O2-  O237  1  0.37523889  0.49620761  0.84811531  1
  O2-  O238  1  0.37466757  0.74906577  0.34637390  1
  O2-  O239  1  0.37603669  0.74965455  0.84817498  1
  O2-  O240  1  0.62456329  -0.00130615  0.35009160  1
  O2-  O241  1  0.62549469  0.00162516  0.84902355  1
  O2-  O242  1  0.62491700  0.24588258  0.35128999  1
  O2-  O243  1  0.62542306  0.25225641  0.84798435  1
  O2-  O244  1  0.62410776  0.50381284  0.35223958  1
  O2-  O245  1  0.62530033  0.49959589  0.83738090  1
  O2-  O246  1  0.62481448  0.75114039  0.35074950  1
  O2-  O247  1  0.62574488  0.74731259  0.84065250  1
  O2-  O248  1  0.87508370  -0.00062227  0.33918481  1
  O2-  O249  1  0.87326983  0.00154476  0.85235718  1
  O2-  O250  1  0.87509351  0.24673961  0.34553491  1
  O2-  O251  1  0.87380049  0.25033253  0.85026272  1
  O2-  O252  1  0.87546654  0.50207136  0.34999819  1
  O2-  O253  1  0.87521714  0.49979233  0.84085097  1
  O2-  O254  1  0.87477713  0.75108884  0.34301529  1
  O2-  O255  1  0.87440470  0.74874052  0.84440740  1
  O2-  O256  1  0.00068452  0.12381345  0.33821907  1
  O2-  O257  1  -0.00410046  0.12563704  0.85257547  1
  O2-  O258  1  0.00066958  0.37426740  0.34560717  1
  O2-  O259  1  -0.00107659  0.37544874  0.85000185  1
  O2-  O260  1  0.00035427  0.62606407  0.33988556  1
  O2-  O261  1  -0.00039354  0.62476854  0.85073048  1
  O2-  O262  1  0.00054560  0.87474034  0.33829952  1
  O2-  O263  1  -0.00211854  0.87482539  0.85048205  1
  O2-  O264  1  0.24764021  0.12399456  0.34285255  1
  O2-  O265  1  0.25338708  0.12587059  0.85425443  1
  O2-  O266  1  0.25032296  0.37560072  0.34670152  1
  O2-  O267  1  0.25153984  0.37543653  0.85639171  1
  O2-  O268  1  0.25121663  0.62507917  0.34526727  1
  O2-  O269  1  0.24753652  0.62466688  0.85342648  1
  O2-  O270  1  0.24918549  0.87431143  0.34083527  1
  O2-  O271  1  0.24913192  0.87462655  0.85260135  1
  O2-  O272  1  0.50206318  0.12405858  0.35316806  1
  O2-  O273  1  0.49983804  0.12667525  0.84926887  1
  O2-  O274  1  0.49786985  0.37463743  0.35026444  1
  O2-  O275  1  0.49985209  0.37495822  0.84861687  1
  O2-  O276  1  0.49883183  0.62627594  0.35537791  1
  O2-  O277  1  0.50265424  0.62412841  0.84238980  1
  O2-  O278  1  0.50053486  0.87426849  0.35212163  1
  O2-  O279  1  0.50117880  0.87505069  0.84617458  1
  O2-  O280  1  0.74940846  0.12286126  0.35110629  1
  O2-  O281  1  0.75112615  0.12581627  0.84542591  1
  O2-  O282  1  0.75107355  0.37456297  0.35227356  1
  O2-  O283  1  0.75028648  0.37542427  0.83898636  1
  O2-  O284  1  0.74953288  0.62637101  0.35222533  1
  O2-  O285  1  0.75045459  0.62409332  0.83671357  1
  O2-  O286  1  0.74939621  0.87545394  0.35069265  1
  O2-  O287  1  0.75187014  0.87526331  0.84110852  1
