# generated using pymatgen
data_BaYFeCuO5
_symmetry_space_group_name_H-M   'P 1'
_cell_length_a   15.69115472
_cell_length_b   15.69076696
_cell_length_c   15.57157398
_cell_angle_alpha   89.99331935
_cell_angle_beta   89.99257377
_cell_angle_gamma   90.00581479
_symmetry_Int_Tables_number   1
_chemical_formula_structural   BaYFeCuO5
_chemical_formula_sum   'Ba32 Y32 Fe32 Cu32 O160'
_cell_volume   3833.81878942
_cell_formula_units_Z   32
loop_
 _symmetry_equiv_pos_site_id
 _symmetry_equiv_pos_as_xyz
  1  'x, y, z'
loop_
 _atom_type_symbol
 _atom_type_oxidation_number
  Ba2+  2.0
  Y3+  3.0
  Fe3+  3.0
  Cu2+  2.0
  O2-  -2.0
loop_
 _atom_site_type_symbol
 _atom_site_label
 _atom_site_symmetry_multiplicity
 _atom_site_fract_x
 _atom_site_fract_y
 _atom_site_fract_z
 _atom_site_occupancy
  Ba2+  Ba0  1  -0.00262821  -0.00258203  -0.00647149  1
  Ba2+  Ba1  1  -0.00387777  -0.00325694  0.50299775  1
  Ba2+  Ba2  1  -0.00517612  0.24427561  0.01340556  1
  Ba2+  Ba3  1  -0.00746806  0.25741768  0.50521995  1
  Ba2+  Ba4  1  -0.00482001  0.50620308  0.01279493  1
  Ba2+  Ba5  1  -0.00014181  0.49970869  0.51698045  1
  Ba2+  Ba6  1  -0.00112654  0.75193116  -0.00786551  1
  Ba2+  Ba7  1  0.00318305  0.74482964  0.51033217  1
  Ba2+  Ba8  1  0.24405221  -0.00606782  0.01305822  1
  Ba2+  Ba9  1  0.25430848  -0.00445524  0.49953080  1
  Ba2+  Ba10  1  0.24947600  0.24947595  0.01554685  1
  Ba2+  Ba11  1  0.25612184  0.25585201  0.52283602  1
  Ba2+  Ba12  1  0.25440450  0.50604500  0.02102656  1
  Ba2+  Ba13  1  0.24945011  0.50171543  0.52044653  1
  Ba2+  Ba14  1  0.24969169  0.74966170  0.02132775  1
  Ba2+  Ba15  1  0.24745227  0.74545408  0.50080169  1
  Ba2+  Ba16  1  0.50715364  -0.00682737  0.01728794  1
  Ba2+  Ba17  1  0.49652910  0.00692444  0.51352272  1
  Ba2+  Ba18  1  0.50650875  0.25568178  0.01341880  1
  Ba2+  Ba19  1  0.50170526  0.25195575  0.52829399  1
  Ba2+  Ba20  1  0.50322551  0.49976167  0.01062983  1
  Ba2+  Ba21  1  0.49939544  0.49796021  0.52785648  1
  Ba2+  Ba22  1  0.50249062  0.75184761  0.01345869  1
  Ba2+  Ba23  1  0.49522379  0.74365922  0.51236491  1
  Ba2+  Ba24  1  0.75010188  -0.00347404  0.00097991  1
  Ba2+  Ba25  1  0.75179554  0.00707588  0.51077330  1
  Ba2+  Ba26  1  0.74851369  0.25186281  0.01390999  1
  Ba2+  Ba27  1  0.75007203  0.25462320  0.51160422  1
  Ba2+  Ba28  1  0.74798554  0.49933961  0.00160858  1
  Ba2+  Ba29  1  0.75040562  0.49659306  0.52266597  1
  Ba2+  Ba30  1  0.74956764  0.75194131  -0.00909118  1
  Ba2+  Ba31  1  0.75356048  0.74353023  0.52130768  1
  Y3+  Y32  1  -0.00016500  0.00052501  0.26194114  1
  Y3+  Y33  1  -0.00159078  -0.00175862  0.75634014  1
  Y3+  Y34  1  -0.00365886  0.25123259  0.25926743  1
  Y3+  Y35  1  -0.00110269  0.25193890  0.75539455  1
  Y3+  Y36  1  -0.00108533  0.50006680  0.25981235  1
  Y3+  Y37  1  -0.00079700  0.50090112  0.75397051  1
  Y3+  Y38  1  0.00239387  0.74777934  0.26337053  1
  Y3+  Y39  1  -0.00130335  0.74888601  0.75294303  1
  Y3+  Y40  1  0.24991774  -0.00204099  0.25824697  1
  Y3+  Y41  1  0.25015354  -0.00015682  0.75674919  1
  Y3+  Y42  1  0.24944730  0.25041785  0.25312619  1
  Y3+  Y43  1  0.25082500  0.25091497  0.75708682  1
  Y3+  Y44  1  0.24980133  0.50219896  0.25547489  1
  Y3+  Y45  1  0.24944572  0.50116499  0.75402303  1
  Y3+  Y46  1  0.24940845  0.74980716  0.26125421  1
  Y3+  Y47  1  0.24849189  0.74824944  0.75417610  1
  Y3+  Y48  1  0.50112850  -0.00267021  0.25569202  1
  Y3+  Y49  1  0.50168849  -0.00007781  0.75862375  1
  Y3+  Y50  1  0.50248500  0.25174804  0.24960124  1
  Y3+  Y51  1  0.50206723  0.25107920  0.76036863  1
  Y3+  Y52  1  0.49986078  0.49879736  0.25008902  1
  Y3+  Y53  1  0.50303568  0.50039822  0.76132228  1
  Y3+  Y54  1  0.49864418  0.75174220  0.25603993  1
  Y3+  Y55  1  0.50277091  0.74894666  0.75906003  1
  Y3+  Y56  1  0.74799919  0.00026391  0.25775768  1
  Y3+  Y57  1  0.75075508  -0.00155626  0.75821611  1
  Y3+  Y58  1  0.75066452  0.25229317  0.25698832  1
  Y3+  Y59  1  0.74969982  0.25218232  0.75824078  1
  Y3+  Y60  1  0.75044878  0.49649645  0.25520186  1
  Y3+  Y61  1  0.74973772  0.50017127  0.75896037  1
  Y3+  Y62  1  0.74842058  0.75054968  0.25861940  1
  Y3+  Y63  1  0.75056819  0.74926558  0.75784988  1
  Fe3+  Fe64  1  0.62410642  0.62261416  0.37788492  1
  Fe3+  Fe65  1  0.62596464  0.12504872  0.87730566  1
  Fe3+  Fe66  1  0.87619746  0.37485108  0.87734199  1
  Fe3+  Fe67  1  0.12667016  0.37536300  0.37587508  1
  Fe3+  Fe68  1  0.37538355  0.12416674  0.88049264  1
  Fe3+  Fe69  1  0.62294474  0.37596261  0.37527470  1
  Fe3+  Fe70  1  0.37658062  0.37468720  0.37297313  1
  Fe3+  Fe71  1  0.37470712  0.62598176  0.87647375  1
  Fe3+  Fe72  1  0.12484740  0.12537637  0.87615481  1
  Fe3+  Fe73  1  0.12484507  0.37629556  0.87959859  1
  Fe3+  Fe74  1  0.37672192  0.62216298  0.37437027  1
  Fe3+  Fe75  1  0.62388119  0.87419003  0.38240762  1
  Fe3+  Fe76  1  0.12596915  0.62500089  0.87573979  1
  Fe3+  Fe77  1  0.12554212  0.12714733  0.38016954  1
  Fe3+  Fe78  1  0.37421034  0.37580563  0.87769859  1
  Fe3+  Fe79  1  0.87314688  0.87384430  0.38161938  1
  Fe3+  Fe80  1  0.37646122  0.12802522  0.37335062  1
  Fe3+  Fe81  1  0.37424640  0.87422639  0.87741680  1
  Fe3+  Fe82  1  0.62366174  0.12709910  0.37541049  1
  Fe3+  Fe83  1  0.87302990  0.62277141  0.37910642  1
  Fe3+  Fe84  1  0.37541363  0.12351165  0.13293814  1
  Fe3+  Fe85  1  0.87541767  0.87359583  0.14022235  1
  Fe3+  Fe86  1  0.37509124  0.87432635  0.63713800  1
  Fe3+  Fe87  1  0.12121521  0.87453170  0.14212910  1
  Fe3+  Fe88  1  0.87476816  0.12255870  0.14053213  1
  Fe3+  Fe89  1  0.12513734  0.87553285  0.63661645  1
  Fe3+  Fe90  1  0.62693292  0.62650985  0.13639457  1
  Fe3+  Fe91  1  0.87510126  0.12561368  0.63907493  1
  Fe3+  Fe92  1  0.12513233  0.12522879  0.63352088  1
  Fe3+  Fe93  1  0.12304074  0.37567462  0.13339913  1
  Fe3+  Fe94  1  0.62520806  0.87532689  0.63493666  1
  Fe3+  Fe95  1  0.87476892  0.62742599  0.13814666  1
  Cu2+  Cu96  1  0.12606833  0.87430852  0.85864970  1
  Cu2+  Cu97  1  0.62408672  0.87519493  0.87114314  1
  Cu2+  Cu98  1  0.87568850  0.62435317  0.85939658  1
  Cu2+  Cu99  1  0.87557105  0.87464177  0.85763306  1
  Cu2+  Cu100  1  0.12533838  0.62221017  0.37361396  1
  Cu2+  Cu101  1  0.87515963  0.12572105  0.86053271  1
  Cu2+  Cu102  1  0.62569245  0.37486013  0.87305498  1
  Cu2+  Cu103  1  0.87369769  0.12552314  0.36471732  1
  Cu2+  Cu104  1  0.12466441  0.87511856  0.36777102  1
  Cu2+  Cu105  1  0.87326736  0.37624761  0.37286377  1
  Cu2+  Cu106  1  0.37627299  0.87498801  0.36384550  1
  Cu2+  Cu107  1  0.62517806  0.62516808  0.86394983  1
  Cu2+  Cu108  1  0.12508102  0.62519974  0.64102185  1
  Cu2+  Cu109  1  0.62504676  0.62525802  0.65344880  1
  Cu2+  Cu110  1  0.37403918  0.37487533  0.14462569  1
  Cu2+  Cu111  1  0.37415198  0.87503857  0.15319259  1
  Cu2+  Cu112  1  0.87461570  0.87524680  0.64807561  1
  Cu2+  Cu113  1  0.62566364  0.12488249  0.65460112  1
  Cu2+  Cu114  1  0.62675821  0.37619955  0.13921805  1
  Cu2+  Cu115  1  0.12483616  0.37427988  0.65144158  1
  Cu2+  Cu116  1  0.87579384  0.37575725  0.14983788  1
  Cu2+  Cu117  1  0.62533641  0.37508922  0.65726154  1
  Cu2+  Cu118  1  0.62618429  0.12410288  0.14885176  1
  Cu2+  Cu119  1  0.37503539  0.12428948  0.65569446  1
  Cu2+  Cu120  1  0.37546120  0.62623038  0.15091560  1
  Cu2+  Cu121  1  0.87479697  0.62453360  0.65275351  1
  Cu2+  Cu122  1  0.12357695  0.62600116  0.15275900  1
  Cu2+  Cu123  1  0.12348496  0.12402162  0.15317870  1
  Cu2+  Cu124  1  0.37552941  0.62564893  0.65403170  1
  Cu2+  Cu125  1  0.37587669  0.37557915  0.65787631  1
  Cu2+  Cu126  1  0.87475321  0.37471906  0.64354821  1
  Cu2+  Cu127  1  0.62745937  0.87366494  0.14343980  1
  O2-  O128  1  0.12462502  0.12382985  -0.00454082  1
  O2-  O129  1  0.12711497  0.12765737  0.50713161  1
  O2-  O130  1  0.12359671  0.37556426  0.00459010  1
  O2-  O131  1  0.12877993  0.37425323  0.49535929  1
  O2-  O132  1  0.12555009  0.62640662  -0.00483431  1
  O2-  O133  1  0.12618076  0.62282117  0.50717580  1
  O2-  O134  1  0.12061993  0.87480701  0.02251893  1
  O2-  O135  1  0.12683531  0.87665208  0.51705687  1
  O2-  O136  1  0.37392664  0.12248104  0.00485118  1
  O2-  O137  1  0.37678893  0.12996830  0.49267992  1
  O2-  O138  1  0.37230394  0.37565049  -0.00315529  1
  O2-  O139  1  0.37732999  0.37349684  0.49238302  1
  O2-  O140  1  0.37283302  0.62772895  -0.00441031  1
  O2-  O141  1  0.37726056  0.62033355  0.49412716  1
  O2-  O142  1  0.37324976  0.87430975  -0.00311535  1
  O2-  O143  1  0.37585563  0.87609990  0.51757989  1
  O2-  O144  1  0.62623577  0.12321040  -0.00316881  1
  O2-  O145  1  0.62144700  0.12840546  0.49481261  1
  O2-  O146  1  0.62700044  0.37565891  0.00575347  1
  O2-  O147  1  0.62142451  0.37508777  0.49474279  1
  O2-  O148  1  0.62799997  0.62810855  0.01648329  1
  O2-  O149  1  0.62202581  0.62105388  0.49732591  1
  O2-  O150  1  0.62640580  0.87421913  0.00644922  1
  O2-  O151  1  0.62340951  0.87530740  0.50802549  1
  O2-  O152  1  0.87661417  0.12086012  0.02092955  1
  O2-  O153  1  0.87494340  0.12619380  0.51926305  1
  O2-  O154  1  0.87762594  0.37425467  -0.00309494  1
  O2-  O155  1  0.87333353  0.37591912  0.50788279  1
  O2-  O156  1  0.87585470  0.62997382  0.01866019  1
  O2-  O157  1  0.87310958  0.62188934  0.49899522  1
  O2-  O158  1  0.87710604  0.87450189  0.02073286  1
  O2-  O159  1  0.87142594  0.87459418  0.50131429  1
  O2-  O160  1  0.12440942  -0.00056316  0.17253213  1
  O2-  O161  1  0.12567756  0.00178687  0.66523000  1
  O2-  O162  1  0.12463634  0.25083528  0.15858883  1
  O2-  O163  1  0.12600091  0.24818930  0.66508196  1
  O2-  O164  1  0.12468297  0.49964367  0.15774559  1
  O2-  O165  1  0.12538851  0.49817342  0.66499616  1
  O2-  O166  1  0.12533304  0.75016198  0.17209712  1
  O2-  O167  1  0.12474435  0.75196658  0.66443195  1
  O2-  O168  1  0.37478423  0.00153252  0.16487042  1
  O2-  O169  1  0.37536145  -0.00083986  0.66693656  1
  O2-  O170  1  0.37388626  0.24737959  0.15611136  1
  O2-  O171  1  0.37544232  0.24964859  0.66802271  1
  O2-  O172  1  0.37434606  0.50049584  0.15881205  1
  O2-  O173  1  0.37490129  0.50040776  0.66455401  1
  O2-  O174  1  0.37397197  0.75096168  0.16773017  1
  O2-  O175  1  0.37594776  0.75055850  0.66386006  1
  O2-  O176  1  0.62512179  0.00025066  0.16866145  1
  O2-  O177  1  0.62501150  -0.00139704  0.66180341  1
  O2-  O178  1  0.62588261  0.24912262  0.15981255  1
  O2-  O179  1  0.62423764  0.24989513  0.66634638  1
  O2-  O180  1  0.62508297  0.50244072  0.16189343  1
  O2-  O181  1  0.62519321  0.50024620  0.66693280  1
  O2-  O182  1  0.62478763  0.74814375  0.17203657  1
  O2-  O183  1  0.62459720  0.75157195  0.66194922  1
  O2-  O184  1  0.87530375  -0.00110466  0.17419847  1
  O2-  O185  1  0.87477709  0.00141920  0.66757767  1
  O2-  O186  1  0.87565996  0.24984110  0.16459018  1
  O2-  O187  1  0.87544224  0.24856799  0.66803594  1
  O2-  O188  1  0.87607576  0.50076080  0.16194221  1
  O2-  O189  1  0.87467873  0.50060712  0.66636625  1
  O2-  O190  1  0.87553641  0.75007849  0.17464313  1
  O2-  O191  1  0.87486197  0.74952559  0.66363394  1
  O2-  O192  1  -0.00116333  0.12543601  0.17338316  1
  O2-  O193  1  0.00206487  0.12510415  0.66466721  1
  O2-  O194  1  0.00212007  0.37492828  0.16580536  1
  O2-  O195  1  0.00119824  0.37463691  0.66520679  1
  O2-  O196  1  -0.00085905  0.62485253  0.17065947  1
  O2-  O197  1  -0.00124426  0.62446867  0.66385072  1
  O2-  O198  1  -0.00092276  0.87493173  0.17721227  1
  O2-  O199  1  0.00075846  0.87623004  0.66523566  1
  O2-  O200  1  0.25081241  0.12397682  0.16120870  1
  O2-  O201  1  0.24842407  0.12573729  0.66386415  1
  O2-  O202  1  0.24717112  0.37441459  0.15964236  1
  O2-  O203  1  0.25082065  0.37390331  0.66421748  1
  O2-  O204  1  0.24988595  0.62578382  0.16288012  1
  O2-  O205  1  0.25170552  0.62505107  0.66339338  1
  O2-  O206  1  0.24839093  0.87564158  0.16649723  1
  O2-  O207  1  0.25034780  0.87575017  0.66759210  1
  O2-  O208  1  0.49928043  0.12432604  0.15682441  1
  O2-  O209  1  0.50053779  0.12431967  0.66675193  1
  O2-  O210  1  0.49854797  0.37478630  0.15748907  1
  O2-  O211  1  0.50053824  0.37505935  0.66760763  1
  O2-  O212  1  0.50025756  0.62643308  0.16053536  1
  O2-  O213  1  0.49996756  0.62514391  0.66716842  1
  O2-  O214  1  0.49904500  0.87488996  0.16319778  1
  O2-  O215  1  0.50150421  0.87569548  0.66517448  1
  O2-  O216  1  0.75060524  0.12447863  0.16828814  1
  O2-  O217  1  0.75005573  0.12504464  0.66584053  1
  O2-  O218  1  0.75221253  0.37479887  0.16520535  1
  O2-  O219  1  0.74839953  0.37455747  0.66634139  1
  O2-  O220  1  0.75086937  0.62529480  0.17043947  1
  O2-  O221  1  0.74991517  0.62534208  0.66566201  1
  O2-  O222  1  0.75245839  0.87487924  0.17128645  1
  O2-  O223  1  0.74769125  0.87476141  0.66397190  1
  O2-  O224  1  0.12574046  0.00283768  0.35499856  1
  O2-  O225  1  0.12516810  0.00003517  0.84724003  1
  O2-  O226  1  0.12524809  0.24913705  0.34242048  1
  O2-  O227  1  0.12562479  0.25163569  0.84804263  1
  O2-  O228  1  0.12566725  0.49708903  0.34062259  1
  O2-  O229  1  0.12513961  0.49888405  0.84728832  1
  O2-  O230  1  0.12540492  0.75060727  0.35451073  1
  O2-  O231  1  0.12526080  0.74981143  0.84566609  1
  O2-  O232  1  0.37452613  0.00113867  0.34834156  1
  O2-  O233  1  0.37443022  0.00146037  0.84789997  1
  O2-  O234  1  0.37484950  0.25050413  0.33561009  1
  O2-  O235  1  0.37361377  0.24847708  0.85065119  1
  O2-  O236  1  0.37530105  0.49855979  0.33907060  1
  O2-  O237  1  0.37447277  0.50046264  0.84590313  1
  O2-  O238  1  0.37564376  0.74952213  0.35130129  1
  O2-  O239  1  0.37464787  0.74986794  0.84310362  1
  O2-  O240  1  0.62417254  -0.00090787  0.35143715  1
  O2-  O241  1  0.62523828  0.00220542  0.84416115  1
  O2-  O242  1  0.62412232  0.25074068  0.34068259  1
  O2-  O243  1  0.62534553  0.24797065  0.84784096  1
  O2-  O244  1  0.62414432  0.49944306  0.34037681  1
  O2-  O245  1  0.62513746  0.50138714  0.85073739  1
  O2-  O246  1  0.62390795  0.75077972  0.35299231  1
  O2-  O247  1  0.62584837  0.74883119  0.84578574  1
  O2-  O248  1  0.87419719  -0.00056391  0.35404299  1
  O2-  O249  1  0.87612557  -0.00007832  0.84988655  1
  O2-  O250  1  0.87447463  0.24897557  0.34794066  1
  O2-  O251  1  0.87681753  0.25077038  0.84778329  1
  O2-  O252  1  0.87404925  0.50154067  0.34271960  1
  O2-  O253  1  0.87647775  0.49945896  0.84868043  1
  O2-  O254  1  0.87401382  0.74954485  0.35142955  1
  O2-  O255  1  0.87534784  0.74953440  0.84761144  1
  O2-  O256  1  0.00116386  0.12589453  0.35627830  1
  O2-  O257  1  0.00053587  0.12483407  0.84629083  1
  O2-  O258  1  0.00141589  0.37402577  0.34906140  1
  O2-  O259  1  0.00212953  0.37493841  0.84672131  1
  O2-  O260  1  -0.00217928  0.62404947  0.35142087  1
  O2-  O261  1  0.00137048  0.62553175  0.84613831  1
  O2-  O262  1  -0.00124191  0.87560277  0.35566451  1
  O2-  O263  1  0.00053276  0.87501348  0.84844738  1
  O2-  O264  1  0.24924072  0.12574680  0.34534319  1
  O2-  O265  1  0.25109239  0.12498831  0.84667780  1
  O2-  O266  1  0.25110415  0.37388195  0.34009564  1
  O2-  O267  1  0.24842286  0.37463448  0.84631787  1
  O2-  O268  1  0.25250476  0.62439712  0.34577586  1
  O2-  O269  1  0.24975428  0.62481309  0.84271520  1
  O2-  O270  1  0.24969702  0.87570754  0.34992321  1
  O2-  O271  1  0.25083208  0.87633395  0.84613557  1
  O2-  O272  1  0.50012270  0.12466117  0.33789857  1
  O2-  O273  1  0.49825214  0.12505878  0.84924966  1
  O2-  O274  1  0.49988755  0.37461177  0.33705312  1
  O2-  O275  1  0.49790648  0.37435283  0.84964157  1
  O2-  O276  1  0.50035898  0.62495380  0.34033058  1
  O2-  O277  1  0.49942398  0.62562962  0.84951276  1
  O2-  O278  1  0.50265009  0.87555002  0.34703181  1
  O2-  O279  1  0.49744686  0.87532348  0.84565629  1
  O2-  O280  1  0.74842893  0.12484579  0.34949591  1
  O2-  O281  1  0.75113959  0.12433962  0.84817411  1
  O2-  O282  1  0.74713029  0.37452010  0.34697594  1
  O2-  O283  1  0.75268256  0.37533368  0.84825679  1
  O2-  O284  1  0.74833420  0.62526185  0.34759805  1
  O2-  O285  1  0.75074135  0.62503355  0.85003387  1
  O2-  O286  1  0.74757192  0.87510554  0.35084219  1
  O2-  O287  1  0.75160767  0.87526673  0.84780496  1
