# generated using pymatgen
data_BaYFeCuO5
_symmetry_space_group_name_H-M   'P 1'
_cell_length_a   15.68571329
_cell_length_b   15.68040866
_cell_length_c   15.52396438
_cell_angle_alpha   89.98876236
_cell_angle_beta   90.00156643
_cell_angle_gamma   90.00000535
_symmetry_Int_Tables_number   1
_chemical_formula_structural   BaYFeCuO5
_chemical_formula_sum   'Ba32 Y32 Fe32 Cu32 O160'
_cell_volume   3818.24927958
_cell_formula_units_Z   32
loop_
 _symmetry_equiv_pos_site_id
 _symmetry_equiv_pos_as_xyz
  1  'x, y, z'
loop_
 _atom_type_symbol
 _atom_type_oxidation_number
  Ba2+  2.0
  Y3+  3.0
  Fe3+  3.0
  Cu2+  2.0
  O2-  -2.0
loop_
 _atom_site_type_symbol
 _atom_site_label
 _atom_site_symmetry_multiplicity
 _atom_site_fract_x
 _atom_site_fract_y
 _atom_site_fract_z
 _atom_site_occupancy
  Ba2+  Ba0  1  -0.00060081  0.01045298  0.01837760  1
  Ba2+  Ba1  1  -0.00778385  -0.00150075  0.50806297  1
  Ba2+  Ba2  1  0.00200638  0.25215630  0.01376115  1
  Ba2+  Ba3  1  -0.01071373  0.24828771  0.50215046  1
  Ba2+  Ba4  1  -0.00241911  0.49119250  0.00545186  1
  Ba2+  Ba5  1  -0.00512175  0.50403853  0.49914485  1
  Ba2+  Ba6  1  -0.00532671  0.74548567  0.01115724  1
  Ba2+  Ba7  1  -0.00062410  0.74992634  0.50715796  1
  Ba2+  Ba8  1  0.25799362  0.00753096  0.01496910  1
  Ba2+  Ba9  1  0.25382741  -0.00555723  0.49904318  1
  Ba2+  Ba10  1  0.25168861  0.24943388  0.00666369  1
  Ba2+  Ba11  1  0.25921285  0.25074498  0.50678206  1
  Ba2+  Ba12  1  0.25281665  0.49175820  0.00570836  1
  Ba2+  Ba13  1  0.25423786  0.50597239  0.51460983  1
  Ba2+  Ba14  1  0.26057783  0.75039136  0.01716934  1
  Ba2+  Ba15  1  0.25146383  0.74911687  0.50682689  1
  Ba2+  Ba16  1  0.49917921  0.00295112  0.02169894  1
  Ba2+  Ba17  1  0.50357448  -0.00223923  0.51127380  1
  Ba2+  Ba18  1  0.50026842  0.24990034  0.00540955  1
  Ba2+  Ba19  1  0.50241224  0.24933259  0.51842306  1
  Ba2+  Ba20  1  0.50324817  0.49741828  0.01227877  1
  Ba2+  Ba21  1  0.50139998  0.50150904  0.51857972  1
  Ba2+  Ba22  1  0.50153202  0.75012671  0.02599163  1
  Ba2+  Ba23  1  0.50268652  0.75184879  0.51059295  1
  Ba2+  Ba24  1  0.74385492  0.00510001  0.02266403  1
  Ba2+  Ba25  1  0.74917832  0.00019753  0.51580670  1
  Ba2+  Ba26  1  0.74622229  0.25207287  0.01212654  1
  Ba2+  Ba27  1  0.75050486  0.24711551  0.51238808  1
  Ba2+  Ba28  1  0.74634049  0.49654073  0.01200216  1
  Ba2+  Ba29  1  0.74930947  0.49992841  0.50600244  1
  Ba2+  Ba30  1  0.74336719  0.74570803  0.02236352  1
  Ba2+  Ba31  1  0.74702366  0.75244102  0.51160678  1
  Y3+  Y32  1  -0.00070026  0.00297383  0.25974375  1
  Y3+  Y33  1  -0.00223078  0.00143276  0.75471371  1
  Y3+  Y34  1  -0.00116767  0.24939328  0.25847101  1
  Y3+  Y35  1  -0.00095755  0.25088735  0.75806114  1
  Y3+  Y36  1  -0.00131160  0.49886276  0.25557108  1
  Y3+  Y37  1  0.00107338  0.49823081  0.76048224  1
  Y3+  Y38  1  -0.00132279  0.74898582  0.25612001  1
  Y3+  Y39  1  -0.00047729  0.74986964  0.75839735  1
  Y3+  Y40  1  0.25207828  0.00047102  0.25580760  1
  Y3+  Y41  1  0.25230640  0.00255890  0.75772423  1
  Y3+  Y42  1  0.25021860  0.24992248  0.25528197  1
  Y3+  Y43  1  0.25227583  0.25007546  0.76088933  1
  Y3+  Y44  1  0.25068235  0.49791823  0.25609386  1
  Y3+  Y45  1  0.24943303  0.49900606  0.75974188  1
  Y3+  Y46  1  0.25273767  0.75163352  0.25754159  1
  Y3+  Y47  1  0.25022320  0.74801345  0.75645461  1
  Y3+  Y48  1  0.50013275  -0.00154572  0.25792571  1
  Y3+  Y49  1  0.50050439  0.00196874  0.75444575  1
  Y3+  Y50  1  0.50076926  0.25021007  0.25441663  1
  Y3+  Y51  1  0.50054691  0.24984222  0.75980366  1
  Y3+  Y52  1  0.50101798  0.49913510  0.25509341  1
  Y3+  Y53  1  0.50227381  0.49820950  0.75881672  1
  Y3+  Y54  1  0.50073019  0.75230489  0.25881237  1
  Y3+  Y55  1  0.50209473  0.74980899  0.75204392  1
  Y3+  Y56  1  0.74837481  0.00122290  0.26040209  1
  Y3+  Y57  1  0.74939746  0.00040341  0.75128626  1
  Y3+  Y58  1  0.75040661  0.24950132  0.25869759  1
  Y3+  Y59  1  0.74806900  0.25062831  0.75666196  1
  Y3+  Y60  1  0.74997443  0.49998007  0.25592274  1
  Y3+  Y61  1  0.74693954  0.49728728  0.75875184  1
  Y3+  Y62  1  0.74790627  0.74922618  0.25844771  1
  Y3+  Y63  1  0.74806330  0.75185531  0.75359308  1
  Fe3+  Fe64  1  0.12584550  0.37523959  0.38082172  1
  Fe3+  Fe65  1  0.87303389  0.87625576  0.88080449  1
  Fe3+  Fe66  1  0.62497674  0.62474431  0.37589709  1
  Fe3+  Fe67  1  0.12546272  0.62535533  0.88086226  1
  Fe3+  Fe68  1  0.37717706  0.62569812  0.87662496  1
  Fe3+  Fe69  1  0.12551772  0.87618597  0.88214575  1
  Fe3+  Fe70  1  0.12539569  0.12460641  0.37983897  1
  Fe3+  Fe71  1  0.87409023  0.87443478  0.37457363  1
  Fe3+  Fe72  1  0.62510428  0.12350356  0.87464018  1
  Fe3+  Fe73  1  0.87262481  0.62477152  0.87874565  1
  Fe3+  Fe74  1  0.87338645  0.12531682  0.87668624  1
  Fe3+  Fe75  1  0.37675668  0.12577448  0.37648990  1
  Fe3+  Fe76  1  0.62465795  0.87540858  0.87690063  1
  Fe3+  Fe77  1  0.12532983  0.62540450  0.37439579  1
  Fe3+  Fe78  1  0.12480813  0.12463515  0.87592620  1
  Fe3+  Fe79  1  0.62458214  0.62634853  0.87561857  1
  Fe3+  Fe80  1  0.62466034  0.12504902  0.37640883  1
  Fe3+  Fe81  1  0.62400017  0.37469691  0.37715322  1
  Fe3+  Fe82  1  0.37730302  0.87502759  0.87713143  1
  Fe3+  Fe83  1  0.37632261  0.62388237  0.37521885  1
  Fe3+  Fe84  1  0.87415825  0.87587073  0.13494340  1
  Fe3+  Fe85  1  0.12567909  0.62358945  0.13403256  1
  Fe3+  Fe86  1  0.12563438  0.12577304  0.63295887  1
  Fe3+  Fe87  1  0.12501758  0.87582095  0.13424615  1
  Fe3+  Fe88  1  0.87472967  0.37581555  0.63900654  1
  Fe3+  Fe89  1  0.87487032  0.62441387  0.63949194  1
  Fe3+  Fe90  1  0.37422609  0.87501563  0.63727610  1
  Fe3+  Fe91  1  0.12515136  0.87503520  0.63807233  1
  Fe3+  Fe92  1  0.87432381  0.37414425  0.14046600  1
  Fe3+  Fe93  1  0.37542555  0.37434267  0.13868591  1
  Fe3+  Fe94  1  0.12434169  0.37537569  0.63420095  1
  Fe3+  Fe95  1  0.37511191  0.37528177  0.64032955  1
  Cu2+  Cu96  1  0.37585854  0.37526495  0.36358293  1
  Cu2+  Cu97  1  0.87441289  0.62515501  0.36023632  1
  Cu2+  Cu98  1  0.37582392  0.37535452  0.86331474  1
  Cu2+  Cu99  1  0.62521117  0.37441155  0.87422303  1
  Cu2+  Cu100  1  0.12455204  0.87478081  0.36037639  1
  Cu2+  Cu101  1  0.37650769  0.12395320  0.87275888  1
  Cu2+  Cu102  1  0.12488740  0.37343302  0.87460157  1
  Cu2+  Cu103  1  0.37541185  0.87482284  0.36241898  1
  Cu2+  Cu104  1  0.87422793  0.37524543  0.36358655  1
  Cu2+  Cu105  1  0.87417883  0.37405686  0.86388246  1
  Cu2+  Cu106  1  0.87354855  0.12444968  0.37287301  1
  Cu2+  Cu107  1  0.62529265  0.87530654  0.37268513  1
  Cu2+  Cu108  1  0.62451889  0.62417693  0.15398130  1
  Cu2+  Cu109  1  0.87578601  0.87428910  0.65239692  1
  Cu2+  Cu110  1  0.62542589  0.87578850  0.15335843  1
  Cu2+  Cu111  1  0.12526735  0.12532790  0.15443354  1
  Cu2+  Cu112  1  0.37426815  0.12512383  0.64974672  1
  Cu2+  Cu113  1  0.62486031  0.87537426  0.63929395  1
  Cu2+  Cu114  1  0.87494368  0.62457384  0.14904228  1
  Cu2+  Cu115  1  0.37588265  0.12671179  0.14281129  1
  Cu2+  Cu116  1  0.12401988  0.62429846  0.65305361  1
  Cu2+  Cu117  1  0.62521525  0.37477020  0.65040324  1
  Cu2+  Cu118  1  0.37499525  0.62403021  0.15133875  1
  Cu2+  Cu119  1  0.37541670  0.87572130  0.15298933  1
  Cu2+  Cu120  1  0.37529264  0.62484572  0.65250886  1
  Cu2+  Cu121  1  0.62521182  0.37413193  0.14243420  1
  Cu2+  Cu122  1  0.62458030  0.12558827  0.64980330  1
  Cu2+  Cu123  1  0.87403427  0.12527539  0.15316321  1
  Cu2+  Cu124  1  0.62582993  0.62435994  0.64981619  1
  Cu2+  Cu125  1  0.87565022  0.12591357  0.64080649  1
  Cu2+  Cu126  1  0.12499938  0.37436678  0.14315261  1
  Cu2+  Cu127  1  0.62483547  0.12579284  0.15397330  1
  O2-  O128  1  0.12433786  0.12461023  -0.00406900  1
  O2-  O129  1  0.12580442  0.12398594  0.50628194  1
  O2-  O130  1  0.12467584  0.37372880  0.00772922  1
  O2-  O131  1  0.12512706  0.37712763  0.50773525  1
  O2-  O132  1  0.12585443  0.62454570  0.00683811  1
  O2-  O133  1  0.12488819  0.62598074  0.49441720  1
  O2-  O134  1  0.12559126  0.87727614  0.00727188  1
  O2-  O135  1  0.12536251  0.87304888  0.51835551  1
  O2-  O136  1  0.37626616  0.12560247  0.00728444  1
  O2-  O137  1  0.37593433  0.12491636  0.49655947  1
  O2-  O138  1  0.37519034  0.37408999  0.01801136  1
  O2-  O139  1  0.37436071  0.37662375  0.52005793  1
  O2-  O140  1  0.37721509  0.62675020  -0.00369128  1
  O2-  O141  1  0.37538328  0.62460647  0.49525065  1
  O2-  O142  1  0.37767246  0.87484519  -0.00270099  1
  O2-  O143  1  0.37269839  0.87398239  0.51706579  1
  O2-  O144  1  0.62533515  0.12321654  -0.00532484  1
  O2-  O145  1  0.62407448  0.12586156  0.49632209  1
  O2-  O146  1  0.62533306  0.37472662  0.00711820  1
  O2-  O147  1  0.62403811  0.37558280  0.49717405  1
  O2-  O148  1  0.62392163  0.62697691  -0.00460731  1
  O2-  O149  1  0.62485114  0.62403521  0.49559244  1
  O2-  O150  1  0.62488398  0.87535936  -0.00347466  1
  O2-  O151  1  0.62561388  0.87465900  0.50617718  1
  O2-  O152  1  0.87342053  0.12428475  -0.00363840  1
  O2-  O153  1  0.87475447  0.12428704  0.50702350  1
  O2-  O154  1  0.87459974  0.37334225  0.01983589  1
  O2-  O155  1  0.87571003  0.37755981  0.51890045  1
  O2-  O156  1  0.87208446  0.62605525  -0.00144953  1
  O2-  O157  1  0.87677442  0.62491082  0.51946927  1
  O2-  O158  1  0.87284984  0.87671145  0.00644515  1
  O2-  O159  1  0.87584298  0.87295283  0.49500972  1
  O2-  O160  1  0.12434365  -0.00173806  0.16439788  1
  O2-  O161  1  0.12508901  0.00100454  0.66419217  1
  O2-  O162  1  0.12425135  0.24842820  0.17052078  1
  O2-  O163  1  0.12472926  0.25106931  0.65882813  1
  O2-  O164  1  0.12499709  0.50272326  0.16482916  1
  O2-  O165  1  0.12522009  0.49808993  0.66522527  1
  O2-  O166  1  0.12454418  0.75081949  0.15753917  1
  O2-  O167  1  0.12434749  0.75017806  0.66983178  1
  O2-  O168  1  0.37479034  -0.00024493  0.16516008  1
  O2-  O169  1  0.37332565  0.00024627  0.66363583  1
  O2-  O170  1  0.37467960  0.25159960  0.16882833  1
  O2-  O171  1  0.37455140  0.25035094  0.66645987  1
  O2-  O172  1  0.37401268  0.49945093  0.16555231  1
  O2-  O173  1  0.37440004  0.50007003  0.66774952  1
  O2-  O174  1  0.37472621  0.75002069  0.16342921  1
  O2-  O175  1  0.37343565  0.74947857  0.66355548  1
  O2-  O176  1  0.62523812  0.00138410  0.16449224  1
  O2-  O177  1  0.62496508  0.00223252  0.66143516  1
  O2-  O178  1  0.62550123  0.24826693  0.16542010  1
  O2-  O179  1  0.62455954  0.24903041  0.66454135  1
  O2-  O180  1  0.62563868  0.50091162  0.16407718  1
  O2-  O181  1  0.62507334  0.50017129  0.66614511  1
  O2-  O182  1  0.62515763  0.74976612  0.16412893  1
  O2-  O183  1  0.62572912  0.74866089  0.66206204  1
  O2-  O184  1  0.87549968  -0.00073973  0.16287618  1
  O2-  O185  1  0.87632809  -0.00153077  0.66298996  1
  O2-  O186  1  0.87529924  0.24910231  0.16866643  1
  O2-  O187  1  0.87567495  0.25262417  0.66661735  1
  O2-  O188  1  0.87540807  0.49966967  0.16677232  1
  O2-  O189  1  0.87506946  0.49959766  0.67198486  1
  O2-  O190  1  0.87557708  0.75186174  0.16045614  1
  O2-  O191  1  0.87618043  0.74934352  0.66858799  1
  O2-  O192  1  0.00011996  0.12474949  0.16644594  1
  O2-  O193  1  0.00395287  0.12492030  0.66385306  1
  O2-  O194  1  -0.00201267  0.37432511  0.16940480  1
  O2-  O195  1  0.00161803  0.37583222  0.66716944  1
  O2-  O196  1  0.00244423  0.62577577  0.16275113  1
  O2-  O197  1  -0.00109388  0.62472808  0.67195910  1
  O2-  O198  1  -0.00018526  0.87519190  0.15899166  1
  O2-  O199  1  0.00128984  0.87471288  0.67083413  1
  O2-  O200  1  0.24902173  0.12490720  0.16704804  1
  O2-  O201  1  0.24723155  0.12612104  0.66536582  1
  O2-  O202  1  0.25140010  0.37477879  0.16851070  1
  O2-  O203  1  0.24819654  0.37540537  0.66664856  1
  O2-  O204  1  0.24813521  0.62616359  0.16301507  1
  O2-  O205  1  0.24910005  0.62454854  0.66579721  1
  O2-  O206  1  0.24815217  0.87519665  0.16321207  1
  O2-  O207  1  0.24965439  0.87439622  0.67166131  1
  O2-  O208  1  0.50228621  0.12506128  0.16388573  1
  O2-  O209  1  0.50033442  0.12511512  0.66211239  1
  O2-  O210  1  0.49914002  0.37546217  0.16497923  1
  O2-  O211  1  0.50027233  0.37510448  0.66560871  1
  O2-  O212  1  0.49976831  0.62464749  0.16385153  1
  O2-  O213  1  0.50111196  0.62498566  0.66089839  1
  O2-  O214  1  0.50067588  0.87537648  0.16497801  1
  O2-  O215  1  0.49759235  0.87498395  0.66327181  1
  O2-  O216  1  0.74852384  0.12467102  0.16442908  1
  O2-  O217  1  0.74840642  0.12502260  0.66139256  1
  O2-  O218  1  0.75129029  0.37448067  0.16713435  1
  O2-  O219  1  0.74959190  0.37504762  0.66494473  1
  O2-  O220  1  0.74937403  0.62538215  0.16443885  1
  O2-  O221  1  0.75053326  0.62512598  0.66442959  1
  O2-  O222  1  0.75151251  0.87535279  0.16217812  1
  O2-  O223  1  0.75166200  0.87507344  0.66287701  1
  O2-  O224  1  0.12544447  0.00159491  0.34985814  1
  O2-  O225  1  0.12414148  -0.00174520  0.84560130  1
  O2-  O226  1  0.12520598  0.25022586  0.35521500  1
  O2-  O227  1  0.12484734  0.24699683  0.84246671  1
  O2-  O228  1  0.12456420  0.49868846  0.34771865  1
  O2-  O229  1  0.12468648  0.50357336  0.85016863  1
  O2-  O230  1  0.12467033  0.74894342  0.34144547  1
  O2-  O231  1  0.12418080  0.75047707  0.85318370  1
  O2-  O232  1  0.37390416  0.00052613  0.34808839  1
  O2-  O233  1  0.37471049  -0.00303761  0.84428887  1
  O2-  O234  1  0.37412275  0.25000512  0.34963572  1
  O2-  O235  1  0.37487946  0.25192807  0.84984758  1
  O2-  O236  1  0.37422137  0.49996621  0.34645897  1
  O2-  O237  1  0.37444676  0.50054950  0.84967652  1
  O2-  O238  1  0.37435761  0.74931478  0.34696643  1
  O2-  O239  1  0.37443067  0.75021319  0.84320184  1
  O2-  O240  1  0.62448217  0.00153388  0.34706361  1
  O2-  O241  1  0.62582691  -0.00091713  0.84157187  1
  O2-  O242  1  0.62490799  0.25030890  0.34597257  1
  O2-  O243  1  0.62539181  0.24796490  0.84753507  1
  O2-  O244  1  0.62545684  0.49983955  0.34497043  1
  O2-  O245  1  0.62508114  0.50193897  0.84896239  1
  O2-  O246  1  0.62508589  0.74822168  0.34684225  1
  O2-  O247  1  0.62556495  0.75083888  0.84233277  1
  O2-  O248  1  0.87582679  -0.00165736  0.34558948  1
  O2-  O249  1  0.87547771  -0.00129258  0.84555723  1
  O2-  O250  1  0.87550754  0.25126077  0.35147478  1
  O2-  O251  1  0.87502548  0.24958533  0.84765406  1
  O2-  O252  1  0.87624704  0.50021814  0.34999772  1
  O2-  O253  1  0.87588362  0.49974888  0.85233028  1
  O2-  O254  1  0.87581475  0.75010298  0.34349729  1
  O2-  O255  1  0.87576701  0.75165828  0.85051067  1
  O2-  O256  1  0.00303096  0.12484387  0.35126623  1
  O2-  O257  1  -0.00116894  0.12432180  0.84472098  1
  O2-  O258  1  0.00170721  0.37520889  0.35295419  1
  O2-  O259  1  -0.00208470  0.37442145  0.84928989  1
  O2-  O260  1  0.00020588  0.62500224  0.34607999  1
  O2-  O261  1  0.00051569  0.62587571  0.85363775  1
  O2-  O262  1  -0.00071341  0.87445546  0.34301069  1
  O2-  O263  1  -0.00035283  0.87462967  0.85464129  1
  O2-  O264  1  0.24917750  0.12480994  0.34985716  1
  O2-  O265  1  0.24889870  0.12415195  0.84788608  1
  O2-  O266  1  0.24831291  0.37498511  0.35162363  1
  O2-  O267  1  0.25211090  0.37523814  0.84956108  1
  O2-  O268  1  0.25033375  0.62503461  0.34463434  1
  O2-  O269  1  0.24926358  0.62547202  0.84960161  1
  O2-  O270  1  0.24954263  0.87465814  0.34821027  1
  O2-  O271  1  0.24844733  0.87456878  0.85175539  1
  O2-  O272  1  0.49983118  0.12502427  0.34433367  1
  O2-  O273  1  0.50192780  0.12443049  0.84478451  1
  O2-  O274  1  0.50057843  0.37526092  0.34587849  1
  O2-  O275  1  0.49843057  0.37499249  0.84852017  1
  O2-  O276  1  0.50012345  0.62479454  0.34487871  1
  O2-  O277  1  0.50042958  0.62546756  0.84215652  1
  O2-  O278  1  0.49885952  0.87479653  0.34892663  1
  O2-  O279  1  0.50100567  0.87452640  0.84235732  1
  O2-  O280  1  0.74792490  0.12508557  0.34676234  1
  O2-  O281  1  0.75031571  0.12426129  0.84223404  1
  O2-  O282  1  0.74936664  0.37572435  0.34890528  1
  O2-  O283  1  0.75159331  0.37472677  0.84774303  1
  O2-  O284  1  0.74981003  0.62461046  0.34762294  1
  O2-  O285  1  0.74979031  0.62561983  0.84400744  1
  O2-  O286  1  0.75154809  0.87447665  0.34470007  1
  O2-  O287  1  0.75112876  0.87499199  0.84563235  1
