# generated using pymatgen
data_BaYFeCuO5
_symmetry_space_group_name_H-M   'P 1'
_cell_length_a   15.67362668
_cell_length_b   15.67139159
_cell_length_c   15.49041610
_cell_angle_alpha   90.00871552
_cell_angle_beta   90.00959483
_cell_angle_gamma   90.00591847
_symmetry_Int_Tables_number   1
_chemical_formula_structural   BaYFeCuO5
_chemical_formula_sum   'Ba32 Y32 Fe32 Cu32 O160'
_cell_volume   3804.87270353
_cell_formula_units_Z   32
loop_
 _symmetry_equiv_pos_site_id
 _symmetry_equiv_pos_as_xyz
  1  'x, y, z'
loop_
 _atom_type_symbol
 _atom_type_oxidation_number
  Ba2+  2.0
  Y3+  3.0
  Fe3+  3.0
  Cu2+  2.0
  O2-  -2.0
loop_
 _atom_site_type_symbol
 _atom_site_label
 _atom_site_symmetry_multiplicity
 _atom_site_fract_x
 _atom_site_fract_y
 _atom_site_fract_z
 _atom_site_occupancy
  Ba2+  Ba0  1  -0.00723140  0.00208575  0.01671540  1
  Ba2+  Ba1  1  -0.00354919  -0.00212547  0.51615358  1
  Ba2+  Ba2  1  -0.00562563  0.24556913  0.02326249  1
  Ba2+  Ba3  1  -0.00060016  0.23832069  0.50986019  1
  Ba2+  Ba4  1  -0.00699568  0.50300969  0.02282243  1
  Ba2+  Ba5  1  0.00129895  0.50995830  0.50505894  1
  Ba2+  Ba6  1  -0.00802020  0.74891059  0.01702938  1
  Ba2+  Ba7  1  -0.00362505  0.75504268  0.51209277  1
  Ba2+  Ba8  1  0.25596587  0.00254406  0.01620289  1
  Ba2+  Ba9  1  0.24705697  0.00444804  0.51783685  1
  Ba2+  Ba10  1  0.25680694  0.24754723  0.01621684  1
  Ba2+  Ba11  1  0.25592489  0.24268301  0.51527726  1
  Ba2+  Ba12  1  0.25375270  0.49662440  0.01093195  1
  Ba2+  Ba13  1  0.25515637  0.50377719  0.51399545  1
  Ba2+  Ba14  1  0.25287374  0.75322022  0.01097563  1
  Ba2+  Ba15  1  0.24566175  0.74798553  0.51201504  1
  Ba2+  Ba16  1  0.50008826  -0.00045749  0.01306667  1
  Ba2+  Ba17  1  0.50185423  0.00504083  0.50753686  1
  Ba2+  Ba18  1  0.49989575  0.25068991  0.01226774  1
  Ba2+  Ba19  1  0.49364389  0.24379334  0.51579486  1
  Ba2+  Ba20  1  0.50473154  0.49314424  -0.00504036  1
  Ba2+  Ba21  1  0.49758022  0.50678302  0.51810926  1
  Ba2+  Ba22  1  0.50424207  0.75690180  -0.00362505  1
  Ba2+  Ba23  1  0.50702507  0.74550621  0.50709835  1
  Ba2+  Ba24  1  0.75077309  -0.00114027  0.01288902  1
  Ba2+  Ba25  1  0.75536546  -0.00235399  0.50612924  1
  Ba2+  Ba26  1  0.74946277  0.24832855  0.01977551  1
  Ba2+  Ba27  1  0.75119539  0.23907558  0.51085964  1
  Ba2+  Ba28  1  0.74931172  0.49987386  0.00598452  1
  Ba2+  Ba29  1  0.74718333  0.51136110  0.51214849  1
  Ba2+  Ba30  1  0.75121791  0.75357993  0.00055532  1
  Ba2+  Ba31  1  0.75044704  0.75247868  0.50700233  1
  Y3+  Y32  1  -0.00383132  -0.00039669  0.25808633  1
  Y3+  Y33  1  -0.00191116  -0.00167469  0.75482616  1
  Y3+  Y34  1  -0.00111370  0.24759274  0.25856341  1
  Y3+  Y35  1  -0.00006226  0.24717358  0.75269511  1
  Y3+  Y36  1  0.00016343  0.50235082  0.25691692  1
  Y3+  Y37  1  -0.00077110  0.50028124  0.75509814  1
  Y3+  Y38  1  -0.00171520  0.75078295  0.25649311  1
  Y3+  Y39  1  -0.00313351  0.75336134  0.75705212  1
  Y3+  Y40  1  0.25280948  0.00114715  0.25506398  1
  Y3+  Y41  1  0.24964434  -0.00024409  0.75763646  1
  Y3+  Y42  1  0.25259232  0.24843287  0.25519716  1
  Y3+  Y43  1  0.25255298  0.24951743  0.75611671  1
  Y3+  Y44  1  0.24988089  0.50082229  0.25414285  1
  Y3+  Y45  1  0.25335226  0.49774576  0.75943440  1
  Y3+  Y46  1  0.24968399  0.75025919  0.25362170  1
  Y3+  Y47  1  0.25078140  0.75205525  0.76036560  1
  Y3+  Y48  1  0.49883063  0.00071114  0.25795661  1
  Y3+  Y49  1  0.49948347  -0.00031178  0.75776611  1
  Y3+  Y50  1  0.49760835  0.24822206  0.25716576  1
  Y3+  Y51  1  0.49814953  0.25013988  0.75625205  1
  Y3+  Y52  1  0.50043585  0.50024173  0.25821034  1
  Y3+  Y53  1  0.50055494  0.49935580  0.75748589  1
  Y3+  Y54  1  0.50199945  0.75152210  0.25949354  1
  Y3+  Y55  1  0.50195941  0.74998461  0.75831118  1
  Y3+  Y56  1  0.75207083  -0.00125571  0.26039737  1
  Y3+  Y57  1  0.75243927  -0.00167050  0.75568836  1
  Y3+  Y58  1  0.75104180  0.24743714  0.26005237  1
  Y3+  Y59  1  0.74911371  0.24751009  0.75328075  1
  Y3+  Y60  1  0.74981695  0.50203931  0.25938868  1
  Y3+  Y61  1  0.74701178  0.50241171  0.75581820  1
  Y3+  Y62  1  0.75035694  0.75262121  0.26046295  1
  Y3+  Y63  1  0.75059615  0.75137455  0.75629452  1
  Fe3+  Fe64  1  0.87528208  0.62640181  0.37590955  1
  Fe3+  Fe65  1  0.62426534  0.37526926  0.38238632  1
  Fe3+  Fe66  1  0.87487821  0.12541496  0.87441536  1
  Fe3+  Fe67  1  0.37444469  0.87536996  0.38029908  1
  Fe3+  Fe68  1  0.12359626  0.87589753  0.88056023  1
  Fe3+  Fe69  1  0.12597233  0.12367252  0.37467191  1
  Fe3+  Fe70  1  0.87503249  0.62458632  0.87455419  1
  Fe3+  Fe71  1  0.87472771  0.37335686  0.87439710  1
  Fe3+  Fe72  1  0.12611938  0.37519879  0.37925785  1
  Fe3+  Fe73  1  0.37471807  0.37494798  0.37797324  1
  Fe3+  Fe74  1  0.37429739  0.62577134  0.37544084  1
  Fe3+  Fe75  1  0.62585719  0.12507061  0.87570842  1
  Fe3+  Fe76  1  0.12346402  0.62428426  0.87976336  1
  Fe3+  Fe77  1  0.37531871  0.12479945  0.87563127  1
  Fe3+  Fe78  1  0.62428051  0.12483717  0.37669493  1
  Fe3+  Fe79  1  0.37575197  0.62491073  0.87898883  1
  Fe3+  Fe80  1  0.87516936  0.37506983  0.38052139  1
  Fe3+  Fe81  1  0.12398881  0.12566350  0.87778099  1
  Fe3+  Fe82  1  0.12337229  0.37374687  0.87998760  1
  Fe3+  Fe83  1  0.12534960  0.87514005  0.37552831  1
  Fe3+  Fe84  1  0.62443760  0.37414115  0.63428741  1
  Fe3+  Fe85  1  0.62545955  0.62590251  0.13700217  1
  Fe3+  Fe86  1  0.12450233  0.37430217  0.13560266  1
  Fe3+  Fe87  1  0.87516470  0.37582662  0.63163725  1
  Fe3+  Fe88  1  0.62540426  0.37503442  0.14108627  1
  Fe3+  Fe89  1  0.37802267  0.62533125  0.13367759  1
  Fe3+  Fe90  1  0.12510444  0.62573791  0.63983118  1
  Fe3+  Fe91  1  0.12565114  0.37461537  0.63279942  1
  Fe3+  Fe92  1  0.12429387  0.87600681  0.13479332  1
  Fe3+  Fe93  1  0.62500240  0.87586428  0.63821687  1
  Fe3+  Fe94  1  0.37508797  0.87397994  0.63536529  1
  Fe3+  Fe95  1  0.62545751  0.87536891  0.14077912  1
  Cu2+  Cu96  1  0.12598481  0.62571055  0.36037816  1
  Cu2+  Cu97  1  0.87543717  0.87626566  0.87375455  1
  Cu2+  Cu98  1  0.87591857  0.87498309  0.37230665  1
  Cu2+  Cu99  1  0.62673361  0.37282229  0.85822554  1
  Cu2+  Cu100  1  0.37458819  0.87662069  0.87378533  1
  Cu2+  Cu101  1  0.62454514  0.62492716  0.37340351  1
  Cu2+  Cu102  1  0.37512973  0.37317724  0.87342042  1
  Cu2+  Cu103  1  0.37408493  0.12447080  0.37149153  1
  Cu2+  Cu104  1  0.62581343  0.87687013  0.86138510  1
  Cu2+  Cu105  1  0.87589038  0.12425943  0.37194907  1
  Cu2+  Cu106  1  0.62574170  0.62529031  0.86421941  1
  Cu2+  Cu107  1  0.62456118  0.87569349  0.36751017  1
  Cu2+  Cu108  1  0.12486289  0.62540712  0.14549753  1
  Cu2+  Cu109  1  0.37516094  0.12285121  0.64402696  1
  Cu2+  Cu110  1  0.87388531  0.37520863  0.15682472  1
  Cu2+  Cu111  1  0.62475418  0.62651647  0.64409712  1
  Cu2+  Cu112  1  0.37489261  0.37514549  0.64876117  1
  Cu2+  Cu113  1  0.12514829  0.12441934  0.65149901  1
  Cu2+  Cu114  1  0.87369317  0.12445384  0.15579648  1
  Cu2+  Cu115  1  0.37689345  0.87398677  0.14176710  1
  Cu2+  Cu116  1  0.62461694  0.12366014  0.64927058  1
  Cu2+  Cu117  1  0.62509419  0.12469231  0.15395513  1
  Cu2+  Cu118  1  0.87260187  0.62579863  0.15435384  1
  Cu2+  Cu119  1  0.87454954  0.12390757  0.64078921  1
  Cu2+  Cu120  1  0.87334789  0.87484312  0.14295816  1
  Cu2+  Cu121  1  0.87427623  0.87445273  0.64248327  1
  Cu2+  Cu122  1  0.87510451  0.62521816  0.65037293  1
  Cu2+  Cu123  1  0.37641226  0.12491187  0.15128707  1
  Cu2+  Cu124  1  0.12494529  0.12461796  0.14920676  1
  Cu2+  Cu125  1  0.12513201  0.87456877  0.65234660  1
  Cu2+  Cu126  1  0.37445158  0.62645028  0.65626904  1
  Cu2+  Cu127  1  0.37704435  0.37627591  0.14110942  1
  O2-  O128  1  0.12314527  0.12818510  -0.00278263  1
  O2-  O129  1  0.12625703  0.12364107  0.49517033  1
  O2-  O130  1  0.12188723  0.37384617  0.00615848  1
  O2-  O131  1  0.12697564  0.37554880  0.50575770  1
  O2-  O132  1  0.12118934  0.62197664  -0.00079985  1
  O2-  O133  1  0.12737932  0.62530805  0.51922172  1
  O2-  O134  1  0.12375384  0.87602417  0.00680452  1
  O2-  O135  1  0.12624089  0.87488257  0.49580294  1
  O2-  O136  1  0.37666054  0.12528412  -0.00365485  1
  O2-  O137  1  0.37377353  0.12290553  0.50666959  1
  O2-  O138  1  0.37639228  0.37500391  0.00657041  1
  O2-  O139  1  0.37294661  0.37589410  0.49795445  1
  O2-  O140  1  0.37807660  0.62452548  0.00660692  1
  O2-  O141  1  0.37246415  0.62628683  0.49565439  1
  O2-  O142  1  0.37529021  0.87546809  0.00735349  1
  O2-  O143  1  0.37331376  0.87360781  0.50734313  1
  O2-  O144  1  0.62606127  0.12686236  -0.00437892  1
  O2-  O145  1  0.62361501  0.12543350  0.49742509  1
  O2-  O146  1  0.62732922  0.37466964  0.02058865  1
  O2-  O147  1  0.62298845  0.37550703  0.50767218  1
  O2-  O148  1  0.62538382  0.62457716  0.01711497  1
  O2-  O149  1  0.62370745  0.62462990  0.50894703  1
  O2-  O150  1  0.62567283  0.87521536  0.02023415  1
  O2-  O151  1  0.62411380  0.87522761  0.51776016  1
  O2-  O152  1  0.87376301  0.12754932  -0.00521387  1
  O2-  O153  1  0.87602251  0.12391527  0.50633078  1
  O2-  O154  1  0.87430200  0.37324071  -0.00565615  1
  O2-  O155  1  0.87690915  0.37652949  0.50582331  1
  O2-  O156  1  0.87444190  0.62270420  -0.00516872  1
  O2-  O157  1  0.87660521  0.62615784  0.49673250  1
  O2-  O158  1  0.87440414  0.87587188  0.00760819  1
  O2-  O159  1  0.87573547  0.87406360  0.50729424  1
  O2-  O160  1  0.12533252  -0.00066846  0.16007855  1
  O2-  O161  1  0.12537597  -0.00045839  0.66481813  1
  O2-  O162  1  0.12426542  0.25116688  0.16438143  1
  O2-  O163  1  0.12520777  0.25174117  0.65992122  1
  O2-  O164  1  0.12399675  0.49805521  0.16485020  1
  O2-  O165  1  0.12565906  0.49824521  0.66541576  1
  O2-  O166  1  0.12469214  0.75184475  0.16118114  1
  O2-  O167  1  0.12535750  0.74922148  0.67011974  1
  O2-  O168  1  0.37565737  0.00113446  0.16484914  1
  O2-  O169  1  0.37388307  -0.00417980  0.66335406  1
  O2-  O170  1  0.37553901  0.24904326  0.16415050  1
  O2-  O171  1  0.37422633  0.24993549  0.66232005  1
  O2-  O172  1  0.37526488  0.50371810  0.16458632  1
  O2-  O173  1  0.37449107  0.50096352  0.66600518  1
  O2-  O174  1  0.37546700  0.74644221  0.16479843  1
  O2-  O175  1  0.37375016  0.75202746  0.66721246  1
  O2-  O176  1  0.62485392  0.00079581  0.16565644  1
  O2-  O177  1  0.62415315  -0.00045008  0.66642460  1
  O2-  O178  1  0.62578972  0.24945156  0.16771458  1
  O2-  O179  1  0.62463464  0.25077777  0.65942012  1
  O2-  O180  1  0.62595673  0.50069906  0.17050409  1
  O2-  O181  1  0.62413891  0.49720742  0.66438908  1
  O2-  O182  1  0.62525369  0.74974568  0.17054953  1
  O2-  O183  1  0.62429582  0.75225199  0.66897755  1
  O2-  O184  1  0.87430892  0.00115605  0.16556535  1
  O2-  O185  1  0.87547449  -0.00052962  0.66499123  1
  O2-  O186  1  0.87461071  0.24943832  0.16706928  1
  O2-  O187  1  0.87570552  0.25367048  0.65891216  1
  O2-  O188  1  0.87476327  0.50052832  0.16611177  1
  O2-  O189  1  0.87540920  0.49795806  0.66120077  1
  O2-  O190  1  0.87456281  0.74921762  0.16553948  1
  O2-  O191  1  0.87554681  0.74868056  0.66647280  1
  O2-  O192  1  -0.00140473  0.12569502  0.16376304  1
  O2-  O193  1  0.00138293  0.12518183  0.66231988  1
  O2-  O194  1  0.00024322  0.37486743  0.16491237  1
  O2-  O195  1  0.00083444  0.37569249  0.65957442  1
  O2-  O196  1  -0.00192100  0.62453781  0.16341804  1
  O2-  O197  1  0.00066288  0.62382328  0.66371894  1
  O2-  O198  1  0.00166336  0.87534562  0.16236797  1
  O2-  O199  1  0.00119764  0.87437769  0.66407712  1
  O2-  O200  1  0.25116399  0.12545548  0.16134284  1
  O2-  O201  1  0.24881761  0.12461176  0.66609634  1
  O2-  O202  1  0.24749980  0.37532598  0.16059059  1
  O2-  O203  1  0.24845148  0.37547098  0.66488080  1
  O2-  O204  1  0.25222742  0.62480147  0.15881634  1
  O2-  O205  1  0.24917883  0.62466024  0.67060038  1
  O2-  O206  1  0.24758790  0.87489286  0.16163317  1
  O2-  O207  1  0.25098457  0.87388508  0.66472386  1
  O2-  O208  1  0.50025580  0.12515761  0.16568795  1
  O2-  O209  1  0.50055341  0.12436423  0.66457554  1
  O2-  O210  1  0.50254978  0.37513112  0.17041408  1
  O2-  O211  1  0.50084596  0.37493982  0.66284811  1
  O2-  O212  1  0.50083321  0.62500024  0.16807969  1
  O2-  O213  1  0.49799784  0.62531011  0.66714446  1
  O2-  O214  1  0.50239157  0.87520601  0.17160472  1
  O2-  O215  1  0.49846769  0.87441233  0.66584743  1
  O2-  O216  1  0.75009352  0.12568363  0.16692362  1
  O2-  O217  1  0.74876412  0.12519524  0.66237346  1
  O2-  O218  1  0.74956897  0.37459394  0.17259723  1
  O2-  O219  1  0.74983546  0.37510516  0.65790397  1
  O2-  O220  1  0.74885061  0.62462955  0.16865692  1
  O2-  O221  1  0.75148229  0.62458501  0.66407919  1
  O2-  O222  1  0.74827072  0.87569832  0.17049120  1
  O2-  O223  1  0.74854663  0.87487625  0.66671778  1
  O2-  O224  1  0.12597242  -0.00051712  0.34182296  1
  O2-  O225  1  0.12469792  -0.00003444  0.84887507  1
  O2-  O226  1  0.12497785  0.25156233  0.34800267  1
  O2-  O227  1  0.12436607  0.25112389  0.84349820  1
  O2-  O228  1  0.12550889  0.49884711  0.35020817  1
  O2-  O229  1  0.12435171  0.49857719  0.84745387  1
  O2-  O230  1  0.12642757  0.75043596  0.34465947  1
  O2-  O231  1  0.12546748  0.74992302  0.85272147  1
  O2-  O232  1  0.37451772  -0.00325652  0.34894558  1
  O2-  O233  1  0.37419715  0.00241169  0.84501019  1
  O2-  O234  1  0.37390679  0.25219289  0.34670266  1
  O2-  O235  1  0.37464005  0.24753734  0.84452771  1
  O2-  O236  1  0.37386261  0.49968282  0.34499906  1
  O2-  O237  1  0.37567872  0.50228014  0.85061242  1
  O2-  O238  1  0.37415247  0.75157033  0.34710301  1
  O2-  O239  1  0.37495308  0.74714858  0.85134968  1
  O2-  O240  1  0.62426651  0.00050848  0.34843794  1
  O2-  O241  1  0.62502554  0.00055933  0.84763746  1
  O2-  O242  1  0.62500847  0.25200143  0.34946274  1
  O2-  O243  1  0.62548269  0.24857686  0.84179791  1
  O2-  O244  1  0.62507595  0.49669332  0.35078534  1
  O2-  O245  1  0.62569781  0.49821668  0.84925615  1
  O2-  O246  1  0.62430696  0.75144797  0.35186610  1
  O2-  O247  1  0.62498293  0.75240429  0.85213149  1
  O2-  O248  1  0.87546102  -0.00041487  0.34896667  1
  O2-  O249  1  0.87579467  0.00221851  0.84688891  1
  O2-  O250  1  0.87634687  0.25328953  0.35101714  1
  O2-  O251  1  0.87545292  0.24946282  0.83891110  1
  O2-  O252  1  0.87604721  0.49898202  0.34918426  1
  O2-  O253  1  0.87470013  0.49921302  0.84241030  1
  O2-  O254  1  0.87577701  0.74885381  0.34739995  1
  O2-  O255  1  0.87478082  0.74860797  0.84909661  1
  O2-  O256  1  0.00225912  0.12542880  0.34613719  1
  O2-  O257  1  0.00006123  0.12586627  0.84311914  1
  O2-  O258  1  0.00088373  0.37625804  0.35097841  1
  O2-  O259  1  0.00078547  0.37476379  0.84232596  1
  O2-  O260  1  0.00027821  0.62437854  0.34710173  1
  O2-  O261  1  0.00002248  0.62415777  0.84306762  1
  O2-  O262  1  0.00215129  0.87446962  0.34488745  1
  O2-  O263  1  0.00302713  0.87492247  0.84748113  1
  O2-  O264  1  0.24840330  0.12535763  0.34345145  1
  O2-  O265  1  0.24908199  0.12555770  0.84699270  1
  O2-  O266  1  0.24865780  0.37587056  0.34426720  1
  O2-  O267  1  0.24588732  0.37514625  0.84994411  1
  O2-  O268  1  0.25112909  0.62500006  0.34216653  1
  O2-  O269  1  0.25028112  0.62370335  0.85283330  1
  O2-  O270  1  0.25131329  0.87427934  0.34494006  1
  O2-  O271  1  0.24602666  0.87470814  0.84900651  1
  O2-  O272  1  0.50090470  0.12542183  0.34833378  1
  O2-  O273  1  0.50037161  0.12509099  0.84566279  1
  O2-  O274  1  0.50029749  0.37542095  0.35083392  1
  O2-  O275  1  0.50250075  0.37445486  0.84783199  1
  O2-  O276  1  0.49770892  0.62498398  0.34829757  1
  O2-  O277  1  0.49997766  0.62466058  0.85152164  1
  O2-  O278  1  0.49792708  0.87461374  0.35440633  1
  O2-  O279  1  0.50206018  0.87540820  0.84921828  1
  O2-  O280  1  0.74861450  0.12579430  0.35020630  1
  O2-  O281  1  0.75050537  0.12531842  0.84310370  1
  O2-  O282  1  0.75030328  0.37518235  0.35593348  1
  O2-  O283  1  0.75128927  0.37445711  0.84155848  1
  O2-  O284  1  0.75135663  0.62453445  0.35006603  1
  O2-  O285  1  0.75006668  0.62437609  0.84688210  1
  O2-  O286  1  0.74892040  0.87512830  0.35272226  1
  O2-  O287  1  0.74872469  0.87554560  0.84932648  1
