# generated using pymatgen
data_BaYFeCuO5
_symmetry_space_group_name_H-M   'P 1'
_cell_length_a   15.67264098
_cell_length_b   15.67548652
_cell_length_c   15.50709331
_cell_angle_alpha   89.99218318
_cell_angle_beta   90.00138821
_cell_angle_gamma   90.00783434
_symmetry_Int_Tables_number   1
_chemical_formula_structural   BaYFeCuO5
_chemical_formula_sum   'Ba32 Y32 Fe32 Cu32 O160'
_cell_volume   3809.72481008
_cell_formula_units_Z   32
loop_
 _symmetry_equiv_pos_site_id
 _symmetry_equiv_pos_as_xyz
  1  'x, y, z'
loop_
 _atom_type_symbol
 _atom_type_oxidation_number
  Ba2+  2.0
  Y3+  3.0
  Fe3+  3.0
  Cu2+  2.0
  O2-  -2.0
loop_
 _atom_site_type_symbol
 _atom_site_label
 _atom_site_symmetry_multiplicity
 _atom_site_fract_x
 _atom_site_fract_y
 _atom_site_fract_z
 _atom_site_occupancy
  Ba2+  Ba0  1  -0.00246089  0.00368065  0.01038577  1
  Ba2+  Ba1  1  0.00160789  0.00185961  0.52219334  1
  Ba2+  Ba2  1  0.00850118  0.25045894  0.00682647  1
  Ba2+  Ba3  1  0.00634661  0.24260447  0.51620272  1
  Ba2+  Ba4  1  0.00539755  0.50301603  0.00103869  1
  Ba2+  Ba5  1  0.01048248  0.50029321  0.51927262  1
  Ba2+  Ba6  1  -0.00502554  0.74336545  0.00666237  1
  Ba2+  Ba7  1  0.00384280  0.75661960  0.52415808  1
  Ba2+  Ba8  1  0.25777710  0.00481153  0.01101786  1
  Ba2+  Ba9  1  0.24326141  0.00551200  0.51659368  1
  Ba2+  Ba10  1  0.25152978  0.25087104  0.01729573  1
  Ba2+  Ba11  1  0.24752933  0.24753636  0.51232861  1
  Ba2+  Ba12  1  0.25127153  0.49848154  0.00656034  1
  Ba2+  Ba13  1  0.25193547  0.49952621  0.50526886  1
  Ba2+  Ba14  1  0.25751729  0.74527918  0.00274922  1
  Ba2+  Ba15  1  0.24544172  0.74666622  0.51368194  1
  Ba2+  Ba16  1  0.49216201  0.00418263  0.01086548  1
  Ba2+  Ba17  1  0.50396114  0.00434418  0.51278606  1
  Ba2+  Ba18  1  0.49752408  0.24894179  0.02067350  1
  Ba2+  Ba19  1  0.49940261  0.24984158  0.51677971  1
  Ba2+  Ba20  1  0.49747517  0.50065033  0.02177678  1
  Ba2+  Ba21  1  0.49737930  0.49996100  0.49526369  1
  Ba2+  Ba22  1  0.49214747  0.74565501  0.01195878  1
  Ba2+  Ba23  1  0.50321453  0.74597711  0.48929805  1
  Ba2+  Ba24  1  0.75234804  0.00389740  0.01080102  1
  Ba2+  Ba25  1  0.75187545  -0.00021585  0.51870904  1
  Ba2+  Ba26  1  0.74421365  0.24750862  0.01205941  1
  Ba2+  Ba27  1  0.74542293  0.24414544  0.52195696  1
  Ba2+  Ba28  1  0.74713223  0.50470278  0.01812336  1
  Ba2+  Ba29  1  0.74038700  0.50008630  0.50706169  1
  Ba2+  Ba30  1  0.75483732  0.74419838  0.01681813  1
  Ba2+  Ba31  1  0.74565369  0.75518380  0.49903527  1
  Y3+  Y32  1  0.00166730  0.00161702  0.25546047  1
  Y3+  Y33  1  0.00023770  0.00119534  0.75703006  1
  Y3+  Y34  1  0.00425314  0.24967176  0.25586522  1
  Y3+  Y35  1  0.00219008  0.24962053  0.75799846  1
  Y3+  Y36  1  0.00079834  0.49922302  0.25347341  1
  Y3+  Y37  1  0.00295709  0.50018012  0.76136116  1
  Y3+  Y38  1  -0.00214571  0.75030391  0.25287168  1
  Y3+  Y39  1  0.00092770  0.74834898  0.76092382  1
  Y3+  Y40  1  0.25012561  0.00246311  0.25462400  1
  Y3+  Y41  1  0.25185427  0.00138832  0.75902303  1
  Y3+  Y42  1  0.24949760  0.24966925  0.25618067  1
  Y3+  Y43  1  0.24927189  0.24899869  0.75792884  1
  Y3+  Y44  1  0.25233965  0.49836443  0.25561915  1
  Y3+  Y45  1  0.24815568  0.50004739  0.76014986  1
  Y3+  Y46  1  0.25314798  0.75034748  0.25502017  1
  Y3+  Y47  1  0.25079737  0.74888497  0.76172511  1
  Y3+  Y48  1  0.49806049  0.00021823  0.25357635  1
  Y3+  Y49  1  0.49653013  0.00104136  0.76014724  1
  Y3+  Y50  1  0.49731424  0.25047546  0.25530420  1
  Y3+  Y51  1  0.49878077  0.24787716  0.75638234  1
  Y3+  Y52  1  0.49779675  0.50097099  0.25692150  1
  Y3+  Y53  1  0.49896430  0.49966465  0.75815714  1
  Y3+  Y54  1  0.49864574  0.74889076  0.25385283  1
  Y3+  Y55  1  0.49653299  0.75037615  0.76321320  1
  Y3+  Y56  1  0.74983429  -0.00115007  0.25499456  1
  Y3+  Y57  1  0.75140404  0.00113339  0.75783342  1
  Y3+  Y58  1  0.74873492  0.25054803  0.25489808  1
  Y3+  Y59  1  0.74994357  0.24877148  0.75711042  1
  Y3+  Y60  1  0.74898203  0.50162385  0.25654751  1
  Y3+  Y61  1  0.75038427  0.50003950  0.75777127  1
  Y3+  Y62  1  0.75015134  0.74923396  0.25517413  1
  Y3+  Y63  1  0.75208087  0.74958932  0.75916974  1
  Fe3+  Fe64  1  0.12458879  0.87549814  0.37516545  1
  Fe3+  Fe65  1  0.37562981  0.37385921  0.87762336  1
  Fe3+  Fe66  1  0.12507877  0.37470754  0.37637462  1
  Fe3+  Fe67  1  0.62533229  0.12418603  0.37391952  1
  Fe3+  Fe68  1  0.12568651  0.87521450  0.87993453  1
  Fe3+  Fe69  1  0.62460332  0.37306112  0.37523900  1
  Fe3+  Fe70  1  0.87613391  0.87623292  0.37596834  1
  Fe3+  Fe71  1  0.87560243  0.37423741  0.38093103  1
  Fe3+  Fe72  1  0.87442977  0.37435433  0.87932555  1
  Fe3+  Fe73  1  0.12599424  0.12490269  0.87716667  1
  Fe3+  Fe74  1  0.12416559  0.62652174  0.37553572  1
  Fe3+  Fe75  1  0.87666281  0.62474897  0.38061924  1
  Fe3+  Fe76  1  0.62403508  0.37508309  0.87756045  1
  Fe3+  Fe77  1  0.87469789  0.87531587  0.87760581  1
  Fe3+  Fe78  1  0.62428656  0.12510818  0.87676931  1
  Fe3+  Fe79  1  0.62453243  0.87486199  0.88207375  1
  Fe3+  Fe80  1  0.37422857  0.12524838  0.37724731  1
  Fe3+  Fe81  1  0.37434973  0.87619606  0.37971880  1
  Fe3+  Fe82  1  0.87539111  0.12534704  0.37710807  1
  Fe3+  Fe83  1  0.62469745  0.62448529  0.87899511  1
  Fe3+  Fe84  1  0.37551812  0.62540821  0.63829287  1
  Fe3+  Fe85  1  0.12550793  0.87489290  0.13243054  1
  Fe3+  Fe86  1  0.37461317  0.37569770  0.63715470  1
  Fe3+  Fe87  1  0.62321869  0.62615979  0.63828843  1
  Fe3+  Fe88  1  0.87462998  0.62536168  0.63454359  1
  Fe3+  Fe89  1  0.62360814  0.87319411  0.64009152  1
  Fe3+  Fe90  1  0.12610954  0.62495131  0.13675378  1
  Fe3+  Fe91  1  0.62456330  0.87508845  0.13453023  1
  Fe3+  Fe92  1  0.87584796  0.37528238  0.13391329  1
  Fe3+  Fe93  1  0.87530783  0.37533482  0.63463426  1
  Fe3+  Fe94  1  0.37505858  0.87429617  0.63498310  1
  Fe3+  Fe95  1  0.87552739  0.12646411  0.13632061  1
  Cu2+  Cu96  1  0.37492309  0.12681411  0.87159410  1
  Cu2+  Cu97  1  0.87522306  0.12599054  0.86440755  1
  Cu2+  Cu98  1  0.37452707  0.37402384  0.36397458  1
  Cu2+  Cu99  1  0.12625478  0.37410836  0.87354050  1
  Cu2+  Cu100  1  0.12479426  0.12420745  0.37086825  1
  Cu2+  Cu101  1  0.37357339  0.62558308  0.36232140  1
  Cu2+  Cu102  1  0.37486782  0.87575437  0.87460268  1
  Cu2+  Cu103  1  0.12572698  0.62523103  0.86513878  1
  Cu2+  Cu104  1  0.62460789  0.87633923  0.35850625  1
  Cu2+  Cu105  1  0.87366994  0.62349940  0.87232830  1
  Cu2+  Cu106  1  0.62558957  0.62483649  0.35889023  1
  Cu2+  Cu107  1  0.37603025  0.62248702  0.87289344  1
  Cu2+  Cu108  1  0.37413157  0.87507984  0.14169922  1
  Cu2+  Cu109  1  0.37462291  0.12556898  0.14323124  1
  Cu2+  Cu110  1  0.12505752  0.12501653  0.14820046  1
  Cu2+  Cu111  1  0.87543257  0.87550267  0.14695705  1
  Cu2+  Cu112  1  0.62431699  0.37578641  0.65067115  1
  Cu2+  Cu113  1  0.12585635  0.62493690  0.65599668  1
  Cu2+  Cu114  1  0.12554029  0.37583258  0.14036201  1
  Cu2+  Cu115  1  0.87531911  0.12538762  0.65313151  1
  Cu2+  Cu116  1  0.37467618  0.12457700  0.64910566  1
  Cu2+  Cu117  1  0.62499181  0.12463404  0.14974830  1
  Cu2+  Cu118  1  0.62486782  0.37535970  0.15091927  1
  Cu2+  Cu119  1  0.62428483  0.62545811  0.15271488  1
  Cu2+  Cu120  1  0.37364055  0.62456016  0.14374923  1
  Cu2+  Cu121  1  0.87608818  0.62351855  0.14261186  1
  Cu2+  Cu122  1  0.87487268  0.87427005  0.65358232  1
  Cu2+  Cu123  1  0.37469117  0.37505266  0.15136768  1
  Cu2+  Cu124  1  0.62428721  0.12362078  0.65513847  1
  Cu2+  Cu125  1  0.12580887  0.37509733  0.65277825  1
  Cu2+  Cu126  1  0.12565873  0.12511134  0.64635983  1
  Cu2+  Cu127  1  0.12628345  0.87491682  0.65691055  1
  O2-  O128  1  0.12549895  0.12460710  -0.00242543  1
  O2-  O129  1  0.12449490  0.12396336  0.50664802  1
  O2-  O130  1  0.12533163  0.37521251  0.00686374  1
  O2-  O131  1  0.12426609  0.37491400  0.49669222  1
  O2-  O132  1  0.12607488  0.62506087  0.01635609  1
  O2-  O133  1  0.12271303  0.62767260  0.49570554  1
  O2-  O134  1  0.12562542  0.87508096  0.00583115  1
  O2-  O135  1  0.12345851  0.87531436  0.49517125  1
  O2-  O136  1  0.37547838  0.12755293  0.00735960  1
  O2-  O137  1  0.37542576  0.12400853  0.49753623  1
  O2-  O138  1  0.37683193  0.37427478  -0.00195267  1
  O2-  O139  1  0.37526209  0.37649939  0.51679228  1
  O2-  O140  1  0.37530025  0.62234567  0.00851475  1
  O2-  O141  1  0.37598439  0.62628694  0.51815877  1
  O2-  O142  1  0.37502095  0.87512405  0.00731972  1
  O2-  O143  1  0.37553181  0.87447087  0.50733886  1
  O2-  O144  1  0.62470104  0.12576413  -0.00311526  1
  O2-  O145  1  0.62656884  0.12344983  0.49413946  1
  O2-  O146  1  0.62480712  0.37558167  -0.00289865  1
  O2-  O147  1  0.62575206  0.37232342  0.49552746  1
  O2-  O148  1  0.62561478  0.62371695  -0.00083402  1
  O2-  O149  1  0.62379026  0.62734398  0.51812210  1
  O2-  O150  1  0.62528136  0.87480437  0.00740818  1
  O2-  O151  1  0.62364726  0.87343018  0.51992360  1
  O2-  O152  1  0.87481327  0.12760519  0.01587290  1
  O2-  O153  1  0.87410382  0.12395328  0.49703021  1
  O2-  O154  1  0.87395750  0.37511062  0.00657909  1
  O2-  O155  1  0.87543211  0.37469784  0.50633687  1
  O2-  O156  1  0.87414726  0.62270405  0.00685891  1
  O2-  O157  1  0.87624874  0.62595442  0.50684725  1
  O2-  O158  1  0.87385020  0.87538059  -0.00237143  1
  O2-  O159  1  0.87616445  0.87594733  0.49582972  1
  O2-  O160  1  0.12412118  -0.00114063  0.15964295  1
  O2-  O161  1  0.12496804  -0.00127836  0.66691660  1
  O2-  O162  1  0.12510954  0.24908450  0.16347551  1
  O2-  O163  1  0.12440696  0.25121825  0.66473669  1
  O2-  O164  1  0.12480437  0.50153017  0.16717899  1
  O2-  O165  1  0.12453459  0.49989079  0.66550888  1
  O2-  O166  1  0.12418894  0.75124188  0.16311646  1
  O2-  O167  1  0.12508528  0.75029989  0.66828613  1
  O2-  O168  1  0.37483324  0.00036621  0.16418440  1
  O2-  O169  1  0.37514743  -0.00179896  0.66347861  1
  O2-  O170  1  0.37484024  0.25139483  0.16468305  1
  O2-  O171  1  0.37536203  0.25002452  0.66310045  1
  O2-  O172  1  0.37519117  0.49836341  0.16704176  1
  O2-  O173  1  0.37469765  0.50067414  0.66757700  1
  O2-  O174  1  0.37494589  0.75035133  0.16593277  1
  O2-  O175  1  0.37413121  0.75102439  0.66927205  1
  O2-  O176  1  0.62569398  -0.00151412  0.16011952  1
  O2-  O177  1  0.62472199  -0.00168731  0.66797112  1
  O2-  O178  1  0.62581152  0.25001435  0.16199569  1
  O2-  O179  1  0.62541732  0.24900109  0.66217693  1
  O2-  O180  1  0.62552925  0.50047800  0.16623071  1
  O2-  O181  1  0.62594407  0.50204101  0.66550698  1
  O2-  O182  1  0.62560721  0.75154780  0.16329911  1
  O2-  O183  1  0.62516495  0.74956508  0.67426991  1
  O2-  O184  1  0.87514984  0.00138130  0.16236303  1
  O2-  O185  1  0.87511539  -0.00012523  0.66477209  1
  O2-  O186  1  0.87437858  0.25177221  0.16567286  1
  O2-  O187  1  0.87479428  0.25202412  0.66249290  1
  O2-  O188  1  0.87442582  0.49645530  0.16832406  1
  O2-  O189  1  0.87480604  0.50047830  0.66096659  1
  O2-  O190  1  0.87472546  0.75101817  0.16488958  1
  O2-  O191  1  0.87560708  0.74736725  0.66494507  1
  O2-  O192  1  -0.00047266  0.12601393  0.16431676  1
  O2-  O193  1  -0.00049421  0.12510150  0.66659168  1
  O2-  O194  1  -0.00251516  0.37466301  0.16265618  1
  O2-  O195  1  -0.00149319  0.37584085  0.66513566  1
  O2-  O196  1  0.00212134  0.62487275  0.16564607  1
  O2-  O197  1  -0.00112457  0.62464255  0.66440981  1
  O2-  O198  1  0.00175433  0.87494625  0.15952756  1
  O2-  O199  1  0.00025641  0.87440173  0.66620542  1
  O2-  O200  1  0.24841038  0.12507486  0.16505028  1
  O2-  O201  1  0.25075488  0.12454346  0.66566519  1
  O2-  O202  1  0.25125198  0.37499880  0.16510425  1
  O2-  O203  1  0.25044397  0.37489791  0.66581435  1
  O2-  O204  1  0.24820851  0.62555123  0.16844447  1
  O2-  O205  1  0.25062050  0.62563436  0.66625993  1
  O2-  O206  1  0.24639966  0.87539611  0.16585090  1
  O2-  O207  1  0.25219492  0.87463128  0.66299449  1
  O2-  O208  1  0.50145288  0.12501316  0.16517010  1
  O2-  O209  1  0.49993380  0.12386602  0.66393823  1
  O2-  O210  1  0.50003838  0.37512901  0.16456617  1
  O2-  O211  1  0.49963671  0.37500473  0.66521142  1
  O2-  O212  1  0.50028530  0.62523882  0.16528817  1
  O2-  O213  1  0.49933381  0.62585327  0.67059438  1
  O2-  O214  1  0.50276067  0.87497793  0.16517367  1
  O2-  O215  1  0.49796488  0.87470899  0.66837757  1
  O2-  O216  1  0.75069302  0.12558859  0.16349168  1
  O2-  O217  1  0.74993649  0.12446790  0.66473508  1
  O2-  O218  1  0.75147147  0.37552924  0.16264975  1
  O2-  O219  1  0.75129531  0.37553104  0.66278710  1
  O2-  O220  1  0.74921473  0.62471307  0.16700513  1
  O2-  O221  1  0.75103785  0.62510582  0.66338361  1
  O2-  O222  1  0.74861537  0.87473921  0.16224445  1
  O2-  O223  1  0.74943442  0.87454334  0.66671845  1
  O2-  O224  1  0.12497697  -0.00249202  0.34190977  1
  O2-  O225  1  0.12460751  -0.00095153  0.84918925  1
  O2-  O226  1  0.12441046  0.25205982  0.34606782  1
  O2-  O227  1  0.12444333  0.24777478  0.84654365  1
  O2-  O228  1  0.12407266  0.50044506  0.34743594  1
  O2-  O229  1  0.12472956  0.50132797  0.84991185  1
  O2-  O230  1  0.12442096  0.75060505  0.34264304  1
  O2-  O231  1  0.12458722  0.75123119  0.85282995  1
  O2-  O232  1  0.37491832  -0.00107164  0.34648452  1
  O2-  O233  1  0.37496497  0.00094862  0.84848758  1
  O2-  O234  1  0.37503790  0.24878850  0.34694248  1
  O2-  O235  1  0.37535913  0.25167085  0.84440959  1
  O2-  O236  1  0.37461320  0.50057587  0.35158506  1
  O2-  O237  1  0.37557886  0.49736860  0.84694634  1
  O2-  O238  1  0.37549893  0.75229990  0.34941462  1
  O2-  O239  1  0.37520854  0.74906356  0.85216596  1
  O2-  O240  1  0.62515665  0.00109928  0.34215302  1
  O2-  O241  1  0.62605050  -0.00099358  0.85036092  1
  O2-  O242  1  0.62524010  0.24936999  0.34276607  1
  O2-  O243  1  0.62601484  0.25016456  0.84457298  1
  O2-  O244  1  0.62584181  0.49898774  0.34992202  1
  O2-  O245  1  0.62580437  0.49929500  0.84507799  1
  O2-  O246  1  0.62545808  0.75034727  0.34857141  1
  O2-  O247  1  0.62528092  0.75117019  0.85298972  1
  O2-  O248  1  0.87465090  0.00029144  0.34299754  1
  O2-  O249  1  0.87485786  -0.00075140  0.84833039  1
  O2-  O250  1  0.87496393  0.25179380  0.34771279  1
  O2-  O251  1  0.87463439  0.25246553  0.84720397  1
  O2-  O252  1  0.87461506  0.49973357  0.35288076  1
  O2-  O253  1  0.87463979  0.49608598  0.84560498  1
  O2-  O254  1  0.87451209  0.74881146  0.34824898  1
  O2-  O255  1  0.87508766  0.75171832  0.84776434  1
  O2-  O256  1  -0.00196386  0.12542096  0.34498677  1
  O2-  O257  1  0.00045047  0.12506188  0.84908508  1
  O2-  O258  1  -0.00160016  0.37574944  0.34523019  1
  O2-  O259  1  -0.00203626  0.37498762  0.85138212  1
  O2-  O260  1  -0.00174696  0.62483712  0.34513478  1
  O2-  O261  1  0.00093362  0.62428234  0.84955576  1
  O2-  O262  1  -0.00072412  0.87471793  0.34053955  1
  O2-  O263  1  0.00126629  0.87485855  0.85017013  1
  O2-  O264  1  0.25139839  0.12449866  0.34721555  1
  O2-  O265  1  0.24864870  0.12445433  0.84727120  1
  O2-  O266  1  0.24955245  0.37560544  0.34822295  1
  O2-  O267  1  0.25169486  0.37508959  0.84787600  1
  O2-  O268  1  0.24875999  0.62593402  0.34944297  1
  O2-  O269  1  0.24964070  0.62476215  0.84961245  1
  O2-  O270  1  0.25131286  0.87457887  0.34858087  1
  O2-  O271  1  0.24695287  0.87472856  0.84797839  1
  O2-  O272  1  0.49961760  0.12427382  0.34622440  1
  O2-  O273  1  0.50168365  0.12467322  0.84632705  1
  O2-  O274  1  0.50009360  0.37545463  0.34813888  1
  O2-  O275  1  0.50076153  0.37434759  0.84457211  1
  O2-  O276  1  0.49959004  0.62550933  0.34978922  1
  O2-  O277  1  0.50235989  0.62487394  0.84824554  1
  O2-  O278  1  0.49836253  0.87528246  0.35028597  1
  O2-  O279  1  0.50330036  0.87553741  0.85015940  1
  O2-  O280  1  0.75063762  0.12550837  0.34286604  1
  O2-  O281  1  0.74954850  0.12532116  0.84784352  1
  O2-  O282  1  0.75168559  0.37528553  0.34637852  1
  O2-  O283  1  0.75021493  0.37453038  0.84680284  1
  O2-  O284  1  0.75270146  0.62502972  0.35144171  1
  O2-  O285  1  0.74731674  0.62465142  0.84415563  1
  O2-  O286  1  0.75073253  0.87464083  0.34592694  1
  O2-  O287  1  0.74859086  0.87510175  0.84849663  1
