# generated using pymatgen
data_BaYFeCuO5
_symmetry_space_group_name_H-M   'P 1'
_cell_length_a   15.65568196
_cell_length_b   15.65386928
_cell_length_c   15.45199560
_cell_angle_alpha   89.99355359
_cell_angle_beta   90.00010583
_cell_angle_gamma   89.99731365
_symmetry_Int_Tables_number   1
_chemical_formula_structural   BaYFeCuO5
_chemical_formula_sum   'Ba32 Y32 Fe32 Cu32 O160'
_cell_volume   3786.85142199
_cell_formula_units_Z   32
loop_
 _symmetry_equiv_pos_site_id
 _symmetry_equiv_pos_as_xyz
  1  'x, y, z'
loop_
 _atom_type_symbol
 _atom_type_oxidation_number
  Ba2+  2.0
  Y3+  3.0
  Fe3+  3.0
  Cu2+  2.0
  O2-  -2.0
loop_
 _atom_site_type_symbol
 _atom_site_label
 _atom_site_symmetry_multiplicity
 _atom_site_fract_x
 _atom_site_fract_y
 _atom_site_fract_z
 _atom_site_occupancy
  Ba2+  Ba0  1  -0.00861473  0.00195765  0.00587218  1
  Ba2+  Ba1  1  -0.00240758  -0.00570035  0.51540160  1
  Ba2+  Ba2  1  -0.00292160  0.25287050  0.01370361  1
  Ba2+  Ba3  1  -0.00576073  0.24700256  0.51609710  1
  Ba2+  Ba4  1  -0.00054335  0.49942673  0.01660352  1
  Ba2+  Ba5  1  -0.00582090  0.50394538  0.51579669  1
  Ba2+  Ba6  1  -0.00551001  0.74536015  0.01172111  1
  Ba2+  Ba7  1  -0.00200623  0.75441530  0.51537936  1
  Ba2+  Ba8  1  0.24356023  0.00620516  0.01222702  1
  Ba2+  Ba9  1  0.23819439  -0.00329543  0.51111234  1
  Ba2+  Ba10  1  0.24329625  0.25497405  0.01383338  1
  Ba2+  Ba11  1  0.25135678  0.25297992  0.51084656  1
  Ba2+  Ba12  1  0.24084161  0.49800562  0.00688345  1
  Ba2+  Ba13  1  0.25504022  0.50399417  0.51725196  1
  Ba2+  Ba14  1  0.24237945  0.74292077  0.00653678  1
  Ba2+  Ba15  1  0.24229203  0.74755606  0.51734013  1
  Ba2+  Ba16  1  0.51369769  0.00108810  0.00776141  1
  Ba2+  Ba17  1  0.51051737  -0.00121117  0.50685585  1
  Ba2+  Ba18  1  0.50384169  0.24646588  0.00219772  1
  Ba2+  Ba19  1  0.49880769  0.25330042  0.50168904  1
  Ba2+  Ba20  1  0.50027831  0.49918059  0.00657812  1
  Ba2+  Ba21  1  0.49544110  0.50339997  0.51759531  1
  Ba2+  Ba22  1  0.51179405  0.75196872  0.01075016  1
  Ba2+  Ba23  1  0.50560970  0.74503047  0.52354371  1
  Ba2+  Ba24  1  0.74949480  -0.00214513  0.00200233  1
  Ba2+  Ba25  1  0.75485237  -0.00414074  0.51212225  1
  Ba2+  Ba26  1  0.75546290  0.24526641  0.00104100  1
  Ba2+  Ba27  1  0.75632850  0.24791177  0.50636839  1
  Ba2+  Ba28  1  0.75734541  0.50194154  0.01687471  1
  Ba2+  Ba29  1  0.75553172  0.50363968  0.51618997  1
  Ba2+  Ba30  1  0.75207729  0.75475847  0.01484066  1
  Ba2+  Ba31  1  0.75297103  0.75175682  0.52132369  1
  Y3+  Y32  1  -0.00153431  -0.00330333  0.25925054  1
  Y3+  Y33  1  -0.00307081  -0.00116853  0.75508584  1
  Y3+  Y34  1  -0.00133262  0.25253223  0.25801122  1
  Y3+  Y35  1  -0.00431153  0.24973975  0.75587396  1
  Y3+  Y36  1  -0.00160882  0.49958047  0.25485467  1
  Y3+  Y37  1  -0.00151926  0.50064673  0.75752186  1
  Y3+  Y38  1  -0.00166395  0.75148665  0.25636111  1
  Y3+  Y39  1  -0.00085838  0.75072072  0.75697706  1
  Y3+  Y40  1  0.24784623  -0.00106224  0.25917281  1
  Y3+  Y41  1  0.24721399  -0.00032379  0.75519509  1
  Y3+  Y42  1  0.24928692  0.25144993  0.26007873  1
  Y3+  Y43  1  0.25093473  0.25174557  0.75500118  1
  Y3+  Y44  1  0.24861618  0.49995225  0.25655072  1
  Y3+  Y45  1  0.25041771  0.50018942  0.75754955  1
  Y3+  Y46  1  0.24666816  0.75002608  0.25612871  1
  Y3+  Y47  1  0.24654802  0.74818286  0.75759128  1
  Y3+  Y48  1  0.50428008  0.00085811  0.25525190  1
  Y3+  Y49  1  0.50396728  -0.00026839  0.76114819  1
  Y3+  Y50  1  0.50166182  0.24932321  0.25927675  1
  Y3+  Y51  1  0.49947652  0.25113652  0.75835080  1
  Y3+  Y52  1  0.50041258  0.49926901  0.25768811  1
  Y3+  Y53  1  0.49796988  0.49901135  0.75664161  1
  Y3+  Y54  1  0.50324919  0.75059762  0.25259049  1
  Y3+  Y55  1  0.50251042  0.75030514  0.75930570  1
  Y3+  Y56  1  0.74961056  -0.00147742  0.25549139  1
  Y3+  Y57  1  0.75179424  -0.00169817  0.76054421  1
  Y3+  Y58  1  0.75103247  0.24994326  0.25803402  1
  Y3+  Y59  1  0.75325989  0.24913561  0.75856219  1
  Y3+  Y60  1  0.75301986  0.49949818  0.25638818  1
  Y3+  Y61  1  0.75318766  0.49903905  0.75638356  1
  Y3+  Y62  1  0.75194773  0.75195103  0.25275352  1
  Y3+  Y63  1  0.75141919  0.75344168  0.75890940  1
  Fe3+  Fe64  1  0.62632912  0.87316454  0.37628380  1
  Fe3+  Fe65  1  0.12331169  0.12484917  0.37779371  1
  Fe3+  Fe66  1  0.37564476  0.62676467  0.37494650  1
  Fe3+  Fe67  1  0.37516359  0.12325012  0.37999402  1
  Fe3+  Fe68  1  0.87493595  0.12347085  0.37738464  1
  Fe3+  Fe69  1  0.62601774  0.62572762  0.37586215  1
  Fe3+  Fe70  1  0.12364512  0.87505002  0.87930599  1
  Fe3+  Fe71  1  0.12326503  0.37475786  0.87360022  1
  Fe3+  Fe72  1  0.37378243  0.12510487  0.87964622  1
  Fe3+  Fe73  1  0.37477214  0.62485220  0.87911854  1
  Fe3+  Fe74  1  0.62626770  0.37639651  0.38015834  1
  Fe3+  Fe75  1  0.62643080  0.37538667  0.87888369  1
  Fe3+  Fe76  1  0.12385438  0.62531476  0.37638171  1
  Fe3+  Fe77  1  0.37560117  0.87321661  0.37972402  1
  Fe3+  Fe78  1  0.62690877  0.62420439  0.87652261  1
  Fe3+  Fe79  1  0.12342007  0.12624780  0.87512851  1
  Fe3+  Fe80  1  0.37435897  0.87553945  0.88058810  1
  Fe3+  Fe81  1  0.87533957  0.62483881  0.87567808  1
  Fe3+  Fe82  1  0.12391967  0.37665157  0.38011021  1
  Fe3+  Fe83  1  0.87455913  0.62660532  0.37515319  1
  Fe3+  Fe84  1  0.12375970  0.87561021  0.13463416  1
  Fe3+  Fe85  1  0.37578888  0.12355747  0.63507618  1
  Fe3+  Fe86  1  0.37505643  0.87572873  0.13272701  1
  Fe3+  Fe87  1  0.12426020  0.37543007  0.63480201  1
  Fe3+  Fe88  1  0.62582334  0.12532646  0.63854102  1
  Fe3+  Fe89  1  0.62569664  0.37480240  0.63610373  1
  Fe3+  Fe90  1  0.37500843  0.62498519  0.13307531  1
  Fe3+  Fe91  1  0.87492980  0.12469750  0.13956102  1
  Fe3+  Fe92  1  0.37501883  0.12539201  0.13577435  1
  Fe3+  Fe93  1  0.62594302  0.37400078  0.13530310  1
  Fe3+  Fe94  1  0.37555319  0.87506775  0.63551474  1
  Fe3+  Fe95  1  0.37522377  0.37442090  0.13662179  1
  Cu2+  Cu96  1  0.87538060  0.37590789  0.37421676  1
  Cu2+  Cu97  1  0.87584995  0.87429962  0.87339126  1
  Cu2+  Cu98  1  0.62604892  0.12452351  0.36604974  1
  Cu2+  Cu99  1  0.37472963  0.37708377  0.37440309  1
  Cu2+  Cu100  1  0.87437422  0.87393252  0.37102326  1
  Cu2+  Cu101  1  0.37430744  0.37464142  0.86758687  1
  Cu2+  Cu102  1  0.62591689  0.87426062  0.87190095  1
  Cu2+  Cu103  1  0.87566976  0.37573120  0.87349367  1
  Cu2+  Cu104  1  0.12349047  0.62414606  0.87135885  1
  Cu2+  Cu105  1  0.12416713  0.87372873  0.37230857  1
  Cu2+  Cu106  1  0.87612566  0.12476129  0.86277838  1
  Cu2+  Cu107  1  0.62625463  0.12545668  0.87204621  1
  Cu2+  Cu108  1  0.37560484  0.37449403  0.64120507  1
  Cu2+  Cu109  1  0.12510398  0.37472199  0.15443985  1
  Cu2+  Cu110  1  0.12443807  0.62496654  0.14063590  1
  Cu2+  Cu111  1  0.62505922  0.87546961  0.65355788  1
  Cu2+  Cu112  1  0.87499505  0.62523751  0.15080995  1
  Cu2+  Cu113  1  0.87441782  0.87506954  0.64414334  1
  Cu2+  Cu114  1  0.62634058  0.12648616  0.14249086  1
  Cu2+  Cu115  1  0.87405636  0.12405691  0.65139229  1
  Cu2+  Cu116  1  0.62622029  0.62439598  0.65372200  1
  Cu2+  Cu117  1  0.62527599  0.62362106  0.14667873  1
  Cu2+  Cu118  1  0.12426138  0.12510311  0.15243398  1
  Cu2+  Cu119  1  0.87442797  0.37470131  0.64110552  1
  Cu2+  Cu120  1  0.87467103  0.37382691  0.14178008  1
  Cu2+  Cu121  1  0.87538688  0.87631496  0.14090614  1
  Cu2+  Cu122  1  0.37490581  0.62650174  0.65585411  1
  Cu2+  Cu123  1  0.87500581  0.62582868  0.65294628  1
  Cu2+  Cu124  1  0.12452287  0.12548647  0.64858207  1
  Cu2+  Cu125  1  0.12422865  0.87459008  0.64450557  1
  Cu2+  Cu126  1  0.62605680  0.87608432  0.14204784  1
  Cu2+  Cu127  1  0.12377818  0.62425851  0.65194936  1
  O2-  O128  1  0.12497575  0.12809232  -0.00445215  1
  O2-  O129  1  0.12492071  0.12473295  0.49815397  1
  O2-  O130  1  0.12351783  0.37355539  -0.00528277  1
  O2-  O131  1  0.12507273  0.37703529  0.50658215  1
  O2-  O132  1  0.12480865  0.62354294  0.00666391  1
  O2-  O133  1  0.12552902  0.62445222  0.49657852  1
  O2-  O134  1  0.12510928  0.87632546  0.00663557  1
  O2-  O135  1  0.12544980  0.87333762  0.50795002  1
  O2-  O136  1  0.37363605  0.12572030  0.00763874  1
  O2-  O137  1  0.37597595  0.12236294  0.50788287  1
  O2-  O138  1  0.37522652  0.37266166  0.01636553  1
  O2-  O139  1  0.37546148  0.37645934  0.50736601  1
  O2-  O140  1  0.37503194  0.62401032  0.00598424  1
  O2-  O141  1  0.37599029  0.62827021  0.49516636  1
  O2-  O142  1  0.37347643  0.87725371  0.00660838  1
  O2-  O143  1  0.37625536  0.87296563  0.50655859  1
  O2-  O144  1  0.62583484  0.12706975  0.00728273  1
  O2-  O145  1  0.62361385  0.12613172  0.51806171  1
  O2-  O146  1  0.62547786  0.37475702  0.00727313  1
  O2-  O147  1  0.62488186  0.37645455  0.50803513  1
  O2-  O148  1  0.62601801  0.62242168  -0.00306471  1
  O2-  O149  1  0.62435161  0.62503138  0.49567418  1
  O2-  O150  1  0.62520987  0.87514335  0.00642001  1
  O2-  O151  1  0.62447849  0.87169502  0.49701793  1
  O2-  O152  1  0.87517581  0.12534975  0.01815446  1
  O2-  O153  1  0.87532304  0.12298570  0.49864602  1
  O2-  O154  1  0.87544163  0.37489507  0.00734589  1
  O2-  O155  1  0.87471941  0.37579163  0.50740755  1
  O2-  O156  1  0.87477019  0.62402375  -0.00345350  1
  O2-  O157  1  0.87436326  0.62705670  0.49592838  1
  O2-  O158  1  0.87635155  0.87547826  0.00714368  1
  O2-  O159  1  0.87389922  0.87385063  0.50862060  1
  O2-  O160  1  0.12730449  -0.00168351  0.16349391  1
  O2-  O161  1  0.12524716  0.00148776  0.66698252  1
  O2-  O162  1  0.12615769  0.25006507  0.16805748  1
  O2-  O163  1  0.12665613  0.25154242  0.65951878  1
  O2-  O164  1  0.12600861  0.49885460  0.16384576  1
  O2-  O165  1  0.12504808  0.49895488  0.66177752  1
  O2-  O166  1  0.12609899  0.75319529  0.16102076  1
  O2-  O167  1  0.12557154  0.74789599  0.66751479  1
  O2-  O168  1  0.37360970  0.00023853  0.16418410  1
  O2-  O169  1  0.37552091  -0.00046086  0.66467409  1
  O2-  O170  1  0.37474708  0.24911126  0.16902578  1
  O2-  O171  1  0.37534389  0.24597280  0.66382137  1
  O2-  O172  1  0.37536406  0.50029658  0.16204825  1
  O2-  O173  1  0.37547037  0.50223159  0.66575035  1
  O2-  O174  1  0.37516002  0.75089173  0.15651523  1
  O2-  O175  1  0.37522014  0.75199639  0.66667070  1
  O2-  O176  1  0.62442752  0.00075025  0.16617683  1
  O2-  O177  1  0.62361524  0.00068820  0.66683448  1
  O2-  O178  1  0.62367556  0.25326755  0.16855953  1
  O2-  O179  1  0.62437578  0.25084600  0.66719660  1
  O2-  O180  1  0.62373605  0.49765250  0.16244441  1
  O2-  O181  1  0.62430042  0.49847668  0.66297183  1
  O2-  O182  1  0.62391332  0.74853345  0.15962855  1
  O2-  O183  1  0.62427704  0.74992072  0.66487110  1
  O2-  O184  1  0.87565290  0.00189334  0.16834127  1
  O2-  O185  1  0.87459470  0.00065542  0.66668570  1
  O2-  O186  1  0.87576796  0.24828493  0.16946753  1
  O2-  O187  1  0.87376101  0.24827160  0.66505835  1
  O2-  O188  1  0.87500335  0.50142940  0.16333083  1
  O2-  O189  1  0.87493762  0.50216925  0.66322626  1
  O2-  O190  1  0.87532192  0.74865419  0.16102616  1
  O2-  O191  1  0.87454185  0.74854195  0.66565079  1
  O2-  O192  1  0.00034798  0.12512499  0.16527836  1
  O2-  O193  1  -0.00075984  0.12533879  0.66281122  1
  O2-  O194  1  0.00151768  0.37482391  0.16476352  1
  O2-  O195  1  0.00202732  0.37433817  0.66152052  1
  O2-  O196  1  -0.00179378  0.62488123  0.16353668  1
  O2-  O197  1  -0.00144328  0.62546108  0.66311298  1
  O2-  O198  1  0.00266623  0.87575916  0.16389180  1
  O2-  O199  1  -0.00023254  0.87469608  0.66595966  1
  O2-  O200  1  0.25131899  0.12532130  0.16363910  1
  O2-  O201  1  0.25236537  0.12353574  0.66301620  1
  O2-  O202  1  0.25097559  0.37412948  0.16636433  1
  O2-  O203  1  0.24757248  0.37549165  0.66311230  1
  O2-  O204  1  0.25382590  0.62557318  0.16280938  1
  O2-  O205  1  0.24980765  0.62541351  0.66625667  1
  O2-  O206  1  0.25053836  0.87557022  0.16320885  1
  O2-  O207  1  0.25287369  0.87524591  0.66543219  1
  O2-  O208  1  0.49703157  0.12518678  0.16458666  1
  O2-  O209  1  0.49922266  0.12440366  0.66844056  1
  O2-  O210  1  0.50023959  0.37457054  0.16578658  1
  O2-  O211  1  0.50284544  0.37481820  0.66695552  1
  O2-  O212  1  0.49742788  0.62488424  0.16093571  1
  O2-  O213  1  0.50048052  0.62536375  0.66670912  1
  O2-  O214  1  0.49663462  0.87620857  0.16320365  1
  O2-  O215  1  0.49848558  0.87497084  0.66571639  1
  O2-  O216  1  0.75164898  0.12623137  0.16817950  1
  O2-  O217  1  0.74894433  0.12481201  0.66695391  1
  O2-  O218  1  0.74755064  0.37511926  0.16537014  1
  O2-  O219  1  0.74750536  0.37519848  0.66492310  1
  O2-  O220  1  0.75087799  0.62394603  0.16242415  1
  O2-  O221  1  0.75096284  0.62419990  0.66318743  1
  O2-  O222  1  0.75050642  0.87522813  0.16398618  1
  O2-  O223  1  0.74838617  0.87533904  0.66632952  1
  O2-  O224  1  0.12604340  0.00135317  0.34695263  1
  O2-  O225  1  0.12678226  -0.00041527  0.85011838  1
  O2-  O226  1  0.12612550  0.25091359  0.35158095  1
  O2-  O227  1  0.12533003  0.24957485  0.84125378  1
  O2-  O228  1  0.12526902  0.50015971  0.34651239  1
  O2-  O229  1  0.12602635  0.49823852  0.84491822  1
  O2-  O230  1  0.12572082  0.74794418  0.34342623  1
  O2-  O231  1  0.12594932  0.75258185  0.85163173  1
  O2-  O232  1  0.37543169  -0.00083192  0.35054107  1
  O2-  O233  1  0.37320527  0.00004869  0.85028957  1
  O2-  O234  1  0.37518871  0.24625259  0.35349803  1
  O2-  O235  1  0.37504287  0.24790809  0.84875029  1
  O2-  O236  1  0.37540936  0.50352122  0.34369225  1
  O2-  O237  1  0.37498024  0.50162721  0.85087074  1
  O2-  O238  1  0.37548957  0.75125373  0.34027382  1
  O2-  O239  1  0.37450809  0.75027318  0.85265911  1
  O2-  O240  1  0.62346806  -0.00116679  0.34931685  1
  O2-  O241  1  0.62490541  0.00040087  0.85020306  1
  O2-  O242  1  0.62425927  0.25120712  0.35329523  1
  O2-  O243  1  0.62373476  0.25265600  0.85037462  1
  O2-  O244  1  0.62467502  0.49991401  0.34584042  1
  O2-  O245  1  0.62407455  0.49877250  0.84658604  1
  O2-  O246  1  0.62426320  0.74988572  0.34081194  1
  O2-  O247  1  0.62377403  0.74762154  0.84796295  1
  O2-  O248  1  0.87511730  0.00041449  0.34909752  1
  O2-  O249  1  0.87542505  0.00133602  0.85096382  1
  O2-  O250  1  0.87481014  0.24831697  0.35101734  1
  O2-  O251  1  0.87562048  0.24827329  0.84934335  1
  O2-  O252  1  0.87492663  0.50221765  0.34630877  1
  O2-  O253  1  0.87468181  0.50154931  0.84543936  1
  O2-  O254  1  0.87450922  0.74894054  0.34330481  1
  O2-  O255  1  0.87558176  0.74828946  0.84757628  1
  O2-  O256  1  -0.00008930  0.12507362  0.34591079  1
  O2-  O257  1  0.00013158  0.12429062  0.84639674  1
  O2-  O258  1  0.00309992  0.37540776  0.34863943  1
  O2-  O259  1  0.00101393  0.37466102  0.84377407  1
  O2-  O260  1  -0.00011131  0.62534904  0.34494806  1
  O2-  O261  1  -0.00135142  0.62474121  0.84597736  1
  O2-  O262  1  -0.00064098  0.87426214  0.34778683  1
  O2-  O263  1  0.00305201  0.87607925  0.84943672  1
  O2-  O264  1  0.25093296  0.12408367  0.34817660  1
  O2-  O265  1  0.25044149  0.12511817  0.84682447  1
  O2-  O266  1  0.24670200  0.37543034  0.34946975  1
  O2-  O267  1  0.24923965  0.37404955  0.84647224  1
  O2-  O268  1  0.24992045  0.62587833  0.34380425  1
  O2-  O269  1  0.25244210  0.62526786  0.85093210  1
  O2-  O270  1  0.25383524  0.87488814  0.34794758  1
  O2-  O271  1  0.24973498  0.87513498  0.85038095  1
  O2-  O272  1  0.49882263  0.12430336  0.34987725  1
  O2-  O273  1  0.49633051  0.12449384  0.85151081  1
  O2-  O274  1  0.50330171  0.37490227  0.34896083  1
  O2-  O275  1  0.50115065  0.37499863  0.85204410  1
  O2-  O276  1  0.50077922  0.62570123  0.34196411  1
  O2-  O277  1  0.49887870  0.62442509  0.85026130  1
  O2-  O278  1  0.49915753  0.87518808  0.34633036  1
  O2-  O279  1  0.49632449  0.87556765  0.85039460  1
  O2-  O280  1  0.75051876  0.12500351  0.34952837  1
  O2-  O281  1  0.75285379  0.12587041  0.85024345  1
  O2-  O282  1  0.74720491  0.37519166  0.34938440  1
  O2-  O283  1  0.74780631  0.37443720  0.84918891  1
  O2-  O284  1  0.74950375  0.62497111  0.34391096  1
  O2-  O285  1  0.75001076  0.62427626  0.84465126  1
  O2-  O286  1  0.74820667  0.87498401  0.34610744  1
  O2-  O287  1  0.75080742  0.87481995  0.85007734  1
