# generated using pymatgen
data_BaYFeCuO5
_symmetry_space_group_name_H-M   'P 1'
_cell_length_a   15.66475792
_cell_length_b   15.66159131
_cell_length_c   15.47175412
_cell_angle_alpha   90.00040714
_cell_angle_beta   89.99986219
_cell_angle_gamma   90.00270204
_symmetry_Int_Tables_number   1
_chemical_formula_structural   BaYFeCuO5
_chemical_formula_sum   'Ba32 Y32 Fe32 Cu32 O160'
_cell_volume   3795.76335751
_cell_formula_units_Z   32
loop_
 _symmetry_equiv_pos_site_id
 _symmetry_equiv_pos_as_xyz
  1  'x, y, z'
loop_
 _atom_type_symbol
 _atom_type_oxidation_number
  Ba2+  2.0
  Y3+  3.0
  Fe3+  3.0
  Cu2+  2.0
  O2-  -2.0
loop_
 _atom_site_type_symbol
 _atom_site_label
 _atom_site_symmetry_multiplicity
 _atom_site_fract_x
 _atom_site_fract_y
 _atom_site_fract_z
 _atom_site_occupancy
  Ba2+  Ba0  1  -0.00248711  -0.00767222  0.01739703  1
  Ba2+  Ba1  1  0.00287526  -0.00108323  0.50243991  1
  Ba2+  Ba2  1  -0.00682726  0.25592017  0.00676335  1
  Ba2+  Ba3  1  -0.00291475  0.25446446  0.50074502  1
  Ba2+  Ba4  1  -0.00137524  0.50176213  0.00607902  1
  Ba2+  Ba5  1  0.00493382  0.49510956  0.51384035  1
  Ba2+  Ba6  1  0.00411178  0.74944586  0.01593863  1
  Ba2+  Ba7  1  0.00888575  0.75132637  0.51227807  1
  Ba2+  Ba8  1  0.25522970  -0.00587115  0.01264972  1
  Ba2+  Ba9  1  0.25036858  0.00195799  0.50811124  1
  Ba2+  Ba10  1  0.25315722  0.24641187  0.00242603  1
  Ba2+  Ba11  1  0.25795781  0.25414607  0.50226442  1
  Ba2+  Ba12  1  0.24388970  0.50735582  0.00628354  1
  Ba2+  Ba13  1  0.24808887  0.49195788  0.50597905  1
  Ba2+  Ba14  1  0.24614358  0.75074192  0.01615922  1
  Ba2+  Ba15  1  0.24063337  0.75117428  0.51232555  1
  Ba2+  Ba16  1  0.49918771  -0.00016227  0.02248387  1
  Ba2+  Ba17  1  0.50014048  0.00942523  0.50621459  1
  Ba2+  Ba18  1  0.50346084  0.24271810  0.01659626  1
  Ba2+  Ba19  1  0.49480913  0.25013377  0.50739038  1
  Ba2+  Ba20  1  0.50668445  0.50700701  0.01466241  1
  Ba2+  Ba21  1  0.49687865  0.48769609  0.51284352  1
  Ba2+  Ba22  1  0.50189885  0.75015154  0.02220567  1
  Ba2+  Ba23  1  0.50256954  0.75370202  0.51063087  1
  Ba2+  Ba24  1  0.74833029  -0.00158813  0.02630937  1
  Ba2+  Ba25  1  0.74670849  0.00730082  0.50119672  1
  Ba2+  Ba26  1  0.75091335  0.25165530  0.01965932  1
  Ba2+  Ba27  1  0.74920559  0.24993463  0.50576106  1
  Ba2+  Ba28  1  0.75074177  0.50108289  0.01499437  1
  Ba2+  Ba29  1  0.75039333  0.48939682  0.51863975  1
  Ba2+  Ba30  1  0.74818450  0.74918042  0.02165832  1
  Ba2+  Ba31  1  0.74754699  0.75366150  0.51045834  1
  Y3+  Y32  1  0.00101621  -0.00096408  0.25816689  1
  Y3+  Y33  1  0.00295021  -0.00228856  0.75743256  1
  Y3+  Y34  1  -0.00221732  0.25009205  0.25501479  1
  Y3+  Y35  1  -0.00064089  0.25239487  0.76259894  1
  Y3+  Y36  1  -0.00025078  0.50065579  0.25253269  1
  Y3+  Y37  1  0.00132491  0.49889098  0.76257749  1
  Y3+  Y38  1  0.00289583  0.75066677  0.25531347  1
  Y3+  Y39  1  0.00513653  0.75055254  0.75869742  1
  Y3+  Y40  1  0.25052041  -0.00056469  0.25803347  1
  Y3+  Y41  1  0.25021244  -0.00000358  0.75843123  1
  Y3+  Y42  1  0.25328319  0.25015884  0.25886298  1
  Y3+  Y43  1  0.25304742  0.24845342  0.75933392  1
  Y3+  Y44  1  0.25036646  0.50035623  0.25613292  1
  Y3+  Y45  1  0.24787806  0.49970120  0.75958570  1
  Y3+  Y46  1  0.24762205  0.75061244  0.25547383  1
  Y3+  Y47  1  0.24509527  0.75093051  0.75889306  1
  Y3+  Y48  1  0.49807861  0.00356406  0.25829388  1
  Y3+  Y49  1  0.49823685  0.00207508  0.75487304  1
  Y3+  Y50  1  0.49858880  0.24803782  0.25835557  1
  Y3+  Y51  1  0.49683778  0.24921283  0.75655135  1
  Y3+  Y52  1  0.50013095  0.49947535  0.25511223  1
  Y3+  Y53  1  0.50025822  0.49838156  0.75745964  1
  Y3+  Y54  1  0.49936298  0.74911700  0.25655315  1
  Y3+  Y55  1  0.50179314  0.74998103  0.75559941  1
  Y3+  Y56  1  0.75079370  0.00303692  0.25868278  1
  Y3+  Y57  1  0.74843615  -0.00067117  0.75333192  1
  Y3+  Y58  1  0.75045562  0.24895150  0.25470030  1
  Y3+  Y59  1  0.75098821  0.25249235  0.75827789  1
  Y3+  Y60  1  0.75010230  0.49939019  0.25147814  1
  Y3+  Y61  1  0.75033320  0.49807065  0.76056786  1
  Y3+  Y62  1  0.75030938  0.74918634  0.25648516  1
  Y3+  Y63  1  0.74772662  0.74961694  0.75552153  1
  Fe3+  Fe64  1  0.87497319  0.37633327  0.37409526  1
  Fe3+  Fe65  1  0.62471688  0.87537474  0.87599471  1
  Fe3+  Fe66  1  0.12443479  0.62369058  0.37622840  1
  Fe3+  Fe67  1  0.37591731  0.37552400  0.88084879  1
  Fe3+  Fe68  1  0.87326226  0.12265589  0.87872398  1
  Fe3+  Fe69  1  0.37491505  0.62436034  0.37995651  1
  Fe3+  Fe70  1  0.62540872  0.12357084  0.87739867  1
  Fe3+  Fe71  1  0.62510238  0.37447792  0.37410867  1
  Fe3+  Fe72  1  0.37408016  0.87457402  0.37908200  1
  Fe3+  Fe73  1  0.12528802  0.12669334  0.37902830  1
  Fe3+  Fe74  1  0.37626846  0.87426085  0.87568697  1
  Fe3+  Fe75  1  0.87505325  0.62404723  0.38000039  1
  Fe3+  Fe76  1  0.87373136  0.87475155  0.87547395  1
  Fe3+  Fe77  1  0.62450085  0.87588234  0.37657015  1
  Fe3+  Fe78  1  0.12453990  0.12344309  0.88156765  1
  Fe3+  Fe79  1  0.87564726  0.87461888  0.37871918  1
  Fe3+  Fe80  1  0.87407689  0.62726135  0.87557226  1
  Fe3+  Fe81  1  0.62453083  0.37434997  0.87849017  1
  Fe3+  Fe82  1  0.62556612  0.62318534  0.37964022  1
  Fe3+  Fe83  1  0.37588263  0.62679674  0.87601265  1
  Fe3+  Fe84  1  0.87644852  0.62393040  0.63368853  1
  Fe3+  Fe85  1  0.62480397  0.62292840  0.63336335  1
  Fe3+  Fe86  1  0.87659613  0.12625111  0.63617495  1
  Fe3+  Fe87  1  0.37477939  0.87528557  0.63384285  1
  Fe3+  Fe88  1  0.62487940  0.12708765  0.63698245  1
  Fe3+  Fe89  1  0.12531290  0.12510720  0.13628079  1
  Fe3+  Fe90  1  0.12498901  0.12639795  0.63615245  1
  Fe3+  Fe91  1  0.12550746  0.37295757  0.64181222  1
  Fe3+  Fe92  1  0.37534216  0.37557145  0.13444642  1
  Fe3+  Fe93  1  0.87500472  0.87565340  0.63300888  1
  Fe3+  Fe94  1  0.37314040  0.62405967  0.63340832  1
  Fe3+  Fe95  1  0.12566396  0.37448673  0.13682947  1
  Cu2+  Cu96  1  0.12451899  0.37531407  0.35979084  1
  Cu2+  Cu97  1  0.12523657  0.87594500  0.87399383  1
  Cu2+  Cu98  1  0.87576753  0.12567659  0.36401100  1
  Cu2+  Cu99  1  0.87356478  0.37527938  0.87447943  1
  Cu2+  Cu100  1  0.37580020  0.37632470  0.36931243  1
  Cu2+  Cu101  1  0.37437065  0.12511691  0.37275215  1
  Cu2+  Cu102  1  0.37666988  0.12309837  0.87447617  1
  Cu2+  Cu103  1  0.62496841  0.12623953  0.36209873  1
  Cu2+  Cu104  1  0.12580229  0.37406542  0.87013205  1
  Cu2+  Cu105  1  0.12544812  0.87469255  0.37271497  1
  Cu2+  Cu106  1  0.12475404  0.62605295  0.87266029  1
  Cu2+  Cu107  1  0.62499255  0.62599363  0.87177062  1
  Cu2+  Cu108  1  0.37447972  0.62481253  0.15088412  1
  Cu2+  Cu109  1  0.62531543  0.62524888  0.14436775  1
  Cu2+  Cu110  1  0.37350820  0.12545703  0.64173510  1
  Cu2+  Cu111  1  0.12556921  0.87597699  0.14347516  1
  Cu2+  Cu112  1  0.87491636  0.87470441  0.15613356  1
  Cu2+  Cu113  1  0.62507263  0.12502646  0.15440586  1
  Cu2+  Cu114  1  0.87573546  0.62581418  0.15080435  1
  Cu2+  Cu115  1  0.12529686  0.87632347  0.64171391  1
  Cu2+  Cu116  1  0.62458725  0.87625408  0.64368677  1
  Cu2+  Cu117  1  0.12496993  0.62373406  0.65175988  1
  Cu2+  Cu118  1  0.62424428  0.37458916  0.14833992  1
  Cu2+  Cu119  1  0.87624406  0.12449798  0.14928152  1
  Cu2+  Cu120  1  0.62464418  0.87559232  0.15736061  1
  Cu2+  Cu121  1  0.12506318  0.62448971  0.14294082  1
  Cu2+  Cu122  1  0.37352159  0.12531271  0.14277583  1
  Cu2+  Cu123  1  0.37348713  0.37486117  0.64608777  1
  Cu2+  Cu124  1  0.62467829  0.37373033  0.65230016  1
  Cu2+  Cu125  1  0.87552222  0.37561824  0.14134463  1
  Cu2+  Cu126  1  0.87607435  0.37473217  0.65407052  1
  Cu2+  Cu127  1  0.37513367  0.87466837  0.15525660  1
  O2-  O128  1  0.12406482  0.12285779  0.00898460  1
  O2-  O129  1  0.12430596  0.12793498  0.50820337  1
  O2-  O130  1  0.12575182  0.37388700  0.01669704  1
  O2-  O131  1  0.12477310  0.37229962  0.52104847  1
  O2-  O132  1  0.12431249  0.62594353  0.00712919  1
  O2-  O133  1  0.12406850  0.62286397  0.49674308  1
  O2-  O134  1  0.12510519  0.87627698  0.00870959  1
  O2-  O135  1  0.12458296  0.87562715  0.50748523  1
  O2-  O136  1  0.37610243  0.12324588  0.00802743  1
  O2-  O137  1  0.37395841  0.12573719  0.50666161  1
  O2-  O138  1  0.37619746  0.37580020  0.00749732  1
  O2-  O139  1  0.37419376  0.37580237  0.50668660  1
  O2-  O140  1  0.37687840  0.62825897  -0.00354964  1
  O2-  O141  1  0.37373015  0.62281599  0.50602427  1
  O2-  O142  1  0.37831314  0.87301836  -0.00407530  1
  O2-  O143  1  0.37425626  0.87499219  0.50581288  1
  O2-  O144  1  0.62621842  0.12131739  -0.00238285  1
  O2-  O145  1  0.62549032  0.12853580  0.51599107  1
  O2-  O146  1  0.62461781  0.37505796  -0.00113501  1
  O2-  O147  1  0.62576189  0.37421836  0.49470947  1
  O2-  O148  1  0.62546911  0.62721416  0.00584502  1
  O2-  O149  1  0.62562108  0.62216995  0.50528391  1
  O2-  O150  1  0.62488102  0.87532805  -0.00423516  1
  O2-  O151  1  0.62570524  0.87549191  0.49696570  1
  O2-  O152  1  0.87249383  0.12076230  -0.00109000  1
  O2-  O153  1  0.87680518  0.12729859  0.51599680  1
  O2-  O154  1  0.87353493  0.37575776  0.00741802  1
  O2-  O155  1  0.87538820  0.37615324  0.49472506  1
  O2-  O156  1  0.87352958  0.62926831  -0.00400494  1
  O2-  O157  1  0.87576059  0.62184197  0.50556094  1
  O2-  O158  1  0.87158840  0.87410157  -0.00457105  1
  O2-  O159  1  0.87533758  0.87609357  0.50581451  1
  O2-  O160  1  0.12498530  0.00272022  0.16774440  1
  O2-  O161  1  0.12470633  0.00314090  0.66335038  1
  O2-  O162  1  0.12534221  0.24893952  0.16681229  1
  O2-  O163  1  0.12450374  0.24838596  0.67213442  1
  O2-  O164  1  0.12576949  0.49826735  0.16538901  1
  O2-  O165  1  0.12468914  0.49899679  0.66773320  1
  O2-  O166  1  0.12528295  0.75021091  0.16553677  1
  O2-  O167  1  0.12481776  0.74873176  0.66319864  1
  O2-  O168  1  0.37452734  -0.00101204  0.16764970  1
  O2-  O169  1  0.37466769  -0.00243831  0.66035655  1
  O2-  O170  1  0.37499873  0.25309728  0.16396015  1
  O2-  O171  1  0.37364763  0.25002995  0.66864303  1
  O2-  O172  1  0.37527624  0.49851980  0.16336116  1
  O2-  O173  1  0.37462567  0.50312157  0.66538051  1
  O2-  O174  1  0.37532267  0.74973675  0.16809090  1
  O2-  O175  1  0.37586687  0.74900874  0.65578404  1
  O2-  O176  1  0.62492127  0.00010245  0.16765618  1
  O2-  O177  1  0.62502054  0.00199034  0.66186062  1
  O2-  O178  1  0.62496769  0.24949052  0.16315747  1
  O2-  O179  1  0.62539060  0.25002616  0.66847778  1
  O2-  O180  1  0.62481123  0.49923324  0.16460269  1
  O2-  O181  1  0.62458240  0.50038705  0.66295965  1
  O2-  O182  1  0.62485871  0.75135920  0.16940799  1
  O2-  O183  1  0.62525019  0.74740924  0.65779853  1
  O2-  O184  1  0.87566724  -0.00054765  0.16836184  1
  O2-  O185  1  0.87518561  -0.00045225  0.66091854  1
  O2-  O186  1  0.87538144  0.24878309  0.16420426  1
  O2-  O187  1  0.87609117  0.25000124  0.66859477  1
  O2-  O188  1  0.87503757  0.50188302  0.16336016  1
  O2-  O189  1  0.87545469  0.50103329  0.66279899  1
  O2-  O190  1  0.87482620  0.75032864  0.16923539  1
  O2-  O191  1  0.87344692  0.74936702  0.65410125  1
  O2-  O192  1  0.00206926  0.12453389  0.16526189  1
  O2-  O193  1  0.00094951  0.12495926  0.66767995  1
  O2-  O194  1  0.00188167  0.37452395  0.16601537  1
  O2-  O195  1  0.00084512  0.37496242  0.66970678  1
  O2-  O196  1  -0.00078856  0.62583924  0.16590531  1
  O2-  O197  1  -0.00162971  0.62522167  0.66230922  1
  O2-  O198  1  -0.00114069  0.87531910  0.16705524  1
  O2-  O199  1  -0.00344911  0.87461764  0.66385356  1
  O2-  O200  1  0.24724152  0.12512257  0.16625321  1
  O2-  O201  1  0.24713770  0.12499630  0.66707128  1
  O2-  O202  1  0.25163015  0.37506075  0.16597041  1
  O2-  O203  1  0.24824541  0.37474554  0.67162188  1
  O2-  O204  1  0.25109839  0.62516599  0.16655669  1
  O2-  O205  1  0.25084964  0.62540465  0.66304151  1
  O2-  O206  1  0.25162759  0.87523809  0.16709138  1
  O2-  O207  1  0.25294469  0.87434797  0.66448008  1
  O2-  O208  1  0.50045975  0.12467947  0.16552352  1
  O2-  O209  1  0.50062412  0.12598585  0.66338522  1
  O2-  O210  1  0.49844089  0.37563201  0.16207744  1
  O2-  O211  1  0.50003192  0.37493954  0.66351772  1
  O2-  O212  1  0.49895128  0.62525119  0.16776553  1
  O2-  O213  1  0.50005331  0.62436785  0.65694848  1
  O2-  O214  1  0.49986778  0.87464804  0.16721583  1
  O2-  O215  1  0.49837468  0.87410301  0.65890470  1
  O2-  O216  1  0.75042094  0.12435200  0.16524868  1
  O2-  O217  1  0.75103450  0.12575995  0.66383808  1
  O2-  O218  1  0.74871561  0.37515895  0.16312830  1
  O2-  O219  1  0.75076011  0.37510549  0.66193280  1
  O2-  O220  1  0.75134369  0.62591767  0.16713270  1
  O2-  O221  1  0.75002900  0.62373790  0.65721398  1
  O2-  O222  1  0.74978225  0.87490021  0.16733384  1
  O2-  O223  1  0.75161236  0.87505414  0.65909355  1
  O2-  O224  1  0.12491144  0.00280502  0.35241029  1
  O2-  O225  1  0.12506335  0.00278243  0.84705250  1
  O2-  O226  1  0.12455368  0.25008545  0.35092722  1
  O2-  O227  1  0.12457941  0.24718579  0.85497101  1
  O2-  O228  1  0.12475180  0.50022052  0.34697506  1
  O2-  O229  1  0.12535776  0.49863430  0.85142439  1
  O2-  O230  1  0.12478816  0.74752292  0.34818756  1
  O2-  O231  1  0.12503938  0.75079683  0.84780403  1
  O2-  O232  1  0.37452832  -0.00280920  0.35166489  1
  O2-  O233  1  0.37519761  -0.00249536  0.84287404  1
  O2-  O234  1  0.37500662  0.25079716  0.34792734  1
  O2-  O235  1  0.37521264  0.25252339  0.85258215  1
  O2-  O236  1  0.37554890  0.50352452  0.34751747  1
  O2-  O237  1  0.37513643  0.49895176  0.84908819  1
  O2-  O238  1  0.37570833  0.74906640  0.35292024  1
  O2-  O239  1  0.37539728  0.75071324  0.83834180  1
  O2-  O240  1  0.62507213  0.00037001  0.35103372  1
  O2-  O241  1  0.62505050  -0.00052726  0.84118576  1
  O2-  O242  1  0.62552219  0.25040209  0.34624224  1
  O2-  O243  1  0.62463496  0.24950470  0.84870344  1
  O2-  O244  1  0.62562465  0.50152279  0.34651184  1
  O2-  O245  1  0.62444795  0.49799839  0.84648629  1
  O2-  O246  1  0.62542576  0.74845258  0.35245394  1
  O2-  O247  1  0.62483037  0.75242682  0.84050853  1
  O2-  O248  1  0.87545184  -0.00129620  0.35310291  1
  O2-  O249  1  0.87464547  -0.00082966  0.84052301  1
  O2-  O250  1  0.87539206  0.25136608  0.34731988  1
  O2-  O251  1  0.87518829  0.24701871  0.85066312  1
  O2-  O252  1  0.87454449  0.50172270  0.34557242  1
  O2-  O253  1  0.87473077  0.50208907  0.84722177  1
  O2-  O254  1  0.87419010  0.74923332  0.35423809  1
  O2-  O255  1  0.87460437  0.75147751  0.83727517  1
  O2-  O256  1  0.00215830  0.12579334  0.35008593  1
  O2-  O257  1  0.00007945  0.12379099  0.85036486  1
  O2-  O258  1  -0.00088052  0.37555283  0.34746859  1
  O2-  O259  1  0.00112462  0.37481804  0.85275938  1
  O2-  O260  1  -0.00181869  0.62490606  0.34865531  1
  O2-  O261  1  -0.00181013  0.62577835  0.84589494  1
  O2-  O262  1  -0.00254242  0.87478190  0.35072761  1
  O2-  O263  1  -0.00160033  0.87557001  0.84688504  1
  O2-  O264  1  0.24710813  0.12614945  0.34993905  1
  O2-  O265  1  0.24778545  0.12459105  0.85235658  1
  O2-  O266  1  0.24870072  0.37578554  0.34906942  1
  O2-  O267  1  0.25228770  0.37465482  0.85397027  1
  O2-  O268  1  0.25097071  0.62460058  0.34978030  1
  O2-  O269  1  0.25213232  0.62498818  0.84637897  1
  O2-  O270  1  0.25246821  0.87412697  0.35042035  1
  O2-  O271  1  0.25167865  0.87531608  0.84758203  1
  O2-  O272  1  0.50032079  0.12528652  0.34953266  1
  O2-  O273  1  0.50227113  0.12443309  0.84488882  1
  O2-  O274  1  0.50224234  0.37605569  0.34473205  1
  O2-  O275  1  0.49871337  0.37529977  0.84656550  1
  O2-  O276  1  0.50075451  0.62537019  0.35245232  1
  O2-  O277  1  0.49766657  0.62499077  0.83988994  1
  O2-  O278  1  0.49894188  0.87407576  0.35079684  1
  O2-  O279  1  0.50059072  0.87477318  0.84019650  1
  O2-  O280  1  0.75069831  0.12535961  0.35043016  1
  O2-  O281  1  0.74958925  0.12414896  0.84231854  1
  O2-  O282  1  0.75022110  0.37542657  0.34436066  1
  O2-  O283  1  0.74774545  0.37485899  0.84539595  1
  O2-  O284  1  0.75018900  0.62548732  0.35144905  1
  O2-  O285  1  0.75182297  0.62594680  0.84026232  1
  O2-  O286  1  0.75095299  0.87497717  0.35072891  1
  O2-  O287  1  0.74924454  0.87477212  0.83980101  1
