# generated using pymatgen
data_BaYFeCuO5
_symmetry_space_group_name_H-M   'P 1'
_cell_length_a   15.67000910
_cell_length_b   15.66781125
_cell_length_c   15.47889188
_cell_angle_alpha   89.99704783
_cell_angle_beta   90.00145278
_cell_angle_gamma   89.99765390
_symmetry_Int_Tables_number   1
_chemical_formula_structural   BaYFeCuO5
_chemical_formula_sum   'Ba32 Y32 Fe32 Cu32 O160'
_cell_volume   3800.29618225
_cell_formula_units_Z   32
loop_
 _symmetry_equiv_pos_site_id
 _symmetry_equiv_pos_as_xyz
  1  'x, y, z'
loop_
 _atom_type_symbol
 _atom_type_oxidation_number
  Ba2+  2.0
  Y3+  3.0
  Fe3+  3.0
  Cu2+  2.0
  O2-  -2.0
loop_
 _atom_site_type_symbol
 _atom_site_label
 _atom_site_symmetry_multiplicity
 _atom_site_fract_x
 _atom_site_fract_y
 _atom_site_fract_z
 _atom_site_occupancy
  Ba2+  Ba0  1  -0.00043167  0.00228454  0.01737969  1
  Ba2+  Ba1  1  0.00053758  -0.00991839  0.50734807  1
  Ba2+  Ba2  1  -0.00377778  0.24048452  0.01013824  1
  Ba2+  Ba3  1  0.00064259  0.25606295  0.50698816  1
  Ba2+  Ba4  1  -0.00521120  0.50547345  0.01080957  1
  Ba2+  Ba5  1  0.00069531  0.49294152  0.50672355  1
  Ba2+  Ba6  1  -0.00027763  0.75212806  0.02049129  1
  Ba2+  Ba7  1  0.00065900  0.76086468  0.50690136  1
  Ba2+  Ba8  1  0.24147168  0.00333099  0.00598608  1
  Ba2+  Ba9  1  0.25469960  -0.00713389  0.51196736  1
  Ba2+  Ba10  1  0.24638224  0.24050487  0.00130830  1
  Ba2+  Ba11  1  0.25763404  0.25502507  0.51806008  1
  Ba2+  Ba12  1  0.24905587  0.51039811  0.01741524  1
  Ba2+  Ba13  1  0.26062871  0.49664317  0.51016481  1
  Ba2+  Ba14  1  0.24456723  0.74663529  0.02405865  1
  Ba2+  Ba15  1  0.25705285  0.75548015  0.50676529  1
  Ba2+  Ba16  1  0.50069463  -0.00228215  0.00646468  1
  Ba2+  Ba17  1  0.49714684  -0.00125147  0.51367368  1
  Ba2+  Ba18  1  0.50149439  0.25140507  0.00600697  1
  Ba2+  Ba19  1  0.49849702  0.25165198  0.52416389  1
  Ba2+  Ba20  1  0.50591163  0.50566654  0.02293996  1
  Ba2+  Ba21  1  0.49766088  0.50185370  0.51055719  1
  Ba2+  Ba22  1  0.50503773  0.74514533  0.02398530  1
  Ba2+  Ba23  1  0.49749580  0.74767304  0.50188582  1
  Ba2+  Ba24  1  0.75788658  -0.00352398  0.01727840  1
  Ba2+  Ba25  1  0.74733812  -0.00577919  0.50633111  1
  Ba2+  Ba26  1  0.75720260  0.25205098  0.01673032  1
  Ba2+  Ba27  1  0.74347275  0.25262694  0.51344192  1
  Ba2+  Ba28  1  0.74949801  0.50122746  0.01928338  1
  Ba2+  Ba29  1  0.74071474  0.49879500  0.50723704  1
  Ba2+  Ba30  1  0.75014442  0.75020504  0.01961940  1
  Ba2+  Ba31  1  0.74456931  0.75347787  0.50251969  1
  Y3+  Y32  1  0.00060433  -0.00108374  0.25812285  1
  Y3+  Y33  1  0.00019482  -0.00030643  0.75711979  1
  Y3+  Y34  1  -0.00124689  0.24855159  0.25456989  1
  Y3+  Y35  1  0.00062848  0.24766589  0.76017934  1
  Y3+  Y36  1  -0.00097714  0.49850344  0.25837941  1
  Y3+  Y37  1  0.00008961  0.50058948  0.75582057  1
  Y3+  Y38  1  0.00116737  0.75402123  0.26235953  1
  Y3+  Y39  1  -0.00071763  0.75242299  0.75153728  1
  Y3+  Y40  1  0.24771166  -0.00160533  0.25856567  1
  Y3+  Y41  1  0.25068671  0.00021222  0.75673367  1
  Y3+  Y42  1  0.24964979  0.24924159  0.25566914  1
  Y3+  Y43  1  0.25078997  0.24852093  0.75875135  1
  Y3+  Y44  1  0.25322903  0.50123188  0.25997532  1
  Y3+  Y45  1  0.25178974  0.49974596  0.75290264  1
  Y3+  Y46  1  0.25101588  0.75088834  0.26281258  1
  Y3+  Y47  1  0.25158966  0.75140837  0.75060571  1
  Y3+  Y48  1  0.49987848  -0.00303629  0.25804146  1
  Y3+  Y49  1  0.49759648  0.00098566  0.75792597  1
  Y3+  Y50  1  0.49934353  0.25191170  0.25494027  1
  Y3+  Y51  1  0.49870497  0.24927010  0.75857288  1
  Y3+  Y52  1  0.49969507  0.50262415  0.26205697  1
  Y3+  Y53  1  0.49970247  0.50143226  0.75110149  1
  Y3+  Y54  1  0.50012936  0.74934439  0.26310783  1
  Y3+  Y55  1  0.49872709  0.74807279  0.75111747  1
  Y3+  Y56  1  0.75211682  -0.00187928  0.25839205  1
  Y3+  Y57  1  0.75194196  -0.00018496  0.75641810  1
  Y3+  Y58  1  0.75248988  0.25096515  0.25564637  1
  Y3+  Y59  1  0.74973829  0.24823350  0.75872758  1
  Y3+  Y60  1  0.74830432  0.49864429  0.26043008  1
  Y3+  Y61  1  0.74812352  0.50231603  0.75426125  1
  Y3+  Y62  1  0.74787296  0.75229641  0.26250897  1
  Y3+  Y63  1  0.75036013  0.74947643  0.75248371  1
  Fe3+  Fe64  1  0.37532523  0.62599567  0.87656788  1
  Fe3+  Fe65  1  0.62499726  0.87295528  0.87753495  1
  Fe3+  Fe66  1  0.62521937  0.37698100  0.87696470  1
  Fe3+  Fe67  1  0.37458227  0.87258541  0.88057138  1
  Fe3+  Fe68  1  0.62656688  0.12395504  0.87983305  1
  Fe3+  Fe69  1  0.12679668  0.37381861  0.37544111  1
  Fe3+  Fe70  1  0.87438726  0.37654531  0.87681119  1
  Fe3+  Fe71  1  0.12478000  0.37631611  0.87957362  1
  Fe3+  Fe72  1  0.37497303  0.37749416  0.88009337  1
  Fe3+  Fe73  1  0.12562347  0.62445121  0.38003767  1
  Fe3+  Fe74  1  0.12592402  0.12524822  0.38098191  1
  Fe3+  Fe75  1  0.87512950  0.87322205  0.87546501  1
  Fe3+  Fe76  1  0.12457196  0.62693479  0.87371326  1
  Fe3+  Fe77  1  0.37562332  0.12598308  0.37709951  1
  Fe3+  Fe78  1  0.62376348  0.12552701  0.37621426  1
  Fe3+  Fe79  1  0.87497821  0.62437311  0.38047656  1
  Fe3+  Fe80  1  0.12477110  0.87333887  0.87549325  1
  Fe3+  Fe81  1  0.62325282  0.37291484  0.37493709  1
  Fe3+  Fe82  1  0.87481455  0.12563517  0.38023481  1
  Fe3+  Fe83  1  0.62535200  0.62593186  0.87478880  1
  Fe3+  Fe84  1  0.12561539  0.62469219  0.63182766  1
  Fe3+  Fe85  1  0.37442040  0.87458586  0.13581562  1
  Fe3+  Fe86  1  0.12448172  0.37534304  0.13345015  1
  Fe3+  Fe87  1  0.12527511  0.12511053  0.63467971  1
  Fe3+  Fe88  1  0.37447355  0.37563742  0.13346492  1
  Fe3+  Fe89  1  0.87433297  0.37443866  0.63745541  1
  Fe3+  Fe90  1  0.87485399  0.62516323  0.63235520  1
  Fe3+  Fe91  1  0.87481649  0.12453806  0.63402735  1
  Fe3+  Fe92  1  0.37454459  0.12411249  0.13504519  1
  Fe3+  Fe93  1  0.62408077  0.87546795  0.63769571  1
  Fe3+  Fe94  1  0.87479448  0.62603213  0.14336885  1
  Fe3+  Fe95  1  0.62543193  0.12451638  0.13478168  1
  Cu2+  Cu96  1  0.87451368  0.12351403  0.87223080  1
  Cu2+  Cu97  1  0.87467296  0.37400314  0.36521315  1
  Cu2+  Cu98  1  0.37583970  0.37301413  0.37015393  1
  Cu2+  Cu99  1  0.12379321  0.12341130  0.86989419  1
  Cu2+  Cu100  1  0.37534430  0.12426554  0.86782928  1
  Cu2+  Cu101  1  0.12627889  0.87608997  0.37272788  1
  Cu2+  Cu102  1  0.62411568  0.87662168  0.36364610  1
  Cu2+  Cu103  1  0.37458783  0.62480000  0.37231852  1
  Cu2+  Cu104  1  0.87478015  0.62615977  0.85964315  1
  Cu2+  Cu105  1  0.62492752  0.62481889  0.37367151  1
  Cu2+  Cu106  1  0.87488742  0.87588223  0.37315340  1
  Cu2+  Cu107  1  0.37546532  0.87688372  0.37105590  1
  Cu2+  Cu108  1  0.62611612  0.62542934  0.15945037  1
  Cu2+  Cu109  1  0.12543234  0.87484636  0.15434892  1
  Cu2+  Cu110  1  0.62456675  0.87538937  0.15259877  1
  Cu2+  Cu111  1  0.87533319  0.87420163  0.15698386  1
  Cu2+  Cu112  1  0.37486559  0.62545298  0.63967632  1
  Cu2+  Cu113  1  0.87410271  0.87571668  0.64024801  1
  Cu2+  Cu114  1  0.12581321  0.87585647  0.64102543  1
  Cu2+  Cu115  1  0.37530514  0.62561912  0.15521634  1
  Cu2+  Cu116  1  0.62481386  0.62560518  0.63835158  1
  Cu2+  Cu117  1  0.37471845  0.12491587  0.65313942  1
  Cu2+  Cu118  1  0.87554827  0.37586134  0.15223756  1
  Cu2+  Cu119  1  0.37567115  0.37474798  0.64592013  1
  Cu2+  Cu120  1  0.12492537  0.37432530  0.65199297  1
  Cu2+  Cu121  1  0.12390246  0.62466650  0.15831414  1
  Cu2+  Cu122  1  0.62517632  0.12421006  0.65267553  1
  Cu2+  Cu123  1  0.12531149  0.12488387  0.14379624  1
  Cu2+  Cu124  1  0.62520222  0.37434821  0.65323305  1
  Cu2+  Cu125  1  0.87510741  0.12403089  0.14531567  1
  Cu2+  Cu126  1  0.62463354  0.37467759  0.15019452  1
  Cu2+  Cu127  1  0.37614665  0.87538729  0.64353949  1
  O2-  O128  1  0.12351110  0.12424271  0.00750643  1
  O2-  O129  1  0.12619852  0.12670853  0.50718306  1
  O2-  O130  1  0.12392703  0.37694328  0.00604371  1
  O2-  O131  1  0.12689966  0.37312234  0.49589557  1
  O2-  O132  1  0.12286001  0.62728488  -0.00603764  1
  O2-  O133  1  0.12587958  0.62269941  0.50568908  1
  O2-  O134  1  0.12411375  0.87181065  -0.00436416  1
  O2-  O135  1  0.12689634  0.87643896  0.50663046  1
  O2-  O136  1  0.37458957  0.12335093  0.01469918  1
  O2-  O137  1  0.37657766  0.12704482  0.49711468  1
  O2-  O138  1  0.37418928  0.37845609  0.00635351  1
  O2-  O139  1  0.37679340  0.37279861  0.50648221  1
  O2-  O140  1  0.37539411  0.62622000  -0.00329831  1
  O2-  O141  1  0.37424065  0.62441418  0.50610653  1
  O2-  O142  1  0.37373516  0.87176747  0.00722992  1
  O2-  O143  1  0.37727811  0.87671363  0.50680911  1
  O2-  O144  1  0.62723498  0.12391337  0.00668681  1
  O2-  O145  1  0.62273473  0.12710463  0.49594270  1
  O2-  O146  1  0.62621520  0.37835054  -0.00325186  1
  O2-  O147  1  0.62242104  0.37128223  0.49545423  1
  O2-  O148  1  0.62660877  0.62575233  -0.00499031  1
  O2-  O149  1  0.62526072  0.62451913  0.50600999  1
  O2-  O150  1  0.62576954  0.87179928  -0.00237299  1
  O2-  O151  1  0.62258382  0.87740791  0.51673362  1
  O2-  O152  1  0.87405939  0.12335793  0.00795150  1
  O2-  O153  1  0.87428404  0.12657437  0.50714868  1
  O2-  O154  1  0.87448850  0.37826124  -0.00281450  1
  O2-  O155  1  0.87482673  0.37317744  0.51685471  1
  O2-  O156  1  0.87502092  0.62673385  0.02208159  1
  O2-  O157  1  0.87509061  0.62301108  0.50675645  1
  O2-  O158  1  0.87579550  0.87181390  -0.00408700  1
  O2-  O159  1  0.87329267  0.87633672  0.50629330  1
  O2-  O160  1  0.12463923  -0.00141064  0.16671005  1
  O2-  O161  1  0.12523289  0.00376321  0.66341315  1
  O2-  O162  1  0.12561889  0.25377126  0.16294895  1
  O2-  O163  1  0.12493519  0.24806789  0.66575655  1
  O2-  O164  1  0.12393125  0.49826214  0.16320970  1
  O2-  O165  1  0.12409694  0.50074156  0.66225341  1
  O2-  O166  1  0.12524378  0.74974799  0.16803770  1
  O2-  O167  1  0.12476744  0.74725465  0.65836761  1
  O2-  O168  1  0.37588463  -0.00153302  0.16321781  1
  O2-  O169  1  0.37512530  0.00149862  0.66779630  1
  O2-  O170  1  0.37364650  0.25140731  0.15982086  1
  O2-  O171  1  0.37500360  0.24913266  0.66961266  1
  O2-  O172  1  0.37542298  0.49922322  0.16412835  1
  O2-  O173  1  0.37472912  0.49933639  0.66370018  1
  O2-  O174  1  0.37419282  0.75127117  0.16562659  1
  O2-  O175  1  0.37483467  0.75041071  0.66264583  1
  O2-  O176  1  0.62386094  0.00170473  0.16189183  1
  O2-  O177  1  0.62464737  0.00006859  0.66869992  1
  O2-  O178  1  0.62558888  0.24828207  0.15816698  1
  O2-  O179  1  0.62523711  0.24898159  0.66778529  1
  O2-  O180  1  0.62503298  0.49970869  0.16554412  1
  O2-  O181  1  0.62516134  0.49862676  0.66122198  1
  O2-  O182  1  0.62602124  0.75053347  0.16772071  1
  O2-  O183  1  0.62505064  0.75183796  0.66321861  1
  O2-  O184  1  0.87575713  -0.00254471  0.16703557  1
  O2-  O185  1  0.87522192  0.00346231  0.66323612  1
  O2-  O186  1  0.87504270  0.25164275  0.16419086  1
  O2-  O187  1  0.87458806  0.24827709  0.66605105  1
  O2-  O188  1  0.87527985  0.50065265  0.16842474  1
  O2-  O189  1  0.87578662  0.50060904  0.66334328  1
  O2-  O190  1  0.87485338  0.75029494  0.17080696  1
  O2-  O191  1  0.87560023  0.74741962  0.65953456  1
  O2-  O192  1  -0.00005972  0.12508662  0.16945372  1
  O2-  O193  1  -0.00010636  0.12628279  0.66127953  1
  O2-  O194  1  0.00183714  0.37533387  0.16427348  1
  O2-  O195  1  -0.00123488  0.37394918  0.66578517  1
  O2-  O196  1  -0.00076159  0.62538064  0.17181474  1
  O2-  O197  1  0.00011723  0.62376439  0.65958420  1
  O2-  O198  1  0.00090891  0.87426746  0.16705388  1
  O2-  O199  1  -0.00012919  0.87580501  0.66114691  1
  O2-  O200  1  0.25238813  0.12441980  0.16700428  1
  O2-  O201  1  0.24859986  0.12622227  0.66379006  1
  O2-  O202  1  0.25012790  0.37699703  0.16000171  1
  O2-  O203  1  0.24881927  0.37408119  0.66816304  1
  O2-  O204  1  0.24904069  0.62411329  0.16427548  1
  O2-  O205  1  0.24729697  0.62395289  0.66271859  1
  O2-  O206  1  0.25150758  0.87507881  0.16392923  1
  O2-  O207  1  0.25056184  0.87590893  0.66555700  1
  O2-  O208  1  0.50045250  0.12608399  0.16041166  1
  O2-  O209  1  0.49981683  0.12546340  0.66805925  1
  O2-  O210  1  0.49753055  0.37404852  0.15890303  1
  O2-  O211  1  0.50185261  0.37349026  0.66837846  1
  O2-  O212  1  0.50134990  0.62567042  0.16463517  1
  O2-  O213  1  0.49976170  0.62468157  0.66296229  1
  O2-  O214  1  0.49801708  0.87416246  0.16207386  1
  O2-  O215  1  0.50156949  0.87660163  0.67005917  1
  O2-  O216  1  0.74733967  0.12417634  0.16551241  1
  O2-  O217  1  0.75180764  0.12532214  0.66248326  1
  O2-  O218  1  0.74997149  0.37524807  0.16516778  1
  O2-  O219  1  0.75045157  0.37415269  0.66416911  1
  O2-  O220  1  0.75038837  0.62479763  0.17023580  1
  O2-  O221  1  0.75282452  0.62432886  0.66146884  1
  O2-  O222  1  0.74962846  0.87564449  0.16637441  1
  O2-  O223  1  0.74815320  0.87611431  0.66455742  1
  O2-  O224  1  0.12535649  0.00425275  0.35023828  1
  O2-  O225  1  0.12543596  -0.00329763  0.84567334  1
  O2-  O226  1  0.12441216  0.24812411  0.34548515  1
  O2-  O227  1  0.12469825  0.25325359  0.85092676  1
  O2-  O228  1  0.12517297  0.50032011  0.34734329  1
  O2-  O229  1  0.12519979  0.49958444  0.84593189  1
  O2-  O230  1  0.12456488  0.74715498  0.35266371  1
  O2-  O231  1  0.12536763  0.75030280  0.83845256  1
  O2-  O232  1  0.37457665  0.00306731  0.34484012  1
  O2-  O233  1  0.37496742  -0.00294843  0.85250532  1
  O2-  O234  1  0.37490947  0.24727784  0.34009303  1
  O2-  O235  1  0.37466870  0.25268531  0.85411568  1
  O2-  O236  1  0.37450827  0.49924427  0.34876782  1
  O2-  O237  1  0.37437629  0.49965677  0.84540875  1
  O2-  O238  1  0.37503081  0.75086434  0.35044455  1
  O2-  O239  1  0.37471378  0.75062283  0.84372338  1
  O2-  O240  1  0.62555231  0.00156011  0.34550658  1
  O2-  O241  1  0.62436757  -0.00018640  0.85114233  1
  O2-  O242  1  0.62504683  0.24893689  0.33930820  1
  O2-  O243  1  0.62492167  0.24962838  0.85172543  1
  O2-  O244  1  0.62541955  0.49741774  0.34875816  1
  O2-  O245  1  0.62485303  0.50080207  0.84242384  1
  O2-  O246  1  0.62449682  0.75227233  0.35243714  1
  O2-  O247  1  0.62461714  0.74975966  0.84198752  1
  O2-  O248  1  0.87485532  0.00398306  0.35066271  1
  O2-  O249  1  0.87479626  -0.00305986  0.84524767  1
  O2-  O250  1  0.87602463  0.24759697  0.34822623  1
  O2-  O251  1  0.87536768  0.25229396  0.84819351  1
  O2-  O252  1  0.87549846  0.50067482  0.35142800  1
  O2-  O253  1  0.87553716  0.50037211  0.84531565  1
  O2-  O254  1  0.87619037  0.74740554  0.35346763  1
  O2-  O255  1  0.87513527  0.75039473  0.84131625  1
  O2-  O256  1  0.00036949  0.12598666  0.35465836  1
  O2-  O257  1  -0.00019781  0.12452933  0.84506100  1
  O2-  O258  1  0.00110138  0.37453425  0.34857797  1
  O2-  O259  1  0.00120880  0.37643623  0.84810441  1
  O2-  O260  1  0.00041313  0.62287016  0.35441768  1
  O2-  O261  1  0.00073085  0.62467802  0.84277115  1
  O2-  O262  1  0.00083503  0.87631141  0.35117750  1
  O2-  O263  1  0.00006923  0.87386972  0.84236722  1
  O2-  O264  1  0.24873132  0.12619278  0.34859278  1
  O2-  O265  1  0.25055206  0.12491705  0.84866657  1
  O2-  O266  1  0.24855238  0.37386795  0.34263113  1
  O2-  O267  1  0.25000219  0.37549166  0.85271411  1
  O2-  O268  1  0.24738684  0.62449063  0.34880096  1
  O2-  O269  1  0.25036400  0.62476444  0.84431401  1
  O2-  O270  1  0.25013065  0.87575200  0.34765945  1
  O2-  O271  1  0.25142425  0.87459727  0.84822614  1
  O2-  O272  1  0.50026489  0.12465013  0.34098523  1
  O2-  O273  1  0.50240398  0.12508293  0.85327030  1
  O2-  O274  1  0.50150818  0.37407945  0.34149404  1
  O2-  O275  1  0.49888516  0.37494308  0.85104792  1
  O2-  O276  1  0.49996705  0.62502924  0.34936996  1
  O2-  O277  1  0.49963984  0.62491965  0.84391478  1
  O2-  O278  1  0.50095084  0.87652709  0.34618750  1
  O2-  O279  1  0.49851101  0.87515031  0.85165319  1
  O2-  O280  1  0.75092015  0.12588338  0.34970786  1
  O2-  O281  1  0.74681007  0.12456603  0.84610526  1
  O2-  O282  1  0.74927263  0.37321029  0.34879311  1
  O2-  O283  1  0.74950635  0.37552443  0.84407531  1
  O2-  O284  1  0.75276764  0.62480621  0.35265021  1
  O2-  O285  1  0.74925976  0.62540266  0.84390671  1
  O2-  O286  1  0.74843718  0.87598943  0.35101886  1
  O2-  O287  1  0.74946848  0.87427324  0.84441887  1
