# generated using pymatgen
data_BaYFeCuO5
_symmetry_space_group_name_H-M   'P 1'
_cell_length_a   15.67036101
_cell_length_b   15.67348996
_cell_length_c   15.49242076
_cell_angle_alpha   89.99930302
_cell_angle_beta   89.99817535
_cell_angle_gamma   90.00354120
_symmetry_Int_Tables_number   1
_chemical_formula_structural   BaYFeCuO5
_chemical_formula_sum   'Ba32 Y32 Fe32 Cu32 O160'
_cell_volume   3805.08177010
_cell_formula_units_Z   32
loop_
 _symmetry_equiv_pos_site_id
 _symmetry_equiv_pos_as_xyz
  1  'x, y, z'
loop_
 _atom_type_symbol
 _atom_type_oxidation_number
  Ba2+  2.0
  Y3+  3.0
  Fe3+  3.0
  Cu2+  2.0
  O2-  -2.0
loop_
 _atom_site_type_symbol
 _atom_site_label
 _atom_site_symmetry_multiplicity
 _atom_site_fract_x
 _atom_site_fract_y
 _atom_site_fract_z
 _atom_site_occupancy
  Ba2+  Ba0  1  -0.00639307  0.00322483  0.00696390  1
  Ba2+  Ba1  1  0.00602565  -0.00544895  0.52393474  1
  Ba2+  Ba2  1  0.00100138  0.23707171  0.00682155  1
  Ba2+  Ba3  1  0.01076814  0.25070325  0.51893661  1
  Ba2+  Ba4  1  0.00011491  0.51251113  0.00681055  1
  Ba2+  Ba5  1  0.00533378  0.50559683  0.51064783  1
  Ba2+  Ba6  1  -0.00747744  0.74709734  0.00692742  1
  Ba2+  Ba7  1  -0.00002835  0.75044946  0.51929552  1
  Ba2+  Ba8  1  0.25064575  0.00590490  -0.00241292  1
  Ba2+  Ba9  1  0.25237670  -0.00310907  0.51212555  1
  Ba2+  Ba10  1  0.25396006  0.24608689  0.00220060  1
  Ba2+  Ba11  1  0.25112572  0.25049116  0.51878628  1
  Ba2+  Ba12  1  0.25080731  0.49919535  0.00717481  1
  Ba2+  Ba13  1  0.25153306  0.49926157  0.52037771  1
  Ba2+  Ba14  1  0.24679375  0.74810633  0.00308024  1
  Ba2+  Ba15  1  0.25216793  0.75212684  0.51194277  1
  Ba2+  Ba16  1  0.49626537  -0.00358628  0.00080913  1
  Ba2+  Ba17  1  0.49576290  -0.00296449  0.50069690  1
  Ba2+  Ba18  1  0.49413881  0.25537718  0.00710463  1
  Ba2+  Ba19  1  0.49844179  0.25090938  0.51766446  1
  Ba2+  Ba20  1  0.50258664  0.49440861  0.01509172  1
  Ba2+  Ba21  1  0.49906933  0.50039896  0.52588552  1
  Ba2+  Ba22  1  0.50643678  0.75331793  0.01477837  1
  Ba2+  Ba23  1  0.49650989  0.75133407  0.51170554  1
  Ba2+  Ba24  1  0.75741017  -0.00535692  0.01148542  1
  Ba2+  Ba25  1  0.74555040  -0.00470275  0.51027046  1
  Ba2+  Ba26  1  0.75147426  0.24697160  0.01218506  1
  Ba2+  Ba27  1  0.74026411  0.25068489  0.51750902  1
  Ba2+  Ba28  1  0.74749590  0.50767990  0.01645946  1
  Ba2+  Ba29  1  0.74516527  0.50579433  0.52113675  1
  Ba2+  Ba30  1  0.75404943  0.75082659  0.01617454  1
  Ba2+  Ba31  1  0.75026264  0.74945064  0.51653148  1
  Y3+  Y32  1  -0.00072787  0.00092180  0.25197981  1
  Y3+  Y33  1  -0.00047415  -0.00012624  0.76271867  1
  Y3+  Y34  1  0.00055284  0.24742902  0.25339452  1
  Y3+  Y35  1  0.00155224  0.24742491  0.76048198  1
  Y3+  Y36  1  0.00077100  0.50303844  0.25338067  1
  Y3+  Y37  1  0.00010584  0.50311248  0.76056482  1
  Y3+  Y38  1  -0.00037201  0.74844669  0.25215605  1
  Y3+  Y39  1  -0.00224017  0.75001699  0.76258404  1
  Y3+  Y40  1  0.25052437  0.00045786  0.25908295  1
  Y3+  Y41  1  0.25015128  -0.00030429  0.75834725  1
  Y3+  Y42  1  0.25062571  0.24910945  0.25356968  1
  Y3+  Y43  1  0.25034366  0.24955705  0.76133455  1
  Y3+  Y44  1  0.24885884  0.50062223  0.25274541  1
  Y3+  Y45  1  0.25076516  0.49930880  0.76194344  1
  Y3+  Y46  1  0.24887315  0.74934204  0.25752168  1
  Y3+  Y47  1  0.25110493  0.75159093  0.75860001  1
  Y3+  Y48  1  0.49930017  -0.00246978  0.26078940  1
  Y3+  Y49  1  0.49772925  -0.00094363  0.75678254  1
  Y3+  Y50  1  0.49855520  0.25109363  0.25469822  1
  Y3+  Y51  1  0.49876899  0.25111294  0.75941546  1
  Y3+  Y52  1  0.50038860  0.49871045  0.25207318  1
  Y3+  Y53  1  0.49874924  0.49918788  0.75837233  1
  Y3+  Y54  1  0.50108036  0.75251987  0.25955938  1
  Y3+  Y55  1  0.49772436  0.75074414  0.75566660  1
  Y3+  Y56  1  0.75092164  -0.00204762  0.25491375  1
  Y3+  Y57  1  0.75243829  -0.00058625  0.75891102  1
  Y3+  Y58  1  0.75048362  0.24933080  0.25495279  1
  Y3+  Y59  1  0.74955520  0.24881200  0.75750326  1
  Y3+  Y60  1  0.74967654  0.50135072  0.25378144  1
  Y3+  Y61  1  0.75041045  0.50279312  0.75719968  1
  Y3+  Y62  1  0.75004690  0.75119681  0.25383078  1
  Y3+  Y63  1  0.75353946  0.74985548  0.75854832  1
  Fe3+  Fe64  1  0.62493422  0.62596093  0.87626485  1
  Fe3+  Fe65  1  0.87460742  0.37542957  0.87947169  1
  Fe3+  Fe66  1  0.62479279  0.12436878  0.87942923  1
  Fe3+  Fe67  1  0.87587981  0.12503875  0.38091542  1
  Fe3+  Fe68  1  0.62557513  0.87441375  0.87680846  1
  Fe3+  Fe69  1  0.87623162  0.87482841  0.37673871  1
  Fe3+  Fe70  1  0.12539196  0.12480467  0.37699474  1
  Fe3+  Fe71  1  0.12399932  0.37494851  0.87964819  1
  Fe3+  Fe72  1  0.37463032  0.37550040  0.37523045  1
  Fe3+  Fe73  1  0.12456860  0.87501572  0.87938674  1
  Fe3+  Fe74  1  0.62453271  0.62485300  0.37559116  1
  Fe3+  Fe75  1  0.12348589  0.87390970  0.37543639  1
  Fe3+  Fe76  1  0.62618126  0.37565757  0.87674147  1
  Fe3+  Fe77  1  0.87522249  0.62508744  0.37645509  1
  Fe3+  Fe78  1  0.87532894  0.37506876  0.38016665  1
  Fe3+  Fe79  1  0.12558541  0.37548233  0.37456115  1
  Fe3+  Fe80  1  0.37660098  0.62556337  0.87967652  1
  Fe3+  Fe81  1  0.62446866  0.12548279  0.37617580  1
  Fe3+  Fe82  1  0.62465054  0.37622686  0.37518592  1
  Fe3+  Fe83  1  0.37452380  0.62307515  0.37544222  1
  Fe3+  Fe84  1  0.12463099  0.37404942  0.13234033  1
  Fe3+  Fe85  1  0.62447032  0.87542657  0.63861433  1
  Fe3+  Fe86  1  0.37514691  0.12449870  0.64026311  1
  Fe3+  Fe87  1  0.62391372  0.12348767  0.13412634  1
  Fe3+  Fe88  1  0.12583511  0.62598151  0.64207282  1
  Fe3+  Fe89  1  0.37426241  0.87528315  0.13715950  1
  Fe3+  Fe90  1  0.37576330  0.62576819  0.13398984  1
  Fe3+  Fe91  1  0.87605980  0.37572939  0.63498144  1
  Fe3+  Fe92  1  0.37547200  0.12376494  0.13797120  1
  Fe3+  Fe93  1  0.87599537  0.37508243  0.13319264  1
  Fe3+  Fe94  1  0.12523577  0.87589511  0.13337925  1
  Fe3+  Fe95  1  0.87515005  0.12453693  0.63505564  1
  Cu2+  Cu96  1  0.37544615  0.87420214  0.86646305  1
  Cu2+  Cu97  1  0.37558242  0.37585585  0.87338934  1
  Cu2+  Cu98  1  0.87323911  0.62460238  0.87200892  1
  Cu2+  Cu99  1  0.37451403  0.12625232  0.36407243  1
  Cu2+  Cu100  1  0.87403412  0.87480118  0.87247490  1
  Cu2+  Cu101  1  0.12484375  0.62467345  0.36125674  1
  Cu2+  Cu102  1  0.12544284  0.62564806  0.87351676  1
  Cu2+  Cu103  1  0.62638283  0.87421413  0.36387066  1
  Cu2+  Cu104  1  0.87311271  0.12546814  0.87103805  1
  Cu2+  Cu105  1  0.12524241  0.12451155  0.87232344  1
  Cu2+  Cu106  1  0.37340252  0.87373472  0.37350940  1
  Cu2+  Cu107  1  0.37650931  0.12490566  0.86347242  1
  Cu2+  Cu108  1  0.37412197  0.62489479  0.65521614  1
  Cu2+  Cu109  1  0.62542675  0.37519945  0.65445592  1
  Cu2+  Cu110  1  0.62426832  0.62654329  0.65349193  1
  Cu2+  Cu111  1  0.62586262  0.37354170  0.14693645  1
  Cu2+  Cu112  1  0.37462285  0.87534713  0.64341486  1
  Cu2+  Cu113  1  0.12542523  0.12427927  0.65538027  1
  Cu2+  Cu114  1  0.62450249  0.12374440  0.65319173  1
  Cu2+  Cu115  1  0.62392931  0.62599071  0.14998231  1
  Cu2+  Cu116  1  0.12601510  0.62615733  0.13894151  1
  Cu2+  Cu117  1  0.37430146  0.37464383  0.65684250  1
  Cu2+  Cu118  1  0.87565682  0.87488128  0.14198013  1
  Cu2+  Cu119  1  0.87529531  0.87539585  0.65287525  1
  Cu2+  Cu120  1  0.12500397  0.87439779  0.65765382  1
  Cu2+  Cu121  1  0.87463281  0.62519810  0.14242372  1
  Cu2+  Cu122  1  0.37406396  0.37446743  0.13922007  1
  Cu2+  Cu123  1  0.12637877  0.12361774  0.13998828  1
  Cu2+  Cu124  1  0.87579250  0.62523666  0.65222171  1
  Cu2+  Cu125  1  0.87428023  0.12475880  0.14246481  1
  Cu2+  Cu126  1  0.62440093  0.87634764  0.15030501  1
  Cu2+  Cu127  1  0.12448629  0.37574978  0.65787239  1
  O2-  O128  1  0.12640135  0.12406648  0.00599129  1
  O2-  O129  1  0.12498477  0.12570211  0.49708432  1
  O2-  O130  1  0.12296844  0.37404093  0.00592436  1
  O2-  O131  1  0.12656530  0.37584913  0.49483554  1
  O2-  O132  1  0.12643199  0.62575271  0.00682646  1
  O2-  O133  1  0.12659474  0.62520426  0.52114214  1
  O2-  O134  1  0.12541991  0.87600445  0.00670114  1
  O2-  O135  1  0.12343730  0.87349515  0.49588302  1
  O2-  O136  1  0.37690120  0.12329359  0.01738291  1
  O2-  O137  1  0.37488288  0.12586572  0.51970618  1
  O2-  O138  1  0.37531634  0.37531413  0.00603096  1
  O2-  O139  1  0.37450499  0.37615036  0.49537267  1
  O2-  O140  1  0.37775982  0.62655157  0.00655518  1
  O2-  O141  1  0.37454163  0.62155537  0.49561790  1
  O2-  O142  1  0.37537718  0.87533412  0.01709895  1
  O2-  O143  1  0.37401998  0.87458437  0.50769369  1
  O2-  O144  1  0.62462064  0.12394167  0.00646974  1
  O2-  O145  1  0.62461382  0.12679790  0.49632030  1
  O2-  O146  1  0.62752874  0.37463953  -0.00336158  1
  O2-  O147  1  0.62414601  0.37626057  0.49522220  1
  O2-  O148  1  0.62415840  0.62570364  -0.00379175  1
  O2-  O149  1  0.62397130  0.62382990  0.49570889  1
  O2-  O150  1  0.62549902  0.87508233  -0.00288898  1
  O2-  O151  1  0.62436645  0.87489884  0.51782864  1
  O2-  O152  1  0.87232483  0.12561240  0.00638389  1
  O2-  O153  1  0.87624643  0.12567043  0.50654329  1
  O2-  O154  1  0.87489424  0.37485799  0.00603982  1
  O2-  O155  1  0.87576200  0.37550147  0.50605912  1
  O2-  O156  1  0.87268314  0.62427133  0.00681548  1
  O2-  O157  1  0.87527836  0.62431781  0.49674013  1
  O2-  O158  1  0.87480722  0.87458576  0.00669956  1
  O2-  O159  1  0.87684688  0.87493528  0.49696324  1
  O2-  O160  1  0.12553596  -0.00282975  0.16469534  1
  O2-  O161  1  0.12501069  -0.00119046  0.66643306  1
  O2-  O162  1  0.12396811  0.25186154  0.16150049  1
  O2-  O163  1  0.12406954  0.25081621  0.66576195  1
  O2-  O164  1  0.12452055  0.49717417  0.16041814  1
  O2-  O165  1  0.12473039  0.50078396  0.66918121  1
  O2-  O166  1  0.12607908  0.75351471  0.16276834  1
  O2-  O167  1  0.12475315  0.74981201  0.66934897  1
  O2-  O168  1  0.37569689  -0.00064966  0.17090713  1
  O2-  O169  1  0.37410091  0.00156207  0.66847704  1
  O2-  O170  1  0.37554762  0.24811067  0.16440547  1
  O2-  O171  1  0.37461070  0.24997586  0.66742284  1
  O2-  O172  1  0.37557161  0.50241279  0.15835343  1
  O2-  O173  1  0.37428215  0.49896159  0.66699582  1
  O2-  O174  1  0.37586233  0.74971459  0.16467026  1
  O2-  O175  1  0.37419953  0.74903049  0.66555153  1
  O2-  O176  1  0.62463465  0.00193033  0.16567799  1
  O2-  O177  1  0.62602021  -0.00087040  0.66906726  1
  O2-  O178  1  0.62551807  0.24730879  0.16093587  1
  O2-  O179  1  0.62597084  0.24959993  0.66509077  1
  O2-  O180  1  0.62533691  0.49949638  0.15961495  1
  O2-  O181  1  0.62543217  0.50126275  0.66413984  1
  O2-  O182  1  0.62438505  0.75120463  0.16350592  1
  O2-  O183  1  0.62493913  0.75079752  0.66587667  1
  O2-  O184  1  0.87441105  0.00003868  0.16654683  1
  O2-  O185  1  0.87535331  0.00243423  0.66413422  1
  O2-  O186  1  0.87491376  0.25293708  0.16456739  1
  O2-  O187  1  0.87502329  0.24976600  0.66207409  1
  O2-  O188  1  0.87483590  0.49707927  0.16254559  1
  O2-  O189  1  0.87528424  0.49839799  0.66358806  1
  O2-  O190  1  0.87436127  0.74976219  0.16398387  1
  O2-  O191  1  0.87580423  0.75014948  0.66516467  1
  O2-  O192  1  -0.00023513  0.12497694  0.16327899  1
  O2-  O193  1  -0.00093900  0.12544541  0.66416398  1
  O2-  O194  1  -0.00018860  0.37470188  0.16312623  1
  O2-  O195  1  -0.00213939  0.37466512  0.66537271  1
  O2-  O196  1  0.00019995  0.62494749  0.16398823  1
  O2-  O197  1  0.00051622  0.62489786  0.66846272  1
  O2-  O198  1  0.00260779  0.87527701  0.16041598  1
  O2-  O199  1  -0.00044493  0.87538001  0.66751898  1
  O2-  O200  1  0.25237819  0.12437834  0.16647758  1
  O2-  O201  1  0.24976406  0.12587611  0.66859750  1
  O2-  O202  1  0.24693668  0.37448291  0.16047901  1
  O2-  O203  1  0.24914167  0.37528458  0.66899157  1
  O2-  O204  1  0.25380826  0.62536646  0.16202076  1
  O2-  O205  1  0.24975637  0.62444034  0.67157621  1
  O2-  O206  1  0.24984409  0.87502046  0.16513726  1
  O2-  O207  1  0.24888531  0.87463674  0.66876518  1
  O2-  O208  1  0.50106038  0.12476645  0.16535134  1
  O2-  O209  1  0.49961972  0.12581824  0.66959161  1
  O2-  O210  1  0.50148503  0.37428726  0.16146554  1
  O2-  O211  1  0.50056235  0.37477644  0.66528606  1
  O2-  O212  1  0.49872993  0.62535729  0.16119468  1
  O2-  O213  1  0.49855573  0.62490442  0.66487290  1
  O2-  O214  1  0.49897818  0.87522072  0.16699931  1
  O2-  O215  1  0.50106971  0.87534624  0.66742614  1
  O2-  O216  1  0.74683518  0.12541738  0.16382577  1
  O2-  O217  1  0.75171883  0.12556384  0.66181950  1
  O2-  O218  1  0.75200087  0.37408921  0.16286588  1
  O2-  O219  1  0.75220452  0.37467638  0.66170142  1
  O2-  O220  1  0.74763755  0.62473033  0.16374018  1
  O2-  O221  1  0.75082926  0.62509632  0.66225519  1
  O2-  O222  1  0.74863168  0.87562679  0.16357708  1
  O2-  O223  1  0.75033506  0.87538156  0.66418902  1
  O2-  O224  1  0.12437420  0.00070999  0.34540512  1
  O2-  O225  1  0.12531244  -0.00260074  0.85047125  1
  O2-  O226  1  0.12424926  0.24984565  0.34267798  1
  O2-  O227  1  0.12436299  0.25242023  0.85014712  1
  O2-  O228  1  0.12375450  0.49915316  0.34316110  1
  O2-  O229  1  0.12409455  0.49749071  0.85150032  1
  O2-  O230  1  0.12415035  0.74940630  0.34540975  1
  O2-  O231  1  0.12571170  0.75281427  0.85158984  1
  O2-  O232  1  0.37462575  0.00147024  0.35249579  1
  O2-  O233  1  0.37603808  -0.00003124  0.85120395  1
  O2-  O234  1  0.37490826  0.25148707  0.34542514  1
  O2-  O235  1  0.37560547  0.24912899  0.85031293  1
  O2-  O236  1  0.37451353  0.49939634  0.33872979  1
  O2-  O237  1  0.37567724  0.50323810  0.85057131  1
  O2-  O238  1  0.37442519  0.74711777  0.34631704  1
  O2-  O239  1  0.37523852  0.74806808  0.84962083  1
  O2-  O240  1  0.62571700  0.00043874  0.34933179  1
  O2-  O241  1  0.62401533  0.00098786  0.85060450  1
  O2-  O242  1  0.62583587  0.25075399  0.34257353  1
  O2-  O243  1  0.62562315  0.24912838  0.84923009  1
  O2-  O244  1  0.62578653  0.49960703  0.34067768  1
  O2-  O245  1  0.62538968  0.50030290  0.84582587  1
  O2-  O246  1  0.62559927  0.74917244  0.34685531  1
  O2-  O247  1  0.62429285  0.75011162  0.84595945  1
  O2-  O248  1  0.87475084  0.00192281  0.34903960  1
  O2-  O249  1  0.87420908  0.00036359  0.84842366  1
  O2-  O250  1  0.87468850  0.24985736  0.34910791  1
  O2-  O251  1  0.87431515  0.25338653  0.84709603  1
  O2-  O252  1  0.87540945  0.49838826  0.34571772  1
  O2-  O253  1  0.87483062  0.49682354  0.84808002  1
  O2-  O254  1  0.87549238  0.74958053  0.34502863  1
  O2-  O255  1  0.87438090  0.74965052  0.84953396  1
  O2-  O256  1  -0.00143808  0.12599562  0.34546714  1
  O2-  O257  1  -0.00073581  0.12559431  0.84874555  1
  O2-  O258  1  -0.00155391  0.37435536  0.34676673  1
  O2-  O259  1  -0.00057563  0.37458135  0.85027814  1
  O2-  O260  1  -0.00059469  0.62341683  0.34660793  1
  O2-  O261  1  -0.00028339  0.62468880  0.85118974  1
  O2-  O262  1  -0.00051679  0.87539399  0.34055915  1
  O2-  O263  1  0.00173224  0.87529717  0.85191353  1
  O2-  O264  1  0.24939103  0.12581207  0.34765668  1
  O2-  O265  1  0.25251067  0.12503051  0.85159994  1
  O2-  O266  1  0.24981069  0.37520831  0.34131337  1
  O2-  O267  1  0.24738940  0.37512706  0.85365742  1
  O2-  O268  1  0.24963784  0.62387496  0.34442239  1
  O2-  O269  1  0.25321020  0.62493628  0.85433676  1
  O2-  O270  1  0.24688855  0.87444664  0.34579785  1
  O2-  O271  1  0.24953848  0.87523801  0.85322625  1
  O2-  O272  1  0.50018209  0.12525055  0.34727552  1
  O2-  O273  1  0.50202859  0.12530514  0.85233484  1
  O2-  O274  1  0.50008832  0.37513363  0.34261870  1
  O2-  O275  1  0.50258168  0.37509047  0.84842922  1
  O2-  O276  1  0.50021382  0.62439495  0.34236522  1
  O2-  O277  1  0.49959003  0.62534756  0.84731980  1
  O2-  O278  1  0.50122980  0.87478587  0.35048732  1
  O2-  O279  1  0.50048071  0.87501444  0.84873068  1
  O2-  O280  1  0.75179608  0.12586192  0.34754482  1
  O2-  O281  1  0.74597486  0.12554669  0.84619944  1
  O2-  O282  1  0.75162132  0.37445554  0.34659721  1
  O2-  O283  1  0.75094803  0.37471862  0.84497254  1
  O2-  O284  1  0.75027291  0.62412254  0.34473465  1
  O2-  O285  1  0.74761173  0.62461363  0.84488640  1
  O2-  O286  1  0.75210676  0.87547217  0.34656457  1
  O2-  O287  1  0.74795019  0.87552955  0.84550984  1
