# generated using pymatgen
data_BaYFeCuO5
_symmetry_space_group_name_H-M   'P 1'
_cell_length_a   15.66966267
_cell_length_b   15.67031161
_cell_length_c   15.47638466
_cell_angle_alpha   90.00368669
_cell_angle_beta   90.00054748
_cell_angle_gamma   90.00172695
_symmetry_Int_Tables_number   1
_chemical_formula_structural   BaYFeCuO5
_chemical_formula_sum   'Ba32 Y32 Fe32 Cu32 O160'
_cell_volume   3800.20297982
_cell_formula_units_Z   32
loop_
 _symmetry_equiv_pos_site_id
 _symmetry_equiv_pos_as_xyz
  1  'x, y, z'
loop_
 _atom_type_symbol
 _atom_type_oxidation_number
  Ba2+  2.0
  Y3+  3.0
  Fe3+  3.0
  Cu2+  2.0
  O2-  -2.0
loop_
 _atom_site_type_symbol
 _atom_site_label
 _atom_site_symmetry_multiplicity
 _atom_site_fract_x
 _atom_site_fract_y
 _atom_site_fract_z
 _atom_site_occupancy
  Ba2+  Ba0  1  -0.00728640  0.00697210  0.01533877  1
  Ba2+  Ba1  1  -0.00377039  0.00944815  0.51145496  1
  Ba2+  Ba2  1  -0.00234439  0.24802395  0.02148813  1
  Ba2+  Ba3  1  -0.00265714  0.24822909  0.50051759  1
  Ba2+  Ba4  1  -0.00404611  0.49394510  0.01133547  1
  Ba2+  Ba5  1  -0.00239616  0.49559022  0.51268990  1
  Ba2+  Ba6  1  -0.00924835  0.75042585  0.00589305  1
  Ba2+  Ba7  1  -0.00287546  0.74520618  0.52474656  1
  Ba2+  Ba8  1  0.25549809  0.00682140  0.01405904  1
  Ba2+  Ba9  1  0.24800680  0.00103531  0.50698614  1
  Ba2+  Ba10  1  0.25280970  0.25153520  0.02151796  1
  Ba2+  Ba11  1  0.24126855  0.25019350  0.50618389  1
  Ba2+  Ba12  1  0.25775485  0.49209944  0.01433039  1
  Ba2+  Ba13  1  0.24278796  0.49632450  0.51160789  1
  Ba2+  Ba14  1  0.26049697  0.75009014  0.00643495  1
  Ba2+  Ba15  1  0.25019261  0.75261400  0.51174914  1
  Ba2+  Ba16  1  0.50429902  0.00310161  -0.00138834  1
  Ba2+  Ba17  1  0.50089338  0.00068403  0.50692895  1
  Ba2+  Ba18  1  0.50055084  0.24946305  0.01846668  1
  Ba2+  Ba19  1  0.50373777  0.24593456  0.51096769  1
  Ba2+  Ba20  1  0.49897823  0.49687800  0.02242263  1
  Ba2+  Ba21  1  0.49606568  0.49566218  0.51086002  1
  Ba2+  Ba22  1  0.50262729  0.75046500  0.00685270  1
  Ba2+  Ba23  1  0.49393751  0.75690066  0.50753402  1
  Ba2+  Ba24  1  0.74853944  0.00701651  0.00647533  1
  Ba2+  Ba25  1  0.75486341  0.00870798  0.51137580  1
  Ba2+  Ba26  1  0.74871122  0.24593703  0.01718465  1
  Ba2+  Ba27  1  0.75788663  0.24485436  0.50706441  1
  Ba2+  Ba28  1  0.74679304  0.49746881  0.01825910  1
  Ba2+  Ba29  1  0.76175963  0.49663789  0.51114346  1
  Ba2+  Ba30  1  0.74706905  0.75119095  0.00567597  1
  Ba2+  Ba31  1  0.76014696  0.75106982  0.51709920  1
  Y3+  Y32  1  -0.00143449  0.00511718  0.25747792  1
  Y3+  Y33  1  -0.00212673  0.00377912  0.75650913  1
  Y3+  Y34  1  -0.00090047  0.24924012  0.25925496  1
  Y3+  Y35  1  -0.00238199  0.24761414  0.75498867  1
  Y3+  Y36  1  -0.00005600  0.49432550  0.25706350  1
  Y3+  Y37  1  -0.00188023  0.49976632  0.75731500  1
  Y3+  Y38  1  -0.00049826  0.75149269  0.25282988  1
  Y3+  Y39  1  -0.00157223  0.74851056  0.75997897  1
  Y3+  Y40  1  0.24902690  0.00193222  0.26076827  1
  Y3+  Y41  1  0.25078459  0.00025032  0.75464941  1
  Y3+  Y42  1  0.24710790  0.24952939  0.25708651  1
  Y3+  Y43  1  0.25064594  0.25083174  0.75601172  1
  Y3+  Y44  1  0.24989417  0.49735669  0.25462407  1
  Y3+  Y45  1  0.25069258  0.49750025  0.75773366  1
  Y3+  Y46  1  0.25147341  0.75150800  0.25830152  1
  Y3+  Y47  1  0.25098496  0.75145768  0.75589834  1
  Y3+  Y48  1  0.50162015  0.00248359  0.26050217  1
  Y3+  Y49  1  0.50194383  0.00082120  0.75560333  1
  Y3+  Y50  1  0.50207448  0.24820991  0.25725903  1
  Y3+  Y51  1  0.50059028  0.24896259  0.75691173  1
  Y3+  Y52  1  0.49980519  0.49911284  0.25626506  1
  Y3+  Y53  1  0.49787883  0.49583971  0.75589761  1
  Y3+  Y54  1  0.49941838  0.75052479  0.25950085  1
  Y3+  Y55  1  0.49940279  0.75429676  0.75643612  1
  Y3+  Y56  1  0.75092551  0.00471929  0.25734608  1
  Y3+  Y57  1  0.74984145  0.00503808  0.75845480  1
  Y3+  Y58  1  0.75135988  0.24768284  0.25876935  1
  Y3+  Y59  1  0.75104716  0.24639035  0.75660514  1
  Y3+  Y60  1  0.75047776  0.49694839  0.25800862  1
  Y3+  Y61  1  0.75336394  0.49837510  0.75583253  1
  Y3+  Y62  1  0.74992535  0.75075034  0.25541126  1
  Y3+  Y63  1  0.75157731  0.75035164  0.75834448  1
  Fe3+  Fe64  1  0.12569379  0.62425994  0.87992207  1
  Fe3+  Fe65  1  0.37487601  0.12636776  0.87507704  1
  Fe3+  Fe66  1  0.37422247  0.37440642  0.37776462  1
  Fe3+  Fe67  1  0.37659898  0.62383070  0.87460326  1
  Fe3+  Fe68  1  0.87411557  0.37346455  0.87760066  1
  Fe3+  Fe69  1  0.62444673  0.62292502  0.87372522  1
  Fe3+  Fe70  1  0.62711606  0.87538288  0.38122273  1
  Fe3+  Fe71  1  0.12491929  0.12593661  0.87791126  1
  Fe3+  Fe72  1  0.62614506  0.62507964  0.38091330  1
  Fe3+  Fe73  1  0.12254215  0.87466987  0.37915273  1
  Fe3+  Fe74  1  0.12513381  0.37339976  0.87904386  1
  Fe3+  Fe75  1  0.37369481  0.62425849  0.37894638  1
  Fe3+  Fe76  1  0.12547840  0.87656026  0.88006736  1
  Fe3+  Fe77  1  0.12343274  0.62488591  0.37571761  1
  Fe3+  Fe78  1  0.62458455  0.37407981  0.87606883  1
  Fe3+  Fe79  1  0.37458958  0.12553611  0.37892814  1
  Fe3+  Fe80  1  0.87637389  0.87510951  0.37661323  1
  Fe3+  Fe81  1  0.62592844  0.37458781  0.37947292  1
  Fe3+  Fe82  1  0.87672869  0.62531375  0.37420614  1
  Fe3+  Fe83  1  0.87416939  0.87685895  0.87660765  1
  Fe3+  Fe84  1  0.62525127  0.62478616  0.63273498  1
  Fe3+  Fe85  1  0.62534800  0.87651719  0.13949508  1
  Fe3+  Fe86  1  0.12344644  0.37368888  0.63885484  1
  Fe3+  Fe87  1  0.37666177  0.87683099  0.14007176  1
  Fe3+  Fe88  1  0.12601672  0.62503329  0.13263547  1
  Fe3+  Fe89  1  0.37429485  0.62457651  0.63432673  1
  Fe3+  Fe90  1  0.87403716  0.62460901  0.13604852  1
  Fe3+  Fe91  1  0.62715093  0.87587019  0.63577005  1
  Fe3+  Fe92  1  0.12297309  0.87593576  0.63625263  1
  Fe3+  Fe93  1  0.62652459  0.37393769  0.63366452  1
  Fe3+  Fe94  1  0.37438925  0.12540769  0.63453007  1
  Fe3+  Fe95  1  0.12480876  0.87597797  0.13353898  1
  Cu2+  Cu96  1  0.62551478  0.87556283  0.86037653  1
  Cu2+  Cu97  1  0.62482483  0.12668484  0.87146092  1
  Cu2+  Cu98  1  0.62576728  0.12527351  0.37522875  1
  Cu2+  Cu99  1  0.37413703  0.87565659  0.37506656  1
  Cu2+  Cu100  1  0.87517282  0.37461423  0.37215682  1
  Cu2+  Cu101  1  0.12489616  0.37532325  0.36222339  1
  Cu2+  Cu102  1  0.12444077  0.12507637  0.37348575  1
  Cu2+  Cu103  1  0.87529209  0.12645234  0.87260796  1
  Cu2+  Cu104  1  0.87510776  0.12487739  0.36833101  1
  Cu2+  Cu105  1  0.87411867  0.62363394  0.86623771  1
  Cu2+  Cu106  1  0.37506241  0.87622557  0.86186379  1
  Cu2+  Cu107  1  0.37563402  0.37362345  0.87216556  1
  Cu2+  Cu108  1  0.37526087  0.62599707  0.15361673  1
  Cu2+  Cu109  1  0.62451635  0.12426869  0.14411097  1
  Cu2+  Cu110  1  0.87407491  0.87588355  0.14899601  1
  Cu2+  Cu111  1  0.62523431  0.37418694  0.15468971  1
  Cu2+  Cu112  1  0.87394597  0.12552282  0.14434216  1
  Cu2+  Cu113  1  0.87422098  0.37452727  0.15208454  1
  Cu2+  Cu114  1  0.62542273  0.12512282  0.64049970  1
  Cu2+  Cu115  1  0.37454409  0.37388521  0.64491159  1
  Cu2+  Cu116  1  0.87477948  0.62438309  0.65511752  1
  Cu2+  Cu117  1  0.87558014  0.37313205  0.64199695  1
  Cu2+  Cu118  1  0.12504021  0.12457861  0.15154629  1
  Cu2+  Cu119  1  0.87520790  0.87645459  0.65275745  1
  Cu2+  Cu120  1  0.62462658  0.62560462  0.15493946  1
  Cu2+  Cu121  1  0.37480846  0.87628446  0.64071153  1
  Cu2+  Cu122  1  0.12475411  0.12538849  0.64095260  1
  Cu2+  Cu123  1  0.37570732  0.37345025  0.14582652  1
  Cu2+  Cu124  1  0.12501259  0.62449090  0.65321851  1
  Cu2+  Cu125  1  0.37562692  0.12401710  0.15593596  1
  Cu2+  Cu126  1  0.87530021  0.12569250  0.64583224  1
  Cu2+  Cu127  1  0.12457674  0.37462599  0.14864487  1
  O2-  O128  1  0.12659592  0.12466701  -0.00190096  1
  O2-  O129  1  0.12519167  0.12443605  0.50645578  1
  O2-  O130  1  0.12559940  0.37445377  -0.00065178  1
  O2-  O131  1  0.12323775  0.37558085  0.51767316  1
  O2-  O132  1  0.12761798  0.62511991  0.00597922  1
  O2-  O133  1  0.12286025  0.62585014  0.49560873  1
  O2-  O134  1  0.12700488  0.87618152  0.00655214  1
  O2-  O135  1  0.12130991  0.87308393  0.50699330  1
  O2-  O136  1  0.37530915  0.12626347  -0.00436892  1
  O2-  O137  1  0.37377884  0.12538713  0.50653264  1
  O2-  O138  1  0.37673392  0.37389677  0.00749177  1
  O2-  O139  1  0.37273192  0.37683597  0.49800423  1
  O2-  O140  1  0.37828551  0.62469167  -0.00501767  1
  O2-  O141  1  0.37199569  0.62443265  0.50575920  1
  O2-  O142  1  0.37736815  0.87566980  0.01953327  1
  O2-  O143  1  0.37320117  0.87448546  0.50798091  1
  O2-  O144  1  0.62348341  0.12542518  0.00774924  1
  O2-  O145  1  0.62506452  0.12434870  0.50762916  1
  O2-  O146  1  0.62392893  0.37631569  -0.00385429  1
  O2-  O147  1  0.62617251  0.37570916  0.50603301  1
  O2-  O148  1  0.62281045  0.62260424  -0.00610029  1
  O2-  O149  1  0.62701080  0.62607192  0.50620640  1
  O2-  O150  1  0.62334209  0.87499001  0.01918988  1
  O2-  O151  1  0.62778012  0.87371162  0.50806528  1
  O2-  O152  1  0.87456770  0.12643574  0.00836585  1
  O2-  O153  1  0.87595671  0.12520435  0.50722752  1
  O2-  O154  1  0.87294369  0.37490438  -0.00187822  1
  O2-  O155  1  0.87644099  0.37493933  0.50651340  1
  O2-  O156  1  0.87149708  0.62417666  0.01530857  1
  O2-  O157  1  0.87831296  0.62615742  0.49462163  1
  O2-  O158  1  0.87267104  0.87501869  -0.00280363  1
  O2-  O159  1  0.87911246  0.87253448  0.49648960  1
  O2-  O160  1  0.12473673  -0.00220847  0.16572127  1
  O2-  O161  1  0.12402077  -0.00218550  0.66326882  1
  O2-  O162  1  0.12578512  0.24935883  0.16489486  1
  O2-  O163  1  0.12588313  0.25089605  0.66527678  1
  O2-  O164  1  0.12494471  0.50227025  0.16223469  1
  O2-  O165  1  0.12495785  0.49971854  0.66637845  1
  O2-  O166  1  0.12623059  0.75057287  0.16180901  1
  O2-  O167  1  0.12439925  0.75096637  0.66576104  1
  O2-  O168  1  0.37445749  -0.00057108  0.17067518  1
  O2-  O169  1  0.37497197  0.00268191  0.66381915  1
  O2-  O170  1  0.37488872  0.24756437  0.16756280  1
  O2-  O171  1  0.37462461  0.24837323  0.66068416  1
  O2-  O172  1  0.37577266  0.50144581  0.16559169  1
  O2-  O173  1  0.37504167  0.50151308  0.66124441  1
  O2-  O174  1  0.37469280  0.75169499  0.16849659  1
  O2-  O175  1  0.37467091  0.74727192  0.66372532  1
  O2-  O176  1  0.62464629  -0.00135056  0.17064865  1
  O2-  O177  1  0.62583354  -0.00231149  0.66431425  1
  O2-  O178  1  0.62478734  0.25052798  0.16676053  1
  O2-  O179  1  0.62514656  0.25253309  0.66147400  1
  O2-  O180  1  0.62381658  0.50029488  0.16665397  1
  O2-  O181  1  0.62390069  0.50044308  0.65760314  1
  O2-  O182  1  0.62447012  0.75097677  0.16842373  1
  O2-  O183  1  0.62592055  0.74942208  0.66246275  1
  O2-  O184  1  0.87564376  -0.00067139  0.16651460  1
  O2-  O185  1  0.87534315  0.00064582  0.66506805  1
  O2-  O186  1  0.87419673  0.25155096  0.16693337  1
  O2-  O187  1  0.87443587  0.24866201  0.66489298  1
  O2-  O188  1  0.87517268  0.50046196  0.16556259  1
  O2-  O189  1  0.87586580  0.50076571  0.66378313  1
  O2-  O190  1  0.87426583  0.74910613  0.16343730  1
  O2-  O191  1  0.87515155  0.74947265  0.66556282  1
  O2-  O192  1  0.00084803  0.12537904  0.16466452  1
  O2-  O193  1  -0.00081087  0.12481022  0.66564481  1
  O2-  O194  1  -0.00036375  0.37480024  0.16339673  1
  O2-  O195  1  0.00090976  0.37542573  0.66889654  1
  O2-  O196  1  0.00164244  0.62665969  0.15736842  1
  O2-  O197  1  -0.00048801  0.62570514  0.66857656  1
  O2-  O198  1  0.00131537  0.87355761  0.15779284  1
  O2-  O199  1  0.00048912  0.87380098  0.66741666  1
  O2-  O200  1  0.25002524  0.12340621  0.16635651  1
  O2-  O201  1  0.25234436  0.12404145  0.66239955  1
  O2-  O202  1  0.24929650  0.37519323  0.16529790  1
  O2-  O203  1  0.24912736  0.37591632  0.66591372  1
  O2-  O204  1  0.24848939  0.62582079  0.16264360  1
  O2-  O205  1  0.25173724  0.62522841  0.66288558  1
  O2-  O206  1  0.24906538  0.87540334  0.16623519  1
  O2-  O207  1  0.24624074  0.87428152  0.66380813  1
  O2-  O208  1  0.49908725  0.12480591  0.17003902  1
  O2-  O209  1  0.49740425  0.12496616  0.66097137  1
  O2-  O210  1  0.50133733  0.37468248  0.16947270  1
  O2-  O211  1  0.50158042  0.37520393  0.65906571  1
  O2-  O212  1  0.50000071  0.62591094  0.17034348  1
  O2-  O213  1  0.50015417  0.62549329  0.65492835  1
  O2-  O214  1  0.50010718  0.87465276  0.17433128  1
  O2-  O215  1  0.50371834  0.87427312  0.66177436  1
  O2-  O216  1  0.74962107  0.12501115  0.16666406  1
  O2-  O217  1  0.75102343  0.12474556  0.66519924  1
  O2-  O218  1  0.74934283  0.37628028  0.16645800  1
  O2-  O219  1  0.74803397  0.37641751  0.66191409  1
  O2-  O220  1  0.75003765  0.62437417  0.16727877  1
  O2-  O221  1  0.74835626  0.62442863  0.66032724  1
  O2-  O222  1  0.74950566  0.87467434  0.16850132  1
  O2-  O223  1  0.74996055  0.87397866  0.66179368  1
  O2-  O224  1  0.12486953  -0.00321011  0.35085163  1
  O2-  O225  1  0.12578134  -0.00108185  0.84686738  1
  O2-  O226  1  0.12512517  0.25164395  0.34995223  1
  O2-  O227  1  0.12523307  0.24996163  0.84475654  1
  O2-  O228  1  0.12567174  0.50080354  0.34582620  1
  O2-  O229  1  0.12587036  0.50115719  0.84929965  1
  O2-  O230  1  0.12433542  0.75071621  0.34488126  1
  O2-  O231  1  0.12518261  0.74999459  0.85182538  1
  O2-  O232  1  0.37403709  0.00256254  0.35241509  1
  O2-  O233  1  0.37428617  0.00044102  0.84680368  1
  O2-  O234  1  0.37545974  0.24980100  0.35042973  1
  O2-  O235  1  0.37493872  0.24802478  0.84244231  1
  O2-  O236  1  0.37448504  0.50114092  0.34845033  1
  O2-  O237  1  0.37469633  0.50141138  0.84364020  1
  O2-  O238  1  0.37492832  0.74665806  0.35124060  1
  O2-  O239  1  0.37558727  0.75025259  0.84728136  1
  O2-  O240  1  0.62603844  -0.00286530  0.35293493  1
  O2-  O241  1  0.62485460  -0.00067011  0.84852264  1
  O2-  O242  1  0.62400792  0.25270473  0.35129072  1
  O2-  O243  1  0.62443877  0.25178084  0.84358654  1
  O2-  O244  1  0.62511914  0.50088611  0.35167458  1
  O2-  O245  1  0.62471162  0.49913771  0.83898384  1
  O2-  O246  1  0.62457836  0.74918602  0.35166221  1
  O2-  O247  1  0.62411730  0.74939658  0.84664279  1
  O2-  O248  1  0.87515560  -0.00123715  0.34876493  1
  O2-  O249  1  0.87514274  -0.00047722  0.84769673  1
  O2-  O250  1  0.87519700  0.24907507  0.35022791  1
  O2-  O251  1  0.87536471  0.25169648  0.84567123  1
  O2-  O252  1  0.87512285  0.50199948  0.34685070  1
  O2-  O253  1  0.87474258  0.49855242  0.84653591  1
  O2-  O254  1  0.87586598  0.74979652  0.34243668  1
  O2-  O255  1  0.87511369  0.75034240  0.84932417  1
  O2-  O256  1  -0.00083597  0.12495002  0.34825961  1
  O2-  O257  1  0.00208773  0.12433542  0.84743546  1
  O2-  O258  1  0.00135521  0.37537107  0.34800719  1
  O2-  O259  1  0.00030942  0.37650259  0.84921566  1
  O2-  O260  1  0.00028177  0.62518127  0.33831032  1
  O2-  O261  1  0.00203236  0.62526433  0.85370488  1
  O2-  O262  1  0.00059409  0.87458343  0.34122160  1
  O2-  O263  1  0.00156368  0.87421577  0.85091186  1
  O2-  O264  1  0.25224886  0.12544030  0.35033341  1
  O2-  O265  1  0.24936271  0.12403827  0.84301354  1
  O2-  O266  1  0.25063133  0.37560687  0.34789534  1
  O2-  O267  1  0.24812440  0.37533145  0.84740758  1
  O2-  O268  1  0.25008476  0.62566416  0.34664335  1
  O2-  O269  1  0.24949500  0.62645517  0.84683068  1
  O2-  O270  1  0.24627158  0.87343413  0.35038011  1
  O2-  O271  1  0.24775894  0.87373032  0.84834460  1
  O2-  O272  1  0.49752734  0.12456460  0.35305237  1
  O2-  O273  1  0.49851217  0.12391749  0.84382187  1
  O2-  O274  1  0.50064398  0.37693172  0.35234456  1
  O2-  O275  1  0.50128817  0.37496597  0.84201587  1
  O2-  O276  1  0.50038576  0.62456825  0.35582697  1
  O2-  O277  1  0.50000179  0.62523209  0.83732686  1
  O2-  O278  1  0.50342483  0.87413808  0.35614147  1
  O2-  O279  1  0.50055396  0.87565309  0.84644164  1
  O2-  O280  1  0.75098532  0.12531387  0.34980784  1
  O2-  O281  1  0.74996358  0.12545311  0.84920377  1
  O2-  O282  1  0.74737788  0.37586415  0.35045009  1
  O2-  O283  1  0.74996776  0.37533173  0.84347251  1
  O2-  O284  1  0.74917498  0.62573543  0.34965570  1
  O2-  O285  1  0.74856345  0.62516639  0.84367921  1
  O2-  O286  1  0.75002339  0.87273747  0.35037995  1
  O2-  O287  1  0.75048229  0.87410241  0.84538554  1
