# generated using pymatgen
data_BaYFeCuO5
_symmetry_space_group_name_H-M   'P 1'
_cell_length_a   15.65424022
_cell_length_b   15.65551049
_cell_length_c   15.45125971
_cell_angle_alpha   90.00350548
_cell_angle_beta   89.99540908
_cell_angle_gamma   90.00309074
_symmetry_Int_Tables_number   1
_chemical_formula_structural   BaYFeCuO5
_chemical_formula_sum   'Ba32 Y32 Fe32 Cu32 O160'
_cell_volume   3786.71933222
_cell_formula_units_Z   32
loop_
 _symmetry_equiv_pos_site_id
 _symmetry_equiv_pos_as_xyz
  1  'x, y, z'
loop_
 _atom_type_symbol
 _atom_type_oxidation_number
  Ba2+  2.0
  Y3+  3.0
  Fe3+  3.0
  Cu2+  2.0
  O2-  -2.0
loop_
 _atom_site_type_symbol
 _atom_site_label
 _atom_site_symmetry_multiplicity
 _atom_site_fract_x
 _atom_site_fract_y
 _atom_site_fract_z
 _atom_site_occupancy
  Ba2+  Ba0  1  0.00366294  -0.00623036  0.01602016  1
  Ba2+  Ba1  1  0.00047382  -0.00095929  0.51646442  1
  Ba2+  Ba2  1  0.00212708  0.24918399  0.01627378  1
  Ba2+  Ba3  1  0.00351114  0.24468104  0.51120987  1
  Ba2+  Ba4  1  0.00178394  0.50095540  0.01654467  1
  Ba2+  Ba5  1  0.00783884  0.50417450  0.51038109  1
  Ba2+  Ba6  1  0.00288633  0.75624959  0.01632616  1
  Ba2+  Ba7  1  0.00474690  0.75183198  0.51553145  1
  Ba2+  Ba8  1  0.24720765  0.00599248  0.01789187  1
  Ba2+  Ba9  1  0.25200483  -0.00320798  0.51184952  1
  Ba2+  Ba10  1  0.25571679  0.24398227  0.01732356  1
  Ba2+  Ba11  1  0.24617871  0.24437685  0.51146912  1
  Ba2+  Ba12  1  0.25417459  0.50367259  0.02478422  1
  Ba2+  Ba13  1  0.24177165  0.50440595  0.50265614  1
  Ba2+  Ba14  1  0.24519785  0.74635283  0.02356927  1
  Ba2+  Ba15  1  0.24682080  0.75405228  0.50131214  1
  Ba2+  Ba16  1  0.49663195  0.01040003  0.01159959  1
  Ba2+  Ba17  1  0.49717399  -0.00293285  0.50202800  1
  Ba2+  Ba18  1  0.49236681  0.24552675  0.01667257  1
  Ba2+  Ba19  1  0.50061572  0.24048917  0.50671432  1
  Ba2+  Ba20  1  0.49374603  0.50202626  0.01307980  1
  Ba2+  Ba21  1  0.49944302  0.50066202  0.50708406  1
  Ba2+  Ba22  1  0.49837366  0.74200852  0.00602195  1
  Ba2+  Ba23  1  0.49579169  0.76021408  0.50373388  1
  Ba2+  Ba24  1  0.75344718  -0.00280133  0.01063823  1
  Ba2+  Ba25  1  0.75006677  -0.00063852  0.50573375  1
  Ba2+  Ba26  1  0.74928616  0.25010205  0.01644745  1
  Ba2+  Ba27  1  0.74967949  0.24063249  0.50585351  1
  Ba2+  Ba28  1  0.74920647  0.50048007  0.00578478  1
  Ba2+  Ba29  1  0.75123044  0.50060510  0.51690319  1
  Ba2+  Ba30  1  0.75391487  0.75264409  0.00188545  1
  Ba2+  Ba31  1  0.75252984  0.75847986  0.51831827  1
  Y3+  Y32  1  0.00047494  -0.00151787  0.25707050  1
  Y3+  Y33  1  -0.00021379  -0.00157154  0.75556924  1
  Y3+  Y34  1  -0.00009681  0.24977834  0.25984549  1
  Y3+  Y35  1  0.00151743  0.24873225  0.75246281  1
  Y3+  Y36  1  0.00247738  0.49941633  0.26006524  1
  Y3+  Y37  1  0.00201072  0.50113312  0.75202652  1
  Y3+  Y38  1  0.00326840  0.75175699  0.25771966  1
  Y3+  Y39  1  0.00007707  0.75176240  0.75483625  1
  Y3+  Y40  1  0.25067408  -0.00055316  0.26062998  1
  Y3+  Y41  1  0.25110218  0.00077067  0.75358392  1
  Y3+  Y42  1  0.25122969  0.24822736  0.25971581  1
  Y3+  Y43  1  0.25039831  0.24751531  0.75359812  1
  Y3+  Y44  1  0.24925405  0.50193676  0.26270544  1
  Y3+  Y45  1  0.24732422  0.49958088  0.75105385  1
  Y3+  Y46  1  0.24871499  0.74982413  0.26290837  1
  Y3+  Y47  1  0.24817886  0.75222859  0.75075568  1
  Y3+  Y48  1  0.49962726  0.00123711  0.26088647  1
  Y3+  Y49  1  0.49661837  -0.00003440  0.75535270  1
  Y3+  Y50  1  0.49821091  0.24554605  0.25852706  1
  Y3+  Y51  1  0.49790251  0.24811842  0.75621050  1
  Y3+  Y52  1  0.49715904  0.50114192  0.25914403  1
  Y3+  Y53  1  0.50131305  0.49977995  0.75655118  1
  Y3+  Y54  1  0.49816676  0.75198982  0.26145772  1
  Y3+  Y55  1  0.50045767  0.75265296  0.75570487  1
  Y3+  Y56  1  0.74938238  0.00038648  0.25844063  1
  Y3+  Y57  1  0.75222042  -0.00224685  0.75661015  1
  Y3+  Y58  1  0.75052995  0.24680540  0.25882126  1
  Y3+  Y59  1  0.75004476  0.24937517  0.75445657  1
  Y3+  Y60  1  0.75111699  0.49895236  0.25660226  1
  Y3+  Y61  1  0.74949519  0.50101970  0.75686702  1
  Y3+  Y62  1  0.75025698  0.75389221  0.25696728  1
  Y3+  Y63  1  0.75116355  0.75222531  0.75845273  1
  Fe3+  Fe64  1  0.62545150  0.37455376  0.37807537  1
  Fe3+  Fe65  1  0.37298206  0.87537503  0.88119944  1
  Fe3+  Fe66  1  0.12629319  0.37522441  0.87928901  1
  Fe3+  Fe67  1  0.62637407  0.62649836  0.38030340  1
  Fe3+  Fe68  1  0.12623439  0.62485635  0.87641288  1
  Fe3+  Fe69  1  0.37455876  0.37404263  0.37934879  1
  Fe3+  Fe70  1  0.62373554  0.37442312  0.87945662  1
  Fe3+  Fe71  1  0.87479283  0.62618609  0.37782522  1
  Fe3+  Fe72  1  0.12449086  0.12343408  0.37551462  1
  Fe3+  Fe73  1  0.87603707  0.12529459  0.87890276  1
  Fe3+  Fe74  1  0.62368841  0.87584656  0.88026710  1
  Fe3+  Fe75  1  0.87681844  0.62484469  0.87792546  1
  Fe3+  Fe76  1  0.12541841  0.12508522  0.87597628  1
  Fe3+  Fe77  1  0.87610033  0.87535474  0.37561975  1
  Fe3+  Fe78  1  0.62490958  0.12573201  0.87887907  1
  Fe3+  Fe79  1  0.37269955  0.62503772  0.87429873  1
  Fe3+  Fe80  1  0.87654997  0.37461956  0.87706458  1
  Fe3+  Fe81  1  0.37293546  0.37512171  0.87632315  1
  Fe3+  Fe82  1  0.87530832  0.37472228  0.37938944  1
  Fe3+  Fe83  1  0.12639193  0.87482587  0.87612480  1
  Fe3+  Fe84  1  0.37527788  0.37468010  0.63318043  1
  Fe3+  Fe85  1  0.12638966  0.37427244  0.13703358  1
  Fe3+  Fe86  1  0.37474115  0.62608475  0.63425203  1
  Fe3+  Fe87  1  0.87539437  0.62523174  0.13545484  1
  Fe3+  Fe88  1  0.37496711  0.87485890  0.13634978  1
  Fe3+  Fe89  1  0.62492113  0.12293481  0.63927737  1
  Fe3+  Fe90  1  0.87561603  0.12447741  0.13605437  1
  Fe3+  Fe91  1  0.87509145  0.37440692  0.63459811  1
  Fe3+  Fe92  1  0.62355938  0.37473300  0.13644650  1
  Fe3+  Fe93  1  0.62481837  0.62567387  0.13799819  1
  Fe3+  Fe94  1  0.62389944  0.87536105  0.13512935  1
  Fe3+  Fe95  1  0.62473337  0.62689343  0.63608393  1
  Cu2+  Cu96  1  0.12470064  0.37360070  0.37303491  1
  Cu2+  Cu97  1  0.37546080  0.62526546  0.36961952  1
  Cu2+  Cu98  1  0.12401097  0.87610063  0.37173953  1
  Cu2+  Cu99  1  0.62599141  0.87529331  0.37325244  1
  Cu2+  Cu100  1  0.62513656  0.12448692  0.36279059  1
  Cu2+  Cu101  1  0.12332336  0.62614948  0.37100449  1
  Cu2+  Cu102  1  0.37409754  0.12437459  0.37391411  1
  Cu2+  Cu103  1  0.62452931  0.62486167  0.86412945  1
  Cu2+  Cu104  1  0.37420100  0.87564970  0.36903387  1
  Cu2+  Cu105  1  0.37385260  0.12522788  0.87089147  1
  Cu2+  Cu106  1  0.87696324  0.87545693  0.87395195  1
  Cu2+  Cu107  1  0.87603593  0.12378066  0.37219992  1
  Cu2+  Cu108  1  0.12544590  0.37441692  0.63827774  1
  Cu2+  Cu109  1  0.12546428  0.87566287  0.64038354  1
  Cu2+  Cu110  1  0.87451554  0.12389102  0.64037756  1
  Cu2+  Cu111  1  0.87524452  0.87519742  0.65274943  1
  Cu2+  Cu112  1  0.62439460  0.87640465  0.64288147  1
  Cu2+  Cu113  1  0.37548629  0.12414413  0.64038322  1
  Cu2+  Cu114  1  0.87499508  0.37521783  0.15006182  1
  Cu2+  Cu115  1  0.12460690  0.12524179  0.15252702  1
  Cu2+  Cu116  1  0.37489176  0.37492138  0.15498556  1
  Cu2+  Cu117  1  0.87461954  0.87457026  0.14168696  1
  Cu2+  Cu118  1  0.12473904  0.62454161  0.15423550  1
  Cu2+  Cu119  1  0.37514800  0.62630508  0.15793118  1
  Cu2+  Cu120  1  0.12634652  0.87530868  0.15347978  1
  Cu2+  Cu121  1  0.87486602  0.62579718  0.64830157  1
  Cu2+  Cu122  1  0.62452293  0.37422930  0.64701890  1
  Cu2+  Cu123  1  0.62505854  0.12439891  0.14954323  1
  Cu2+  Cu124  1  0.37501407  0.87493831  0.64353467  1
  Cu2+  Cu125  1  0.12502227  0.12383810  0.65011110  1
  Cu2+  Cu126  1  0.12516682  0.62653882  0.64176309  1
  Cu2+  Cu127  1  0.37462350  0.12361054  0.14847194  1
  O2-  O128  1  0.12450056  0.12660518  -0.00346725  1
  O2-  O129  1  0.12373413  0.12363074  0.49667368  1
  O2-  O130  1  0.12694024  0.37593711  0.00652490  1
  O2-  O131  1  0.12399390  0.37400728  0.50597158  1
  O2-  O132  1  0.12684790  0.62320349  -0.00328452  1
  O2-  O133  1  0.12372085  0.62631672  0.50578192  1
  O2-  O134  1  0.12772531  0.87384525  -0.00319896  1
  O2-  O135  1  0.12365644  0.87617618  0.50658965  1
  O2-  O136  1  0.37397184  0.12504563  0.00687839  1
  O2-  O137  1  0.37544623  0.12482864  0.50697099  1
  O2-  O138  1  0.37302685  0.37619638  -0.00318543  1
  O2-  O139  1  0.37605521  0.37466940  0.50619297  1
  O2-  O140  1  0.37273710  0.62381333  -0.00485470  1
  O2-  O141  1  0.37703746  0.62573546  0.51393532  1
  O2-  O142  1  0.37365313  0.87412481  0.00778810  1
  O2-  O143  1  0.37471177  0.87530792  0.50736502  1
  O2-  O144  1  0.62525720  0.12841893  -0.00048375  1
  O2-  O145  1  0.62570483  0.12289892  0.51799507  1
  O2-  O146  1  0.62325468  0.37584686  0.00726239  1
  O2-  O147  1  0.62672760  0.37575778  0.49831155  1
  O2-  O148  1  0.62349745  0.62311914  0.01755299  1
  O2-  O149  1  0.62669654  0.62632253  0.50762428  1
  O2-  O150  1  0.62332506  0.87383980  0.00786501  1
  O2-  O151  1  0.62618057  0.87550444  0.50784099  1
  O2-  O152  1  0.87584470  0.12658953  0.00667915  1
  O2-  O153  1  0.87479178  0.12433497  0.50699139  1
  O2-  O154  1  0.87653084  0.37547711  -0.00271078  1
  O2-  O155  1  0.87411170  0.37504347  0.50607902  1
  O2-  O156  1  0.87588825  0.62369813  0.00640731  1
  O2-  O157  1  0.87307509  0.62605736  0.49803492  1
  O2-  O158  1  0.87524172  0.87427309  0.00688530  1
  O2-  O159  1  0.87561904  0.87496873  0.49657280  1
  O2-  O160  1  0.12426753  0.00054809  0.16177512  1
  O2-  O161  1  0.12442923  0.00142077  0.66537593  1
  O2-  O162  1  0.12548438  0.25179119  0.16258267  1
  O2-  O163  1  0.12499058  0.24738576  0.66384884  1
  O2-  O164  1  0.12495901  0.49795418  0.16530998  1
  O2-  O165  1  0.12427714  0.50075372  0.66342204  1
  O2-  O166  1  0.12570597  0.74936551  0.16450401  1
  O2-  O167  1  0.12451198  0.75060510  0.66452854  1
  O2-  O168  1  0.37591794  -0.00310230  0.16399967  1
  O2-  O169  1  0.37510795  0.00000526  0.66703572  1
  O2-  O170  1  0.37511794  0.24990593  0.16659123  1
  O2-  O171  1  0.37560417  0.25218215  0.66180255  1
  O2-  O172  1  0.37578937  0.50088961  0.16712782  1
  O2-  O173  1  0.37667772  0.49953797  0.66187051  1
  O2-  O174  1  0.37520718  0.75188148  0.16435115  1
  O2-  O175  1  0.37615578  0.74804035  0.66809899  1
  O2-  O176  1  0.62408398  -0.00191726  0.16136010  1
  O2-  O177  1  0.62536447  0.00109847  0.67202766  1
  O2-  O178  1  0.62537519  0.25174115  0.16333425  1
  O2-  O179  1  0.62535286  0.24882937  0.66648888  1
  O2-  O180  1  0.62402837  0.49914845  0.16695766  1
  O2-  O181  1  0.62542355  0.50202711  0.66265738  1
  O2-  O182  1  0.62516937  0.75089480  0.16523763  1
  O2-  O183  1  0.62573909  0.74812487  0.66644085  1
  O2-  O184  1  0.87553140  0.00221212  0.16102849  1
  O2-  O185  1  0.87511013  -0.00201899  0.66744550  1
  O2-  O186  1  0.87415722  0.24870881  0.16416856  1
  O2-  O187  1  0.87414111  0.25252896  0.66367031  1
  O2-  O188  1  0.87504986  0.50167748  0.16441397  1
  O2-  O189  1  0.87420641  0.49833975  0.66292792  1
  O2-  O190  1  0.87362996  0.74696037  0.16170748  1
  O2-  O191  1  0.87401437  0.75121915  0.66576569  1
  O2-  O192  1  -0.00135054  0.12681299  0.16126787  1
  O2-  O193  1  0.00162276  0.12511726  0.66408307  1
  O2-  O194  1  0.00204339  0.37470091  0.16226481  1
  O2-  O195  1  -0.00266752  0.37471628  0.66419693  1
  O2-  O196  1  -0.00128593  0.62431174  0.16045107  1
  O2-  O197  1  -0.00115647  0.62543474  0.66515808  1
  O2-  O198  1  0.00194169  0.87392693  0.16174841  1
  O2-  O199  1  -0.00170160  0.87492254  0.66395446  1
  O2-  O200  1  0.24878211  0.12495067  0.16536024  1
  O2-  O201  1  0.24837209  0.12486686  0.66185781  1
  O2-  O202  1  0.24928401  0.37544999  0.16491765  1
  O2-  O203  1  0.25332195  0.37524013  0.66226305  1
  O2-  O204  1  0.25014265  0.62410635  0.16589482  1
  O2-  O205  1  0.25176629  0.62440548  0.66247032  1
  O2-  O206  1  0.25163234  0.87494148  0.16456209  1
  O2-  O207  1  0.25047166  0.87557413  0.66366764  1
  O2-  O208  1  0.50043968  0.12514263  0.16654831  1
  O2-  O209  1  0.50151978  0.12514224  0.66803962  1
  O2-  O210  1  0.50083777  0.37517238  0.16415118  1
  O2-  O211  1  0.49833458  0.37560238  0.66481316  1
  O2-  O212  1  0.50089186  0.62538292  0.16829584  1
  O2-  O213  1  0.50143545  0.62477017  0.66539730  1
  O2-  O214  1  0.50011188  0.87378145  0.16406273  1
  O2-  O215  1  0.49928790  0.87488233  0.66859452  1
  O2-  O216  1  0.75184240  0.12509773  0.16291508  1
  O2-  O217  1  0.74842657  0.12470468  0.66921908  1
  O2-  O218  1  0.74768371  0.37613676  0.16164062  1
  O2-  O219  1  0.75134195  0.37606496  0.66568620  1
  O2-  O220  1  0.75040121  0.62322091  0.16377062  1
  O2-  O221  1  0.74826862  0.62500174  0.66645700  1
  O2-  O222  1  0.74653615  0.87522019  0.16255052  1
  O2-  O223  1  0.75191695  0.87463614  0.66781309  1
  O2-  O224  1  0.12480051  0.00107640  0.34469162  1
  O2-  O225  1  0.12540524  0.00000457  0.84713768  1
  O2-  O226  1  0.12418051  0.24784554  0.34569699  1
  O2-  O227  1  0.12425310  0.25189400  0.84720748  1
  O2-  O228  1  0.12444331  0.50002216  0.34973283  1
  O2-  O229  1  0.12518763  0.49880263  0.84586706  1
  O2-  O230  1  0.12413404  0.75066650  0.34908651  1
  O2-  O231  1  0.12510459  0.74946667  0.84542674  1
  O2-  O232  1  0.37515387  -0.00054369  0.34765109  1
  O2-  O233  1  0.37494383  -0.00311605  0.85100358  1
  O2-  O234  1  0.37614821  0.25223132  0.35029148  1
  O2-  O235  1  0.37472811  0.25249948  0.84443678  1
  O2-  O236  1  0.37576995  0.49801428  0.35208657  1
  O2-  O237  1  0.37486021  0.49960875  0.84221353  1
  O2-  O238  1  0.37582901  0.75005595  0.34879289  1
  O2-  O239  1  0.37601961  0.75139015  0.84977611  1
  O2-  O240  1  0.62564224  0.00130330  0.34647651  1
  O2-  O241  1  0.62527228  -0.00049427  0.85398136  1
  O2-  O242  1  0.62529168  0.25054047  0.34796237  1
  O2-  O243  1  0.62535373  0.25179906  0.84831571  1
  O2-  O244  1  0.62614436  0.50113669  0.34973557  1
  O2-  O245  1  0.62559683  0.49746903  0.84812158  1
  O2-  O246  1  0.62531039  0.74715510  0.34808656  1
  O2-  O247  1  0.62441931  0.75208042  0.85182052  1
  O2-  O248  1  0.87424223  -0.00159450  0.34401183  1
  O2-  O249  1  0.87478037  0.00368129  0.85096745  1
  O2-  O250  1  0.87424927  0.25241585  0.34943816  1
  O2-  O251  1  0.87557850  0.24974061  0.84650896  1
  O2-  O252  1  0.87345579  0.49891779  0.34860791  1
  O2-  O253  1  0.87459175  0.50056668  0.84686638  1
  O2-  O254  1  0.87445470  0.75003116  0.34315680  1
  O2-  O255  1  0.87500016  0.74664773  0.85012476  1
  O2-  O256  1  0.00128608  0.12503797  0.34400743  1
  O2-  O257  1  -0.00042240  0.12621248  0.84693618  1
  O2-  O258  1  -0.00349218  0.37530077  0.34725995  1
  O2-  O259  1  0.00188374  0.37589591  0.84794106  1
  O2-  O260  1  -0.00334768  0.62403035  0.34375416  1
  O2-  O261  1  0.00027399  0.62329026  0.84795320  1
  O2-  O262  1  -0.00167825  0.87511331  0.34415063  1
  O2-  O263  1  0.00286598  0.87503998  0.84670037  1
  O2-  O264  1  0.24847632  0.12534810  0.34778083  1
  O2-  O265  1  0.24797290  0.12617727  0.84435319  1
  O2-  O266  1  0.25290375  0.37488441  0.34969493  1
  O2-  O267  1  0.24790988  0.37522885  0.84443324  1
  O2-  O268  1  0.25073147  0.62499872  0.35098152  1
  O2-  O269  1  0.24962319  0.62469984  0.84103150  1
  O2-  O270  1  0.25014546  0.87464693  0.34926706  1
  O2-  O271  1  0.25097624  0.87435883  0.84524906  1
  O2-  O272  1  0.50105499  0.12478588  0.35078417  1
  O2-  O273  1  0.50169469  0.12577766  0.84904445  1
  O2-  O274  1  0.49970165  0.37590366  0.34906272  1
  O2-  O275  1  0.50061268  0.37576219  0.84886679  1
  O2-  O276  1  0.50273522  0.62415839  0.35222003  1
  O2-  O277  1  0.49869600  0.62437036  0.84777031  1
  O2-  O278  1  0.49948372  0.87512546  0.34889076  1
  O2-  O279  1  0.49930920  0.87457441  0.85262596  1
  O2-  O280  1  0.74908832  0.12541003  0.34767726  1
  O2-  O281  1  0.75101573  0.12677497  0.85087404  1
  O2-  O282  1  0.75092722  0.37480792  0.34603492  1
  O2-  O283  1  0.74932408  0.37553977  0.85049720  1
  O2-  O284  1  0.74947829  0.62462641  0.34539993  1
  O2-  O285  1  0.75134930  0.62412210  0.85238860  1
  O2-  O286  1  0.75206994  0.87495404  0.34515826  1
  O2-  O287  1  0.74710162  0.87457173  0.85238133  1
