# generated using pymatgen
data_BaYFeCuO5
_symmetry_space_group_name_H-M   'P 1'
_cell_length_a   15.67241853
_cell_length_b   15.67460241
_cell_length_c   15.50834641
_cell_angle_alpha   90.00155787
_cell_angle_beta   89.99391223
_cell_angle_gamma   89.99631340
_symmetry_Int_Tables_number   1
_chemical_formula_structural   BaYFeCuO5
_chemical_formula_sum   'Ba32 Y32 Fe32 Cu32 O160'
_cell_volume   3809.76374277
_cell_formula_units_Z   32
loop_
 _symmetry_equiv_pos_site_id
 _symmetry_equiv_pos_as_xyz
  1  'x, y, z'
loop_
 _atom_type_symbol
 _atom_type_oxidation_number
  Ba2+  2.0
  Y3+  3.0
  Fe3+  3.0
  Cu2+  2.0
  O2-  -2.0
loop_
 _atom_site_type_symbol
 _atom_site_label
 _atom_site_symmetry_multiplicity
 _atom_site_fract_x
 _atom_site_fract_y
 _atom_site_fract_z
 _atom_site_occupancy
  Ba2+  Ba0  1  -0.00108245  -0.00059191  -0.00295424  1
  Ba2+  Ba1  1  0.00329800  -0.00296408  0.52141083  1
  Ba2+  Ba2  1  0.00579852  0.24293664  0.00789817  1
  Ba2+  Ba3  1  0.00468838  0.24326202  0.51214676  1
  Ba2+  Ba4  1  0.00283432  0.50599861  0.01910940  1
  Ba2+  Ba5  1  0.00991118  0.50118195  0.50562349  1
  Ba2+  Ba6  1  -0.00444228  0.75113873  0.00709716  1
  Ba2+  Ba7  1  0.00733803  0.75718945  0.51540601  1
  Ba2+  Ba8  1  0.24278468  -0.00074980  0.00697462  1
  Ba2+  Ba9  1  0.24814667  -0.00308195  0.52141605  1
  Ba2+  Ba10  1  0.24427483  0.25269984  0.01738507  1
  Ba2+  Ba11  1  0.25206710  0.24827608  0.51654601  1
  Ba2+  Ba12  1  0.24850846  0.49914587  0.01796532  1
  Ba2+  Ba13  1  0.25323686  0.50208298  0.51654248  1
  Ba2+  Ba14  1  0.24755495  0.74909820  0.00678653  1
  Ba2+  Ba15  1  0.24956553  0.75297953  0.52124826  1
  Ba2+  Ba16  1  0.50691786  -0.00021254  0.00664226  1
  Ba2+  Ba17  1  0.49458995  -0.00550464  0.52357180  1
  Ba2+  Ba18  1  0.50605325  0.25123887  0.00710489  1
  Ba2+  Ba19  1  0.49673025  0.25630899  0.51680112  1
  Ba2+  Ba20  1  0.49573265  0.49535328  0.00235815  1
  Ba2+  Ba21  1  0.49940771  0.50000502  0.52219756  1
  Ba2+  Ba22  1  0.49655105  0.75385282  0.00259474  1
  Ba2+  Ba23  1  0.49825303  0.75017015  0.52718725  1
  Ba2+  Ba24  1  0.75168841  -0.00015541  -0.00300206  1
  Ba2+  Ba25  1  0.75463811  -0.00481380  0.52249539  1
  Ba2+  Ba26  1  0.74548462  0.24332241  -0.00353708  1
  Ba2+  Ba27  1  0.74617675  0.25172704  0.51068152  1
  Ba2+  Ba28  1  0.75362278  0.50252002  0.00133508  1
  Ba2+  Ba29  1  0.73745943  0.49923133  0.51124610  1
  Ba2+  Ba30  1  0.75900939  0.75479775  0.00299670  1
  Ba2+  Ba31  1  0.74421524  0.75516542  0.52375898  1
  Y3+  Y32  1  0.00103846  -0.00169236  0.25586466  1
  Y3+  Y33  1  0.00052922  -0.00036047  0.75933837  1
  Y3+  Y34  1  0.00275437  0.24974853  0.25735037  1
  Y3+  Y35  1  -0.00002611  0.24537822  0.75823291  1
  Y3+  Y36  1  0.00081492  0.50112512  0.25731871  1
  Y3+  Y37  1  -0.00099753  0.50200490  0.75710132  1
  Y3+  Y38  1  -0.00066294  0.75095920  0.25489620  1
  Y3+  Y39  1  0.00014512  0.75303094  0.75952593  1
  Y3+  Y40  1  0.24846529  -0.00122817  0.25499071  1
  Y3+  Y41  1  0.24676631  0.00012419  0.75826478  1
  Y3+  Y42  1  0.24832012  0.25058452  0.25532304  1
  Y3+  Y43  1  0.24968742  0.24740446  0.75728504  1
  Y3+  Y44  1  0.24869688  0.49858665  0.25641791  1
  Y3+  Y45  1  0.25185377  0.50217251  0.75618755  1
  Y3+  Y46  1  0.24873685  0.75223784  0.25569998  1
  Y3+  Y47  1  0.24870684  0.75012841  0.75720273  1
  Y3+  Y48  1  0.50005870  0.00069228  0.25221641  1
  Y3+  Y49  1  0.50080630  0.00015125  0.76098285  1
  Y3+  Y50  1  0.50116945  0.25019694  0.25628454  1
  Y3+  Y51  1  0.50132506  0.25083936  0.75782261  1
  Y3+  Y52  1  0.50028069  0.49778266  0.25721508  1
  Y3+  Y53  1  0.50018418  0.49943943  0.75728841  1
  Y3+  Y54  1  0.49889163  0.75179978  0.25303975  1
  Y3+  Y55  1  0.49942986  0.74939534  0.76019128  1
  Y3+  Y56  1  0.75026544  -0.00050954  0.25382972  1
  Y3+  Y57  1  0.75195791  -0.00032626  0.76083657  1
  Y3+  Y58  1  0.74755140  0.24953450  0.25980712  1
  Y3+  Y59  1  0.74854060  0.24877130  0.75687542  1
  Y3+  Y60  1  0.75033651  0.50043203  0.25878317  1
  Y3+  Y61  1  0.74884741  0.49986093  0.75741127  1
  Y3+  Y62  1  0.75310346  0.75030325  0.25308184  1
  Y3+  Y63  1  0.75206784  0.75158516  0.76187266  1
  Fe3+  Fe64  1  0.62493850  0.62514097  0.87885593  1
  Fe3+  Fe65  1  0.37358308  0.87539264  0.87719336  1
  Fe3+  Fe66  1  0.37583375  0.62630908  0.37633562  1
  Fe3+  Fe67  1  0.87427401  0.62659620  0.38152803  1
  Fe3+  Fe68  1  0.37439725  0.12574475  0.87924264  1
  Fe3+  Fe69  1  0.12619215  0.12333521  0.37690389  1
  Fe3+  Fe70  1  0.12676396  0.62682592  0.37632683  1
  Fe3+  Fe71  1  0.12455860  0.37552120  0.87616702  1
  Fe3+  Fe72  1  0.87543610  0.37490398  0.38137824  1
  Fe3+  Fe73  1  0.12491517  0.62442829  0.87552865  1
  Fe3+  Fe74  1  0.37520171  0.12369628  0.37626328  1
  Fe3+  Fe75  1  0.62370947  0.12292797  0.38153361  1
  Fe3+  Fe76  1  0.87635848  0.37451263  0.87958555  1
  Fe3+  Fe77  1  0.87504451  0.87506491  0.37772242  1
  Fe3+  Fe78  1  0.37461789  0.37510663  0.37576151  1
  Fe3+  Fe79  1  0.37336810  0.37466897  0.87625530  1
  Fe3+  Fe80  1  0.62441038  0.87487968  0.37610092  1
  Fe3+  Fe81  1  0.87496216  0.12339306  0.37966880  1
  Fe3+  Fe82  1  0.62325803  0.62738225  0.37640996  1
  Fe3+  Fe83  1  0.37496222  0.87504982  0.37509881  1
  Fe3+  Fe84  1  0.37529287  0.62503965  0.13498316  1
  Fe3+  Fe85  1  0.62660610  0.37531101  0.13703123  1
  Fe3+  Fe86  1  0.87469056  0.12492502  0.13699693  1
  Fe3+  Fe87  1  0.62620314  0.87505057  0.13400086  1
  Fe3+  Fe88  1  0.87534058  0.62534911  0.63458724  1
  Fe3+  Fe89  1  0.12510968  0.37488665  0.63776953  1
  Fe3+  Fe90  1  0.12388111  0.87485588  0.13600686  1
  Fe3+  Fe91  1  0.87529825  0.37493996  0.63517608  1
  Fe3+  Fe92  1  0.37498818  0.12518256  0.13279386  1
  Fe3+  Fe93  1  0.87478307  0.37367621  0.13547339  1
  Fe3+  Fe94  1  0.62444595  0.12407122  0.63675911  1
  Fe3+  Fe95  1  0.62561507  0.62487926  0.13246945  1
  Cu2+  Cu96  1  0.87521502  0.12578207  0.86241843  1
  Cu2+  Cu97  1  0.62405253  0.12473109  0.87094117  1
  Cu2+  Cu98  1  0.87605823  0.87540913  0.87171340  1
  Cu2+  Cu99  1  0.37423928  0.62443088  0.86569029  1
  Cu2+  Cu100  1  0.62482796  0.87446347  0.86445808  1
  Cu2+  Cu101  1  0.12536805  0.87460770  0.86441017  1
  Cu2+  Cu102  1  0.12562785  0.37459226  0.36483341  1
  Cu2+  Cu103  1  0.12612403  0.12547766  0.87278264  1
  Cu2+  Cu104  1  0.12540150  0.87534414  0.37150278  1
  Cu2+  Cu105  1  0.87639832  0.62408790  0.87183549  1
  Cu2+  Cu106  1  0.62338972  0.37536161  0.37429021  1
  Cu2+  Cu107  1  0.62535640  0.37534276  0.86255266  1
  Cu2+  Cu108  1  0.37505406  0.62549365  0.65494581  1
  Cu2+  Cu109  1  0.12432315  0.62488336  0.65179235  1
  Cu2+  Cu110  1  0.62573126  0.62588711  0.65708763  1
  Cu2+  Cu111  1  0.37533845  0.37469129  0.14920435  1
  Cu2+  Cu112  1  0.62505181  0.87544938  0.65923321  1
  Cu2+  Cu113  1  0.37439923  0.37470493  0.65416313  1
  Cu2+  Cu114  1  0.12410269  0.12384585  0.14161974  1
  Cu2+  Cu115  1  0.12495621  0.87506244  0.64575419  1
  Cu2+  Cu116  1  0.62504937  0.37473389  0.64404707  1
  Cu2+  Cu117  1  0.37540545  0.12454732  0.65406666  1
  Cu2+  Cu118  1  0.12499756  0.12511243  0.65310585  1
  Cu2+  Cu119  1  0.87448073  0.62462244  0.14117871  1
  Cu2+  Cu120  1  0.37471088  0.87516621  0.65839722  1
  Cu2+  Cu121  1  0.12511559  0.62590128  0.15234475  1
  Cu2+  Cu122  1  0.87551882  0.87452574  0.65502684  1
  Cu2+  Cu123  1  0.87533882  0.87609758  0.14082946  1
  Cu2+  Cu124  1  0.87462476  0.12505604  0.65008407  1
  Cu2+  Cu125  1  0.12366147  0.37527559  0.15180821  1
  Cu2+  Cu126  1  0.62638354  0.12540311  0.14130089  1
  Cu2+  Cu127  1  0.37464266  0.87561788  0.14347684  1
  O2-  O128  1  0.12524970  0.12529480  0.00634110  1
  O2-  O129  1  0.12739039  0.12376343  0.49741071  1
  O2-  O130  1  0.12353491  0.37684567  -0.00376060  1
  O2-  O131  1  0.12573283  0.37389141  0.51716680  1
  O2-  O132  1  0.12483504  0.62299028  -0.00436082  1
  O2-  O133  1  0.12805018  0.62642793  0.49653609  1
  O2-  O134  1  0.12367421  0.87423791  0.01540567  1
  O2-  O135  1  0.12652157  0.87551570  0.50889506  1
  O2-  O136  1  0.37487562  0.12683731  0.00529366  1
  O2-  O137  1  0.37582770  0.12294976  0.49569931  1
  O2-  O138  1  0.37276508  0.37462778  -0.00378700  1
  O2-  O139  1  0.37461978  0.37585215  0.49605961  1
  O2-  O140  1  0.37506096  0.62351922  0.01471883  1
  O2-  O141  1  0.37681834  0.62652434  0.49611722  1
  O2-  O142  1  0.37326146  0.87508499  -0.00247563  1
  O2-  O143  1  0.37622961  0.87429051  0.49525280  1
  O2-  O144  1  0.62522646  0.12569512  0.00618847  1
  O2-  O145  1  0.62257919  0.12220355  0.50788210  1
  O2-  O146  1  0.62816250  0.37522365  0.01703374  1
  O2-  O147  1  0.62303038  0.37521875  0.50868049  1
  O2-  O148  1  0.62577804  0.62417073  0.00676038  1
  O2-  O149  1  0.62207356  0.62829635  0.49645021  1
  O2-  O150  1  0.62662803  0.87473676  0.01382634  1
  O2-  O151  1  0.62273849  0.87427481  0.49571895  1
  O2-  O152  1  0.87417720  0.12680469  0.01677898  1
  O2-  O153  1  0.87517722  0.12283548  0.49937980  1
  O2-  O154  1  0.87561429  0.37396091  0.00776684  1
  O2-  O155  1  0.87551906  0.37553431  0.50828178  1
  O2-  O156  1  0.87564166  0.62284255  0.00659830  1
  O2-  O157  1  0.87351780  0.62660655  0.50704654  1
  O2-  O158  1  0.87600746  0.87650681  0.00561939  1
  O2-  O159  1  0.87382587  0.87371443  0.49792222  1
  O2-  O160  1  0.12485065  -0.00199905  0.16521486  1
  O2-  O161  1  0.12507732  0.00190004  0.66718927  1
  O2-  O162  1  0.12443267  0.25090425  0.16474176  1
  O2-  O163  1  0.12435056  0.25019703  0.66582538  1
  O2-  O164  1  0.12385490  0.50065500  0.16494914  1
  O2-  O165  1  0.12486575  0.49972969  0.66334473  1
  O2-  O166  1  0.12518637  0.75042007  0.16377613  1
  O2-  O167  1  0.12441949  0.74818380  0.66611802  1
  O2-  O168  1  0.37552936  0.00177277  0.15978704  1
  O2-  O169  1  0.37514822  -0.00041822  0.66712470  1
  O2-  O170  1  0.37482296  0.24926734  0.16285069  1
  O2-  O171  1  0.37548208  0.24948194  0.66446040  1
  O2-  O172  1  0.37512526  0.50009389  0.16509222  1
  O2-  O173  1  0.37533350  0.50041896  0.66384665  1
  O2-  O174  1  0.37554551  0.74941783  0.16202660  1
  O2-  O175  1  0.37554290  0.75033057  0.66653794  1
  O2-  O176  1  0.62494360  -0.00165494  0.16484732  1
  O2-  O177  1  0.62492892  0.00100583  0.66511515  1
  O2-  O178  1  0.62565458  0.25239229  0.16973321  1
  O2-  O179  1  0.62457053  0.24684728  0.66302892  1
  O2-  O180  1  0.62568274  0.50071895  0.16566731  1
  O2-  O181  1  0.62570713  0.50139358  0.66673613  1
  O2-  O182  1  0.62493668  0.74869825  0.16088390  1
  O2-  O183  1  0.62524967  0.75076553  0.66827851  1
  O2-  O184  1  0.87482038  0.00172289  0.16610528  1
  O2-  O185  1  0.87451342  -0.00066716  0.66534397  1
  O2-  O186  1  0.87493389  0.25157346  0.16853584  1
  O2-  O187  1  0.87533146  0.25197648  0.66352179  1
  O2-  O188  1  0.87519330  0.49641119  0.16641978  1
  O2-  O189  1  0.87416425  0.50032482  0.66317306  1
  O2-  O190  1  0.87477290  0.75009394  0.16271944  1
  O2-  O191  1  0.87517388  0.74810454  0.66483011  1
  O2-  O192  1  -0.00171857  0.12643807  0.16776414  1
  O2-  O193  1  -0.00041963  0.12529623  0.66454078  1
  O2-  O194  1  -0.00177295  0.37522657  0.16606468  1
  O2-  O195  1  -0.00140888  0.37575685  0.66467824  1
  O2-  O196  1  0.00135475  0.62437873  0.16827895  1
  O2-  O197  1  -0.00215167  0.62348712  0.66052620  1
  O2-  O198  1  0.00119733  0.87430581  0.16731155  1
  O2-  O199  1  -0.00085531  0.87528932  0.66613465  1
  O2-  O200  1  0.25231660  0.12533395  0.16043188  1
  O2-  O201  1  0.25071757  0.12538396  0.66494641  1
  O2-  O202  1  0.24882768  0.37538746  0.16097161  1
  O2-  O203  1  0.24968965  0.37462375  0.66474370  1
  O2-  O204  1  0.25043248  0.62441307  0.16288052  1
  O2-  O205  1  0.24980259  0.62521530  0.66334008  1
  O2-  O206  1  0.24931281  0.87501144  0.16342708  1
  O2-  O207  1  0.25102091  0.87502046  0.66591545  1
  O2-  O208  1  0.49755739  0.12591176  0.16128029  1
  O2-  O209  1  0.50144616  0.12415280  0.66583237  1
  O2-  O210  1  0.50148551  0.37504715  0.16260862  1
  O2-  O211  1  0.49823887  0.37516686  0.66684762  1
  O2-  O212  1  0.50171024  0.62449608  0.16105373  1
  O2-  O213  1  0.50069179  0.62514400  0.66805860  1
  O2-  O214  1  0.50077616  0.87505949  0.16047468  1
  O2-  O215  1  0.49962451  0.87526314  0.66771710  1
  O2-  O216  1  0.75195088  0.12635106  0.17127358  1
  O2-  O217  1  0.74804603  0.12515838  0.66290497  1
  O2-  O218  1  0.75129972  0.37540987  0.17016419  1
  O2-  O219  1  0.75324111  0.37505817  0.66500605  1
  O2-  O220  1  0.74664528  0.62379141  0.16639980  1
  O2-  O221  1  0.75200582  0.62503006  0.66477598  1
  O2-  O222  1  0.74869092  0.87448093  0.16589368  1
  O2-  O223  1  0.75044954  0.87430520  0.66570948  1
  O2-  O224  1  0.12534858  0.00139855  0.34490417  1
  O2-  O225  1  0.12528083  -0.00122347  0.85116270  1
  O2-  O226  1  0.12482313  0.24891546  0.34772885  1
  O2-  O227  1  0.12475655  0.25209622  0.84678738  1
  O2-  O228  1  0.12456622  0.50086938  0.34844462  1
  O2-  O229  1  0.12428882  0.49922001  0.84254664  1
  O2-  O230  1  0.12435334  0.74875634  0.34456970  1
  O2-  O231  1  0.12537014  0.74959523  0.84885581  1
  O2-  O232  1  0.37545447  -0.00007531  0.34101238  1
  O2-  O233  1  0.37525306  0.00124735  0.85068547  1
  O2-  O234  1  0.37530361  0.24907870  0.34514663  1
  O2-  O235  1  0.37513890  0.24956725  0.84725063  1
  O2-  O236  1  0.37499357  0.50071407  0.34545907  1
  O2-  O237  1  0.37567884  0.49900823  0.84695979  1
  O2-  O238  1  0.37558519  0.75039812  0.34155350  1
  O2-  O239  1  0.37466937  0.75017945  0.85003654  1
  O2-  O240  1  0.62502267  0.00076963  0.34569483  1
  O2-  O241  1  0.62476777  -0.00126773  0.84889555  1
  O2-  O242  1  0.62474806  0.24610471  0.35250967  1
  O2-  O243  1  0.62547873  0.25152929  0.84633199  1
  O2-  O244  1  0.62558066  0.50297466  0.34656403  1
  O2-  O245  1  0.62517356  0.50141227  0.85088294  1
  O2-  O246  1  0.62519804  0.75051761  0.33984783  1
  O2-  O247  1  0.62500300  0.74808457  0.85226861  1
  O2-  O248  1  0.87394039  -0.00003511  0.34527873  1
  O2-  O249  1  0.87503680  0.00210361  0.85019096  1
  O2-  O250  1  0.87469987  0.25026472  0.35125486  1
  O2-  O251  1  0.87430444  0.25172911  0.84854569  1
  O2-  O252  1  0.87469924  0.50113460  0.35202445  1
  O2-  O253  1  0.87473923  0.49622412  0.84716077  1
  O2-  O254  1  0.87485385  0.74859438  0.34539507  1
  O2-  O255  1  0.87539333  0.74970997  0.84909135  1
  O2-  O256  1  -0.00008896  0.12541490  0.34795052  1
  O2-  O257  1  -0.00074945  0.12569874  0.84944513  1
  O2-  O258  1  -0.00218359  0.37578131  0.35116242  1
  O2-  O259  1  -0.00105987  0.37439761  0.84648626  1
  O2-  O260  1  -0.00171085  0.62407896  0.35171053  1
  O2-  O261  1  0.00209436  0.62447866  0.84334491  1
  O2-  O262  1  -0.00207394  0.87486111  0.34817241  1
  O2-  O263  1  0.00195164  0.87538779  0.84889118  1
  O2-  O264  1  0.25050772  0.12524207  0.34202863  1
  O2-  O265  1  0.25313204  0.12524901  0.84857492  1
  O2-  O266  1  0.25106052  0.37461770  0.34392575  1
  O2-  O267  1  0.24953457  0.37527520  0.84464647  1
  O2-  O268  1  0.25104601  0.62508687  0.34350935  1
  O2-  O269  1  0.24893993  0.62436540  0.84628468  1
  O2-  O270  1  0.25170963  0.87512269  0.34458495  1
  O2-  O271  1  0.25032951  0.87523478  0.84782797  1
  O2-  O272  1  0.50096301  0.12431611  0.34390937  1
  O2-  O273  1  0.49670036  0.12576156  0.84969745  1
  O2-  O274  1  0.49775377  0.37457762  0.34359357  1
  O2-  O275  1  0.49954088  0.37468629  0.85020484  1
  O2-  O276  1  0.49945570  0.62566497  0.34008394  1
  O2-  O277  1  0.50148369  0.62459471  0.85290886  1
  O2-  O278  1  0.50025723  0.87565283  0.34030250  1
  O2-  O279  1  0.49883261  0.87464497  0.85054765  1
  O2-  O280  1  0.74853441  0.12535366  0.35225469  1
  O2-  O281  1  0.75079333  0.12575297  0.84739454  1
  O2-  O282  1  0.75308354  0.37542411  0.35297657  1
  O2-  O283  1  0.75169932  0.37492243  0.85031224  1
  O2-  O284  1  0.75122832  0.62507931  0.34897667  1
  O2-  O285  1  0.74754595  0.62380492  0.84970765  1
  O2-  O286  1  0.75001217  0.87455325  0.34532329  1
  O2-  O287  1  0.74903332  0.87506804  0.84961239  1
