# generated using pymatgen
data_BaYFeCuO5
_symmetry_space_group_name_H-M   'P 1'
_cell_length_a   15.68745822
_cell_length_b   15.68222019
_cell_length_c   15.53610490
_cell_angle_alpha   89.99972556
_cell_angle_beta   89.99709471
_cell_angle_gamma   90.00117282
_symmetry_Int_Tables_number   1
_chemical_formula_structural   BaYFeCuO5
_chemical_formula_sum   'Ba32 Y32 Fe32 Cu32 O160'
_cell_volume   3822.10201060
_cell_formula_units_Z   32
loop_
 _symmetry_equiv_pos_site_id
 _symmetry_equiv_pos_as_xyz
  1  'x, y, z'
loop_
 _atom_type_symbol
 _atom_type_oxidation_number
  Ba2+  2.0
  Y3+  3.0
  Fe3+  3.0
  Cu2+  2.0
  O2-  -2.0
loop_
 _atom_site_type_symbol
 _atom_site_label
 _atom_site_symmetry_multiplicity
 _atom_site_fract_x
 _atom_site_fract_y
 _atom_site_fract_z
 _atom_site_occupancy
  Ba2+  Ba0  1  0.00095654  0.00002852  0.00695557  1
  Ba2+  Ba1  1  -0.00034251  -0.01168425  0.51755602  1
  Ba2+  Ba2  1  0.00571981  0.24569906  0.01346000  1
  Ba2+  Ba3  1  0.00056431  0.26119418  0.51665746  1
  Ba2+  Ba4  1  0.00771012  0.50448104  0.00598190  1
  Ba2+  Ba5  1  0.00101860  0.50316355  0.52871799  1
  Ba2+  Ba6  1  0.00405579  0.74855711  0.00209434  1
  Ba2+  Ba7  1  0.00008836  0.74727676  0.52895677  1
  Ba2+  Ba8  1  0.25112492  0.00100957  0.00646496  1
  Ba2+  Ba9  1  0.25709021  -0.00318057  0.51630297  1
  Ba2+  Ba10  1  0.25322792  0.25099889  0.02324502  1
  Ba2+  Ba11  1  0.25664820  0.25291558  0.51487611  1
  Ba2+  Ba12  1  0.25117747  0.49817818  0.01610531  1
  Ba2+  Ba13  1  0.24766668  0.50115440  0.51821462  1
  Ba2+  Ba14  1  0.24770311  0.74808000  0.00223058  1
  Ba2+  Ba15  1  0.24842887  0.74976707  0.51884092  1
  Ba2+  Ba16  1  0.49781688  0.00858972  0.00802684  1
  Ba2+  Ba17  1  0.49970471  0.00356066  0.50638897  1
  Ba2+  Ba18  1  0.49826148  0.25011528  0.02028169  1
  Ba2+  Ba19  1  0.49646755  0.24209756  0.51041074  1
  Ba2+  Ba20  1  0.49506392  0.49446708  0.01231476  1
  Ba2+  Ba21  1  0.49601609  0.50527960  0.51179193  1
  Ba2+  Ba22  1  0.49498954  0.74648607  0.00247099  1
  Ba2+  Ba23  1  0.50014434  0.75082805  0.50538933  1
  Ba2+  Ba24  1  0.75026289  0.00720592  0.00563780  1
  Ba2+  Ba25  1  0.74251905  -0.00363136  0.50458718  1
  Ba2+  Ba26  1  0.74160724  0.24409707  0.00656637  1
  Ba2+  Ba27  1  0.74653010  0.24757663  0.51074062  1
  Ba2+  Ba28  1  0.74450303  0.50230130  0.00090595  1
  Ba2+  Ba29  1  0.75569661  0.50593463  0.52407669  1
  Ba2+  Ba30  1  0.75385544  0.74792787  0.00241764  1
  Ba2+  Ba31  1  0.75164221  0.74879204  0.52061482  1
  Y3+  Y32  1  -0.00053952  -0.00105918  0.25624772  1
  Y3+  Y33  1  0.00014084  -0.00153102  0.75802741  1
  Y3+  Y34  1  0.00176841  0.25008951  0.25682864  1
  Y3+  Y35  1  -0.00118797  0.25098053  0.75633975  1
  Y3+  Y36  1  0.00318836  0.50107325  0.25099448  1
  Y3+  Y37  1  0.00070685  0.50146105  0.76160786  1
  Y3+  Y38  1  0.00061612  0.74953124  0.25081726  1
  Y3+  Y39  1  0.00167466  0.74906016  0.76278657  1
  Y3+  Y40  1  0.25158711  0.00199819  0.25891338  1
  Y3+  Y41  1  0.25242313  -0.00213852  0.75590073  1
  Y3+  Y42  1  0.25225708  0.25006022  0.25809914  1
  Y3+  Y43  1  0.25404375  0.25186060  0.75342620  1
  Y3+  Y44  1  0.25100034  0.50093172  0.25255992  1
  Y3+  Y45  1  0.24993320  0.49867240  0.76008393  1
  Y3+  Y46  1  0.25051288  0.74673475  0.25441855  1
  Y3+  Y47  1  0.24850053  0.75187885  0.76101409  1
  Y3+  Y48  1  0.50163094  0.00371122  0.26091762  1
  Y3+  Y49  1  0.49897602  0.00257900  0.75585019  1
  Y3+  Y50  1  0.49985095  0.24772471  0.25945604  1
  Y3+  Y51  1  0.49890851  0.24823500  0.75476124  1
  Y3+  Y52  1  0.49757974  0.49910132  0.25522135  1
  Y3+  Y53  1  0.49897649  0.49910376  0.75932657  1
  Y3+  Y54  1  0.49917380  0.74935092  0.25757806  1
  Y3+  Y55  1  0.49958419  0.75032376  0.75936502  1
  Y3+  Y56  1  0.74733861  0.00063574  0.25743337  1
  Y3+  Y57  1  0.74742246  0.00263526  0.75813376  1
  Y3+  Y58  1  0.74632485  0.24847708  0.25771018  1
  Y3+  Y59  1  0.74779009  0.24761740  0.75648116  1
  Y3+  Y60  1  0.74925146  0.49910341  0.25454367  1
  Y3+  Y61  1  0.75019797  0.50165235  0.75945287  1
  Y3+  Y62  1  0.75019301  0.75185728  0.25507619  1
  Y3+  Y63  1  0.75025152  0.74799085  0.76077616  1
  Fe3+  Fe64  1  0.12636082  0.12594759  0.87321782  1
  Fe3+  Fe65  1  0.87563775  0.87240506  0.37575026  1
  Fe3+  Fe66  1  0.12700756  0.37281308  0.87632236  1
  Fe3+  Fe67  1  0.62272750  0.37348859  0.87536713  1
  Fe3+  Fe68  1  0.37461294  0.37664984  0.37707961  1
  Fe3+  Fe69  1  0.87614397  0.12507136  0.38105999  1
  Fe3+  Fe70  1  0.37442548  0.12690109  0.87448508  1
  Fe3+  Fe71  1  0.87462011  0.87647196  0.87735356  1
  Fe3+  Fe72  1  0.12477035  0.37731609  0.37543367  1
  Fe3+  Fe73  1  0.12486188  0.12471718  0.38152412  1
  Fe3+  Fe74  1  0.12434320  0.62522000  0.37561030  1
  Fe3+  Fe75  1  0.62521888  0.37662624  0.38037980  1
  Fe3+  Fe76  1  0.87491212  0.37331892  0.87932183  1
  Fe3+  Fe77  1  0.37434650  0.62350315  0.87696339  1
  Fe3+  Fe78  1  0.62645706  0.62471227  0.37708516  1
  Fe3+  Fe79  1  0.12467040  0.87276132  0.37677756  1
  Fe3+  Fe80  1  0.62357448  0.87609144  0.88089817  1
  Fe3+  Fe81  1  0.87673279  0.62469285  0.37467807  1
  Fe3+  Fe82  1  0.87570822  0.37755519  0.37606331  1
  Fe3+  Fe83  1  0.37442972  0.87379530  0.37680454  1
  Fe3+  Fe84  1  0.62416712  0.37577633  0.63456762  1
  Fe3+  Fe85  1  0.62465076  0.87575108  0.13441750  1
  Fe3+  Fe86  1  0.87463806  0.12397486  0.63453109  1
  Fe3+  Fe87  1  0.62428135  0.62513557  0.13573763  1
  Fe3+  Fe88  1  0.12524425  0.12510266  0.63345602  1
  Fe3+  Fe89  1  0.87456958  0.62505950  0.13299280  1
  Fe3+  Fe90  1  0.12576174  0.87580774  0.13603700  1
  Fe3+  Fe91  1  0.87421421  0.37424415  0.13205699  1
  Fe3+  Fe92  1  0.37579366  0.87554039  0.13690591  1
  Fe3+  Fe93  1  0.37487982  0.62610067  0.64044372  1
  Fe3+  Fe94  1  0.87476761  0.12485746  0.13915393  1
  Fe3+  Fe95  1  0.62420924  0.87452647  0.64086966  1
  Cu2+  Cu96  1  0.12655140  0.62421345  0.87247455  1
  Cu2+  Cu97  1  0.62530347  0.87369739  0.36133333  1
  Cu2+  Cu98  1  0.37400045  0.62469897  0.36270162  1
  Cu2+  Cu99  1  0.37386976  0.12515849  0.37338057  1
  Cu2+  Cu100  1  0.37536565  0.87610350  0.86579031  1
  Cu2+  Cu101  1  0.12553794  0.87664179  0.86399260  1
  Cu2+  Cu102  1  0.62307362  0.12582707  0.87160496  1
  Cu2+  Cu103  1  0.62370932  0.62470208  0.86586613  1
  Cu2+  Cu104  1  0.87518753  0.62419098  0.86751646  1
  Cu2+  Cu105  1  0.37487760  0.37327650  0.87179048  1
  Cu2+  Cu106  1  0.62564070  0.12545749  0.37437337  1
  Cu2+  Cu107  1  0.87524832  0.12582243  0.86086295  1
  Cu2+  Cu108  1  0.37551051  0.37440247  0.14295006  1
  Cu2+  Cu109  1  0.37507999  0.12390468  0.15583637  1
  Cu2+  Cu110  1  0.12538952  0.37495666  0.65379191  1
  Cu2+  Cu111  1  0.12566166  0.12400113  0.15517681  1
  Cu2+  Cu112  1  0.12605509  0.62588148  0.13819467  1
  Cu2+  Cu113  1  0.37608764  0.87386491  0.65408557  1
  Cu2+  Cu114  1  0.62420241  0.62523210  0.65500957  1
  Cu2+  Cu115  1  0.37614723  0.37646780  0.64951198  1
  Cu2+  Cu116  1  0.37581836  0.62580995  0.14895877  1
  Cu2+  Cu117  1  0.87552013  0.62567781  0.66029633  1
  Cu2+  Cu118  1  0.87418236  0.87582759  0.14514373  1
  Cu2+  Cu119  1  0.87369315  0.37474051  0.65518561  1
  Cu2+  Cu120  1  0.62460001  0.12452902  0.14397789  1
  Cu2+  Cu121  1  0.62465404  0.12428718  0.64148777  1
  Cu2+  Cu122  1  0.12528310  0.87522632  0.65525437  1
  Cu2+  Cu123  1  0.87374049  0.87527551  0.65707317  1
  Cu2+  Cu124  1  0.62530736  0.37464539  0.15175077  1
  Cu2+  Cu125  1  0.12490170  0.37421829  0.14902567  1
  Cu2+  Cu126  1  0.12583173  0.62513941  0.65870757  1
  Cu2+  Cu127  1  0.37510155  0.12426221  0.64082610  1
  O2-  O128  1  0.12666900  0.12592436  -0.00699678  1
  O2-  O129  1  0.12343524  0.12437030  0.50658892  1
  O2-  O130  1  0.12611827  0.37029408  -0.00390074  1
  O2-  O131  1  0.12241791  0.37995509  0.49501825  1
  O2-  O132  1  0.12645054  0.62550829  0.00563254  1
  O2-  O133  1  0.12288309  0.62518925  0.49531682  1
  O2-  O134  1  0.12613231  0.87814457  0.01588513  1
  O2-  O135  1  0.12263655  0.87036521  0.49630663  1
  O2-  O136  1  0.37360550  0.12711848  -0.00528347  1
  O2-  O137  1  0.37323935  0.12406112  0.50668162  1
  O2-  O138  1  0.37493565  0.37284080  0.00784327  1
  O2-  O139  1  0.37406236  0.37918357  0.49705949  1
  O2-  O140  1  0.37498333  0.62337747  -0.00249109  1
  O2-  O141  1  0.37426704  0.62659074  0.51984577  1
  O2-  O142  1  0.37557000  0.87648321  0.01724966  1
  O2-  O143  1  0.37445059  0.87196707  0.49697446  1
  O2-  O144  1  0.62355760  0.12550583  0.00735948  1
  O2-  O145  1  0.62695635  0.12421645  0.50721325  1
  O2-  O146  1  0.62365285  0.37310487  -0.00445738  1
  O2-  O147  1  0.62616882  0.37791866  0.50603224  1
  O2-  O148  1  0.62436241  0.62535318  0.01578182  1
  O2-  O149  1  0.62818383  0.62513433  0.49674975  1
  O2-  O150  1  0.62406809  0.87643707  0.00806046  1
  O2-  O151  1  0.62571070  0.87229076  0.52053861  1
  O2-  O152  1  0.87544877  0.12582549  0.01892528  1
  O2-  O153  1  0.87619497  0.12444224  0.50739490  1
  O2-  O154  1  0.87445111  0.37237098  0.00578458  1
  O2-  O155  1  0.87685661  0.38035838  0.49537149  1
  O2-  O156  1  0.87358668  0.62371905  0.01312477  1
  O2-  O157  1  0.87734482  0.62485142  0.49443214  1
  O2-  O158  1  0.87492173  0.87842743  -0.00249481  1
  O2-  O159  1  0.87631600  0.86958860  0.49532075  1
  O2-  O160  1  0.12476610  -0.00068294  0.16978340  1
  O2-  O161  1  0.12397264  0.00134866  0.66133006  1
  O2-  O162  1  0.12469219  0.24879621  0.16707758  1
  O2-  O163  1  0.12371879  0.24898490  0.65770093  1
  O2-  O164  1  0.12513062  0.49880422  0.15916266  1
  O2-  O165  1  0.12465614  0.49937441  0.66684782  1
  O2-  O166  1  0.12522264  0.75233770  0.16286103  1
  O2-  O167  1  0.12471256  0.75081124  0.66868632  1
  O2-  O168  1  0.37576319  -0.00021186  0.16772648  1
  O2-  O169  1  0.37544749  -0.00237571  0.66506028  1
  O2-  O170  1  0.37523262  0.24747386  0.16756416  1
  O2-  O171  1  0.37562677  0.25231624  0.65991242  1
  O2-  O172  1  0.37587517  0.50149498  0.16226636  1
  O2-  O173  1  0.37497821  0.50113146  0.66752954  1
  O2-  O174  1  0.37611837  0.75092098  0.16478367  1
  O2-  O175  1  0.37484320  0.74941956  0.67072768  1
  O2-  O176  1  0.62502623  -0.00248526  0.16613481  1
  O2-  O177  1  0.62510235  -0.00145291  0.66894485  1
  O2-  O178  1  0.62492413  0.25091570  0.16776683  1
  O2-  O179  1  0.62527976  0.25251525  0.65932361  1
  O2-  O180  1  0.62556813  0.50032179  0.16385503  1
  O2-  O181  1  0.62583084  0.49951230  0.66334094  1
  O2-  O182  1  0.62538903  0.75124902  0.16309867  1
  O2-  O183  1  0.62570760  0.74977382  0.67168444  1
  O2-  O184  1  0.87464782  0.00093743  0.16956599  1
  O2-  O185  1  0.87541588  0.00147669  0.66245378  1
  O2-  O186  1  0.87559473  0.25123394  0.16805591  1
  O2-  O187  1  0.87489330  0.24803245  0.66096744  1
  O2-  O188  1  0.87403056  0.49815140  0.15951426  1
  O2-  O189  1  0.87474582  0.50029113  0.66800204  1
  O2-  O190  1  0.87377059  0.74962168  0.16004049  1
  O2-  O191  1  0.87467818  0.75026066  0.66877282  1
  O2-  O192  1  -0.00027075  0.12514759  0.16690887  1
  O2-  O193  1  -0.00021017  0.12517589  0.66147730  1
  O2-  O194  1  -0.00157155  0.37388154  0.15890127  1
  O2-  O195  1  -0.00091406  0.37479730  0.66657874  1
  O2-  O196  1  -0.00229658  0.62466616  0.16080789  1
  O2-  O197  1  0.00100813  0.62503302  0.66826808  1
  O2-  O198  1  0.00008627  0.87628776  0.16228869  1
  O2-  O199  1  -0.00109003  0.87528201  0.66571139  1
  O2-  O200  1  0.25007428  0.12441252  0.16618891  1
  O2-  O201  1  0.24709458  0.12499011  0.66000195  1
  O2-  O202  1  0.24855105  0.37399267  0.16469796  1
  O2-  O203  1  0.25042144  0.37536940  0.66237949  1
  O2-  O204  1  0.25183302  0.62511074  0.16340792  1
  O2-  O205  1  0.24994644  0.62531719  0.66604759  1
  O2-  O206  1  0.25081691  0.87620513  0.16720371  1
  O2-  O207  1  0.25068041  0.87485269  0.66405680  1
  O2-  O208  1  0.49898795  0.12499969  0.16784193  1
  O2-  O209  1  0.49957064  0.12452402  0.66331911  1
  O2-  O210  1  0.50167546  0.37465818  0.16753948  1
  O2-  O211  1  0.50210536  0.37671322  0.66218954  1
  O2-  O212  1  0.50126728  0.62513861  0.16783963  1
  O2-  O213  1  0.49931686  0.62529513  0.66628127  1
  O2-  O214  1  0.50135706  0.87492848  0.16685031  1
  O2-  O215  1  0.50074676  0.87384559  0.66975758  1
  O2-  O216  1  0.75125084  0.12563450  0.16913115  1
  O2-  O217  1  0.75279225  0.12490068  0.66492401  1
  O2-  O218  1  0.75167670  0.37362206  0.16375606  1
  O2-  O219  1  0.74792428  0.37539344  0.66483824  1
  O2-  O220  1  0.74985241  0.62462781  0.16534262  1
  O2-  O221  1  0.75017349  0.62530633  0.66621559  1
  O2-  O222  1  0.74813063  0.87575070  0.16261015  1
  O2-  O223  1  0.74932014  0.87469729  0.67004402  1
  O2-  O224  1  0.12377519  0.00036307  0.35139358  1
  O2-  O225  1  0.12497813  0.00140120  0.84462561  1
  O2-  O226  1  0.12347645  0.24972408  0.35081017  1
  O2-  O227  1  0.12443631  0.24971338  0.83861457  1
  O2-  O228  1  0.12501148  0.50083075  0.33989005  1
  O2-  O229  1  0.12450181  0.49688430  0.84908553  1
  O2-  O230  1  0.12489536  0.74927645  0.34097544  1
  O2-  O231  1  0.12533011  0.75202907  0.85294876  1
  O2-  O232  1  0.37497975  -0.00209052  0.34875404  1
  O2-  O233  1  0.37451821  0.00077583  0.84787955  1
  O2-  O234  1  0.37490274  0.25266697  0.34956320  1
  O2-  O235  1  0.37499195  0.24854038  0.84123872  1
  O2-  O236  1  0.37497491  0.49964633  0.34431247  1
  O2-  O237  1  0.37534780  0.50027022  0.84859502  1
  O2-  O238  1  0.37522825  0.74992467  0.34567209  1
  O2-  O239  1  0.37496212  0.75035338  0.85256142  1
  O2-  O240  1  0.62580512  -0.00178244  0.35003913  1
  O2-  O241  1  0.62515698  -0.00198720  0.85151802  1
  O2-  O242  1  0.62636372  0.25420163  0.35140144  1
  O2-  O243  1  0.62531782  0.25116011  0.84183894  1
  O2-  O244  1  0.62558071  0.49913258  0.34533306  1
  O2-  O245  1  0.62527999  0.49891981  0.84684144  1
  O2-  O246  1  0.62557851  0.74838816  0.34431942  1
  O2-  O247  1  0.62510483  0.75175567  0.85489491  1
  O2-  O248  1  0.87587871  0.00041680  0.35190209  1
  O2-  O249  1  0.87452590  0.00033324  0.84552452  1
  O2-  O250  1  0.87569989  0.24989609  0.35100028  1
  O2-  O251  1  0.87441590  0.25139435  0.84536742  1
  O2-  O252  1  0.87525195  0.50045205  0.33846171  1
  O2-  O253  1  0.87463780  0.49715793  0.85229191  1
  O2-  O254  1  0.87499045  0.74902963  0.33962075  1
  O2-  O255  1  0.87460578  0.75100088  0.85192309  1
  O2-  O256  1  0.00005670  0.12532170  0.34916501  1
  O2-  O257  1  0.00082320  0.12535849  0.84486409  1
  O2-  O258  1  0.00014122  0.37528813  0.33998373  1
  O2-  O259  1  -0.00118469  0.37343733  0.85013094  1
  O2-  O260  1  0.00024708  0.62476259  0.33902772  1
  O2-  O261  1  -0.00014130  0.62472191  0.85150818  1
  O2-  O262  1  0.00009252  0.87456955  0.34160941  1
  O2-  O263  1  -0.00063764  0.87635003  0.84924338  1
  O2-  O264  1  0.24588923  0.12521985  0.34948867  1
  O2-  O265  1  0.25021446  0.12464556  0.84032355  1
  O2-  O266  1  0.24937304  0.37520779  0.34540196  1
  O2-  O267  1  0.24915462  0.37371724  0.84481723  1
  O2-  O268  1  0.24913244  0.62485263  0.34596307  1
  O2-  O269  1  0.25201853  0.62513104  0.84646589  1
  O2-  O270  1  0.24919049  0.87469997  0.34589863  1
  O2-  O271  1  0.25014294  0.87631131  0.84873797  1
  O2-  O272  1  0.50034739  0.12529896  0.35141950  1
  O2-  O273  1  0.49770678  0.12483353  0.84472214  1
  O2-  O274  1  0.50136638  0.37631378  0.35049533  1
  O2-  O275  1  0.50070209  0.37473721  0.84462146  1
  O2-  O276  1  0.50044490  0.62482936  0.35095888  1
  O2-  O277  1  0.49843715  0.62536578  0.84744245  1
  O2-  O278  1  0.50024317  0.87359799  0.34941675  1
  O2-  O279  1  0.50180926  0.87482863  0.85210013  1
  O2-  O280  1  0.75395331  0.12513358  0.35158242  1
  O2-  O281  1  0.75073726  0.12572082  0.84907700  1
  O2-  O282  1  0.74962306  0.37567536  0.34637359  1
  O2-  O283  1  0.75083236  0.37451572  0.84921953  1
  O2-  O284  1  0.75104873  0.62427275  0.34356801  1
  O2-  O285  1  0.74938325  0.62421744  0.85052869  1
  O2-  O286  1  0.75087593  0.87509057  0.34534218  1
  O2-  O287  1  0.74829581  0.87537380  0.85177694  1
