# generated using pymatgen
data_BaYFeCuO5
_symmetry_space_group_name_H-M   'P 1'
_cell_length_a   15.65854937
_cell_length_b   15.66056025
_cell_length_c   15.46053019
_cell_angle_alpha   90.00259071
_cell_angle_beta   89.99916538
_cell_angle_gamma   89.99927204
_symmetry_Int_Tables_number   1
_chemical_formula_structural   BaYFeCuO5
_chemical_formula_sum   'Ba32 Y32 Fe32 Cu32 O160'
_cell_volume   3791.25680860
_cell_formula_units_Z   32
loop_
 _symmetry_equiv_pos_site_id
 _symmetry_equiv_pos_as_xyz
  1  'x, y, z'
loop_
 _atom_type_symbol
 _atom_type_oxidation_number
  Ba2+  2.0
  Y3+  3.0
  Fe3+  3.0
  Cu2+  2.0
  O2-  -2.0
loop_
 _atom_site_type_symbol
 _atom_site_label
 _atom_site_symmetry_multiplicity
 _atom_site_fract_x
 _atom_site_fract_y
 _atom_site_fract_z
 _atom_site_occupancy
  Ba2+  Ba0  1  0.00701027  0.00834320  0.00653397  1
  Ba2+  Ba1  1  0.00436680  0.00728993  0.50675010  1
  Ba2+  Ba2  1  0.00310014  0.24872063  0.02040578  1
  Ba2+  Ba3  1  0.00039004  0.24862321  0.51866332  1
  Ba2+  Ba4  1  0.00396876  0.49320115  0.02195097  1
  Ba2+  Ba5  1  0.00613384  0.49737594  0.51453081  1
  Ba2+  Ba6  1  0.00791255  0.74987245  0.00699561  1
  Ba2+  Ba7  1  0.00967757  0.74784700  0.50186967  1
  Ba2+  Ba8  1  0.24625429  0.01026281  0.00226212  1
  Ba2+  Ba9  1  0.24073927  0.00244309  0.50186442  1
  Ba2+  Ba10  1  0.24884656  0.24661394  0.01809136  1
  Ba2+  Ba11  1  0.24724697  0.25519326  0.51147109  1
  Ba2+  Ba12  1  0.24615951  0.49320059  0.02305477  1
  Ba2+  Ba13  1  0.25126186  0.49883579  0.50514085  1
  Ba2+  Ba14  1  0.24307785  0.74998910  0.00760206  1
  Ba2+  Ba15  1  0.24603148  0.74262042  0.49755266  1
  Ba2+  Ba16  1  0.49795694  0.00210898  0.00673108  1
  Ba2+  Ba17  1  0.51050359  0.00352809  0.51249065  1
  Ba2+  Ba18  1  0.49402323  0.25410876  0.01261383  1
  Ba2+  Ba19  1  0.50454276  0.25456448  0.51238147  1
  Ba2+  Ba20  1  0.50706850  0.49525524  0.01036616  1
  Ba2+  Ba21  1  0.49678618  0.49645832  0.51090968  1
  Ba2+  Ba22  1  0.50975563  0.74947014  0.00704292  1
  Ba2+  Ba23  1  0.50399469  0.74477474  0.51356894  1
  Ba2+  Ba24  1  0.74823566  -0.00098320  0.01103800  1
  Ba2+  Ba25  1  0.74522056  0.00813730  0.51738284  1
  Ba2+  Ba26  1  0.75309232  0.25669125  0.01532637  1
  Ba2+  Ba27  1  0.74826249  0.24837991  0.52104300  1
  Ba2+  Ba28  1  0.74246450  0.49575233  0.00892909  1
  Ba2+  Ba29  1  0.74492343  0.49482146  0.52252351  1
  Ba2+  Ba30  1  0.73940798  0.74901925  0.00629604  1
  Ba2+  Ba31  1  0.74140761  0.75007368  0.51975463  1
  Y3+  Y32  1  0.00157200  0.00271410  0.25852892  1
  Y3+  Y33  1  0.00241728  0.00306633  0.75721295  1
  Y3+  Y34  1  0.00069227  0.24799859  0.25600963  1
  Y3+  Y35  1  0.00159343  0.24847874  0.75350089  1
  Y3+  Y36  1  0.00138589  0.49995570  0.25827298  1
  Y3+  Y37  1  0.00109997  0.49855475  0.75200413  1
  Y3+  Y38  1  0.00202155  0.74894479  0.25949752  1
  Y3+  Y39  1  0.00144102  0.74968505  0.75626403  1
  Y3+  Y40  1  0.24907943  0.00358334  0.25830376  1
  Y3+  Y41  1  0.24851401  0.00337522  0.76048358  1
  Y3+  Y42  1  0.25129620  0.24919589  0.25826454  1
  Y3+  Y43  1  0.24978235  0.24854768  0.75605874  1
  Y3+  Y44  1  0.25142294  0.49906237  0.26147684  1
  Y3+  Y45  1  0.24988201  0.49765224  0.75098398  1
  Y3+  Y46  1  0.24894024  0.74769602  0.26004644  1
  Y3+  Y47  1  0.24890140  0.74981652  0.75771506  1
  Y3+  Y48  1  0.50085570  0.00185700  0.25614854  1
  Y3+  Y49  1  0.50059888  0.00145605  0.76027420  1
  Y3+  Y50  1  0.49859567  0.25083117  0.25737010  1
  Y3+  Y51  1  0.49939929  0.25131353  0.75758317  1
  Y3+  Y52  1  0.49927000  0.49773226  0.25561212  1
  Y3+  Y53  1  0.50179950  0.49797909  0.75838483  1
  Y3+  Y54  1  0.50093312  0.74925605  0.25409852  1
  Y3+  Y55  1  0.50306356  0.74999716  0.76141098  1
  Y3+  Y56  1  0.74904979  0.00117201  0.25559515  1
  Y3+  Y57  1  0.74781519  0.00090611  0.75821294  1
  Y3+  Y58  1  0.74964803  0.24977450  0.25452098  1
  Y3+  Y59  1  0.74876828  0.25106133  0.75625887  1
  Y3+  Y60  1  0.74828619  0.49851184  0.25085161  1
  Y3+  Y61  1  0.74693622  0.49851296  0.75993959  1
  Y3+  Y62  1  0.74794831  0.75008871  0.25189466  1
  Y3+  Y63  1  0.74666172  0.75003939  0.76158177  1
  Fe3+  Fe64  1  0.37417750  0.62310820  0.88130686  1
  Fe3+  Fe65  1  0.37607852  0.87476912  0.38105525  1
  Fe3+  Fe66  1  0.87682843  0.37495729  0.87558230  1
  Fe3+  Fe67  1  0.12504915  0.37421381  0.87418644  1
  Fe3+  Fe68  1  0.87254045  0.62433090  0.37972722  1
  Fe3+  Fe69  1  0.37366025  0.87494811  0.88074473  1
  Fe3+  Fe70  1  0.87535100  0.12667222  0.87737098  1
  Fe3+  Fe71  1  0.87402044  0.87484252  0.38068912  1
  Fe3+  Fe72  1  0.87626302  0.87525802  0.87982614  1
  Fe3+  Fe73  1  0.62584554  0.87517082  0.37571306  1
  Fe3+  Fe74  1  0.62569499  0.62377340  0.37479161  1
  Fe3+  Fe75  1  0.62475137  0.12718044  0.87973294  1
  Fe3+  Fe76  1  0.37645215  0.12543152  0.38068206  1
  Fe3+  Fe77  1  0.62611582  0.37443509  0.37476019  1
  Fe3+  Fe78  1  0.37304257  0.37514720  0.87664667  1
  Fe3+  Fe79  1  0.12419313  0.37377864  0.37540635  1
  Fe3+  Fe80  1  0.12517201  0.62176280  0.87616214  1
  Fe3+  Fe81  1  0.87593448  0.62357816  0.87936952  1
  Fe3+  Fe82  1  0.87360597  0.37512403  0.37755095  1
  Fe3+  Fe83  1  0.87339558  0.12610336  0.37652648  1
  Fe3+  Fe84  1  0.37397778  0.87578280  0.13577617  1
  Fe3+  Fe85  1  0.87513525  0.87580376  0.63515095  1
  Fe3+  Fe86  1  0.87455323  0.62554442  0.63484293  1
  Fe3+  Fe87  1  0.87563307  0.62499861  0.13340584  1
  Fe3+  Fe88  1  0.37513460  0.12478915  0.63525587  1
  Fe3+  Fe89  1  0.87634902  0.87526703  0.13441861  1
  Fe3+  Fe90  1  0.37533949  0.87522581  0.63578941  1
  Fe3+  Fe91  1  0.12608806  0.87506095  0.63866932  1
  Fe3+  Fe92  1  0.12573075  0.87599072  0.14019155  1
  Fe3+  Fe93  1  0.62466056  0.12578767  0.13499558  1
  Fe3+  Fe94  1  0.37467371  0.62470717  0.13495372  1
  Fe3+  Fe95  1  0.37544350  0.62558245  0.63887501  1
  Cu2+  Cu96  1  0.12442380  0.12776147  0.87056987  1
  Cu2+  Cu97  1  0.37458365  0.12689253  0.87369664  1
  Cu2+  Cu98  1  0.62498374  0.87668971  0.87365222  1
  Cu2+  Cu99  1  0.12494661  0.87540844  0.36414102  1
  Cu2+  Cu100  1  0.12459159  0.12707992  0.37244067  1
  Cu2+  Cu101  1  0.12454435  0.87531780  0.86425811  1
  Cu2+  Cu102  1  0.62473069  0.37332012  0.87211644  1
  Cu2+  Cu103  1  0.12456621  0.62268851  0.37140061  1
  Cu2+  Cu104  1  0.37614213  0.37453876  0.37349038  1
  Cu2+  Cu105  1  0.62454992  0.62351314  0.87224818  1
  Cu2+  Cu106  1  0.62562314  0.12586718  0.37050340  1
  Cu2+  Cu107  1  0.37733805  0.62509147  0.36244830  1
  Cu2+  Cu108  1  0.62426828  0.62416513  0.14114875  1
  Cu2+  Cu109  1  0.87479872  0.37513248  0.64786118  1
  Cu2+  Cu110  1  0.12535353  0.37418115  0.15622551  1
  Cu2+  Cu111  1  0.12598782  0.62581217  0.64083600  1
  Cu2+  Cu112  1  0.62441203  0.37494675  0.65426897  1
  Cu2+  Cu113  1  0.12547104  0.12455433  0.14533958  1
  Cu2+  Cu114  1  0.62420347  0.37382135  0.14103641  1
  Cu2+  Cu115  1  0.87515069  0.12410544  0.14771934  1
  Cu2+  Cu116  1  0.62431777  0.87552845  0.65481047  1
  Cu2+  Cu117  1  0.62467539  0.62434992  0.65563264  1
  Cu2+  Cu118  1  0.37514941  0.37469729  0.64033626  1
  Cu2+  Cu119  1  0.62409271  0.87588210  0.14046028  1
  Cu2+  Cu120  1  0.87593229  0.37517136  0.15042447  1
  Cu2+  Cu121  1  0.12532601  0.62496573  0.15312605  1
  Cu2+  Cu122  1  0.12641831  0.12440004  0.64147269  1
  Cu2+  Cu123  1  0.12536017  0.37450585  0.64783478  1
  Cu2+  Cu124  1  0.87479535  0.12433759  0.65138674  1
  Cu2+  Cu125  1  0.37424766  0.37485626  0.15203890  1
  Cu2+  Cu126  1  0.37486171  0.12446753  0.14288513  1
  Cu2+  Cu127  1  0.62371721  0.12584825  0.64638463  1
  O2-  O128  1  0.12455259  0.12702076  0.00723709  1
  O2-  O129  1  0.12489429  0.12572963  0.50724407  1
  O2-  O130  1  0.12491275  0.37496585  -0.00538897  1
  O2-  O131  1  0.12311211  0.37452837  0.49653504  1
  O2-  O132  1  0.12416841  0.62164150  -0.00315823  1
  O2-  O133  1  0.12484852  0.62462703  0.50674990  1
  O2-  O134  1  0.12513810  0.87550916  0.01921587  1
  O2-  O135  1  0.12563127  0.87395070  0.51806249  1
  O2-  O136  1  0.37454644  0.12517500  0.00802727  1
  O2-  O137  1  0.37630867  0.12367057  0.50799694  1
  O2-  O138  1  0.37140352  0.37595178  -0.00261731  1
  O2-  O139  1  0.37629904  0.37533590  0.50678179  1
  O2-  O140  1  0.37288861  0.62355570  0.00766197  1
  O2-  O141  1  0.37654945  0.62724787  0.51836399  1
  O2-  O142  1  0.37274075  0.87505443  0.00855843  1
  O2-  O143  1  0.37655108  0.87380172  0.50861653  1
  O2-  O144  1  0.62482406  0.12657181  0.00683570  1
  O2-  O145  1  0.62545866  0.12567125  0.50714780  1
  O2-  O146  1  0.62479309  0.37256394  0.00657819  1
  O2-  O147  1  0.62674177  0.37577030  0.49558525  1
  O2-  O148  1  0.62492503  0.62420746  0.00636319  1
  O2-  O149  1  0.62697435  0.62450066  0.49496737  1
  O2-  O150  1  0.62508042  0.87687874  0.00674740  1
  O2-  O151  1  0.62637963  0.87443894  0.49623430  1
  O2-  O152  1  0.87583667  0.12602257  -0.00254766  1
  O2-  O153  1  0.87302316  0.12500068  0.49713263  1
  O2-  O154  1  0.87849159  0.37588308  -0.00442016  1
  O2-  O155  1  0.87258498  0.37564933  0.49721493  1
  O2-  O156  1  0.87765672  0.62434635  0.00598215  1
  O2-  O157  1  0.87191899  0.62575421  0.50625663  1
  O2-  O158  1  0.87763720  0.87447068  0.00713795  1
  O2-  O159  1  0.87316314  0.87450597  0.50740633  1
  O2-  O160  1  0.12519701  -0.00141543  0.16961426  1
  O2-  O161  1  0.12515434  -0.00215647  0.66857327  1
  O2-  O162  1  0.12485142  0.25065455  0.16390988  1
  O2-  O163  1  0.12533820  0.25119785  0.66105427  1
  O2-  O164  1  0.12475498  0.49972785  0.16388363  1
  O2-  O165  1  0.12448913  0.49837239  0.65972582  1
  O2-  O166  1  0.12495342  0.75091425  0.16705377  1
  O2-  O167  1  0.12515081  0.75243328  0.67024941  1
  O2-  O168  1  0.37463009  -0.00285615  0.16813405  1
  O2-  O169  1  0.37647355  -0.00072496  0.66510765  1
  O2-  O170  1  0.37459425  0.25122603  0.16542577  1
  O2-  O171  1  0.37503866  0.24741152  0.66107861  1
  O2-  O172  1  0.37388760  0.50113471  0.16319531  1
  O2-  O173  1  0.37605854  0.50152289  0.66480638  1
  O2-  O174  1  0.37386628  0.74992854  0.16299581  1
  O2-  O175  1  0.37608190  0.75210724  0.67014612  1
  O2-  O176  1  0.62517120  0.00289990  0.16343398  1
  O2-  O177  1  0.62418413  -0.00046666  0.66836081  1
  O2-  O178  1  0.62533085  0.24742240  0.16269659  1
  O2-  O179  1  0.62514477  0.25131740  0.66457434  1
  O2-  O180  1  0.62459840  0.49949571  0.16153241  1
  O2-  O181  1  0.62499571  0.49960090  0.66522686  1
  O2-  O182  1  0.62475107  0.74971993  0.16357309  1
  O2-  O183  1  0.62546963  0.75045852  0.66745399  1
  O2-  O184  1  0.87537854  -0.00269489  0.16481723  1
  O2-  O185  1  0.87467674  -0.00217484  0.66522316  1
  O2-  O186  1  0.87558752  0.25018941  0.16206043  1
  O2-  O187  1  0.87431006  0.24960410  0.66139647  1
  O2-  O188  1  0.87639424  0.50195066  0.16267795  1
  O2-  O189  1  0.87480939  0.50208951  0.66172474  1
  O2-  O190  1  0.87617907  0.75001637  0.16388101  1
  O2-  O191  1  0.87344440  0.75085151  0.66522591  1
  O2-  O192  1  -0.00091912  0.12375520  0.16495437  1
  O2-  O193  1  -0.00072759  0.12396875  0.66279786  1
  O2-  O194  1  0.00067884  0.37557019  0.16402890  1
  O2-  O195  1  0.00079723  0.37511682  0.66055519  1
  O2-  O196  1  -0.00114068  0.62594211  0.16423978  1
  O2-  O197  1  -0.00314058  0.62673898  0.66215076  1
  O2-  O198  1  -0.00064216  0.87413435  0.16762637  1
  O2-  O199  1  -0.00143315  0.87429672  0.66506536  1
  O2-  O200  1  0.25001357  0.12475656  0.16822555  1
  O2-  O201  1  0.25338218  0.12330396  0.66515568  1
  O2-  O202  1  0.24942996  0.37492903  0.16692569  1
  O2-  O203  1  0.24825984  0.37525297  0.66181209  1
  O2-  O204  1  0.25134746  0.62544684  0.16473574  1
  O2-  O205  1  0.25215435  0.62631169  0.66834271  1
  O2-  O206  1  0.25082938  0.87411693  0.16949496  1
  O2-  O207  1  0.25220067  0.87539773  0.66791928  1
  O2-  O208  1  0.50225301  0.12462324  0.16451812  1
  O2-  O209  1  0.49698053  0.12433362  0.66694472  1
  O2-  O210  1  0.49804573  0.37437086  0.16517459  1
  O2-  O211  1  0.50143478  0.37485308  0.66687090  1
  O2-  O212  1  0.49634806  0.62551738  0.16290978  1
  O2-  O213  1  0.50031175  0.62663336  0.66846552  1
  O2-  O214  1  0.49643077  0.87480179  0.16382838  1
  O2-  O215  1  0.49876345  0.87473984  0.66463579  1
  O2-  O216  1  0.74911059  0.12412966  0.15975004  1
  O2-  O217  1  0.75039970  0.12387817  0.66662677  1
  O2-  O218  1  0.75191615  0.37536126  0.16069848  1
  O2-  O219  1  0.74927580  0.37581311  0.66539981  1
  O2-  O220  1  0.75339175  0.62568748  0.16003578  1
  O2-  O221  1  0.75080476  0.62570523  0.66502262  1
  O2-  O222  1  0.75338155  0.87435497  0.16056312  1
  O2-  O223  1  0.75103726  0.87526010  0.66473410  1
  O2-  O224  1  0.12465679  -0.00024126  0.35184951  1
  O2-  O225  1  0.12481540  -0.00029282  0.85125776  1
  O2-  O226  1  0.12486697  0.25152853  0.34535689  1
  O2-  O227  1  0.12441517  0.25222188  0.84259257  1
  O2-  O228  1  0.12453424  0.49792130  0.34669873  1
  O2-  O229  1  0.12490202  0.49980242  0.84041234  1
  O2-  O230  1  0.12495141  0.74994970  0.35008563  1
  O2-  O231  1  0.12402739  0.74843242  0.85127203  1
  O2-  O232  1  0.37529245  -0.00085834  0.35282224  1
  O2-  O233  1  0.37367279  -0.00265873  0.85102303  1
  O2-  O234  1  0.37628827  0.24692451  0.34963240  1
  O2-  O235  1  0.37482362  0.25237441  0.84419978  1
  O2-  O236  1  0.37650107  0.50155580  0.34835497  1
  O2-  O237  1  0.37370688  0.50096287  0.84645771  1
  O2-  O238  1  0.37551208  0.75200685  0.34885653  1
  O2-  O239  1  0.37392745  0.74960571  0.85447994  1
  O2-  O240  1  0.62550291  -0.00223765  0.34564561  1
  O2-  O241  1  0.62549139  0.00370107  0.85160928  1
  O2-  O242  1  0.62524919  0.25166971  0.34431114  1
  O2-  O243  1  0.62487226  0.24740564  0.84731635  1
  O2-  O244  1  0.62579020  0.50015251  0.34240200  1
  O2-  O245  1  0.62526844  0.49914694  0.84943338  1
  O2-  O246  1  0.62554326  0.75033843  0.34404990  1
  O2-  O247  1  0.62506047  0.75010271  0.85182624  1
  O2-  O248  1  0.87449125  -0.00196683  0.34904924  1
  O2-  O249  1  0.87515320  -0.00061626  0.84983482  1
  O2-  O250  1  0.87399133  0.25071743  0.34441332  1
  O2-  O251  1  0.87526006  0.25034482  0.84357596  1
  O2-  O252  1  0.87379835  0.50119165  0.34671429  1
  O2-  O253  1  0.87565592  0.50107273  0.84532279  1
  O2-  O254  1  0.87468169  0.75025456  0.35036251  1
  O2-  O255  1  0.87652141  0.74945555  0.85164140  1
  O2-  O256  1  -0.00284329  0.12446006  0.34723613  1
  O2-  O257  1  -0.00185683  0.12473723  0.84553656  1
  O2-  O258  1  -0.00166933  0.37574378  0.34540178  1
  O2-  O259  1  0.00017589  0.37608870  0.84122915  1
  O2-  O260  1  -0.00478862  0.62567278  0.34933419  1
  O2-  O261  1  -0.00069723  0.62516466  0.84519413  1
  O2-  O262  1  -0.00211283  0.87397571  0.35228455  1
  O2-  O263  1  -0.00151670  0.87461010  0.84884497  1
  O2-  O264  1  0.25336622  0.12403393  0.35193371  1
  O2-  O265  1  0.24931433  0.12549811  0.84833908  1
  O2-  O266  1  0.24936186  0.37533020  0.35054447  1
  O2-  O267  1  0.24948894  0.37554081  0.84230137  1
  O2-  O268  1  0.25258493  0.62522615  0.35008371  1
  O2-  O269  1  0.25054269  0.62610202  0.84927349  1
  O2-  O270  1  0.25195911  0.87449216  0.35392736  1
  O2-  O271  1  0.25056301  0.87391257  0.85184479  1
  O2-  O272  1  0.49777360  0.12312973  0.34867995  1
  O2-  O273  1  0.50227660  0.12440771  0.85098002  1
  O2-  O274  1  0.50218045  0.37550640  0.34752239  1
  O2-  O275  1  0.49771047  0.37560044  0.84952261  1
  O2-  O276  1  0.50206699  0.62617099  0.34561654  1
  O2-  O277  1  0.49610680  0.62540782  0.85180341  1
  O2-  O278  1  0.49947091  0.87469039  0.34723590  1
  O2-  O279  1  0.49623256  0.87512980  0.85027468  1
  O2-  O280  1  0.75175845  0.12403826  0.34189714  1
  O2-  O281  1  0.74942004  0.12503795  0.84928818  1
  O2-  O282  1  0.75024344  0.37565886  0.34102327  1
  O2-  O283  1  0.75220819  0.37516036  0.84856225  1
  O2-  O284  1  0.75065176  0.62616176  0.34198405  1
  O2-  O285  1  0.75362375  0.62561718  0.85021900  1
  O2-  O286  1  0.75122566  0.87411887  0.34377193  1
  O2-  O287  1  0.75404602  0.87431030  0.85006821  1
