# generated using pymatgen
data_BaYFeCuO5
_symmetry_space_group_name_H-M   'P 1'
_cell_length_a   15.66952575
_cell_length_b   15.66752643
_cell_length_c   15.48032912
_cell_angle_alpha   89.99387063
_cell_angle_beta   89.99241974
_cell_angle_gamma   89.98787941
_symmetry_Int_Tables_number   1
_chemical_formula_structural   BaYFeCuO5
_chemical_formula_sum   'Ba32 Y32 Fe32 Cu32 O160'
_cell_volume   3800.46259343
_cell_formula_units_Z   32
loop_
 _symmetry_equiv_pos_site_id
 _symmetry_equiv_pos_as_xyz
  1  'x, y, z'
loop_
 _atom_type_symbol
 _atom_type_oxidation_number
  Ba2+  2.0
  Y3+  3.0
  Fe3+  3.0
  Cu2+  2.0
  O2-  -2.0
loop_
 _atom_site_type_symbol
 _atom_site_label
 _atom_site_symmetry_multiplicity
 _atom_site_fract_x
 _atom_site_fract_y
 _atom_site_fract_z
 _atom_site_occupancy
  Ba2+  Ba0  1  0.00191137  -0.00673542  0.01579697  1
  Ba2+  Ba1  1  -0.00674593  0.00156266  0.51757614  1
  Ba2+  Ba2  1  0.00681795  0.25514567  0.01521330  1
  Ba2+  Ba3  1  -0.00576393  0.25712768  0.50758601  1
  Ba2+  Ba4  1  0.00504858  0.50134624  0.01544599  1
  Ba2+  Ba5  1  0.00062864  0.49255959  0.50650216  1
  Ba2+  Ba6  1  -0.00051108  0.74947330  0.01505064  1
  Ba2+  Ba7  1  0.00027053  0.74816272  0.51662505  1
  Ba2+  Ba8  1  0.25062555  0.00033917  0.02739270  1
  Ba2+  Ba9  1  0.26014980  0.00159928  0.50674204  1
  Ba2+  Ba10  1  0.25094898  0.25352405  0.01625481  1
  Ba2+  Ba11  1  0.25525318  0.25227563  0.49676319  1
  Ba2+  Ba12  1  0.24418673  0.49395967  0.00603861  1
  Ba2+  Ba13  1  0.24600989  0.49472129  0.50026927  1
  Ba2+  Ba14  1  0.24312108  0.75209620  0.01710734  1
  Ba2+  Ba15  1  0.25231937  0.75203345  0.51139824  1
  Ba2+  Ba16  1  0.50124640  0.00231581  0.02308935  1
  Ba2+  Ba17  1  0.48950558  0.00147128  0.50722570  1
  Ba2+  Ba18  1  0.49846350  0.24859445  0.00672205  1
  Ba2+  Ba19  1  0.49458531  0.25269748  0.49650224  1
  Ba2+  Ba20  1  0.50065188  0.49238816  0.00580411  1
  Ba2+  Ba21  1  0.50416221  0.49498410  0.50160185  1
  Ba2+  Ba22  1  0.50406678  0.75479273  0.02338799  1
  Ba2+  Ba23  1  0.49767115  0.75163236  0.51101635  1
  Ba2+  Ba24  1  0.74555082  -0.00460374  0.01123803  1
  Ba2+  Ba25  1  0.75718238  0.00157247  0.51828356  1
  Ba2+  Ba26  1  0.74197189  0.25013511  0.00498564  1
  Ba2+  Ba27  1  0.75600787  0.25731132  0.50744336  1
  Ba2+  Ba28  1  0.75074993  0.50185662  0.01825760  1
  Ba2+  Ba29  1  0.74941629  0.49267031  0.50680786  1
  Ba2+  Ba30  1  0.75218334  0.75218369  0.01997013  1
  Ba2+  Ba31  1  0.74970625  0.74781719  0.51585285  1
  Y3+  Y32  1  0.00047545  -0.00030988  0.25428153  1
  Y3+  Y33  1  -0.00352558  -0.00103249  0.75777913  1
  Y3+  Y34  1  0.00080066  0.25407870  0.25649875  1
  Y3+  Y35  1  -0.00081492  0.25125448  0.75789193  1
  Y3+  Y36  1  0.00028241  0.49787419  0.25453718  1
  Y3+  Y37  1  0.00301915  0.50002418  0.75982650  1
  Y3+  Y38  1  0.00000270  0.74916421  0.25250397  1
  Y3+  Y39  1  0.00052844  0.74891527  0.75920532  1
  Y3+  Y40  1  0.25301049  0.00118620  0.26123305  1
  Y3+  Y41  1  0.25331199  0.00081561  0.75094515  1
  Y3+  Y42  1  0.25119482  0.25130200  0.25556821  1
  Y3+  Y43  1  0.25144305  0.25148825  0.76124649  1
  Y3+  Y44  1  0.24835511  0.49728280  0.25296455  1
  Y3+  Y45  1  0.24763023  0.49929409  0.76347158  1
  Y3+  Y46  1  0.24999619  0.75110176  0.25750425  1
  Y3+  Y47  1  0.24919162  0.74774801  0.75602089  1
  Y3+  Y48  1  0.49806699  0.00189211  0.25979984  1
  Y3+  Y49  1  0.49864666  0.00212762  0.75400161  1
  Y3+  Y50  1  0.49770774  0.24926900  0.25578127  1
  Y3+  Y51  1  0.49954864  0.24940484  0.76196711  1
  Y3+  Y52  1  0.49983666  0.49821830  0.25602456  1
  Y3+  Y53  1  0.49979840  0.49840706  0.76067681  1
  Y3+  Y54  1  0.49968562  0.75175818  0.25954498  1
  Y3+  Y55  1  0.49877764  0.74934958  0.75333951  1
  Y3+  Y56  1  0.74904786  0.00045415  0.25308436  1
  Y3+  Y57  1  0.75113806  0.00044932  0.75983161  1
  Y3+  Y58  1  0.75042819  0.25206386  0.25680328  1
  Y3+  Y59  1  0.74958142  0.24932598  0.75882530  1
  Y3+  Y60  1  0.75224924  0.49839910  0.25816058  1
  Y3+  Y61  1  0.74939097  0.49886967  0.75632803  1
  Y3+  Y62  1  0.75063004  0.74963792  0.25404725  1
  Y3+  Y63  1  0.75129757  0.75056065  0.75678554  1
  Fe3+  Fe64  1  0.87521814  0.12517401  0.37466832  1
  Fe3+  Fe65  1  0.87540396  0.12445899  0.88035143  1
  Fe3+  Fe66  1  0.12432190  0.62509469  0.37700018  1
  Fe3+  Fe67  1  0.37409713  0.12280098  0.87831905  1
  Fe3+  Fe68  1  0.62500277  0.62624618  0.87734826  1
  Fe3+  Fe69  1  0.37502489  0.87517200  0.87632909  1
  Fe3+  Fe70  1  0.12653548  0.87631868  0.87369325  1
  Fe3+  Fe71  1  0.12584657  0.12342302  0.87694696  1
  Fe3+  Fe72  1  0.62316014  0.87459319  0.87397071  1
  Fe3+  Fe73  1  0.87465304  0.62515607  0.87714207  1
  Fe3+  Fe74  1  0.62579030  0.62489749  0.37724136  1
  Fe3+  Fe75  1  0.87493638  0.37590197  0.87915075  1
  Fe3+  Fe76  1  0.12401675  0.87548776  0.37922491  1
  Fe3+  Fe77  1  0.37449781  0.62398569  0.37866938  1
  Fe3+  Fe78  1  0.62619800  0.87607999  0.37942681  1
  Fe3+  Fe79  1  0.62628775  0.12583357  0.38004741  1
  Fe3+  Fe80  1  0.87502989  0.87468808  0.37597377  1
  Fe3+  Fe81  1  0.87569067  0.62478889  0.37836542  1
  Fe3+  Fe82  1  0.12381229  0.12589439  0.37923971  1
  Fe3+  Fe83  1  0.37481425  0.62637324  0.88121914  1
  Fe3+  Fe84  1  0.62399545  0.37411569  0.63971338  1
  Fe3+  Fe85  1  0.62451824  0.12670373  0.63395483  1
  Fe3+  Fe86  1  0.37465008  0.37475052  0.64046609  1
  Fe3+  Fe87  1  0.12517075  0.87531993  0.63363179  1
  Fe3+  Fe88  1  0.37427312  0.62166877  0.63497729  1
  Fe3+  Fe89  1  0.37502888  0.62449889  0.13560460  1
  Fe3+  Fe90  1  0.87544794  0.62243438  0.63480264  1
  Fe3+  Fe91  1  0.62484226  0.87539007  0.63363100  1
  Fe3+  Fe92  1  0.12528812  0.12689962  0.63290443  1
  Fe3+  Fe93  1  0.87502673  0.12623464  0.13394862  1
  Fe3+  Fe94  1  0.62479525  0.37448900  0.14012457  1
  Fe3+  Fe95  1  0.12589697  0.37455126  0.63912402  1
  Cu2+  Cu96  1  0.12509716  0.37503024  0.36179484  1
  Cu2+  Cu97  1  0.87546750  0.37545265  0.37042972  1
  Cu2+  Cu98  1  0.62387260  0.12307979  0.87382788  1
  Cu2+  Cu99  1  0.37488147  0.37655138  0.35959700  1
  Cu2+  Cu100  1  0.37498739  0.12620094  0.37104720  1
  Cu2+  Cu101  1  0.62580692  0.37534792  0.86454182  1
  Cu2+  Cu102  1  0.87478328  0.87406752  0.87312586  1
  Cu2+  Cu103  1  0.12486522  0.62598856  0.87453585  1
  Cu2+  Cu104  1  0.37506081  0.87406204  0.37261363  1
  Cu2+  Cu105  1  0.12395606  0.37349558  0.87257544  1
  Cu2+  Cu106  1  0.62508990  0.37451422  0.36221542  1
  Cu2+  Cu107  1  0.37444747  0.37459820  0.87619556  1
  Cu2+  Cu108  1  0.62449650  0.87546597  0.15667982  1
  Cu2+  Cu109  1  0.37501702  0.87457805  0.64044252  1
  Cu2+  Cu110  1  0.37514613  0.87491684  0.15476151  1
  Cu2+  Cu111  1  0.37532702  0.12838402  0.64098538  1
  Cu2+  Cu112  1  0.62504619  0.12612077  0.14329280  1
  Cu2+  Cu113  1  0.37560705  0.37531517  0.14219611  1
  Cu2+  Cu114  1  0.12510067  0.12514603  0.15358334  1
  Cu2+  Cu115  1  0.12595025  0.62495662  0.14248196  1
  Cu2+  Cu116  1  0.12560478  0.62339097  0.64754077  1
  Cu2+  Cu117  1  0.87522001  0.62434377  0.15077584  1
  Cu2+  Cu118  1  0.62439918  0.62343602  0.64702772  1
  Cu2+  Cu119  1  0.62432520  0.62447726  0.15183137  1
  Cu2+  Cu120  1  0.87510498  0.87561442  0.14069823  1
  Cu2+  Cu121  1  0.87493808  0.87365741  0.65108642  1
  Cu2+  Cu122  1  0.12542116  0.37488233  0.14416154  1
  Cu2+  Cu123  1  0.87517997  0.37562492  0.64635421  1
  Cu2+  Cu124  1  0.12578216  0.87558614  0.15603268  1
  Cu2+  Cu125  1  0.87481916  0.12650723  0.65267440  1
  Cu2+  Cu126  1  0.37489984  0.12540271  0.15248320  1
  Cu2+  Cu127  1  0.87475823  0.37467057  0.14634665  1
  O2-  O128  1  0.12629931  0.12085046  -0.00338472  1
  O2-  O129  1  0.12316036  0.12723024  0.50591270  1
  O2-  O130  1  0.12434535  0.37378045  0.00837934  1
  O2-  O131  1  0.12642189  0.37393408  0.51839024  1
  O2-  O132  1  0.12552060  0.62732063  0.00762472  1
  O2-  O133  1  0.12460281  0.62475811  0.49705476  1
  O2-  O134  1  0.12731292  0.87727388  -0.00584230  1
  O2-  O135  1  0.12296745  0.87463113  0.50523153  1
  O2-  O136  1  0.37372853  0.12058088  -0.00146385  1
  O2-  O137  1  0.37505283  0.12815669  0.50616649  1
  O2-  O138  1  0.37569266  0.37500245  0.00890992  1
  O2-  O139  1  0.37484448  0.37693533  0.52001725  1
  O2-  O140  1  0.37568974  0.62767450  0.00790618  1
  O2-  O141  1  0.37448463  0.62161275  0.50657765  1
  O2-  O142  1  0.37546130  0.87561974  -0.00407032  1
  O2-  O143  1  0.37506238  0.87317886  0.50576881  1
  O2-  O144  1  0.62415586  0.12335663  0.00744890  1
  O2-  O145  1  0.62660184  0.12695272  0.50702265  1
  O2-  O146  1  0.62520608  0.37507744  0.01908641  1
  O2-  O147  1  0.62355267  0.37336460  0.51910353  1
  O2-  O148  1  0.62540595  0.62872017  -0.00302422  1
  O2-  O149  1  0.62534953  0.62478713  0.49718796  1
  O2-  O150  1  0.62266821  0.87449754  -0.00560789  1
  O2-  O151  1  0.62707873  0.87539932  0.50537559  1
  O2-  O152  1  0.87543205  0.12440523  0.00641409  1
  O2-  O153  1  0.87525283  0.12503282  0.49517041  1
  O2-  O154  1  0.87449049  0.37663667  -0.00064085  1
  O2-  O155  1  0.87505591  0.37630819  0.50585666  1
  O2-  O156  1  0.87364191  0.62619239  -0.00275415  1
  O2-  O157  1  0.87554472  0.62374771  0.50560786  1
  O2-  O158  1  0.87485535  0.87459097  0.00652850  1
  O2-  O159  1  0.87515363  0.87482130  0.49609273  1
  O2-  O160  1  0.12544093  -0.00004618  0.16862942  1
  O2-  O161  1  0.12392389  0.00066032  0.65516308  1
  O2-  O162  1  0.12497357  0.24879266  0.16724621  1
  O2-  O163  1  0.12430540  0.24929436  0.66698241  1
  O2-  O164  1  0.12526304  0.50005347  0.16571377  1
  O2-  O165  1  0.12539685  0.49889000  0.66893831  1
  O2-  O166  1  0.12556757  0.75179506  0.16589785  1
  O2-  O167  1  0.12551855  0.75080388  0.65906336  1
  O2-  O168  1  0.37514314  -0.00029441  0.16720665  1
  O2-  O169  1  0.37547292  0.00077959  0.65877964  1
  O2-  O170  1  0.37496063  0.24884012  0.16540772  1
  O2-  O171  1  0.37509349  0.25263204  0.67121685  1
  O2-  O172  1  0.37549783  0.50295475  0.16529780  1
  O2-  O173  1  0.37479475  0.49989358  0.67117347  1
  O2-  O174  1  0.37571678  0.74911244  0.16546601  1
  O2-  O175  1  0.37461583  0.74617663  0.66057950  1
  O2-  O176  1  0.62466623  -0.00066581  0.16783353  1
  O2-  O177  1  0.62606271  0.00069602  0.65698210  1
  O2-  O178  1  0.62543315  0.25160459  0.16985263  1
  O2-  O179  1  0.62547656  0.24899594  0.66921800  1
  O2-  O180  1  0.62531233  0.49956711  0.16775250  1
  O2-  O181  1  0.62427026  0.49887313  0.66760120  1
  O2-  O182  1  0.62455623  0.75017806  0.16579729  1
  O2-  O183  1  0.62474268  0.75064903  0.65736640  1
  O2-  O184  1  0.87529703  0.00316332  0.16274470  1
  O2-  O185  1  0.87461474  -0.00021532  0.66245421  1
  O2-  O186  1  0.87562941  0.24845125  0.16342160  1
  O2-  O187  1  0.87470515  0.25015831  0.66771463  1
  O2-  O188  1  0.87476585  0.50013349  0.16580028  1
  O2-  O189  1  0.87501623  0.50179461  0.66423806  1
  O2-  O190  1  0.87494900  0.74891197  0.16511936  1
  O2-  O191  1  0.87486629  0.74711218  0.65993148  1
  O2-  O192  1  -0.00111182  0.12474092  0.16223335  1
  O2-  O193  1  0.00120204  0.12489338  0.66292443  1
  O2-  O194  1  -0.00103395  0.37514575  0.16444786  1
  O2-  O195  1  0.00151274  0.37484485  0.66542237  1
  O2-  O196  1  -0.00064102  0.62521454  0.16498681  1
  O2-  O197  1  -0.00105974  0.62478470  0.66219045  1
  O2-  O198  1  0.00182023  0.87540164  0.16458420  1
  O2-  O199  1  0.00149300  0.87463061  0.66212562  1
  O2-  O200  1  0.24994057  0.12451934  0.16750613  1
  O2-  O201  1  0.24687078  0.12518818  0.66123327  1
  O2-  O202  1  0.25026471  0.37475231  0.16537437  1
  O2-  O203  1  0.24986872  0.37546638  0.67076223  1
  O2-  O204  1  0.25322331  0.62651262  0.16621416  1
  O2-  O205  1  0.25165746  0.62388046  0.66444719  1
  O2-  O206  1  0.25025712  0.87496390  0.16797102  1
  O2-  O207  1  0.24724226  0.87524607  0.65954494  1
  O2-  O208  1  0.49873796  0.12455516  0.16806430  1
  O2-  O209  1  0.50323178  0.12541412  0.66334698  1
  O2-  O210  1  0.50154870  0.37529638  0.16819270  1
  O2-  O211  1  0.49976638  0.37533561  0.67106866  1
  O2-  O212  1  0.49801700  0.62617565  0.16638272  1
  O2-  O213  1  0.49778309  0.62393438  0.66268487  1
  O2-  O214  1  0.50016969  0.87498807  0.16834003  1
  O2-  O215  1  0.50287968  0.87455448  0.66003627  1
  O2-  O216  1  0.75275897  0.12521981  0.16377683  1
  O2-  O217  1  0.74848650  0.12510698  0.66423725  1
  O2-  O218  1  0.74973417  0.37559625  0.16700119  1
  O2-  O219  1  0.74856187  0.37490643  0.66559189  1
  O2-  O220  1  0.74984891  0.62521694  0.16533057  1
  O2-  O221  1  0.75137655  0.62432942  0.66041330  1
  O2-  O222  1  0.74830670  0.87515963  0.16524193  1
  O2-  O223  1  0.74835356  0.87443984  0.66220269  1
  O2-  O224  1  0.12381340  0.00023857  0.35308012  1
  O2-  O225  1  0.12527135  0.00011016  0.83667412  1
  O2-  O226  1  0.12458844  0.24939360  0.35189217  1
  O2-  O227  1  0.12405749  0.24679489  0.84753117  1
  O2-  O228  1  0.12503860  0.50049520  0.34864949  1
  O2-  O229  1  0.12469034  0.49946778  0.85214614  1
  O2-  O230  1  0.12483042  0.75087570  0.34869641  1
  O2-  O231  1  0.12565125  0.75258487  0.84242605  1
  O2-  O232  1  0.37535671  0.00034611  0.35096649  1
  O2-  O233  1  0.37501598  -0.00085915  0.83992656  1
  O2-  O234  1  0.37487248  0.25249475  0.34939366  1
  O2-  O235  1  0.37505820  0.24779653  0.85215342  1
  O2-  O236  1  0.37496891  0.50187685  0.34932926  1
  O2-  O237  1  0.37559727  0.50285744  0.85445997  1
  O2-  O238  1  0.37509090  0.74614537  0.34981976  1
  O2-  O239  1  0.37507959  0.74920768  0.84391714  1
  O2-  O240  1  0.62599308  0.00065455  0.35225389  1
  O2-  O241  1  0.62440365  -0.00286763  0.83977578  1
  O2-  O242  1  0.62600665  0.24910161  0.35288983  1
  O2-  O243  1  0.62525824  0.25162087  0.85216853  1
  O2-  O244  1  0.62515734  0.50015225  0.34993947  1
  O2-  O245  1  0.62481186  0.50076559  0.84978026  1
  O2-  O246  1  0.62568561  0.75102358  0.34934686  1
  O2-  O247  1  0.62417802  0.74985219  0.83896369  1
  O2-  O248  1  0.87519035  -0.00029211  0.34400130  1
  O2-  O249  1  0.87455079  0.00242250  0.84785875  1
  O2-  O250  1  0.87511851  0.24838266  0.34613464  1
  O2-  O251  1  0.87471774  0.24884950  0.85099587  1
  O2-  O252  1  0.87561315  0.50306151  0.34994757  1
  O2-  O253  1  0.87408791  0.50020567  0.84525080  1
  O2-  O254  1  0.87480830  0.74923960  0.34803698  1
  O2-  O255  1  0.87486172  0.74771218  0.84276669  1
  O2-  O256  1  0.00093868  0.12509308  0.34589717  1
  O2-  O257  1  -0.00122097  0.12382619  0.84689704  1
  O2-  O258  1  0.00142647  0.37530395  0.34806331  1
  O2-  O259  1  -0.00238231  0.37445058  0.84666852  1
  O2-  O260  1  -0.00073389  0.62580311  0.34809643  1
  O2-  O261  1  -0.00180169  0.62521348  0.84582817  1
  O2-  O262  1  0.00056130  0.87490478  0.34688636  1
  O2-  O263  1  0.00192491  0.87541820  0.84539496  1
  O2-  O264  1  0.24668799  0.12519317  0.35195797  1
  O2-  O265  1  0.25057179  0.12383611  0.84230781  1
  O2-  O266  1  0.25012979  0.37617184  0.34939937  1
  O2-  O267  1  0.24917981  0.37463832  0.85110909  1
  O2-  O268  1  0.25026048  0.62476360  0.34947010  1
  O2-  O269  1  0.25303965  0.62588923  0.84932176  1
  O2-  O270  1  0.24650961  0.87493175  0.35197477  1
  O2-  O271  1  0.25137734  0.87474445  0.83990232  1
  O2-  O272  1  0.50352861  0.12569266  0.35191796  1
  O2-  O273  1  0.49740278  0.12416753  0.84581705  1
  O2-  O274  1  0.49981071  0.37596439  0.35101393  1
  O2-  O275  1  0.50218508  0.37527400  0.85212666  1
  O2-  O276  1  0.49952164  0.62466069  0.35007756  1
  O2-  O277  1  0.49896689  0.62554102  0.84656961  1
  O2-  O278  1  0.50374966  0.87482345  0.35234287  1
  O2-  O279  1  0.49860302  0.87402309  0.84002005  1
  O2-  O280  1  0.74924898  0.12493796  0.34666031  1
  O2-  O281  1  0.75254910  0.12460075  0.84963984  1
  O2-  O282  1  0.74911439  0.37523769  0.34957086  1
  O2-  O283  1  0.75057002  0.37447454  0.84744538  1
  O2-  O284  1  0.75137287  0.62530485  0.34913875  1
  O2-  O285  1  0.74919579  0.62528334  0.84258981  1
  O2-  O286  1  0.74949159  0.87535955  0.34727534  1
  O2-  O287  1  0.74772858  0.87449267  0.84534961  1
