# generated using pymatgen
data_BaYFeCuO5
_symmetry_space_group_name_H-M   'P 1'
_cell_length_a   15.67409649
_cell_length_b   15.67251268
_cell_length_c   15.49015245
_cell_angle_alpha   89.99510553
_cell_angle_beta   89.99362861
_cell_angle_gamma   89.99882512
_symmetry_Int_Tables_number   1
_chemical_formula_structural   BaYFeCuO5
_chemical_formula_sum   'Ba32 Y32 Fe32 Cu32 O160'
_cell_volume   3805.19426421
_cell_formula_units_Z   32
loop_
 _symmetry_equiv_pos_site_id
 _symmetry_equiv_pos_as_xyz
  1  'x, y, z'
loop_
 _atom_type_symbol
 _atom_type_oxidation_number
  Ba2+  2.0
  Y3+  3.0
  Fe3+  3.0
  Cu2+  2.0
  O2-  -2.0
loop_
 _atom_site_type_symbol
 _atom_site_label
 _atom_site_symmetry_multiplicity
 _atom_site_fract_x
 _atom_site_fract_y
 _atom_site_fract_z
 _atom_site_occupancy
  Ba2+  Ba0  1  -0.00305565  -0.00188357  0.01070647  1
  Ba2+  Ba1  1  -0.00204362  0.00053869  0.51994148  1
  Ba2+  Ba2  1  0.00640772  0.25582586  0.01544249  1
  Ba2+  Ba3  1  -0.00017703  0.24917803  0.49263419  1
  Ba2+  Ba4  1  -0.00128761  0.49384599  0.01729188  1
  Ba2+  Ba5  1  0.00481561  0.49504501  0.49986289  1
  Ba2+  Ba6  1  -0.01102157  0.75121962  0.01075450  1
  Ba2+  Ba7  1  0.00523853  0.75479764  0.52353095  1
  Ba2+  Ba8  1  0.25752545  0.00300193  0.01673310  1
  Ba2+  Ba9  1  0.24568873  -0.00430431  0.51291271  1
  Ba2+  Ba10  1  0.25130853  0.25428505  0.01632263  1
  Ba2+  Ba11  1  0.24555854  0.25320976  0.49973202  1
  Ba2+  Ba12  1  0.25426813  0.49097033  0.01037637  1
  Ba2+  Ba13  1  0.24945544  0.50089450  0.50585442  1
  Ba2+  Ba14  1  0.26150075  0.75183787  0.01141963  1
  Ba2+  Ba15  1  0.24879107  0.75056014  0.51873252  1
  Ba2+  Ba16  1  0.50060094  -0.00035239  0.00630222  1
  Ba2+  Ba17  1  0.50667593  -0.00117903  0.51745913  1
  Ba2+  Ba18  1  0.49515629  0.24619771  0.01248842  1
  Ba2+  Ba19  1  0.50609907  0.25067442  0.51763005  1
  Ba2+  Ba20  1  0.49616748  0.50411231  0.01315406  1
  Ba2+  Ba21  1  0.49523082  0.49557800  0.51325500  1
  Ba2+  Ba22  1  0.50179246  0.75059001  0.00594007  1
  Ba2+  Ba23  1  0.49468242  0.75471095  0.51242006  1
  Ba2+  Ba24  1  0.74471207  -0.00462201  0.00146575  1
  Ba2+  Ba25  1  0.74921211  0.00340200  0.52259918  1
  Ba2+  Ba26  1  0.74670675  0.24771386  0.01178675  1
  Ba2+  Ba27  1  0.74815873  0.24415209  0.51226852  1
  Ba2+  Ba28  1  0.75064966  0.50640487  0.01832121  1
  Ba2+  Ba29  1  0.75097196  0.49020542  0.50618978  1
  Ba2+  Ba30  1  0.74733171  0.75032555  0.00629770  1
  Ba2+  Ba31  1  0.75091100  0.76026539  0.51801161  1
  Y3+  Y32  1  0.00026023  0.00145314  0.25337095  1
  Y3+  Y33  1  -0.00253802  -0.00130865  0.76026474  1
  Y3+  Y34  1  0.00214996  0.25104679  0.25458735  1
  Y3+  Y35  1  0.00069233  0.25040996  0.76083747  1
  Y3+  Y36  1  -0.00035173  0.49716419  0.25593067  1
  Y3+  Y37  1  0.00284256  0.49922462  0.75891690  1
  Y3+  Y38  1  -0.00248055  0.75043657  0.25271391  1
  Y3+  Y39  1  -0.00030224  0.75143203  0.75968525  1
  Y3+  Y40  1  0.25083204  0.00163111  0.25529037  1
  Y3+  Y41  1  0.25189018  -0.00202544  0.75816286  1
  Y3+  Y42  1  0.24892537  0.25008427  0.25450967  1
  Y3+  Y43  1  0.25127927  0.25375124  0.76078361  1
  Y3+  Y44  1  0.25172295  0.49902186  0.25469683  1
  Y3+  Y45  1  0.25032999  0.49708528  0.75997759  1
  Y3+  Y46  1  0.25394951  0.74955820  0.25531223  1
  Y3+  Y47  1  0.25078642  0.75139813  0.75872640  1
  Y3+  Y48  1  0.50063713  0.00204036  0.25533086  1
  Y3+  Y49  1  0.50227982  -0.00072474  0.75929385  1
  Y3+  Y50  1  0.50045743  0.24720591  0.25601813  1
  Y3+  Y51  1  0.50121853  0.25037357  0.75868590  1
  Y3+  Y52  1  0.49823877  0.50234866  0.25541945  1
  Y3+  Y53  1  0.49969620  0.49795669  0.75967441  1
  Y3+  Y54  1  0.49852793  0.74848168  0.25448029  1
  Y3+  Y55  1  0.50080434  0.75221533  0.76035387  1
  Y3+  Y56  1  0.74773754  0.00168229  0.25437207  1
  Y3+  Y57  1  0.74803366  0.00006931  0.75944658  1
  Y3+  Y58  1  0.74884972  0.24863820  0.25727634  1
  Y3+  Y59  1  0.74675752  0.24744876  0.75758866  1
  Y3+  Y60  1  0.75044843  0.50070844  0.25637783  1
  Y3+  Y61  1  0.74750096  0.50012669  0.75746878  1
  Y3+  Y62  1  0.75004296  0.74953662  0.25325281  1
  Y3+  Y63  1  0.74900952  0.75252939  0.76097770  1
  Fe3+  Fe64  1  0.37531332  0.62448691  0.87639917  1
  Fe3+  Fe65  1  0.87465503  0.12570298  0.88004525  1
  Fe3+  Fe66  1  0.12397731  0.87496355  0.37301671  1
  Fe3+  Fe67  1  0.37497447  0.12543167  0.87532790  1
  Fe3+  Fe68  1  0.12524431  0.62698269  0.37435197  1
  Fe3+  Fe69  1  0.87516747  0.87583420  0.37539397  1
  Fe3+  Fe70  1  0.87440252  0.12346744  0.37426960  1
  Fe3+  Fe71  1  0.12601509  0.12529554  0.88008512  1
  Fe3+  Fe72  1  0.62440653  0.37424930  0.37538970  1
  Fe3+  Fe73  1  0.37548281  0.12437023  0.38001569  1
  Fe3+  Fe74  1  0.12536560  0.62448494  0.88097687  1
  Fe3+  Fe75  1  0.62562973  0.87557200  0.37686911  1
  Fe3+  Fe76  1  0.37557712  0.37478888  0.37557088  1
  Fe3+  Fe77  1  0.62463425  0.37552811  0.88041262  1
  Fe3+  Fe78  1  0.62451667  0.62589647  0.38082420  1
  Fe3+  Fe79  1  0.87409417  0.37524334  0.87889383  1
  Fe3+  Fe80  1  0.37494739  0.87520053  0.37631421  1
  Fe3+  Fe81  1  0.87448844  0.62365271  0.87557432  1
  Fe3+  Fe82  1  0.12582944  0.87504072  0.88032821  1
  Fe3+  Fe83  1  0.87537405  0.62613380  0.37993915  1
  Fe3+  Fe84  1  0.12564344  0.62508646  0.13325575  1
  Fe3+  Fe85  1  0.87591300  0.62388704  0.63397986  1
  Fe3+  Fe86  1  0.87599441  0.37328646  0.63765895  1
  Fe3+  Fe87  1  0.12490013  0.37427590  0.63912293  1
  Fe3+  Fe88  1  0.37449141  0.62436731  0.63890691  1
  Fe3+  Fe89  1  0.12468143  0.12628000  0.63866240  1
  Fe3+  Fe90  1  0.62511317  0.62484803  0.63464030  1
  Fe3+  Fe91  1  0.12579966  0.87469057  0.13302470  1
  Fe3+  Fe92  1  0.87449496  0.12529339  0.13411382  1
  Fe3+  Fe93  1  0.62425611  0.87497200  0.13788942  1
  Fe3+  Fe94  1  0.62413211  0.37524600  0.13560978  1
  Fe3+  Fe95  1  0.37416924  0.12551739  0.63489709  1
  Cu2+  Cu96  1  0.12494847  0.37505498  0.87513252  1
  Cu2+  Cu97  1  0.37514382  0.87584883  0.87328462  1
  Cu2+  Cu98  1  0.87458825  0.87507245  0.87372046  1
  Cu2+  Cu99  1  0.62493124  0.62415781  0.87315583  1
  Cu2+  Cu100  1  0.12578620  0.37551899  0.35843201  1
  Cu2+  Cu101  1  0.62456706  0.87500165  0.86358244  1
  Cu2+  Cu102  1  0.12512656  0.12368409  0.36165342  1
  Cu2+  Cu103  1  0.62467128  0.12409580  0.37288464  1
  Cu2+  Cu104  1  0.37495417  0.62537958  0.36498122  1
  Cu2+  Cu105  1  0.37604352  0.37446495  0.87340866  1
  Cu2+  Cu106  1  0.87450469  0.37439942  0.36114028  1
  Cu2+  Cu107  1  0.62436093  0.12566585  0.87431726  1
  Cu2+  Cu108  1  0.87534444  0.62480520  0.15166825  1
  Cu2+  Cu109  1  0.12599406  0.37561997  0.14402905  1
  Cu2+  Cu110  1  0.37462105  0.62500422  0.14951751  1
  Cu2+  Cu111  1  0.87320673  0.87590593  0.13966719  1
  Cu2+  Cu112  1  0.62531916  0.37560198  0.65263439  1
  Cu2+  Cu113  1  0.62459050  0.12484431  0.64449220  1
  Cu2+  Cu114  1  0.37451947  0.37433241  0.65101269  1
  Cu2+  Cu115  1  0.37517715  0.12521347  0.15269937  1
  Cu2+  Cu116  1  0.62439240  0.62552900  0.14129004  1
  Cu2+  Cu117  1  0.37637675  0.37462128  0.14296694  1
  Cu2+  Cu118  1  0.87588322  0.12589533  0.65598421  1
  Cu2+  Cu119  1  0.62479248  0.12471600  0.13894549  1
  Cu2+  Cu120  1  0.87470363  0.87510014  0.65589395  1
  Cu2+  Cu121  1  0.37534293  0.87546160  0.65235329  1
  Cu2+  Cu122  1  0.37665778  0.87568742  0.14137258  1
  Cu2+  Cu123  1  0.87370431  0.37416508  0.15115667  1
  Cu2+  Cu124  1  0.62481588  0.87401390  0.65420779  1
  Cu2+  Cu125  1  0.12529463  0.12473043  0.14558005  1
  Cu2+  Cu126  1  0.12501462  0.62422765  0.65382469  1
  Cu2+  Cu127  1  0.12510274  0.87579299  0.65739473  1
  O2-  O128  1  0.12696193  0.12483915  -0.00017422  1
  O2-  O129  1  0.12297899  0.12559182  0.51845402  1
  O2-  O130  1  0.12493373  0.37614380  0.00911469  1
  O2-  O131  1  0.12410472  0.37397953  0.51876075  1
  O2-  O132  1  0.12512052  0.62469185  0.00656846  1
  O2-  O133  1  0.12418458  0.62790343  0.49479252  1
  O2-  O134  1  0.12615489  0.87477498  0.00608910  1
  O2-  O135  1  0.12338068  0.87484503  0.49330675  1
  O2-  O136  1  0.37410611  0.12577409  -0.00386310  1
  O2-  O137  1  0.37428604  0.12453413  0.50695230  1
  O2-  O138  1  0.37712078  0.37414772  0.00771130  1
  O2-  O139  1  0.37449778  0.37493891  0.49606761  1
  O2-  O140  1  0.37524501  0.62466008  -0.00274952  1
  O2-  O141  1  0.37343016  0.62525755  0.51813219  1
  O2-  O142  1  0.37629343  0.87598550  0.00650888  1
  O2-  O143  1  0.37252728  0.87510174  0.49647348  1
  O2-  O144  1  0.62472187  0.12536075  0.00662556  1
  O2-  O145  1  0.62547411  0.12420482  0.50862846  1
  O2-  O146  1  0.62493418  0.37649688  0.00736569  1
  O2-  O147  1  0.62504964  0.37457535  0.49612979  1
  O2-  O148  1  0.62530820  0.62468322  0.00692790  1
  O2-  O149  1  0.62521144  0.62557793  0.50729000  1
  O2-  O150  1  0.62407843  0.87391730  0.01664943  1
  O2-  O151  1  0.62610147  0.87513000  0.49759109  1
  O2-  O152  1  0.87457653  0.12589201  0.00636527  1
  O2-  O153  1  0.87594474  0.12313463  0.49480789  1
  O2-  O154  1  0.87321674  0.37674810  -0.00144021  1
  O2-  O155  1  0.87748033  0.37285407  0.51734599  1
  O2-  O156  1  0.87460659  0.62299842  -0.00407998  1
  O2-  O157  1  0.87713192  0.62620552  0.50633808  1
  O2-  O158  1  0.87385351  0.87497993  0.00604895  1
  O2-  O159  1  0.87749555  0.87612428  0.49543084  1
  O2-  O160  1  0.12545257  -0.00176928  0.16033482  1
  O2-  O161  1  0.12477914  0.00078747  0.66723406  1
  O2-  O162  1  0.12545321  0.24907629  0.16508210  1
  O2-  O163  1  0.12525740  0.25025467  0.67106781  1
  O2-  O164  1  0.12491384  0.50349188  0.16447046  1
  O2-  O165  1  0.12459728  0.49860565  0.66756950  1
  O2-  O166  1  0.12465831  0.74958227  0.15870770  1
  O2-  O167  1  0.12467916  0.75069784  0.66603613  1
  O2-  O168  1  0.37461267  0.00231048  0.16474903  1
  O2-  O169  1  0.37435996  0.00094091  0.66227023  1
  O2-  O170  1  0.37534529  0.24780737  0.16631796  1
  O2-  O171  1  0.37470064  0.24890794  0.66294522  1
  O2-  O172  1  0.37492332  0.50137042  0.16540989  1
  O2-  O173  1  0.37527611  0.49981274  0.66618947  1
  O2-  O174  1  0.37531528  0.74897669  0.16400424  1
  O2-  O175  1  0.37448059  0.74984457  0.66637672  1
  O2-  O176  1  0.62462104  -0.00096549  0.16437750  1
  O2-  O177  1  0.62518824  -0.00185590  0.66674377  1
  O2-  O178  1  0.62476376  0.25231506  0.16263320  1
  O2-  O179  1  0.62518405  0.25149900  0.66688306  1
  O2-  O180  1  0.62546011  0.49794764  0.16552265  1
  O2-  O181  1  0.62494043  0.50208903  0.66313574  1
  O2-  O182  1  0.62482625  0.75122750  0.16718264  1
  O2-  O183  1  0.62597296  0.74762886  0.66440414  1
  O2-  O184  1  0.87547041  0.00309638  0.16042385  1
  O2-  O185  1  0.87547236  0.00037586  0.66676714  1
  O2-  O186  1  0.87502309  0.24841488  0.16191456  1
  O2-  O187  1  0.87462690  0.25064787  0.67004140  1
  O2-  O188  1  0.87485556  0.49967967  0.16739266  1
  O2-  O189  1  0.87570283  0.50060581  0.66221039  1
  O2-  O190  1  0.87469720  0.74919709  0.16384976  1
  O2-  O191  1  0.87520934  0.74787306  0.66284252  1
  O2-  O192  1  -0.00169307  0.12558618  0.16035478  1
  O2-  O193  1  0.00087304  0.12455755  0.67089285  1
  O2-  O194  1  -0.00145319  0.37542397  0.16400750  1
  O2-  O195  1  0.00023373  0.37491165  0.67153002  1
  O2-  O196  1  0.00135349  0.62517450  0.16124449  1
  O2-  O197  1  -0.00125721  0.62553768  0.66535714  1
  O2-  O198  1  0.00260321  0.87451797  0.15883027  1
  O2-  O199  1  -0.00033505  0.87501634  0.66814143  1
  O2-  O200  1  0.25122012  0.12495929  0.16583300  1
  O2-  O201  1  0.25072352  0.12435731  0.66378979  1
  O2-  O202  1  0.25126271  0.37474879  0.16492457  1
  O2-  O203  1  0.24893909  0.37520876  0.66824728  1
  O2-  O204  1  0.24862802  0.62594618  0.16169303  1
  O2-  O205  1  0.24985906  0.62516314  0.66737603  1
  O2-  O206  1  0.24799875  0.87468319  0.16162945  1
  O2-  O207  1  0.24986182  0.87481522  0.66546909  1
  O2-  O208  1  0.49809735  0.12531228  0.16578471  1
  O2-  O209  1  0.49670189  0.12511210  0.66286821  1
  O2-  O210  1  0.50247355  0.37540061  0.16387090  1
  O2-  O211  1  0.50043828  0.37515259  0.66395752  1
  O2-  O212  1  0.49800285  0.62452742  0.16644185  1
  O2-  O213  1  0.50139036  0.62504540  0.66290692  1
  O2-  O214  1  0.50149401  0.87528757  0.16791650  1
  O2-  O215  1  0.50014188  0.87419812  0.66419693  1
  O2-  O216  1  0.75261882  0.12599172  0.16341803  1
  O2-  O217  1  0.75139510  0.12502126  0.66645920  1
  O2-  O218  1  0.74809222  0.37537856  0.16302593  1
  O2-  O219  1  0.75094468  0.37572625  0.66581865  1
  O2-  O220  1  0.75197730  0.62440450  0.16775576  1
  O2-  O221  1  0.75050601  0.62402210  0.65973948  1
  O2-  O222  1  0.74776820  0.87494765  0.16622371  1
  O2-  O223  1  0.75029408  0.87460424  0.66516500  1
  O2-  O224  1  0.12481682  -0.00167470  0.34253586  1
  O2-  O225  1  0.12477635  -0.00052180  0.84989248  1
  O2-  O226  1  0.12515598  0.25012380  0.34981195  1
  O2-  O227  1  0.12454975  0.24821856  0.84991739  1
  O2-  O228  1  0.12436695  0.50125473  0.34790032  1
  O2-  O229  1  0.12508663  0.50281223  0.85019591  1
  O2-  O230  1  0.12443057  0.75064232  0.33906644  1
  O2-  O231  1  0.12472365  0.74948655  0.85133579  1
  O2-  O232  1  0.37460586  0.00079597  0.34729162  1
  O2-  O233  1  0.37482523  0.00179489  0.84559878  1
  O2-  O234  1  0.37422430  0.24865449  0.34917610  1
  O2-  O235  1  0.37554765  0.24856857  0.84563213  1
  O2-  O236  1  0.37507404  0.49988853  0.34836608  1
  O2-  O237  1  0.37489164  0.50122737  0.84778220  1
  O2-  O238  1  0.37483921  0.75067510  0.34685608  1
  O2-  O239  1  0.37477394  0.74854155  0.84848289  1
  O2-  O240  1  0.62469812  -0.00217717  0.34503149  1
  O2-  O241  1  0.62506966  -0.00162206  0.85079667  1
  O2-  O242  1  0.62487053  0.25127450  0.34565012  1
  O2-  O243  1  0.62534629  0.25321008  0.85070899  1
  O2-  O244  1  0.62527442  0.50182449  0.34915863  1
  O2-  O245  1  0.62560754  0.49675786  0.84683763  1
  O2-  O246  1  0.62606170  0.74861347  0.34870954  1
  O2-  O247  1  0.62511553  0.75188959  0.84896097  1
  O2-  O248  1  0.87543866  -0.00049597  0.34044804  1
  O2-  O249  1  0.87512870  0.00302358  0.85164040  1
  O2-  O250  1  0.87539208  0.24914719  0.34565182  1
  O2-  O251  1  0.87495322  0.24945909  0.85096316  1
  O2-  O252  1  0.87552593  0.50166399  0.35306708  1
  O2-  O253  1  0.87467172  0.49952141  0.84218194  1
  O2-  O254  1  0.87481217  0.74905926  0.34642060  1
  O2-  O255  1  0.87543753  0.74783146  0.84660759  1
  O2-  O256  1  -0.00016950  0.12507188  0.34379534  1
  O2-  O257  1  -0.00072014  0.12492978  0.85220611  1
  O2-  O258  1  0.00066065  0.37495155  0.34857408  1
  O2-  O259  1  -0.00224805  0.37558562  0.85047460  1
  O2-  O260  1  -0.00175125  0.62527505  0.34508105  1
  O2-  O261  1  0.00134094  0.62485843  0.84865461  1
  O2-  O262  1  -0.00087119  0.87472827  0.33926428  1
  O2-  O263  1  0.00339926  0.87449968  0.85182095  1
  O2-  O264  1  0.25129137  0.12429454  0.35134949  1
  O2-  O265  1  0.24951865  0.12483634  0.84397473  1
  O2-  O266  1  0.25095073  0.37547636  0.34729403  1
  O2-  O267  1  0.25023260  0.37501333  0.85109938  1
  O2-  O268  1  0.24918096  0.62523430  0.34511021  1
  O2-  O269  1  0.24871329  0.62547810  0.84958006  1
  O2-  O270  1  0.25009008  0.87509649  0.34303537  1
  O2-  O271  1  0.24682752  0.87470594  0.84898820  1
  O2-  O272  1  0.49697884  0.12503493  0.34949090  1
  O2-  O273  1  0.49883341  0.12494618  0.84589180  1
  O2-  O274  1  0.49967019  0.37551732  0.34432692  1
  O2-  O275  1  0.50285334  0.37517401  0.84857969  1
  O2-  O276  1  0.50201420  0.62532657  0.35105635  1
  O2-  O277  1  0.49849757  0.62478766  0.84565330  1
  O2-  O278  1  0.49983366  0.87389256  0.34808973  1
  O2-  O279  1  0.50185293  0.87511453  0.84856026  1
  O2-  O280  1  0.75124422  0.12508038  0.34523876  1
  O2-  O281  1  0.75228748  0.12546417  0.85070664  1
  O2-  O282  1  0.74872661  0.37592136  0.34608185  1
  O2-  O283  1  0.74917861  0.37505202  0.84810203  1
  O2-  O284  1  0.75054272  0.62421973  0.35231973  1
  O2-  O285  1  0.75154174  0.62467791  0.84362478  1
  O2-  O286  1  0.75058738  0.87433962  0.34561589  1
  O2-  O287  1  0.74790696  0.87478819  0.84978493  1
