# generated using pymatgen
data_BaYFeCuO5
_symmetry_space_group_name_H-M   'P 1'
_cell_length_a   15.67808989
_cell_length_b   15.67828408
_cell_length_c   15.51404698
_cell_angle_alpha   90.00526635
_cell_angle_beta   90.00007419
_cell_angle_gamma   90.00664775
_symmetry_Int_Tables_number   1
_chemical_formula_structural   BaYFeCuO5
_chemical_formula_sum   'Ba32 Y32 Fe32 Cu32 O160'
_cell_volume   3813.43876595
_cell_formula_units_Z   32
loop_
 _symmetry_equiv_pos_site_id
 _symmetry_equiv_pos_as_xyz
  1  'x, y, z'
loop_
 _atom_type_symbol
 _atom_type_oxidation_number
  Ba2+  2.0
  Y3+  3.0
  Fe3+  3.0
  Cu2+  2.0
  O2-  -2.0
loop_
 _atom_site_type_symbol
 _atom_site_label
 _atom_site_symmetry_multiplicity
 _atom_site_fract_x
 _atom_site_fract_y
 _atom_site_fract_z
 _atom_site_occupancy
  Ba2+  Ba0  1  0.00904400  0.00104307  0.00774683  1
  Ba2+  Ba1  1  0.00180719  -0.00170620  0.51176052  1
  Ba2+  Ba2  1  0.00271744  0.25623362  0.01596569  1
  Ba2+  Ba3  1  -0.00554563  0.24359595  0.52187622  1
  Ba2+  Ba4  1  0.00413433  0.49641437  0.01313070  1
  Ba2+  Ba5  1  -0.01044731  0.49958311  0.51857623  1
  Ba2+  Ba6  1  0.01014096  0.74667339  0.00168711  1
  Ba2+  Ba7  1  -0.00213550  0.75804236  0.50486297  1
  Ba2+  Ba8  1  0.25185409  0.00037504  0.00672299  1
  Ba2+  Ba9  1  0.24902068  -0.00108240  0.52002727  1
  Ba2+  Ba10  1  0.25211911  0.25247944  0.01189271  1
  Ba2+  Ba11  1  0.25502720  0.24368899  0.52111402  1
  Ba2+  Ba12  1  0.24682669  0.49653177  0.01308584  1
  Ba2+  Ba13  1  0.26024650  0.49956413  0.51795161  1
  Ba2+  Ba14  1  0.24561403  0.75131225  0.00687082  1
  Ba2+  Ba15  1  0.25318685  0.75776392  0.51692639  1
  Ba2+  Ba16  1  0.50078553  -0.00210937  0.01212996  1
  Ba2+  Ba17  1  0.50203843  -0.00070053  0.52158452  1
  Ba2+  Ba18  1  0.49627052  0.25146396  0.00152005  1
  Ba2+  Ba19  1  0.50158738  0.24924158  0.52663067  1
  Ba2+  Ba20  1  0.50064153  0.49453659  -0.00278460  1
  Ba2+  Ba21  1  0.50217028  0.49950905  0.51811253  1
  Ba2+  Ba22  1  0.50391103  0.75643826  0.00759293  1
  Ba2+  Ba23  1  0.50291108  0.75352183  0.51257859  1
  Ba2+  Ba24  1  0.73968915  -0.00147523  0.01149693  1
  Ba2+  Ba25  1  0.74665739  -0.00141039  0.51216426  1
  Ba2+  Ba26  1  0.74825286  0.25578683  0.00618942  1
  Ba2+  Ba27  1  0.74887351  0.24895537  0.52760288  1
  Ba2+  Ba28  1  0.74868451  0.49432587  -0.00202372  1
  Ba2+  Ba29  1  0.74855926  0.49922662  0.51917157  1
  Ba2+  Ba30  1  0.74010677  0.75140794  0.00240225  1
  Ba2+  Ba31  1  0.74613002  0.75279844  0.49970070  1
  Y3+  Y32  1  0.00132234  -0.00108769  0.25929954  1
  Y3+  Y33  1  0.00216130  -0.00052897  0.75580424  1
  Y3+  Y34  1  0.00045767  0.25088397  0.25354400  1
  Y3+  Y35  1  -0.00206722  0.24959639  0.75814453  1
  Y3+  Y36  1  0.00052055  0.49969787  0.25451268  1
  Y3+  Y37  1  -0.00225881  0.50086204  0.76000966  1
  Y3+  Y38  1  0.00160255  0.75045381  0.25860624  1
  Y3+  Y39  1  0.00300183  0.74977656  0.75803721  1
  Y3+  Y40  1  0.24959787  -0.00074058  0.25738491  1
  Y3+  Y41  1  0.24997123  -0.00054188  0.75541242  1
  Y3+  Y42  1  0.25006094  0.25109350  0.25363013  1
  Y3+  Y43  1  0.25359717  0.24890443  0.75841513  1
  Y3+  Y44  1  0.24985424  0.49984983  0.25436466  1
  Y3+  Y45  1  0.25223783  0.50081538  0.75916225  1
  Y3+  Y46  1  0.24905287  0.75058939  0.25756181  1
  Y3+  Y47  1  0.24884219  0.75073051  0.75736310  1
  Y3+  Y48  1  0.50244974  -0.00197625  0.25466778  1
  Y3+  Y49  1  0.50041765  -0.00090198  0.75792480  1
  Y3+  Y50  1  0.49967392  0.25007090  0.25204347  1
  Y3+  Y51  1  0.49826349  0.25079988  0.76042931  1
  Y3+  Y52  1  0.49910099  0.49955961  0.25653170  1
  Y3+  Y53  1  0.49958346  0.49840090  0.75929227  1
  Y3+  Y54  1  0.50207435  0.75240075  0.25778562  1
  Y3+  Y55  1  0.50132814  0.75143671  0.75829770  1
  Y3+  Y56  1  0.74641474  -0.00188319  0.25667537  1
  Y3+  Y57  1  0.74721888  -0.00085032  0.75813957  1
  Y3+  Y58  1  0.74973014  0.25008920  0.25169682  1
  Y3+  Y59  1  0.75032142  0.25166785  0.76078378  1
  Y3+  Y60  1  0.75028287  0.49960004  0.25619473  1
  Y3+  Y61  1  0.75014637  0.49836202  0.76042379  1
  Y3+  Y62  1  0.74715078  0.75229870  0.25841092  1
  Y3+  Y63  1  0.74710453  0.75051072  0.75974760  1
  Fe3+  Fe64  1  0.12491049  0.37455717  0.38094410  1
  Fe3+  Fe65  1  0.87567208  0.87557520  0.88174994  1
  Fe3+  Fe66  1  0.87367057  0.12527541  0.37459488  1
  Fe3+  Fe67  1  0.37489063  0.62571273  0.87910827  1
  Fe3+  Fe68  1  0.37454724  0.87562860  0.87604219  1
  Fe3+  Fe69  1  0.37636027  0.12550485  0.37629299  1
  Fe3+  Fe70  1  0.37568225  0.37341849  0.37671739  1
  Fe3+  Fe71  1  0.62392705  0.12494296  0.87716261  1
  Fe3+  Fe72  1  0.12541453  0.37498275  0.87296157  1
  Fe3+  Fe73  1  0.62522981  0.37397003  0.37754820  1
  Fe3+  Fe74  1  0.62429858  0.12684415  0.37546494  1
  Fe3+  Fe75  1  0.37612085  0.62499043  0.37718489  1
  Fe3+  Fe76  1  0.12612402  0.12579876  0.87562081  1
  Fe3+  Fe77  1  0.37539814  0.87663192  0.37617954  1
  Fe3+  Fe78  1  0.12562984  0.12615560  0.37668630  1
  Fe3+  Fe79  1  0.12562396  0.62413710  0.38130301  1
  Fe3+  Fe80  1  0.87506298  0.62545213  0.88040557  1
  Fe3+  Fe81  1  0.87426451  0.37335362  0.37597526  1
  Fe3+  Fe82  1  0.87548706  0.12435283  0.88005486  1
  Fe3+  Fe83  1  0.87399401  0.62443955  0.37646690  1
  Fe3+  Fe84  1  0.87467995  0.62577528  0.13368296  1
  Fe3+  Fe85  1  0.12506324  0.37451544  0.63441658  1
  Fe3+  Fe86  1  0.62411832  0.37550789  0.13590886  1
  Fe3+  Fe87  1  0.62463887  0.62413737  0.13628858  1
  Fe3+  Fe88  1  0.12466895  0.62483575  0.63470637  1
  Fe3+  Fe89  1  0.37517303  0.12409912  0.13582482  1
  Fe3+  Fe90  1  0.87510258  0.12408487  0.13251380  1
  Fe3+  Fe91  1  0.87370745  0.87388002  0.64155045  1
  Fe3+  Fe92  1  0.62554753  0.62556662  0.64116359  1
  Fe3+  Fe93  1  0.87531213  0.87417405  0.13416139  1
  Fe3+  Fe94  1  0.37531644  0.62611807  0.13348788  1
  Fe3+  Fe95  1  0.12541346  0.87512751  0.13926461  1
  Cu2+  Cu96  1  0.12606203  0.62372048  0.87211001  1
  Cu2+  Cu97  1  0.62421454  0.87604335  0.87198385  1
  Cu2+  Cu98  1  0.62411892  0.62464625  0.86643447  1
  Cu2+  Cu99  1  0.62366873  0.87655566  0.37305662  1
  Cu2+  Cu100  1  0.37331488  0.37488712  0.87239177  1
  Cu2+  Cu101  1  0.87448179  0.87596798  0.36022206  1
  Cu2+  Cu102  1  0.62457261  0.37410736  0.86288392  1
  Cu2+  Cu103  1  0.12545992  0.87565905  0.86188919  1
  Cu2+  Cu104  1  0.12635445  0.87563837  0.37414183  1
  Cu2+  Cu105  1  0.62446660  0.62384568  0.36293366  1
  Cu2+  Cu106  1  0.37464134  0.12404746  0.86451455  1
  Cu2+  Cu107  1  0.87661005  0.37416530  0.87334740  1
  Cu2+  Cu108  1  0.12422635  0.87470567  0.64205843  1
  Cu2+  Cu109  1  0.62512605  0.87409195  0.14251284  1
  Cu2+  Cu110  1  0.12535586  0.12477226  0.14855889  1
  Cu2+  Cu111  1  0.87430603  0.62663664  0.65456757  1
  Cu2+  Cu112  1  0.87406151  0.12328528  0.65652039  1
  Cu2+  Cu113  1  0.37596905  0.12392474  0.65463448  1
  Cu2+  Cu114  1  0.37571062  0.62597633  0.65302190  1
  Cu2+  Cu115  1  0.37582250  0.37622521  0.13888106  1
  Cu2+  Cu116  1  0.37494977  0.37490631  0.65461664  1
  Cu2+  Cu117  1  0.12482443  0.12555734  0.65213250  1
  Cu2+  Cu118  1  0.62499844  0.12513439  0.65716327  1
  Cu2+  Cu119  1  0.87407739  0.37624939  0.13899744  1
  Cu2+  Cu120  1  0.37465432  0.87422146  0.14906970  1
  Cu2+  Cu121  1  0.62474812  0.12543734  0.14426937  1
  Cu2+  Cu122  1  0.62571092  0.87428888  0.64383756  1
  Cu2+  Cu123  1  0.62504306  0.37505247  0.65667819  1
  Cu2+  Cu124  1  0.12499533  0.62571269  0.14197900  1
  Cu2+  Cu125  1  0.87521243  0.37494481  0.65565132  1
  Cu2+  Cu126  1  0.37577139  0.87472287  0.65383244  1
  Cu2+  Cu127  1  0.12542273  0.37519554  0.15346105  1
  O2-  O128  1  0.12612832  0.12679664  -0.00425443  1
  O2-  O129  1  0.12446234  0.12648661  0.49663623  1
  O2-  O130  1  0.12566435  0.37476122  -0.00635950  1
  O2-  O131  1  0.12458379  0.37379546  0.50600519  1
  O2-  O132  1  0.12586263  0.62398030  0.00657976  1
  O2-  O133  1  0.12494593  0.62454364  0.50722693  1
  O2-  O134  1  0.12510159  0.87512513  0.01824374  1
  O2-  O135  1  0.12482330  0.87548940  0.50840712  1
  O2-  O136  1  0.37393061  0.12413399  0.01512661  1
  O2-  O137  1  0.37722205  0.12563558  0.49603916  1
  O2-  O138  1  0.37376427  0.37597048  0.00595746  1
  O2-  O139  1  0.37646664  0.37321269  0.49661791  1
  O2-  O140  1  0.37455474  0.62590092  0.00614966  1
  O2-  O141  1  0.37645064  0.62451214  0.49707880  1
  O2-  O142  1  0.37375248  0.87515440  -0.00383762  1
  O2-  O143  1  0.37584618  0.87688802  0.49639176  1
  O2-  O144  1  0.62344359  0.12540400  -0.00244378  1
  O2-  O145  1  0.62548331  0.12757010  0.49496336  1
  O2-  O146  1  0.62393365  0.37632820  0.01517624  1
  O2-  O147  1  0.62577076  0.37282957  0.49749661  1
  O2-  O148  1  0.62431446  0.62347001  0.01666888  1
  O2-  O149  1  0.62580977  0.62500777  0.52069670  1
  O2-  O150  1  0.62442832  0.87514774  0.00726054  1
  O2-  O151  1  0.62523780  0.87564040  0.50817709  1
  O2-  O152  1  0.87640488  0.12448290  0.00568974  1
  O2-  O153  1  0.87274736  0.12557189  0.49407710  1
  O2-  O154  1  0.87655311  0.37547447  0.00603581  1
  O2-  O155  1  0.87359774  0.37268249  0.49581226  1
  O2-  O156  1  0.87573783  0.62487000  0.00730768  1
  O2-  O157  1  0.87370406  0.62370088  0.49627819  1
  O2-  O158  1  0.87635243  0.87513490  0.00839188  1
  O2-  O159  1  0.87340151  0.87496516  0.52079002  1
  O2-  O160  1  0.12424264  -0.00134686  0.16576599  1
  O2-  O161  1  0.12485695  0.00195194  0.66530564  1
  O2-  O162  1  0.12497996  0.25110523  0.16191198  1
  O2-  O163  1  0.12411097  0.25134721  0.66083727  1
  O2-  O164  1  0.12489631  0.49839864  0.16689416  1
  O2-  O165  1  0.12519123  0.49992279  0.65865151  1
  O2-  O166  1  0.12460238  0.75252086  0.16967925  1
  O2-  O167  1  0.12496045  0.74635477  0.66611446  1
  O2-  O168  1  0.37477779  -0.00055096  0.16278999  1
  O2-  O169  1  0.37508126  -0.00119748  0.66422092  1
  O2-  O170  1  0.37412305  0.24851621  0.16218512  1
  O2-  O171  1  0.37547238  0.24965992  0.66581882  1
  O2-  O172  1  0.37433653  0.50362890  0.16344699  1
  O2-  O173  1  0.37455087  0.49981441  0.66525041  1
  O2-  O174  1  0.37456449  0.74880907  0.16243886  1
  O2-  O175  1  0.37521173  0.75126201  0.66607422  1
  O2-  O176  1  0.62524416  0.00066223  0.16231485  1
  O2-  O177  1  0.62541950  0.00110987  0.66539243  1
  O2-  O178  1  0.62520795  0.25065977  0.16095719  1
  O2-  O179  1  0.62524045  0.25043082  0.66642020  1
  O2-  O180  1  0.62492451  0.50063905  0.16915069  1
  O2-  O181  1  0.62533780  0.49999298  0.66719806  1
  O2-  O182  1  0.62546940  0.74764407  0.16759240  1
  O2-  O183  1  0.62476243  0.74855107  0.67028988  1
  O2-  O184  1  0.87600477  -0.00055608  0.16007211  1
  O2-  O185  1  0.87439218  -0.00081647  0.67031675  1
  O2-  O186  1  0.87559310  0.24735170  0.15867066  1
  O2-  O187  1  0.87522496  0.24866804  0.66549556  1
  O2-  O188  1  0.87568113  0.50316768  0.16365124  1
  O2-  O189  1  0.87510597  0.50069039  0.66497982  1
  O2-  O190  1  0.87542991  0.75027870  0.16372172  1
  O2-  O191  1  0.87534420  0.75049157  0.67418978  1
  O2-  O192  1  -0.00087379  0.12489160  0.16106793  1
  O2-  O193  1  -0.00074512  0.12430082  0.66534608  1
  O2-  O194  1  0.00211031  0.37557669  0.16441989  1
  O2-  O195  1  0.00127803  0.37543513  0.66202660  1
  O2-  O196  1  -0.00248665  0.62530509  0.16445923  1
  O2-  O197  1  0.00144562  0.62434050  0.66437640  1
  O2-  O198  1  -0.00114927  0.87484635  0.16635679  1
  O2-  O199  1  -0.00197451  0.87474841  0.66953494  1
  O2-  O200  1  0.25009218  0.12466204  0.16481617  1
  O2-  O201  1  0.25075333  0.12515737  0.66280525  1
  O2-  O202  1  0.24816926  0.37594739  0.16512415  1
  O2-  O203  1  0.24858845  0.37486891  0.66104954  1
  O2-  O204  1  0.25233684  0.62524486  0.16377920  1
  O2-  O205  1  0.24897580  0.62478237  0.66239573  1
  O2-  O206  1  0.24954406  0.87462933  0.16560315  1
  O2-  O207  1  0.25204682  0.87432283  0.66310695  1
  O2-  O208  1  0.49934675  0.12452405  0.16268214  1
  O2-  O209  1  0.50057279  0.12464078  0.66597416  1
  O2-  O210  1  0.50193267  0.37580758  0.16534669  1
  O2-  O211  1  0.49928157  0.37546820  0.66650166  1
  O2-  O212  1  0.49905880  0.62567851  0.16435399  1
  O2-  O213  1  0.50013778  0.62446628  0.66869393  1
  O2-  O214  1  0.49894621  0.87407781  0.16299541  1
  O2-  O215  1  0.49870340  0.87478353  0.66502848  1
  O2-  O216  1  0.75177028  0.12432886  0.15886026  1
  O2-  O217  1  0.74930982  0.12496783  0.66923977  1
  O2-  O218  1  0.74744840  0.37551681  0.16381188  1
  O2-  O219  1  0.75105192  0.37498922  0.66832271  1
  O2-  O220  1  0.75097015  0.62530745  0.16405360  1
  O2-  O221  1  0.74964585  0.62460281  0.67167315  1
  O2-  O222  1  0.75318535  0.87473922  0.16357225  1
  O2-  O223  1  0.75101374  0.87464910  0.67216328  1
  O2-  O224  1  0.12498512  0.00247825  0.34669510  1
  O2-  O225  1  0.12475703  0.00072367  0.84840327  1
  O2-  O226  1  0.12454804  0.25200546  0.34469341  1
  O2-  O227  1  0.12523192  0.24946884  0.84230111  1
  O2-  O228  1  0.12472076  0.49954648  0.35083522  1
  O2-  O229  1  0.12483358  0.49837699  0.84198653  1
  O2-  O230  1  0.12455295  0.74632743  0.35193576  1
  O2-  O231  1  0.12560345  0.75151649  0.85016754  1
  O2-  O232  1  0.37484479  0.00125537  0.34303471  1
  O2-  O233  1  0.37422817  -0.00070984  0.84720889  1
  O2-  O234  1  0.37445055  0.25031434  0.34131716  1
  O2-  O235  1  0.37420034  0.24836252  0.84988632  1
  O2-  O236  1  0.37430605  0.49922471  0.34466079  1
  O2-  O237  1  0.37501289  0.50295729  0.85010285  1
  O2-  O238  1  0.37489056  0.74950199  0.34481020  1
  O2-  O239  1  0.37458537  0.74937079  0.84938822  1
  O2-  O240  1  0.62511160  0.00264052  0.34479359  1
  O2-  O241  1  0.62487994  0.00194107  0.84737262  1
  O2-  O242  1  0.62525340  0.25071371  0.33957008  1
  O2-  O243  1  0.62534152  0.24907057  0.84918929  1
  O2-  O244  1  0.62535557  0.49848423  0.34851187  1
  O2-  O245  1  0.62487907  0.49911073  0.85006075  1
  O2-  O246  1  0.62495402  0.74863189  0.35062872  1
  O2-  O247  1  0.62483904  0.74941817  0.85203076  1
  O2-  O248  1  0.87468866  0.00073627  0.34374364  1
  O2-  O249  1  0.87640766  -0.00021528  0.85328308  1
  O2-  O250  1  0.87544967  0.25015000  0.33921166  1
  O2-  O251  1  0.87546448  0.24612193  0.84939233  1
  O2-  O252  1  0.87552394  0.49905083  0.34427623  1
  O2-  O253  1  0.87508884  0.50306419  0.85027285  1
  O2-  O254  1  0.87535133  0.74990323  0.34800703  1
  O2-  O255  1  0.87502416  0.75058173  0.85691410  1
  O2-  O256  1  -0.00018123  0.12540973  0.34340994  1
  O2-  O257  1  -0.00055606  0.12448494  0.84843235  1
  O2-  O258  1  0.00109377  0.37518124  0.34722085  1
  O2-  O259  1  0.00196021  0.37471635  0.84410896  1
  O2-  O260  1  0.00106926  0.62460930  0.34770707  1
  O2-  O261  1  -0.00270504  0.62595071  0.84886738  1
  O2-  O262  1  -0.00102112  0.87502602  0.34918546  1
  O2-  O263  1  -0.00103000  0.87439290  0.85262913  1
  O2-  O264  1  0.25040591  0.12655365  0.34524277  1
  O2-  O265  1  0.24963479  0.12447638  0.84605960  1
  O2-  O266  1  0.24863732  0.37536968  0.34809347  1
  O2-  O267  1  0.24824164  0.37522990  0.84335038  1
  O2-  O268  1  0.24908761  0.62399095  0.34733119  1
  O2-  O269  1  0.25311571  0.62532497  0.84676633  1
  O2-  O270  1  0.25225008  0.87466614  0.34605341  1
  O2-  O271  1  0.25015279  0.87490512  0.84598517  1
  O2-  O272  1  0.49999490  0.12612378  0.34194185  1
  O2-  O273  1  0.49969202  0.12532123  0.84918362  1
  O2-  O274  1  0.50000904  0.37510371  0.34459388  1
  O2-  O275  1  0.50036040  0.37468171  0.85078085  1
  O2-  O276  1  0.49950485  0.62415945  0.34602315  1
  O2-  O277  1  0.49840101  0.62498544  0.85218461  1
  O2-  O278  1  0.49803745  0.87512652  0.34498778  1
  O2-  O279  1  0.49824785  0.87484607  0.84725121  1
  O2-  O280  1  0.74956997  0.12535618  0.34012201  1
  O2-  O281  1  0.75127881  0.12426175  0.85244968  1
  O2-  O282  1  0.75024919  0.37471630  0.34284833  1
  O2-  O283  1  0.74928506  0.37468240  0.85243927  1
  O2-  O284  1  0.75019100  0.62527020  0.34581649  1
  O2-  O285  1  0.75101787  0.62516196  0.85481026  1
  O2-  O286  1  0.75026086  0.87512332  0.34755717  1
  O2-  O287  1  0.75297209  0.87538899  0.85380076  1
