# generated using pymatgen
data_BaYFeCuO5
_symmetry_space_group_name_H-M   'P 1'
_cell_length_a   15.67506683
_cell_length_b   15.67808613
_cell_length_c   15.50250284
_cell_angle_alpha   90.00126385
_cell_angle_beta   90.00082236
_cell_angle_gamma   89.99785609
_symmetry_Int_Tables_number   1
_chemical_formula_structural   BaYFeCuO5
_chemical_formula_sum   'Ba32 Y32 Fe32 Cu32 O160'
_cell_volume   3809.81832313
_cell_formula_units_Z   32
loop_
 _symmetry_equiv_pos_site_id
 _symmetry_equiv_pos_as_xyz
  1  'x, y, z'
loop_
 _atom_type_symbol
 _atom_type_oxidation_number
  Ba2+  2.0
  Y3+  3.0
  Fe3+  3.0
  Cu2+  2.0
  O2-  -2.0
loop_
 _atom_site_type_symbol
 _atom_site_label
 _atom_site_symmetry_multiplicity
 _atom_site_fract_x
 _atom_site_fract_y
 _atom_site_fract_z
 _atom_site_occupancy
  Ba2+  Ba0  1  0.00332654  0.00612990  0.00102251  1
  Ba2+  Ba1  1  -0.00221795  -0.01158622  0.51240480  1
  Ba2+  Ba2  1  0.00160889  0.25167452  0.00115792  1
  Ba2+  Ba3  1  -0.00050750  0.25965933  0.50794733  1
  Ba2+  Ba4  1  0.00133414  0.48854750  0.00196663  1
  Ba2+  Ba5  1  -0.00425763  0.50535633  0.51308692  1
  Ba2+  Ba6  1  0.00439657  0.75409368  0.00173863  1
  Ba2+  Ba7  1  -0.00582443  0.74836423  0.51823577  1
  Ba2+  Ba8  1  0.25305693  0.00208398  0.01612522  1
  Ba2+  Ba9  1  0.25487054  -0.00429898  0.52111209  1
  Ba2+  Ba10  1  0.25154791  0.25320663  0.01582786  1
  Ba2+  Ba11  1  0.25021809  0.24902610  0.51677128  1
  Ba2+  Ba12  1  0.25534153  0.49062362  0.00955469  1
  Ba2+  Ba13  1  0.23961946  0.50140287  0.51928811  1
  Ba2+  Ba14  1  0.25703190  0.75364311  0.01098106  1
  Ba2+  Ba15  1  0.24512842  0.75432720  0.52254417  1
  Ba2+  Ba16  1  0.50166750  0.00244145  0.02115484  1
  Ba2+  Ba17  1  0.50187253  -0.00332051  0.51951758  1
  Ba2+  Ba18  1  0.50039749  0.24959302  0.01793750  1
  Ba2+  Ba19  1  0.50362768  0.24460234  0.51316669  1
  Ba2+  Ba20  1  0.49830543  0.49844844  0.02331062  1
  Ba2+  Ba21  1  0.51099995  0.50213688  0.50212601  1
  Ba2+  Ba22  1  0.49923014  0.75037147  0.02747992  1
  Ba2+  Ba23  1  0.50933277  0.75310133  0.50883667  1
  Ba2+  Ba24  1  0.74238001  0.00719965  0.00610425  1
  Ba2+  Ba25  1  0.74649484  -0.00932939  0.51136662  1
  Ba2+  Ba26  1  0.74726319  0.24750826  0.00040152  1
  Ba2+  Ba27  1  0.74721873  0.25525258  0.50048516  1
  Ba2+  Ba28  1  0.74367364  0.49474456  0.01401034  1
  Ba2+  Ba29  1  0.75254005  0.50579613  0.49742388  1
  Ba2+  Ba30  1  0.73877707  0.75002289  0.01919926  1
  Ba2+  Ba31  1  0.75118253  0.74873767  0.50655046  1
  Y3+  Y32  1  -0.00103615  -0.00030252  0.25869323  1
  Y3+  Y33  1  -0.00173922  -0.00200030  0.75728896  1
  Y3+  Y34  1  0.00134364  0.25108504  0.25675276  1
  Y3+  Y35  1  -0.00074157  0.25175440  0.75998066  1
  Y3+  Y36  1  -0.00125893  0.49923836  0.25763743  1
  Y3+  Y37  1  0.00044337  0.49921803  0.75851626  1
  Y3+  Y38  1  -0.00342951  0.75005929  0.25897926  1
  Y3+  Y39  1  -0.00124643  0.75048316  0.75624608  1
  Y3+  Y40  1  0.25122678  0.00190812  0.25423165  1
  Y3+  Y41  1  0.25137928  -0.00147858  0.75653179  1
  Y3+  Y42  1  0.25031346  0.25073572  0.25287916  1
  Y3+  Y43  1  0.25119521  0.25252532  0.75956191  1
  Y3+  Y44  1  0.25088351  0.49783603  0.25239387  1
  Y3+  Y45  1  0.24906230  0.49766896  0.76056807  1
  Y3+  Y46  1  0.25227108  0.74958576  0.25350282  1
  Y3+  Y47  1  0.24899950  0.75133428  0.75807278  1
  Y3+  Y48  1  0.50196758  -0.00019685  0.25620749  1
  Y3+  Y49  1  0.50230961  0.00119028  0.75372507  1
  Y3+  Y50  1  0.50088146  0.25049343  0.25584104  1
  Y3+  Y51  1  0.50039562  0.24780278  0.75808395  1
  Y3+  Y52  1  0.50187662  0.49976433  0.25859443  1
  Y3+  Y53  1  0.50012668  0.50011278  0.75522136  1
  Y3+  Y54  1  0.50277766  0.74987823  0.26051994  1
  Y3+  Y55  1  0.50258147  0.75099691  0.74980699  1
  Y3+  Y56  1  0.74843698  -0.00190377  0.25897905  1
  Y3+  Y57  1  0.74790690  0.00037480  0.75652098  1
  Y3+  Y58  1  0.74779151  0.25075396  0.25753039  1
  Y3+  Y59  1  0.74882942  0.24747096  0.76026802  1
  Y3+  Y60  1  0.74887737  0.50091574  0.26158570  1
  Y3+  Y61  1  0.75024621  0.50201152  0.75646601  1
  Y3+  Y62  1  0.74846073  0.75030306  0.26398923  1
  Y3+  Y63  1  0.74932649  0.74985208  0.75134967  1
  Fe3+  Fe64  1  0.12710448  0.12480227  0.87439531  1
  Fe3+  Fe65  1  0.37457171  0.37506243  0.38041668  1
  Fe3+  Fe66  1  0.37641661  0.12489102  0.87594877  1
  Fe3+  Fe67  1  0.37467650  0.12477149  0.37704718  1
  Fe3+  Fe68  1  0.62320577  0.62610999  0.87643634  1
  Fe3+  Fe69  1  0.12539207  0.62603278  0.37493330  1
  Fe3+  Fe70  1  0.62305022  0.87417058  0.87592561  1
  Fe3+  Fe71  1  0.12562567  0.12431560  0.38073774  1
  Fe3+  Fe72  1  0.87277479  0.87481256  0.88029024  1
  Fe3+  Fe73  1  0.12611982  0.62496976  0.87938563  1
  Fe3+  Fe74  1  0.37743476  0.87510811  0.87518441  1
  Fe3+  Fe75  1  0.37329293  0.62507643  0.37979472  1
  Fe3+  Fe76  1  0.37747051  0.62544886  0.87597234  1
  Fe3+  Fe77  1  0.12619473  0.87429014  0.37558647  1
  Fe3+  Fe78  1  0.62444784  0.12419916  0.37793834  1
  Fe3+  Fe79  1  0.37447137  0.87515299  0.37605175  1
  Fe3+  Fe80  1  0.87313776  0.62504045  0.88157178  1
  Fe3+  Fe81  1  0.12592712  0.37577721  0.37642586  1
  Fe3+  Fe82  1  0.62302601  0.37570295  0.87681742  1
  Fe3+  Fe83  1  0.87541827  0.12478600  0.38203341  1
  Fe3+  Fe84  1  0.87476012  0.62506834  0.13438355  1
  Fe3+  Fe85  1  0.87471112  0.12509912  0.13894243  1
  Fe3+  Fe86  1  0.12379524  0.12499667  0.63495915  1
  Fe3+  Fe87  1  0.37515727  0.62483175  0.63274821  1
  Fe3+  Fe88  1  0.87407295  0.87541820  0.13442321  1
  Fe3+  Fe89  1  0.87422241  0.12538075  0.63527526  1
  Fe3+  Fe90  1  0.12483222  0.62417533  0.13239920  1
  Fe3+  Fe91  1  0.37546414  0.37553135  0.63398262  1
  Fe3+  Fe92  1  0.87417532  0.37414822  0.13921341  1
  Fe3+  Fe93  1  0.62629305  0.37517093  0.63715922  1
  Fe3+  Fe94  1  0.87389632  0.37542290  0.63988580  1
  Fe3+  Fe95  1  0.12425194  0.87540048  0.13571467  1
  Cu2+  Cu96  1  0.62479542  0.62560105  0.37217720  1
  Cu2+  Cu97  1  0.87649335  0.62552626  0.37066866  1
  Cu2+  Cu98  1  0.87564817  0.37472213  0.36394260  1
  Cu2+  Cu99  1  0.62431766  0.37411529  0.36406524  1
  Cu2+  Cu100  1  0.87301756  0.37547618  0.86388783  1
  Cu2+  Cu101  1  0.87518686  0.87521976  0.37291091  1
  Cu2+  Cu102  1  0.12614605  0.37425364  0.87198642  1
  Cu2+  Cu103  1  0.62429824  0.87630366  0.37160507  1
  Cu2+  Cu104  1  0.12567862  0.87542816  0.86418516  1
  Cu2+  Cu105  1  0.62306083  0.12404423  0.87155998  1
  Cu2+  Cu106  1  0.37753843  0.37498591  0.87139708  1
  Cu2+  Cu107  1  0.87465639  0.12436329  0.86254437  1
  Cu2+  Cu108  1  0.12369805  0.12497033  0.15162717  1
  Cu2+  Cu109  1  0.12421401  0.87543171  0.65485425  1
  Cu2+  Cu110  1  0.12433897  0.37445791  0.65319192  1
  Cu2+  Cu111  1  0.37564661  0.87554877  0.15252296  1
  Cu2+  Cu112  1  0.62621323  0.87487010  0.64185236  1
  Cu2+  Cu113  1  0.37623532  0.37458798  0.14375751  1
  Cu2+  Cu114  1  0.12490849  0.62505332  0.65646577  1
  Cu2+  Cu115  1  0.62668256  0.12556122  0.14328383  1
  Cu2+  Cu116  1  0.62608894  0.37503585  0.15445117  1
  Cu2+  Cu117  1  0.12364327  0.37484602  0.14146936  1
  Cu2+  Cu118  1  0.37522478  0.62449877  0.15261386  1
  Cu2+  Cu119  1  0.62586455  0.87520999  0.15390827  1
  Cu2+  Cu120  1  0.62613360  0.62344758  0.64012507  1
  Cu2+  Cu121  1  0.87380649  0.87489863  0.64444518  1
  Cu2+  Cu122  1  0.37570424  0.87403605  0.65016675  1
  Cu2+  Cu123  1  0.62620521  0.12606258  0.64815814  1
  Cu2+  Cu124  1  0.37554158  0.12534405  0.15113401  1
  Cu2+  Cu125  1  0.62588707  0.62466743  0.15638738  1
  Cu2+  Cu126  1  0.87447927  0.62415056  0.64531059  1
  Cu2+  Cu127  1  0.37467937  0.12545244  0.64943985  1
  O2-  O128  1  0.12697215  0.12458580  -0.00510086  1
  O2-  O129  1  0.12489639  0.12448692  0.50621866  1
  O2-  O130  1  0.12506186  0.37370490  0.00652668  1
  O2-  O131  1  0.12638400  0.37568643  0.49645261  1
  O2-  O132  1  0.12629669  0.62447538  0.00582038  1
  O2-  O133  1  0.12501269  0.62682580  0.49472375  1
  O2-  O134  1  0.12442959  0.87745812  0.01555110  1
  O2-  O135  1  0.12652132  0.87381594  0.49551296  1
  O2-  O136  1  0.37538602  0.12453867  -0.00384888  1
  O2-  O137  1  0.37341414  0.12440378  0.49679373  1
  O2-  O138  1  0.37776808  0.37461243  0.00700204  1
  O2-  O139  1  0.37288715  0.37562504  0.50640641  1
  O2-  O140  1  0.37788553  0.62606286  -0.00412071  1
  O2-  O141  1  0.37145571  0.62523411  0.50563549  1
  O2-  O142  1  0.37783609  0.87515860  -0.00476880  1
  O2-  O143  1  0.37223172  0.87430846  0.49594671  1
  O2-  O144  1  0.62418867  0.12529875  0.00767290  1
  O2-  O145  1  0.62473103  0.12458124  0.49824941  1
  O2-  O146  1  0.62221733  0.37597287  -0.00263377  1
  O2-  O147  1  0.62676197  0.37447747  0.51691402  1
  O2-  O148  1  0.62167650  0.62613422  -0.00378746  1
  O2-  O149  1  0.62637901  0.62420119  0.50593915  1
  O2-  O150  1  0.62195383  0.87349749  -0.00391366  1
  O2-  O151  1  0.62499086  0.87576335  0.50633103  1
  O2-  O152  1  0.87526998  0.12570728  0.01874212  1
  O2-  O153  1  0.87553928  0.12496594  0.50876676  1
  O2-  O154  1  0.87317450  0.37279094  0.01905160  1
  O2-  O155  1  0.87498441  0.37639104  0.51958946  1
  O2-  O156  1  0.87306397  0.62514741  0.00793943  1
  O2-  O157  1  0.87702363  0.62481375  0.50775256  1
  O2-  O158  1  0.87349731  0.87560711  0.00762166  1
  O2-  O159  1  0.87580501  0.87419442  0.50775326  1
  O2-  O160  1  0.12407498  -0.00084512  0.16691566  1
  O2-  O161  1  0.12385482  0.00152696  0.66072313  1
  O2-  O162  1  0.12428476  0.24844809  0.16770831  1
  O2-  O163  1  0.12455164  0.24798685  0.66097113  1
  O2-  O164  1  0.12427002  0.50335141  0.16285010  1
  O2-  O165  1  0.12482659  0.49956710  0.66590905  1
  O2-  O166  1  0.12550064  0.74879854  0.15944114  1
  O2-  O167  1  0.12437180  0.75074124  0.66702609  1
  O2-  O168  1  0.37471620  0.00062156  0.16286010  1
  O2-  O169  1  0.37468542  -0.00044488  0.66152680  1
  O2-  O170  1  0.37530632  0.24872282  0.16729245  1
  O2-  O171  1  0.37425229  0.25239196  0.66147417  1
  O2-  O172  1  0.37575973  0.50085674  0.16830236  1
  O2-  O173  1  0.37342138  0.49979072  0.66149419  1
  O2-  O174  1  0.37507711  0.74983706  0.16390715  1
  O2-  O175  1  0.37406978  0.74789471  0.66128626  1
  O2-  O176  1  0.62605282  -0.00144994  0.16456745  1
  O2-  O177  1  0.62586396  0.00201493  0.66376220  1
  O2-  O178  1  0.62582012  0.25126294  0.16749709  1
  O2-  O179  1  0.62464972  0.25111555  0.66644833  1
  O2-  O180  1  0.62532157  0.50032045  0.16609229  1
  O2-  O181  1  0.62492887  0.49743495  0.66707517  1
  O2-  O182  1  0.62539522  0.75011788  0.16557083  1
  O2-  O183  1  0.62581294  0.74910828  0.66131686  1
  O2-  O184  1  0.87551932  -0.00196356  0.16668921  1
  O2-  O185  1  0.87530049  0.00309799  0.66486204  1
  O2-  O186  1  0.87493166  0.24991540  0.17284306  1
  O2-  O187  1  0.87588905  0.24896405  0.66566598  1
  O2-  O188  1  0.87517571  0.50163613  0.16451512  1
  O2-  O189  1  0.87616726  0.49815887  0.67031439  1
  O2-  O190  1  0.87481583  0.75021324  0.16072680  1
  O2-  O191  1  0.87567098  0.74955426  0.66802463  1
  O2-  O192  1  -0.00163636  0.12445545  0.17075283  1
  O2-  O193  1  -0.00036919  0.12486365  0.66337350  1
  O2-  O194  1  -0.00239177  0.37502469  0.16754339  1
  O2-  O195  1  -0.00040637  0.37453499  0.66845403  1
  O2-  O196  1  -0.00057404  0.62633400  0.16088125  1
  O2-  O197  1  0.00161806  0.62483726  0.67072634  1
  O2-  O198  1  -0.00175470  0.87410603  0.16418400  1
  O2-  O199  1  0.00026354  0.87495417  0.66886334  1
  O2-  O200  1  0.24962005  0.12522224  0.16269298  1
  O2-  O201  1  0.24762908  0.12466744  0.66058706  1
  O2-  O202  1  0.24981246  0.37489300  0.16341102  1
  O2-  O203  1  0.25105486  0.37530927  0.66321109  1
  O2-  O204  1  0.24864312  0.62468722  0.16059505  1
  O2-  O205  1  0.25124442  0.62486135  0.66375374  1
  O2-  O206  1  0.24964052  0.87527540  0.16173717  1
  O2-  O207  1  0.24998922  0.87460698  0.66379561  1
  O2-  O208  1  0.49978460  0.12533090  0.16496260  1
  O2-  O209  1  0.49986057  0.12574152  0.66028090  1
  O2-  O210  1  0.50234153  0.37523817  0.16822157  1
  O2-  O211  1  0.49858059  0.37526332  0.65986787  1
  O2-  O212  1  0.50062386  0.62466285  0.16811851  1
  O2-  O213  1  0.49706151  0.62388135  0.65734059  1
  O2-  O214  1  0.50035752  0.87511204  0.16495298  1
  O2-  O215  1  0.49951815  0.87475429  0.65928818  1
  O2-  O216  1  0.75247095  0.12425556  0.17051644  1
  O2-  O217  1  0.75222536  0.12580443  0.66631909  1
  O2-  O218  1  0.75073469  0.37592681  0.16874901  1
  O2-  O219  1  0.75022794  0.37406382  0.67101621  1
  O2-  O220  1  0.75206057  0.62530639  0.16440616  1
  O2-  O221  1  0.75002948  0.62406857  0.66787419  1
  O2-  O222  1  0.75211466  0.87460882  0.16476721  1
  O2-  O223  1  0.74976925  0.87564496  0.66813130  1
  O2-  O224  1  0.12542278  0.00148196  0.34863098  1
  O2-  O225  1  0.12462747  0.00076499  0.84373536  1
  O2-  O226  1  0.12507463  0.24889431  0.35073541  1
  O2-  O227  1  0.12500221  0.24795009  0.84379065  1
  O2-  O228  1  0.12577666  0.49990510  0.34400572  1
  O2-  O229  1  0.12482030  0.50313479  0.85014485  1
  O2-  O230  1  0.12564296  0.75003761  0.33984934  1
  O2-  O231  1  0.12474890  0.74802930  0.85168497  1
  O2-  O232  1  0.37378084  0.00071647  0.34437744  1
  O2-  O233  1  0.37491676  -0.00052017  0.84332251  1
  O2-  O234  1  0.37397908  0.25123633  0.35003594  1
  O2-  O235  1  0.37542017  0.24832999  0.84466663  1
  O2-  O236  1  0.37387284  0.49965937  0.35213869  1
  O2-  O237  1  0.37519414  0.50251093  0.84413318  1
  O2-  O238  1  0.37389185  0.74859245  0.34688633  1
  O2-  O239  1  0.37450467  0.74993265  0.84272073  1
  O2-  O240  1  0.62505080  0.00252279  0.34586610  1
  O2-  O241  1  0.62527396  -0.00238268  0.84631154  1
  O2-  O242  1  0.62476588  0.24901566  0.34984745  1
  O2-  O243  1  0.62495283  0.25093805  0.84844016  1
  O2-  O244  1  0.62502791  0.49810795  0.35034320  1
  O2-  O245  1  0.62504475  0.50153834  0.84575071  1
  O2-  O246  1  0.62448884  0.75061304  0.34958436  1
  O2-  O247  1  0.62537733  0.75010802  0.84171905  1
  O2-  O248  1  0.87601776  0.00390083  0.34952382  1
  O2-  O249  1  0.87510348  -0.00252790  0.84980159  1
  O2-  O250  1  0.87673111  0.24811092  0.35527566  1
  O2-  O251  1  0.87445123  0.24979270  0.84915612  1
  O2-  O252  1  0.87569861  0.49831612  0.34772596  1
  O2-  O253  1  0.87499911  0.50264653  0.85289958  1
  O2-  O254  1  0.87572783  0.75032616  0.34519272  1
  O2-  O255  1  0.87553108  0.74990109  0.85263619  1
  O2-  O256  1  0.00122351  0.12483258  0.35331594  1
  O2-  O257  1  0.00036816  0.12439588  0.84773300  1
  O2-  O258  1  0.00167333  0.37486762  0.34855570  1
  O2-  O259  1  -0.00226597  0.37462903  0.85196307  1
  O2-  O260  1  0.00247798  0.62479883  0.34304860  1
  O2-  O261  1  -0.00055234  0.62555833  0.85627683  1
  O2-  O262  1  0.00291664  0.87561795  0.34514016  1
  O2-  O263  1  -0.00218801  0.87501219  0.85367811  1
  O2-  O264  1  0.24857026  0.12577341  0.34610343  1
  O2-  O265  1  0.25122113  0.12458178  0.84208747  1
  O2-  O266  1  0.25106747  0.37493960  0.34530775  1
  O2-  O267  1  0.25109966  0.37544679  0.84743770  1
  O2-  O268  1  0.25096472  0.62468305  0.34294570  1
  O2-  O269  1  0.24955670  0.62538502  0.84803242  1
  O2-  O270  1  0.25001500  0.87508818  0.34104637  1
  O2-  O271  1  0.25140665  0.87459650  0.84695615  1
  O2-  O272  1  0.49931415  0.12586951  0.34645746  1
  O2-  O273  1  0.49836981  0.12419718  0.84264318  1
  O2-  O274  1  0.49715261  0.37537851  0.35237796  1
  O2-  O275  1  0.50243806  0.37563177  0.84004610  1
  O2-  O276  1  0.49611895  0.62439408  0.35257890  1
  O2-  O277  1  0.50062574  0.62575470  0.83800202  1
  O2-  O278  1  0.49735674  0.87519816  0.34718623  1
  O2-  O279  1  0.50032084  0.87434232  0.83908953  1
  O2-  O280  1  0.75112747  0.12625230  0.35192556  1
  O2-  O281  1  0.75078257  0.12432808  0.85080794  1
  O2-  O282  1  0.75062426  0.37430299  0.35202371  1
  O2-  O283  1  0.74839618  0.37533351  0.85091493  1
  O2-  O284  1  0.75054794  0.62497424  0.34919746  1
  O2-  O285  1  0.75041136  0.62567793  0.84997708  1
  O2-  O286  1  0.74979818  0.87586136  0.34899279  1
  O2-  O287  1  0.75044215  0.87477321  0.85000524  1
