# generated using pymatgen
data_BaYFeCuO5
_symmetry_space_group_name_H-M   'P 1'
_cell_length_a   15.67328233
_cell_length_b   15.67413696
_cell_length_c   15.48563742
_cell_angle_alpha   90.00249310
_cell_angle_beta   89.99798679
_cell_angle_gamma   89.99922109
_symmetry_Int_Tables_number   1
_chemical_formula_structural   BaYFeCuO5
_chemical_formula_sum   'Ba32 Y32 Fe32 Cu32 O160'
_cell_volume   3804.28180313
_cell_formula_units_Z   32
loop_
 _symmetry_equiv_pos_site_id
 _symmetry_equiv_pos_as_xyz
  1  'x, y, z'
loop_
 _atom_type_symbol
 _atom_type_oxidation_number
  Ba2+  2.0
  Y3+  3.0
  Fe3+  3.0
  Cu2+  2.0
  O2-  -2.0
loop_
 _atom_site_type_symbol
 _atom_site_label
 _atom_site_symmetry_multiplicity
 _atom_site_fract_x
 _atom_site_fract_y
 _atom_site_fract_z
 _atom_site_occupancy
  Ba2+  Ba0  1  -0.00644595  -0.00106050  0.00589692  1
  Ba2+  Ba1  1  0.00207845  -0.00567518  0.51309036  1
  Ba2+  Ba2  1  -0.00500264  0.25418287  0.01697017  1
  Ba2+  Ba3  1  0.00080979  0.23959639  0.50668966  1
  Ba2+  Ba4  1  0.00182178  0.49940583  0.02069111  1
  Ba2+  Ba5  1  0.00070199  0.51263987  0.50661857  1
  Ba2+  Ba6  1  -0.00042628  0.74764212  0.00531237  1
  Ba2+  Ba7  1  0.00273419  0.75044848  0.51162472  1
  Ba2+  Ba8  1  0.24954959  -0.00014578  0.01583705  1
  Ba2+  Ba9  1  0.24522511  0.00278197  0.51310426  1
  Ba2+  Ba10  1  0.25302957  0.25743355  0.02367206  1
  Ba2+  Ba11  1  0.25824803  0.24559795  0.50987424  1
  Ba2+  Ba12  1  0.24911266  0.49915014  0.02086543  1
  Ba2+  Ba13  1  0.25410510  0.50652894  0.50683387  1
  Ba2+  Ba14  1  0.24499835  0.74306164  0.01353859  1
  Ba2+  Ba15  1  0.24279801  0.74659880  0.50667217  1
  Ba2+  Ba16  1  0.50346647  -0.00349670  0.01011761  1
  Ba2+  Ba17  1  0.50256902  0.00568723  0.51991078  1
  Ba2+  Ba18  1  0.49616514  0.25699779  0.02339149  1
  Ba2+  Ba19  1  0.49208647  0.24504316  0.50978009  1
  Ba2+  Ba20  1  0.50011540  0.49937827  0.02082181  1
  Ba2+  Ba21  1  0.48900573  0.49959154  0.50693818  1
  Ba2+  Ba22  1  0.50667840  0.74547472  0.00725389  1
  Ba2+  Ba23  1  0.49740283  0.74972549  0.51215153  1
  Ba2+  Ba24  1  0.75353877  -0.00412674  0.00214987  1
  Ba2+  Ba25  1  0.74994823  -0.00284317  0.52208208  1
  Ba2+  Ba26  1  0.75600408  0.25348537  0.01610841  1
  Ba2+  Ba27  1  0.74883078  0.23906653  0.50623828  1
  Ba2+  Ba28  1  0.74894313  0.49957657  0.02060121  1
  Ba2+  Ba29  1  0.75573796  0.50719802  0.50657161  1
  Ba2+  Ba30  1  0.74891404  0.75036027  0.00046328  1
  Ba2+  Ba31  1  0.75735816  0.75481289  0.51774642  1
  Y3+  Y32  1  0.00016099  -0.00107783  0.25556443  1
  Y3+  Y33  1  -0.00041087  -0.00160239  0.75933352  1
  Y3+  Y34  1  -0.00159932  0.24918710  0.25594615  1
  Y3+  Y35  1  0.00016210  0.24840488  0.75839644  1
  Y3+  Y36  1  0.00106673  0.50258250  0.26208968  1
  Y3+  Y37  1  0.00039212  0.50345644  0.75230181  1
  Y3+  Y38  1  0.00284608  0.75003710  0.26173154  1
  Y3+  Y39  1  -0.00062294  0.74938671  0.75399980  1
  Y3+  Y40  1  0.24974702  -0.00059075  0.25826624  1
  Y3+  Y41  1  0.24875757  0.00077883  0.75521069  1
  Y3+  Y42  1  0.25334430  0.25019321  0.26117282  1
  Y3+  Y43  1  0.25150796  0.24977330  0.75134721  1
  Y3+  Y44  1  0.25033599  0.50135525  0.26431465  1
  Y3+  Y45  1  0.25160581  0.50162478  0.75008873  1
  Y3+  Y46  1  0.24665667  0.74994085  0.26244768  1
  Y3+  Y47  1  0.24894897  0.74755925  0.75317015  1
  Y3+  Y48  1  0.49904997  0.00041547  0.25442131  1
  Y3+  Y49  1  0.50156537  -0.00023622  0.75923046  1
  Y3+  Y50  1  0.49680001  0.25011345  0.26087083  1
  Y3+  Y51  1  0.49777987  0.24942525  0.75154540  1
  Y3+  Y52  1  0.49823505  0.49987565  0.26274925  1
  Y3+  Y53  1  0.49565800  0.50037620  0.75174533  1
  Y3+  Y54  1  0.50090116  0.75057048  0.25721240  1
  Y3+  Y55  1  0.49984335  0.74983290  0.75827122  1
  Y3+  Y56  1  0.75112996  -0.00008079  0.25180330  1
  Y3+  Y57  1  0.75030870  -0.00229247  0.76378347  1
  Y3+  Y58  1  0.75136549  0.24900799  0.25524786  1
  Y3+  Y59  1  0.75057643  0.24809480  0.75840976  1
  Y3+  Y60  1  0.75019302  0.50104071  0.26039368  1
  Y3+  Y61  1  0.75215092  0.50202066  0.75366371  1
  Y3+  Y62  1  0.74929346  0.75058188  0.25659034  1
  Y3+  Y63  1  0.75203216  0.75151781  0.75922277  1
  Fe3+  Fe64  1  0.87455951  0.87642613  0.37638848  1
  Fe3+  Fe65  1  0.62457386  0.62144102  0.87359747  1
  Fe3+  Fe66  1  0.62522756  0.37395869  0.38006785  1
  Fe3+  Fe67  1  0.62404812  0.12769468  0.87976952  1
  Fe3+  Fe68  1  0.12612062  0.37589916  0.87424751  1
  Fe3+  Fe69  1  0.12604341  0.87413198  0.87733638  1
  Fe3+  Fe70  1  0.12484320  0.37403955  0.37992513  1
  Fe3+  Fe71  1  0.12602711  0.12707836  0.88032815  1
  Fe3+  Fe72  1  0.87536358  0.37389049  0.38016037  1
  Fe3+  Fe73  1  0.62550427  0.12255746  0.37423978  1
  Fe3+  Fe74  1  0.37381212  0.87318236  0.87967823  1
  Fe3+  Fe75  1  0.62382735  0.37585368  0.87378770  1
  Fe3+  Fe76  1  0.87570072  0.37721932  0.87417960  1
  Fe3+  Fe77  1  0.62536648  0.87674777  0.37715355  1
  Fe3+  Fe78  1  0.12559303  0.62249982  0.87433117  1
  Fe3+  Fe79  1  0.12461715  0.12388997  0.37493344  1
  Fe3+  Fe80  1  0.62526150  0.62691671  0.38041034  1
  Fe3+  Fe81  1  0.37446250  0.12676520  0.87866670  1
  Fe3+  Fe82  1  0.37509438  0.87642358  0.38022501  1
  Fe3+  Fe83  1  0.37430016  0.37621537  0.87393205  1
  Fe3+  Fe84  1  0.87579375  0.87329915  0.13715267  1
  Fe3+  Fe85  1  0.37442878  0.87536224  0.63608482  1
  Fe3+  Fe86  1  0.87548399  0.37401979  0.63223399  1
  Fe3+  Fe87  1  0.12501522  0.12551061  0.13534323  1
  Fe3+  Fe88  1  0.62484365  0.12578279  0.13395139  1
  Fe3+  Fe89  1  0.62501085  0.62583558  0.63410885  1
  Fe3+  Fe90  1  0.37476814  0.62541060  0.14130357  1
  Fe3+  Fe91  1  0.37447525  0.87342511  0.13555644  1
  Fe3+  Fe92  1  0.62570862  0.37427656  0.63113487  1
  Fe3+  Fe93  1  0.87523067  0.12364879  0.64060841  1
  Fe3+  Fe94  1  0.87533785  0.62593171  0.14015468  1
  Fe3+  Fe95  1  0.12440381  0.37435048  0.63132466  1
  Cu2+  Cu96  1  0.87434749  0.62780099  0.37327274  1
  Cu2+  Cu97  1  0.37422082  0.62385893  0.86209293  1
  Cu2+  Cu98  1  0.37460773  0.37443830  0.37380696  1
  Cu2+  Cu99  1  0.87572104  0.62340022  0.86237137  1
  Cu2+  Cu100  1  0.87445581  0.12320280  0.36112002  1
  Cu2+  Cu101  1  0.62395555  0.87396448  0.87343815  1
  Cu2+  Cu102  1  0.12461135  0.62577527  0.37290892  1
  Cu2+  Cu103  1  0.87545914  0.12664711  0.87496162  1
  Cu2+  Cu104  1  0.37562344  0.62781650  0.37344936  1
  Cu2+  Cu105  1  0.12471281  0.87656369  0.37285945  1
  Cu2+  Cu106  1  0.37548597  0.12199954  0.37162360  1
  Cu2+  Cu107  1  0.87646002  0.87355473  0.86418085  1
  Cu2+  Cu108  1  0.37523262  0.62701713  0.64052381  1
  Cu2+  Cu109  1  0.87522977  0.87573373  0.65585578  1
  Cu2+  Cu110  1  0.87486408  0.62633893  0.64133251  1
  Cu2+  Cu111  1  0.37477556  0.12488825  0.14937453  1
  Cu2+  Cu112  1  0.12480333  0.87434122  0.14897362  1
  Cu2+  Cu113  1  0.87530424  0.12451365  0.14004684  1
  Cu2+  Cu114  1  0.37456758  0.37455576  0.63870690  1
  Cu2+  Cu115  1  0.62554790  0.87405327  0.13930384  1
  Cu2+  Cu116  1  0.12495374  0.87489373  0.64213807  1
  Cu2+  Cu117  1  0.37492349  0.12275383  0.64302246  1
  Cu2+  Cu118  1  0.62501803  0.62464014  0.15621554  1
  Cu2+  Cu119  1  0.12498354  0.62527850  0.64114937  1
  Cu2+  Cu120  1  0.12491961  0.62493516  0.15742868  1
  Cu2+  Cu121  1  0.87542837  0.37687507  0.15807222  1
  Cu2+  Cu122  1  0.62477203  0.37501853  0.15751079  1
  Cu2+  Cu123  1  0.12514663  0.37532595  0.15789463  1
  Cu2+  Cu124  1  0.62485354  0.87480562  0.65364916  1
  Cu2+  Cu125  1  0.37462248  0.37678153  0.15959022  1
  Cu2+  Cu126  1  0.62627160  0.12471703  0.65539218  1
  Cu2+  Cu127  1  0.12386161  0.12499139  0.65211466  1
  O2-  O128  1  0.12634660  0.12839542  0.00642893  1
  O2-  O129  1  0.12363351  0.12313331  0.49566377  1
  O2-  O130  1  0.12593282  0.37666043  -0.00591554  1
  O2-  O131  1  0.12376633  0.37251674  0.50531953  1
  O2-  O132  1  0.12535815  0.62062841  -0.00512295  1
  O2-  O133  1  0.12455477  0.62596875  0.50676547  1
  O2-  O134  1  0.12699656  0.87328055  -0.00261747  1
  O2-  O135  1  0.12506316  0.87680266  0.50772838  1
  O2-  O136  1  0.37392432  0.13030172  -0.00192516  1
  O2-  O137  1  0.37550380  0.12103100  0.50696847  1
  O2-  O138  1  0.37461213  0.37701316  -0.00578364  1
  O2-  O139  1  0.37524040  0.37307690  0.50598203  1
  O2-  O140  1  0.37481678  0.62311838  0.02088339  1
  O2-  O141  1  0.37635692  0.62838769  0.50693780  1
  O2-  O142  1  0.37375696  0.87196127  0.00726377  1
  O2-  O143  1  0.37562386  0.87761674  0.50756648  1
  O2-  O144  1  0.62371086  0.12989580  0.00621337  1
  O2-  O145  1  0.62682387  0.12085382  0.49454368  1
  O2-  O146  1  0.62383245  0.37723932  -0.00662117  1
  O2-  O147  1  0.62623764  0.37210263  0.50523450  1
  O2-  O148  1  0.62460576  0.61887144  -0.00580818  1
  O2-  O149  1  0.62546035  0.62827513  0.50659042  1
  O2-  O150  1  0.62397820  0.87346717  0.00604898  1
  O2-  O151  1  0.62532378  0.87834734  0.49671127  1
  O2-  O152  1  0.87545724  0.12787393  0.00732261  1
  O2-  O153  1  0.87437791  0.12226835  0.51977152  1
  O2-  O154  1  0.87541672  0.37889087  -0.00534699  1
  O2-  O155  1  0.87514574  0.37205436  0.50604921  1
  O2-  O156  1  0.87514625  0.62290049  0.01976738  1
  O2-  O157  1  0.87346132  0.62806939  0.50739246  1
  O2-  O158  1  0.87599368  0.87129456  0.01635367  1
  O2-  O159  1  0.87370039  0.87835400  0.49698069  1
  O2-  O160  1  0.12600798  0.00173803  0.15905351  1
  O2-  O161  1  0.12429181  0.00175696  0.66882995  1
  O2-  O162  1  0.12509215  0.24942908  0.16375917  1
  O2-  O163  1  0.12343847  0.25084388  0.66129900  1
  O2-  O164  1  0.12495349  0.49943271  0.16985607  1
  O2-  O165  1  0.12397863  0.49687043  0.65815848  1
  O2-  O166  1  0.12560234  0.74963937  0.16670490  1
  O2-  O167  1  0.12507126  0.74978125  0.66567959  1
  O2-  O168  1  0.37427935  -0.00233274  0.15972306  1
  O2-  O169  1  0.37576284  -0.00266117  0.66930105  1
  O2-  O170  1  0.37505607  0.25166148  0.16628354  1
  O2-  O171  1  0.37522717  0.24846408  0.66055191  1
  O2-  O172  1  0.37496773  0.50121753  0.17148108  1
  O2-  O173  1  0.37517877  0.50025767  0.65917060  1
  O2-  O174  1  0.37481859  0.75049433  0.16793102  1
  O2-  O175  1  0.37603942  0.75356606  0.66653110  1
  O2-  O176  1  0.62457293  0.00306849  0.15743460  1
  O2-  O177  1  0.62543732  -0.00029691  0.66986847  1
  O2-  O178  1  0.62433586  0.24941278  0.16455691  1
  O2-  O179  1  0.62663495  0.25103959  0.66052357  1
  O2-  O180  1  0.62514544  0.49920407  0.17113591  1
  O2-  O181  1  0.62593237  0.49963175  0.65380511  1
  O2-  O182  1  0.62410270  0.74865483  0.16579744  1
  O2-  O183  1  0.62486307  0.74916235  0.66314347  1
  O2-  O184  1  0.87549457  -0.00236807  0.16169988  1
  O2-  O185  1  0.87463385  0.00006690  0.67068756  1
  O2-  O186  1  0.87525274  0.25249538  0.16556039  1
  O2-  O187  1  0.87451725  0.25060902  0.66393058  1
  O2-  O188  1  0.87487473  0.50136424  0.17181126  1
  O2-  O189  1  0.87495497  0.49652980  0.65780139  1
  O2-  O190  1  0.87569921  0.74937244  0.16917282  1
  O2-  O191  1  0.87424186  0.75248376  0.66614721  1
  O2-  O192  1  0.00305734  0.12592567  0.16344118  1
  O2-  O193  1  -0.00134035  0.12499240  0.66887140  1
  O2-  O194  1  0.00026685  0.37562799  0.16728330  1
  O2-  O195  1  -0.00071529  0.37340843  0.66028555  1
  O2-  O196  1  0.00055292  0.62411784  0.16785482  1
  O2-  O197  1  -0.00058825  0.62563031  0.66351944  1
  O2-  O198  1  0.00010850  0.87457963  0.16641482  1
  O2-  O199  1  -0.00088192  0.87582901  0.66569666  1
  O2-  O200  1  0.24872985  0.12563465  0.16296142  1
  O2-  O201  1  0.24788917  0.12407735  0.66409639  1
  O2-  O202  1  0.24998406  0.37553408  0.16690480  1
  O2-  O203  1  0.24687751  0.37366841  0.65994535  1
  O2-  O204  1  0.24960371  0.62493653  0.16806399  1
  O2-  O205  1  0.25014043  0.62567191  0.66252072  1
  O2-  O206  1  0.25121963  0.87440861  0.16454862  1
  O2-  O207  1  0.25229166  0.87612993  0.66352366  1
  O2-  O208  1  0.50081055  0.12561529  0.16207593  1
  O2-  O209  1  0.50250266  0.12380249  0.66513060  1
  O2-  O210  1  0.49952675  0.37598946  0.16689491  1
  O2-  O211  1  0.50337947  0.37434102  0.66001521  1
  O2-  O212  1  0.50007421  0.62437782  0.16814801  1
  O2-  O213  1  0.50329417  0.62565381  0.66262007  1
  O2-  O214  1  0.49705034  0.87471173  0.16352553  1
  O2-  O215  1  0.49903248  0.87584111  0.66385396  1
  O2-  O216  1  0.74740026  0.12678412  0.16203449  1
  O2-  O217  1  0.75111018  0.12428085  0.66924645  1
  O2-  O218  1  0.75013571  0.37569746  0.16696093  1
  O2-  O219  1  0.75052831  0.37441844  0.66030695  1
  O2-  O220  1  0.74985220  0.62397169  0.16816319  1
  O2-  O221  1  0.74713843  0.62523799  0.66304922  1
  O2-  O222  1  0.75201999  0.87400631  0.16524428  1
  O2-  O223  1  0.74950417  0.87578674  0.66690689  1
  O2-  O224  1  0.12462230  0.00195716  0.34206480  1
  O2-  O225  1  0.12623868  0.00118976  0.85221532  1
  O2-  O226  1  0.12392025  0.25035246  0.34734349  1
  O2-  O227  1  0.12564260  0.24969343  0.84411857  1
  O2-  O228  1  0.12386594  0.49717500  0.35377128  1
  O2-  O229  1  0.12538994  0.49961832  0.83830957  1
  O2-  O230  1  0.12503622  0.75101648  0.35088151  1
  O2-  O231  1  0.12561801  0.74906948  0.84726881  1
  O2-  O232  1  0.37556667  -0.00345076  0.34350227  1
  O2-  O233  1  0.37453118  -0.00027678  0.85312635  1
  O2-  O234  1  0.37533955  0.24879060  0.35081073  1
  O2-  O235  1  0.37474947  0.25028197  0.84131358  1
  O2-  O236  1  0.37543993  0.50094057  0.35394759  1
  O2-  O237  1  0.37445284  0.49931210  0.84125278  1
  O2-  O238  1  0.37610028  0.75458974  0.35026290  1
  O2-  O239  1  0.37476218  0.75004524  0.85116402  1
  O2-  O240  1  0.62505981  -0.00054899  0.33806922  1
  O2-  O241  1  0.62413544  0.00337797  0.85493924  1
  O2-  O242  1  0.62627204  0.25028828  0.34851491  1
  O2-  O243  1  0.62419347  0.25030052  0.84306608  1
  O2-  O244  1  0.62573335  0.49984424  0.35641891  1
  O2-  O245  1  0.62455687  0.49907837  0.83501257  1
  O2-  O246  1  0.62482932  0.75082216  0.34824460  1
  O2-  O247  1  0.62449259  0.74644112  0.84728878  1
  O2-  O248  1  0.87458080  -0.00052940  0.34220952  1
  O2-  O249  1  0.87521574  -0.00119573  0.85395445  1
  O2-  O250  1  0.87421373  0.25057808  0.35061564  1
  O2-  O251  1  0.87532539  0.25324486  0.84456668  1
  O2-  O252  1  0.87468326  0.49726518  0.35511752  1
  O2-  O253  1  0.87537178  0.49911858  0.83879276  1
  O2-  O254  1  0.87364552  0.75322045  0.34780936  1
  O2-  O255  1  0.87515507  0.74861050  0.85073167  1
  O2-  O256  1  -0.00058642  0.12553767  0.34673861  1
  O2-  O257  1  0.00401888  0.12557322  0.85147830  1
  O2-  O258  1  -0.00061967  0.37345653  0.35165906  1
  O2-  O259  1  0.00109380  0.37527139  0.84203568  1
  O2-  O260  1  -0.00079374  0.62569130  0.35053130  1
  O2-  O261  1  0.00082493  0.62425740  0.84606384  1
  O2-  O262  1  -0.00151632  0.87639185  0.34824813  1
  O2-  O263  1  0.00171220  0.87472474  0.84883644  1
  O2-  O264  1  0.24845846  0.12439726  0.34619226  1
  O2-  O265  1  0.24922581  0.12523806  0.84652392  1
  O2-  O266  1  0.24684411  0.37413765  0.35075845  1
  O2-  O267  1  0.25022093  0.37484137  0.84063873  1
  O2-  O268  1  0.25009321  0.62606709  0.35079192  1
  O2-  O269  1  0.24959387  0.62450199  0.84457136  1
  O2-  O270  1  0.25215845  0.87620273  0.35023759  1
  O2-  O271  1  0.25094428  0.87480298  0.84589811  1
  O2-  O272  1  0.50237601  0.12427263  0.34488174  1
  O2-  O273  1  0.50008083  0.12550466  0.84762572  1
  O2-  O274  1  0.50347901  0.37452335  0.35076180  1
  O2-  O275  1  0.49909456  0.37526786  0.84072649  1
  O2-  O276  1  0.50389595  0.62590314  0.35073376  1
  O2-  O277  1  0.49937693  0.62406216  0.84496493  1
  O2-  O278  1  0.49997754  0.87581149  0.34698047  1
  O2-  O279  1  0.49580904  0.87452289  0.84835577  1
  O2-  O280  1  0.74957467  0.12509910  0.34437708  1
  O2-  O281  1  0.74686213  0.12659206  0.85222808  1
  O2-  O282  1  0.75015593  0.37452490  0.35164064  1
  O2-  O283  1  0.74947172  0.37548222  0.84222827  1
  O2-  O284  1  0.74658162  0.62500057  0.35052221  1
  O2-  O285  1  0.75016857  0.62349146  0.84615828  1
  O2-  O286  1  0.74919123  0.87620807  0.34469082  1
  O2-  O287  1  0.75184382  0.87393206  0.85151023  1
