# generated using pymatgen
data_BaYFeCuO5
_symmetry_space_group_name_H-M   'P 1'
_cell_length_a   15.68043209
_cell_length_b   15.68290743
_cell_length_c   15.52608993
_cell_angle_alpha   89.99215865
_cell_angle_beta   90.00642447
_cell_angle_gamma   89.99727940
_symmetry_Int_Tables_number   1
_chemical_formula_structural   BaYFeCuO5
_chemical_formula_sum   'Ba32 Y32 Fe32 Cu32 O160'
_cell_volume   3818.09469075
_cell_formula_units_Z   32
loop_
 _symmetry_equiv_pos_site_id
 _symmetry_equiv_pos_as_xyz
  1  'x, y, z'
loop_
 _atom_type_symbol
 _atom_type_oxidation_number
  Ba2+  2.0
  Y3+  3.0
  Fe3+  3.0
  Cu2+  2.0
  O2-  -2.0
loop_
 _atom_site_type_symbol
 _atom_site_label
 _atom_site_symmetry_multiplicity
 _atom_site_fract_x
 _atom_site_fract_y
 _atom_site_fract_z
 _atom_site_occupancy
  Ba2+  Ba0  1  -0.00115786  0.00347392  0.02146093  1
  Ba2+  Ba1  1  -0.00448139  -0.00567529  0.51055687  1
  Ba2+  Ba2  1  -0.00027611  0.24905826  0.01678087  1
  Ba2+  Ba3  1  -0.00451177  0.25486850  0.51114416  1
  Ba2+  Ba4  1  -0.00278625  0.49227317  0.01733682  1
  Ba2+  Ba5  1  -0.00318258  0.50450871  0.51228647  1
  Ba2+  Ba6  1  -0.00415515  0.75498320  0.02229234  1
  Ba2+  Ba7  1  -0.00257672  0.74656919  0.51226249  1
  Ba2+  Ba8  1  0.24632432  0.00780253  0.01689564  1
  Ba2+  Ba9  1  0.25417233  -0.00646648  0.51393811  1
  Ba2+  Ba10  1  0.24945422  0.25034867  0.00525660  1
  Ba2+  Ba11  1  0.25062307  0.24982697  0.50636342  1
  Ba2+  Ba12  1  0.25057641  0.49171828  0.00568246  1
  Ba2+  Ba13  1  0.24554035  0.50592094  0.52329011  1
  Ba2+  Ba14  1  0.24838999  0.75006024  0.01339877  1
  Ba2+  Ba15  1  0.25028104  0.75002503  0.52765452  1
  Ba2+  Ba16  1  0.49815294  0.01205053  0.01126328  1
  Ba2+  Ba17  1  0.50081187  -0.00161507  0.50521123  1
  Ba2+  Ba18  1  0.50122317  0.25134390  0.00632953  1
  Ba2+  Ba19  1  0.50509242  0.24580896  0.51350396  1
  Ba2+  Ba20  1  0.50386883  0.49451352  0.00126305  1
  Ba2+  Ba21  1  0.50504632  0.50540159  0.51194894  1
  Ba2+  Ba22  1  0.50100538  0.74066677  0.00730599  1
  Ba2+  Ba23  1  0.50046954  0.75009381  0.50650011  1
  Ba2+  Ba24  1  0.75711613  0.00700384  0.01504630  1
  Ba2+  Ba25  1  0.74854700  -0.00047905  0.50601701  1
  Ba2+  Ba26  1  0.75071240  0.25025749  0.01682520  1
  Ba2+  Ba27  1  0.74856997  0.24936610  0.51894061  1
  Ba2+  Ba28  1  0.74824457  0.49514598  0.01179313  1
  Ba2+  Ba29  1  0.75291743  0.50373813  0.50052263  1
  Ba2+  Ba30  1  0.75504845  0.74512624  0.01266142  1
  Ba2+  Ba31  1  0.75070064  0.74895585  0.49046061  1
  Y3+  Y32  1  -0.00107374  -0.00004614  0.25612333  1
  Y3+  Y33  1  -0.00194603  0.00134345  0.75553244  1
  Y3+  Y34  1  -0.00088190  0.25141692  0.25569482  1
  Y3+  Y35  1  -0.00053465  0.25029424  0.75745644  1
  Y3+  Y36  1  -0.00298801  0.49894518  0.25841185  1
  Y3+  Y37  1  0.00071859  0.49905839  0.75545295  1
  Y3+  Y38  1  -0.00374815  0.75007915  0.25832371  1
  Y3+  Y39  1  -0.00032533  0.74856907  0.75432009  1
  Y3+  Y40  1  0.25069748  0.00296337  0.25563627  1
  Y3+  Y41  1  0.25092130  0.00015119  0.75838222  1
  Y3+  Y42  1  0.25007483  0.24921937  0.25541899  1
  Y3+  Y43  1  0.24960961  0.25199474  0.75955097  1
  Y3+  Y44  1  0.24955768  0.49873262  0.25314876  1
  Y3+  Y45  1  0.24772526  0.49790144  0.75967590  1
  Y3+  Y46  1  0.24984154  0.74965960  0.25160550  1
  Y3+  Y47  1  0.24952031  0.74981611  0.75820608  1
  Y3+  Y48  1  0.49902556  0.00314709  0.25576419  1
  Y3+  Y49  1  0.49948934  0.00186704  0.75918553  1
  Y3+  Y50  1  0.50049214  0.24871537  0.25477394  1
  Y3+  Y51  1  0.50121450  0.25121561  0.76063242  1
  Y3+  Y52  1  0.50119939  0.49972199  0.25605888  1
  Y3+  Y53  1  0.50273740  0.49797174  0.75971461  1
  Y3+  Y54  1  0.50150338  0.74898011  0.25671889  1
  Y3+  Y55  1  0.49984493  0.74877127  0.75935503  1
  Y3+  Y56  1  0.75155284  0.00046437  0.25600174  1
  Y3+  Y57  1  0.75132454  0.00351243  0.75776194  1
  Y3+  Y58  1  0.75062716  0.25129620  0.25461876  1
  Y3+  Y59  1  0.74971711  0.24942884  0.75912346  1
  Y3+  Y60  1  0.75222929  0.49957584  0.25769449  1
  Y3+  Y61  1  0.74849319  0.49895404  0.75860892  1
  Y3+  Y62  1  0.75234626  0.74929379  0.25777675  1
  Y3+  Y63  1  0.75067663  0.74780064  0.75993652  1
  Fe3+  Fe64  1  0.37493782  0.87599298  0.88074236  1
  Fe3+  Fe65  1  0.37424190  0.62380415  0.87755928  1
  Fe3+  Fe66  1  0.62586442  0.87512253  0.88297124  1
  Fe3+  Fe67  1  0.87509553  0.12604640  0.37704749  1
  Fe3+  Fe68  1  0.87608583  0.62395895  0.87860105  1
  Fe3+  Fe69  1  0.12278228  0.62460697  0.87981498  1
  Fe3+  Fe70  1  0.62638467  0.12518374  0.87724595  1
  Fe3+  Fe71  1  0.37403835  0.87412096  0.37304063  1
  Fe3+  Fe72  1  0.12352599  0.12500357  0.87480860  1
  Fe3+  Fe73  1  0.12508402  0.37633372  0.37771911  1
  Fe3+  Fe74  1  0.12339158  0.87545251  0.87721075  1
  Fe3+  Fe75  1  0.37333525  0.62488094  0.37537877  1
  Fe3+  Fe76  1  0.87581882  0.87576236  0.87822314  1
  Fe3+  Fe77  1  0.12579362  0.87375268  0.37509713  1
  Fe3+  Fe78  1  0.37533194  0.37563903  0.38127905  1
  Fe3+  Fe79  1  0.62535182  0.37486307  0.37754666  1
  Fe3+  Fe80  1  0.12618629  0.62578249  0.37399666  1
  Fe3+  Fe81  1  0.87535569  0.37379218  0.87667770  1
  Fe3+  Fe82  1  0.62516149  0.12543227  0.37450087  1
  Fe3+  Fe83  1  0.12510083  0.12441838  0.37966612  1
  Fe3+  Fe84  1  0.37575781  0.87529603  0.13313731  1
  Fe3+  Fe85  1  0.12421696  0.62374472  0.13345075  1
  Fe3+  Fe86  1  0.37578015  0.37566811  0.63588490  1
  Fe3+  Fe87  1  0.62532764  0.87485836  0.64030043  1
  Fe3+  Fe88  1  0.12468354  0.12464724  0.63356409  1
  Fe3+  Fe89  1  0.87257635  0.87382518  0.63776679  1
  Fe3+  Fe90  1  0.87384860  0.37589505  0.63792205  1
  Fe3+  Fe91  1  0.37594573  0.37486784  0.13831988  1
  Fe3+  Fe92  1  0.62533761  0.87595677  0.13463093  1
  Fe3+  Fe93  1  0.37548632  0.12485676  0.63807042  1
  Fe3+  Fe94  1  0.62664911  0.62583652  0.64010417  1
  Fe3+  Fe95  1  0.62561560  0.62375005  0.13893398  1
  Cu2+  Cu96  1  0.62598372  0.62482387  0.86643378  1
  Cu2+  Cu97  1  0.37510807  0.37484734  0.86207983  1
  Cu2+  Cu98  1  0.37404498  0.12571530  0.87294513  1
  Cu2+  Cu99  1  0.87521075  0.87616466  0.36166797  1
  Cu2+  Cu100  1  0.62452369  0.62489754  0.36027540  1
  Cu2+  Cu101  1  0.12288199  0.37455803  0.87333729  1
  Cu2+  Cu102  1  0.87477126  0.37418615  0.36463925  1
  Cu2+  Cu103  1  0.87620238  0.62472166  0.37222373  1
  Cu2+  Cu104  1  0.87603477  0.12517265  0.87225588  1
  Cu2+  Cu105  1  0.37472849  0.12562356  0.36525357  1
  Cu2+  Cu106  1  0.62685263  0.37407989  0.87317479  1
  Cu2+  Cu107  1  0.62444292  0.87567474  0.35797375  1
  Cu2+  Cu108  1  0.37626050  0.62439788  0.65623482  1
  Cu2+  Cu109  1  0.12473467  0.12599262  0.15481084  1
  Cu2+  Cu110  1  0.12535047  0.37426758  0.14107292  1
  Cu2+  Cu111  1  0.12440152  0.87568101  0.65174503  1
  Cu2+  Cu112  1  0.87416387  0.87556065  0.15238951  1
  Cu2+  Cu113  1  0.37550267  0.62395378  0.14553563  1
  Cu2+  Cu114  1  0.62537959  0.12513252  0.15028621  1
  Cu2+  Cu115  1  0.87294277  0.62516627  0.64252012  1
  Cu2+  Cu116  1  0.12512004  0.37414588  0.64847196  1
  Cu2+  Cu117  1  0.62446851  0.12453645  0.65378742  1
  Cu2+  Cu118  1  0.62501492  0.37510073  0.64995694  1
  Cu2+  Cu119  1  0.87461108  0.12508075  0.64835242  1
  Cu2+  Cu120  1  0.12513602  0.87545078  0.15005000  1
  Cu2+  Cu121  1  0.87471134  0.37488443  0.15208617  1
  Cu2+  Cu122  1  0.87540704  0.12617274  0.14280997  1
  Cu2+  Cu123  1  0.37643862  0.87475432  0.65718128  1
  Cu2+  Cu124  1  0.12457739  0.62520385  0.65541317  1
  Cu2+  Cu125  1  0.87506537  0.62412187  0.15065757  1
  Cu2+  Cu126  1  0.62466891  0.37482473  0.14206810  1
  Cu2+  Cu127  1  0.37470842  0.12696800  0.14059742  1
  O2-  O128  1  0.12343266  0.12482797  -0.00500190  1
  O2-  O129  1  0.12551147  0.12355961  0.50566925  1
  O2-  O130  1  0.12429609  0.37372189  0.00705119  1
  O2-  O131  1  0.12658420  0.37745937  0.49751011  1
  O2-  O132  1  0.12214627  0.62444528  0.00527970  1
  O2-  O133  1  0.12793387  0.62726084  0.49383207  1
  O2-  O134  1  0.12304058  0.87711386  -0.00369022  1
  O2-  O135  1  0.12768978  0.87251504  0.49464621  1
  O2-  O136  1  0.37354959  0.12640874  0.00757663  1
  O2-  O137  1  0.37582165  0.12292882  0.51804700  1
  O2-  O138  1  0.37575173  0.37423851  0.01767465  1
  O2-  O139  1  0.37533279  0.37676712  0.50760713  1
  O2-  O140  1  0.37419377  0.62378593  -0.00245688  1
  O2-  O141  1  0.37203849  0.62707719  0.49479599  1
  O2-  O142  1  0.37497606  0.87602359  0.00633315  1
  O2-  O143  1  0.37423697  0.87255615  0.49301414  1
  O2-  O144  1  0.62677011  0.12513831  -0.00242786  1
  O2-  O145  1  0.62441437  0.12374090  0.49458266  1
  O2-  O146  1  0.62553981  0.37464059  0.00788500  1
  O2-  O147  1  0.62406915  0.37440677  0.49754749  1
  O2-  O148  1  0.62556711  0.62361190  0.01861923  1
  O2-  O149  1  0.62573912  0.62789741  0.52001519  1
  O2-  O150  1  0.62556443  0.87568796  0.00862811  1
  O2-  O151  1  0.62458604  0.87351249  0.52064420  1
  O2-  O152  1  0.87656244  0.12558666  0.00765040  1
  O2-  O153  1  0.87448503  0.12496412  0.49714463  1
  O2-  O154  1  0.87549199  0.37381662  -0.00283851  1
  O2-  O155  1  0.87335029  0.37604690  0.51706210  1
  O2-  O156  1  0.87832444  0.62465949  -0.00158770  1
  O2-  O157  1  0.87428940  0.62609867  0.50688825  1
  O2-  O158  1  0.87667796  0.87588374  -0.00184508  1
  O2-  O159  1  0.87147405  0.87384887  0.51751077  1
  O2-  O160  1  0.12519240  0.00115541  0.16479973  1
  O2-  O161  1  0.12526023  0.00155313  0.66029659  1
  O2-  O162  1  0.12491193  0.24872489  0.16899534  1
  O2-  O163  1  0.12650290  0.24714119  0.66031037  1
  O2-  O164  1  0.12479452  0.50261524  0.16208319  1
  O2-  O165  1  0.12510518  0.50038130  0.66622530  1
  O2-  O166  1  0.12557984  0.74787600  0.15806355  1
  O2-  O167  1  0.12599548  0.75051339  0.66735881  1
  O2-  O168  1  0.37512431  -0.00249286  0.16227415  1
  O2-  O169  1  0.37570895  0.00015314  0.66711422  1
  O2-  O170  1  0.37497201  0.25188109  0.17111590  1
  O2-  O171  1  0.37412803  0.25134719  0.66255764  1
  O2-  O172  1  0.37530450  0.49940591  0.16771589  1
  O2-  O173  1  0.37556484  0.49842048  0.66293664  1
  O2-  O174  1  0.37518179  0.75155287  0.15776659  1
  O2-  O175  1  0.37527252  0.74975999  0.66845285  1
  O2-  O176  1  0.62443619  -0.00078266  0.16176164  1
  O2-  O177  1  0.62379261  -0.00018793  0.66751986  1
  O2-  O178  1  0.62507212  0.24813472  0.16450317  1
  O2-  O179  1  0.62468211  0.24928807  0.66243744  1
  O2-  O180  1  0.62558136  0.50136169  0.16875498  1
  O2-  O181  1  0.62382973  0.50049731  0.66712820  1
  O2-  O182  1  0.62534857  0.75143042  0.16369309  1
  O2-  O183  1  0.62466454  0.75028491  0.67456672  1
  O2-  O184  1  0.87539716  -0.00052937  0.16589184  1
  O2-  O185  1  0.87461602  -0.00029587  0.66479325  1
  O2-  O186  1  0.87529907  0.25200046  0.16542203  1
  O2-  O187  1  0.87441394  0.25035630  0.66401240  1
  O2-  O188  1  0.87495096  0.49840014  0.16529798  1
  O2-  O189  1  0.87564546  0.49837731  0.66701708  1
  O2-  O190  1  0.87455256  0.75064397  0.16350554  1
  O2-  O191  1  0.87419797  0.75154923  0.66958601  1
  O2-  O192  1  0.00188735  0.12533821  0.16695372  1
  O2-  O193  1  0.00176732  0.12482534  0.65950048  1
  O2-  O194  1  -0.00193069  0.37489919  0.16534400  1
  O2-  O195  1  0.00004820  0.37408507  0.66279850  1
  O2-  O196  1  0.00048203  0.62514599  0.16327171  1
  O2-  O197  1  0.00080960  0.62590655  0.66193190  1
  O2-  O198  1  0.00016767  0.87530547  0.16480056  1
  O2-  O199  1  -0.00118463  0.87479303  0.66179402  1
  O2-  O200  1  0.24768283  0.12528598  0.16628688  1
  O2-  O201  1  0.24938847  0.12339386  0.66417084  1
  O2-  O202  1  0.25188874  0.37507588  0.16678477  1
  O2-  O203  1  0.25136137  0.37603546  0.66428291  1
  O2-  O204  1  0.24867631  0.62473136  0.15727526  1
  O2-  O205  1  0.25062362  0.62483599  0.66701098  1
  O2-  O206  1  0.25166241  0.87511830  0.15854257  1
  O2-  O207  1  0.25043437  0.87492309  0.66584408  1
  O2-  O208  1  0.50217248  0.12500857  0.16422162  1
  O2-  O209  1  0.49889437  0.12560736  0.66854937  1
  O2-  O210  1  0.49875712  0.37513937  0.16855965  1
  O2-  O211  1  0.49870164  0.37445002  0.66474644  1
  O2-  O212  1  0.50084162  0.62579116  0.16712575  1
  O2-  O213  1  0.50106477  0.62549136  0.66807682  1
  O2-  O214  1  0.50043132  0.87478550  0.16156175  1
  O2-  O215  1  0.50113074  0.87446638  0.67248465  1
  O2-  O216  1  0.74866444  0.12488302  0.16425352  1
  O2-  O217  1  0.74899780  0.12454644  0.66429711  1
  O2-  O218  1  0.75176641  0.37471362  0.16427923  1
  O2-  O219  1  0.74967952  0.37464742  0.66687373  1
  O2-  O220  1  0.75053974  0.62547839  0.16622508  1
  O2-  O221  1  0.74817014  0.62449201  0.67221316  1
  O2-  O222  1  0.74782483  0.87571985  0.16325007  1
  O2-  O223  1  0.74931162  0.87596467  0.67342336  1
  O2-  O224  1  0.12592346  0.00097329  0.34828749  1
  O2-  O225  1  0.12537834  -0.00088775  0.84181912  1
  O2-  O226  1  0.12565686  0.24922725  0.35229011  1
  O2-  O227  1  0.12468169  0.24862104  0.84356274  1
  O2-  O228  1  0.12557009  0.50002548  0.34305404  1
  O2-  O229  1  0.12531137  0.50298549  0.85035985  1
  O2-  O230  1  0.12550936  0.75008562  0.33900912  1
  O2-  O231  1  0.12476753  0.74892658  0.84997805  1
  O2-  O232  1  0.37471613  -0.00028837  0.34567842  1
  O2-  O233  1  0.37451478  -0.00342293  0.84943738  1
  O2-  O234  1  0.37446768  0.25215183  0.35496676  1
  O2-  O235  1  0.37497443  0.25184976  0.84558307  1
  O2-  O236  1  0.37481433  0.49900499  0.34845398  1
  O2-  O237  1  0.37421878  0.50038073  0.84680684  1
  O2-  O238  1  0.37511353  0.74958431  0.33897162  1
  O2-  O239  1  0.37515995  0.75100512  0.85149943  1
  O2-  O240  1  0.62408224  0.00087384  0.34496500  1
  O2-  O241  1  0.62510284  -0.00193168  0.84921480  1
  O2-  O242  1  0.62447426  0.25023631  0.34526208  1
  O2-  O243  1  0.62478850  0.24829587  0.84593936  1
  O2-  O244  1  0.62468623  0.49952507  0.35022423  1
  O2-  O245  1  0.62543291  0.50103038  0.85003110  1
  O2-  O246  1  0.62434129  0.75030388  0.34736111  1
  O2-  O247  1  0.62404068  0.75169973  0.85569922  1
  O2-  O248  1  0.87524743  0.00123336  0.34815765  1
  O2-  O249  1  0.87504126  -0.00191568  0.84603778  1
  O2-  O250  1  0.87566811  0.24908150  0.34736009  1
  O2-  O251  1  0.87580099  0.25083239  0.84545304  1
  O2-  O252  1  0.87517406  0.49829546  0.34934405  1
  O2-  O253  1  0.87493601  0.50030177  0.84701934  1
  O2-  O254  1  0.87486651  0.75218771  0.34765622  1
  O2-  O255  1  0.87559123  0.74979814  0.84881849  1
  O2-  O256  1  0.00152430  0.12469388  0.34938656  1
  O2-  O257  1  0.00159949  0.12421590  0.84163175  1
  O2-  O258  1  0.00088371  0.37482740  0.34826499  1
  O2-  O259  1  -0.00233458  0.37555429  0.84373215  1
  O2-  O260  1  0.00234087  0.62527411  0.34592568  1
  O2-  O261  1  0.00075189  0.62485929  0.84403126  1
  O2-  O262  1  0.00117604  0.87559412  0.34787527  1
  O2-  O263  1  -0.00004342  0.87468953  0.84210769  1
  O2-  O264  1  0.24832520  0.12540488  0.35010666  1
  O2-  O265  1  0.24798771  0.12531974  0.84560639  1
  O2-  O266  1  0.25118375  0.37486979  0.34803667  1
  O2-  O267  1  0.25060007  0.37485572  0.84905265  1
  O2-  O268  1  0.25011348  0.62498870  0.33747557  1
  O2-  O269  1  0.24816705  0.62559279  0.85043135  1
  O2-  O270  1  0.25003872  0.87516414  0.33903237  1
  O2-  O271  1  0.25042534  0.87396264  0.84944050  1
  O2-  O272  1  0.50004694  0.12493010  0.34666178  1
  O2-  O273  1  0.50167050  0.12429134  0.85018352  1
  O2-  O274  1  0.49877995  0.37543965  0.34962326  1
  O2-  O275  1  0.49960491  0.37550148  0.84964372  1
  O2-  O276  1  0.49902331  0.62548950  0.34881885  1
  O2-  O277  1  0.49974273  0.62452278  0.85089400  1
  O2-  O278  1  0.49879782  0.87509421  0.34479218  1
  O2-  O279  1  0.50014683  0.87481012  0.85534676  1
  O2-  O280  1  0.75023769  0.12455373  0.34514696  1
  O2-  O281  1  0.74903490  0.12443716  0.84709744  1
  O2-  O282  1  0.74926435  0.37514988  0.34719426  1
  O2-  O283  1  0.75227101  0.37480992  0.84743207  1
  O2-  O284  1  0.74868647  0.62558463  0.34919410  1
  O2-  O285  1  0.75103694  0.62591317  0.85233082  1
  O2-  O286  1  0.74950579  0.87547534  0.34810449  1
  O2-  O287  1  0.74917579  0.87392311  0.85267611  1
