# generated using pymatgen
data_BaYFeCuO5
_symmetry_space_group_name_H-M   'P 1'
_cell_length_a   15.66892346
_cell_length_b   15.66957969
_cell_length_c   15.47823966
_cell_angle_alpha   90.00196159
_cell_angle_beta   90.00206416
_cell_angle_gamma   90.00510736
_symmetry_Int_Tables_number   1
_chemical_formula_structural   BaYFeCuO5
_chemical_formula_sum   'Ba32 Y32 Fe32 Cu32 O160'
_cell_volume   3800.30165455
_cell_formula_units_Z   32
loop_
 _symmetry_equiv_pos_site_id
 _symmetry_equiv_pos_as_xyz
  1  'x, y, z'
loop_
 _atom_type_symbol
 _atom_type_oxidation_number
  Ba2+  2.0
  Y3+  3.0
  Fe3+  3.0
  Cu2+  2.0
  O2-  -2.0
loop_
 _atom_site_type_symbol
 _atom_site_label
 _atom_site_symmetry_multiplicity
 _atom_site_fract_x
 _atom_site_fract_y
 _atom_site_fract_z
 _atom_site_occupancy
  Ba2+  Ba0  1  -0.00801126  -0.00112738  0.01858585  1
  Ba2+  Ba1  1  -0.00479304  -0.00805206  0.51012250  1
  Ba2+  Ba2  1  -0.00544688  0.25724697  0.01564203  1
  Ba2+  Ba3  1  -0.00593556  0.25373792  0.50041189  1
  Ba2+  Ba4  1  -0.00057299  0.49956690  0.02318243  1
  Ba2+  Ba5  1  -0.00137425  0.50159510  0.50659006  1
  Ba2+  Ba6  1  -0.00178342  0.74376478  0.02408668  1
  Ba2+  Ba7  1  -0.00084402  0.75417475  0.51465183  1
  Ba2+  Ba8  1  0.26060229  -0.00156244  0.00646051  1
  Ba2+  Ba9  1  0.25522064  -0.00839366  0.51145913  1
  Ba2+  Ba10  1  0.25081150  0.24751452  0.01162882  1
  Ba2+  Ba11  1  0.25179297  0.24857521  0.50718886  1
  Ba2+  Ba12  1  0.24250656  0.50530366  0.02426941  1
  Ba2+  Ba13  1  0.24719144  0.50561598  0.50263105  1
  Ba2+  Ba14  1  0.25361685  0.74781124  0.01894775  1
  Ba2+  Ba15  1  0.25057919  0.75602354  0.50719578  1
  Ba2+  Ba16  1  0.49497750  0.00491589  0.00660524  1
  Ba2+  Ba17  1  0.50163177  -0.00446710  0.51959778  1
  Ba2+  Ba18  1  0.50061713  0.23819717  0.00603531  1
  Ba2+  Ba19  1  0.50587702  0.24383857  0.52549102  1
  Ba2+  Ba20  1  0.49529309  0.50465550  0.01144379  1
  Ba2+  Ba21  1  0.50525072  0.50503153  0.50006323  1
  Ba2+  Ba22  1  0.48987404  0.75365283  0.01120456  1
  Ba2+  Ba23  1  0.50108638  0.75610624  0.49624034  1
  Ba2+  Ba24  1  0.75088124  0.00670831  0.01533641  1
  Ba2+  Ba25  1  0.74803223  -0.00369650  0.51708866  1
  Ba2+  Ba26  1  0.75460506  0.24606256  0.01068934  1
  Ba2+  Ba27  1  0.74778600  0.24731477  0.52064276  1
  Ba2+  Ba28  1  0.76215378  0.49760452  0.01028352  1
  Ba2+  Ba29  1  0.74912902  0.50025840  0.50626121  1
  Ba2+  Ba30  1  0.75969458  0.75034167  0.01800954  1
  Ba2+  Ba31  1  0.74851635  0.75667712  0.50613399  1
  Y3+  Y32  1  -0.00124678  -0.00208475  0.26087380  1
  Y3+  Y33  1  -0.00055802  -0.00243386  0.75213360  1
  Y3+  Y34  1  -0.00107293  0.25290157  0.25720974  1
  Y3+  Y35  1  -0.00188756  0.25032120  0.75691390  1
  Y3+  Y36  1  -0.00059409  0.49748044  0.25919249  1
  Y3+  Y37  1  -0.00096237  0.50149595  0.75475066  1
  Y3+  Y38  1  -0.00104302  0.75212936  0.26181036  1
  Y3+  Y39  1  0.00078407  0.75021167  0.75006191  1
  Y3+  Y40  1  0.25251740  -0.00262920  0.25761362  1
  Y3+  Y41  1  0.25317210  -0.00238269  0.75686740  1
  Y3+  Y42  1  0.24903913  0.25002171  0.25713414  1
  Y3+  Y43  1  0.25152633  0.24705315  0.75797253  1
  Y3+  Y44  1  0.24913725  0.50121829  0.26030311  1
  Y3+  Y45  1  0.24821395  0.50174933  0.75398755  1
  Y3+  Y46  1  0.25291575  0.75190843  0.26092845  1
  Y3+  Y47  1  0.24944171  0.75329409  0.75424928  1
  Y3+  Y48  1  0.49897545  -0.00141041  0.25450597  1
  Y3+  Y49  1  0.49861028  -0.00035794  0.76080771  1
  Y3+  Y50  1  0.50021268  0.24589260  0.25134658  1
  Y3+  Y51  1  0.50098020  0.24542832  0.76210458  1
  Y3+  Y52  1  0.49964609  0.50280319  0.25795911  1
  Y3+  Y53  1  0.50130243  0.49941106  0.75799596  1
  Y3+  Y54  1  0.49814485  0.75258385  0.25893155  1
  Y3+  Y55  1  0.49893705  0.75484267  0.75716073  1
  Y3+  Y56  1  0.74962875  -0.00057098  0.25716570  1
  Y3+  Y57  1  0.74866946  -0.00011960  0.75574271  1
  Y3+  Y58  1  0.75158999  0.24884136  0.25291363  1
  Y3+  Y59  1  0.74961653  0.24879883  0.76122034  1
  Y3+  Y60  1  0.75165333  0.49895318  0.25676661  1
  Y3+  Y61  1  0.75172979  0.49924113  0.75783138  1
  Y3+  Y62  1  0.74957447  0.75308483  0.26104049  1
  Y3+  Y63  1  0.75142183  0.75163667  0.75306862  1
  Fe3+  Fe64  1  0.87698194  0.62571518  0.87487929  1
  Fe3+  Fe65  1  0.87381207  0.62531140  0.37715136  1
  Fe3+  Fe66  1  0.12442115  0.37611445  0.87770006  1
  Fe3+  Fe67  1  0.37291072  0.62512004  0.87677517  1
  Fe3+  Fe68  1  0.37324744  0.37600510  0.87985969  1
  Fe3+  Fe69  1  0.87642857  0.87381285  0.87598989  1
  Fe3+  Fe70  1  0.37705539  0.12459495  0.37732384  1
  Fe3+  Fe71  1  0.62609799  0.87467732  0.88122170  1
  Fe3+  Fe72  1  0.62594771  0.62636783  0.88192971  1
  Fe3+  Fe73  1  0.37714000  0.37354292  0.37891225  1
  Fe3+  Fe74  1  0.62565096  0.37550052  0.88099383  1
  Fe3+  Fe75  1  0.12442550  0.62637179  0.37648732  1
  Fe3+  Fe76  1  0.87304895  0.12512951  0.37693851  1
  Fe3+  Fe77  1  0.12383905  0.12359180  0.88012631  1
  Fe3+  Fe78  1  0.12518084  0.12421226  0.37917954  1
  Fe3+  Fe79  1  0.62489605  0.37194233  0.37478939  1
  Fe3+  Fe80  1  0.12429118  0.62585055  0.87561815  1
  Fe3+  Fe81  1  0.12417477  0.87388155  0.88081618  1
  Fe3+  Fe82  1  0.62454906  0.12443027  0.37465202  1
  Fe3+  Fe83  1  0.87668510  0.12402191  0.87522673  1
  Fe3+  Fe84  1  0.37646777  0.37550660  0.63476935  1
  Fe3+  Fe85  1  0.12541640  0.37445518  0.63486386  1
  Fe3+  Fe86  1  0.12446925  0.12437037  0.13533400  1
  Fe3+  Fe87  1  0.12522297  0.87479290  0.13600918  1
  Fe3+  Fe88  1  0.37479336  0.37499351  0.13516566  1
  Fe3+  Fe89  1  0.37629998  0.62600718  0.63580321  1
  Fe3+  Fe90  1  0.62476191  0.37497863  0.13299043  1
  Fe3+  Fe91  1  0.62568059  0.62576135  0.13518121  1
  Fe3+  Fe92  1  0.87393734  0.37494223  0.63784084  1
  Fe3+  Fe93  1  0.12458504  0.12457745  0.63395693  1
  Fe3+  Fe94  1  0.62490074  0.87538577  0.13461200  1
  Fe3+  Fe95  1  0.62472449  0.62588786  0.63896271  1
  Cu2+  Cu96  1  0.87389345  0.87601393  0.37216191  1
  Cu2+  Cu97  1  0.37331301  0.12464896  0.87155381  1
  Cu2+  Cu98  1  0.87685448  0.37569874  0.87207798  1
  Cu2+  Cu99  1  0.62541815  0.62547934  0.36018637  1
  Cu2+  Cu100  1  0.37548615  0.62551746  0.36679313  1
  Cu2+  Cu101  1  0.37593098  0.87675216  0.37106966  1
  Cu2+  Cu102  1  0.62645535  0.12330543  0.87334136  1
  Cu2+  Cu103  1  0.12544921  0.37446592  0.36726785  1
  Cu2+  Cu104  1  0.12539451  0.87590574  0.37287429  1
  Cu2+  Cu105  1  0.87305042  0.37432691  0.36363380  1
  Cu2+  Cu106  1  0.37397447  0.87367040  0.87300003  1
  Cu2+  Cu107  1  0.62460020  0.87743535  0.36991873  1
  Cu2+  Cu108  1  0.12557675  0.37514021  0.15324914  1
  Cu2+  Cu109  1  0.37480157  0.12466175  0.65173512  1
  Cu2+  Cu110  1  0.37533610  0.62489985  0.15496022  1
  Cu2+  Cu111  1  0.87523947  0.12535736  0.64840755  1
  Cu2+  Cu112  1  0.62426124  0.87431980  0.64478441  1
  Cu2+  Cu113  1  0.87663012  0.12480907  0.15290927  1
  Cu2+  Cu114  1  0.12590268  0.87572261  0.64184496  1
  Cu2+  Cu115  1  0.87390645  0.87494364  0.64184543  1
  Cu2+  Cu116  1  0.12542674  0.62496464  0.64452959  1
  Cu2+  Cu117  1  0.62451593  0.37512487  0.65534175  1
  Cu2+  Cu118  1  0.87427838  0.62512324  0.15706677  1
  Cu2+  Cu119  1  0.87403460  0.62455826  0.64533590  1
  Cu2+  Cu120  1  0.12439802  0.62629587  0.15792259  1
  Cu2+  Cu121  1  0.62521376  0.12402488  0.65722777  1
  Cu2+  Cu122  1  0.62504383  0.12432073  0.13943814  1
  Cu2+  Cu123  1  0.87460131  0.37509765  0.14358753  1
  Cu2+  Cu124  1  0.37496427  0.87513011  0.14288836  1
  Cu2+  Cu125  1  0.37327827  0.12462118  0.14233384  1
  Cu2+  Cu126  1  0.87478096  0.87512680  0.15348108  1
  Cu2+  Cu127  1  0.37610754  0.87452762  0.64376792  1
  O2-  O128  1  0.12310434  0.12441208  0.00659522  1
  O2-  O129  1  0.12533088  0.12518591  0.50638453  1
  O2-  O130  1  0.12504937  0.37743311  -0.00221743  1
  O2-  O131  1  0.12607720  0.37307016  0.51462050  1
  O2-  O132  1  0.12364016  0.62460083  -0.00434571  1
  O2-  O133  1  0.12436473  0.62542720  0.49738067  1
  O2-  O134  1  0.12346780  0.87336451  0.00723741  1
  O2-  O135  1  0.12566482  0.87635279  0.50629248  1
  O2-  O136  1  0.37197585  0.12647533  0.00653139  1
  O2-  O137  1  0.37807043  0.12668332  0.49736330  1
  O2-  O138  1  0.37223688  0.37691851  0.00680212  1
  O2-  O139  1  0.37854638  0.37373415  0.50683019  1
  O2-  O140  1  0.37119179  0.62283892  -0.00266152  1
  O2-  O141  1  0.37849188  0.62385721  0.51547623  1
  O2-  O142  1  0.37329904  0.87313996  0.00789796  1
  O2-  O143  1  0.37688538  0.87533580  0.50759151  1
  O2-  O144  1  0.62695194  0.12415826  0.00607297  1
  O2-  O145  1  0.62464458  0.12572049  0.49489145  1
  O2-  O146  1  0.62496623  0.37691572  0.00686370  1
  O2-  O147  1  0.62390292  0.37166612  0.49498381  1
  O2-  O148  1  0.62620044  0.62564473  0.00794977  1
  O2-  O149  1  0.62431474  0.62480672  0.51873717  1
  O2-  O150  1  0.62670001  0.87368817  0.00758727  1
  O2-  O151  1  0.62439548  0.87597265  0.50746330  1
  O2-  O152  1  0.87888037  0.12452974  -0.00413741  1
  O2-  O153  1  0.87232194  0.12650865  0.49726254  1
  O2-  O154  1  0.87682970  0.37626597  0.00775425  1
  O2-  O155  1  0.87198264  0.37429120  0.51703895  1
  O2-  O156  1  0.87836530  0.62550856  -0.00471898  1
  O2-  O157  1  0.87285562  0.62384976  0.49773856  1
  O2-  O158  1  0.87804663  0.87249276  -0.00383727  1
  O2-  O159  1  0.87309146  0.87544766  0.50636165  1
  O2-  O160  1  0.12364018  -0.00076411  0.16044498  1
  O2-  O161  1  0.12507225  0.00352137  0.66699156  1
  O2-  O162  1  0.12556079  0.24862565  0.16278216  1
  O2-  O163  1  0.12665630  0.24928525  0.66705228  1
  O2-  O164  1  0.12501806  0.50114121  0.16641855  1
  O2-  O165  1  0.12533117  0.49842831  0.66298401  1
  O2-  O166  1  0.12476706  0.75166108  0.16271185  1
  O2-  O167  1  0.12602551  0.74908906  0.66417922  1
  O2-  O168  1  0.37405552  -0.00012878  0.16376934  1
  O2-  O169  1  0.37520332  0.00115782  0.66634359  1
  O2-  O170  1  0.37322634  0.25313120  0.16270942  1
  O2-  O171  1  0.37499011  0.25169219  0.66530194  1
  O2-  O172  1  0.37566076  0.49851000  0.16569100  1
  O2-  O173  1  0.37632578  0.49882380  0.66486141  1
  O2-  O174  1  0.37459246  0.74865060  0.16539962  1
  O2-  O175  1  0.37505217  0.74827971  0.66724235  1
  O2-  O176  1  0.62521430  -0.00264905  0.16096714  1
  O2-  O177  1  0.62467286  0.00093504  0.66720677  1
  O2-  O178  1  0.62437738  0.25245912  0.15867712  1
  O2-  O179  1  0.62462943  0.24939695  0.66762383  1
  O2-  O180  1  0.62334707  0.50038886  0.16243429  1
  O2-  O181  1  0.62390824  0.50062724  0.66937799  1
  O2-  O182  1  0.62643465  0.74994823  0.16220675  1
  O2-  O183  1  0.62500229  0.74830019  0.67037052  1
  O2-  O184  1  0.87662461  0.00001267  0.16272544  1
  O2-  O185  1  0.87550272  0.00154894  0.66429351  1
  O2-  O186  1  0.87613354  0.24897770  0.16388731  1
  O2-  O187  1  0.87388477  0.25093133  0.66740822  1
  O2-  O188  1  0.87511932  0.50114075  0.16695689  1
  O2-  O189  1  0.87469879  0.49868584  0.66527483  1
  O2-  O190  1  0.87393355  0.74977471  0.16471257  1
  O2-  O191  1  0.87438154  0.74867357  0.66250920  1
  O2-  O192  1  0.00245021  0.12515707  0.16618032  1
  O2-  O193  1  0.00191443  0.12639241  0.66092690  1
  O2-  O194  1  0.00153808  0.37522177  0.16680322  1
  O2-  O195  1  0.00021738  0.37381995  0.66335884  1
  O2-  O196  1  -0.00092498  0.62557318  0.16609863  1
  O2-  O197  1  -0.00006570  0.62463074  0.65932174  1
  O2-  O198  1  0.00102179  0.87447729  0.16540103  1
  O2-  O199  1  0.00011341  0.87500031  0.66184935  1
  O2-  O200  1  0.24583009  0.12506990  0.16606224  1
  O2-  O201  1  0.24846653  0.12584508  0.66294634  1
  O2-  O202  1  0.25153842  0.37632376  0.16613230  1
  O2-  O203  1  0.25194120  0.37490030  0.66268016  1
  O2-  O204  1  0.25003910  0.62422047  0.16664396  1
  O2-  O205  1  0.25138016  0.62335808  0.66243070  1
  O2-  O206  1  0.24708719  0.87493862  0.16541131  1
  O2-  O207  1  0.25059274  0.87585940  0.66536944  1
  O2-  O208  1  0.49893047  0.12554175  0.16075519  1
  O2-  O209  1  0.50007431  0.12557571  0.66815556  1
  O2-  O210  1  0.49972693  0.37557343  0.15936532  1
  O2-  O211  1  0.49845868  0.37399575  0.66892081  1
  O2-  O212  1  0.50238999  0.62529490  0.16185409  1
  O2-  O213  1  0.49982011  0.62449698  0.67376558  1
  O2-  O214  1  0.50262716  0.87363658  0.16246107  1
  O2-  O215  1  0.50006364  0.87561289  0.67004180  1
  O2-  O216  1  0.75251046  0.12503249  0.16106939  1
  O2-  O217  1  0.74969999  0.12524027  0.66548173  1
  O2-  O218  1  0.74656388  0.37588471  0.16127435  1
  O2-  O219  1  0.74958394  0.37493710  0.66870487  1
  O2-  O220  1  0.74823273  0.62364968  0.16148482  1
  O2-  O221  1  0.74908775  0.62363657  0.66914009  1
  O2-  O222  1  0.74908551  0.87504450  0.16273885  1
  O2-  O223  1  0.74952898  0.87530181  0.66625827  1
  O2-  O224  1  0.12566111  0.00424194  0.34501684  1
  O2-  O225  1  0.12464208  -0.00100537  0.85285312  1
  O2-  O226  1  0.12530810  0.24810204  0.34852420  1
  O2-  O227  1  0.12515947  0.24870404  0.85027660  1
  O2-  O228  1  0.12600059  0.50040765  0.34991227  1
  O2-  O229  1  0.12576116  0.50072440  0.84312273  1
  O2-  O230  1  0.12506335  0.74845728  0.34558208  1
  O2-  O231  1  0.12468337  0.75110876  0.84709625  1
  O2-  O232  1  0.37429702  0.00269571  0.34522332  1
  O2-  O233  1  0.37366356  -0.00088672  0.85013919  1
  O2-  O234  1  0.37541084  0.25051839  0.34514486  1
  O2-  O235  1  0.37440343  0.25375276  0.85033538  1
  O2-  O236  1  0.37623715  0.49763009  0.35147849  1
  O2-  O237  1  0.37428615  0.49916647  0.84621347  1
  O2-  O238  1  0.37604524  0.75000119  0.34969635  1
  O2-  O239  1  0.37544736  0.74736767  0.84783915  1
  O2-  O240  1  0.62482801  0.00275723  0.34222856  1
  O2-  O241  1  0.62624803  -0.00386383  0.85079754  1
  O2-  O242  1  0.62393040  0.24880913  0.33875349  1
  O2-  O243  1  0.62413133  0.25275513  0.85218381  1
  O2-  O244  1  0.62401274  0.49881873  0.34713441  1
  O2-  O245  1  0.62492127  0.50069281  0.85239750  1
  O2-  O246  1  0.62423631  0.74956432  0.34751216  1
  O2-  O247  1  0.62465627  0.74957693  0.85230584  1
  O2-  O248  1  0.87488268  0.00253191  0.34585163  1
  O2-  O249  1  0.87618190  -0.00146080  0.84555877  1
  O2-  O250  1  0.87516817  0.24965951  0.34637803  1
  O2-  O251  1  0.87675144  0.24830500  0.84857185  1
  O2-  O252  1  0.87334695  0.49942553  0.34978260  1
  O2-  O253  1  0.87513391  0.50257590  0.84590249  1
  O2-  O254  1  0.87415230  0.74893803  0.34815936  1
  O2-  O255  1  0.87558310  0.74991220  0.84288742  1
  O2-  O256  1  0.00056520  0.12592429  0.35084695  1
  O2-  O257  1  0.00200725  0.12401839  0.84288948  1
  O2-  O258  1  -0.00092964  0.37447808  0.35145968  1
  O2-  O259  1  0.00288120  0.37512554  0.84299715  1
  O2-  O260  1  -0.00091770  0.62393132  0.34804173  1
  O2-  O261  1  0.00078873  0.62551309  0.84056880  1
  O2-  O262  1  -0.00018341  0.87625137  0.34938868  1
  O2-  O263  1  0.00144869  0.87486412  0.84392556  1
  O2-  O264  1  0.24988272  0.12713108  0.34995149  1
  O2-  O265  1  0.24571842  0.12508819  0.84783900  1
  O2-  O266  1  0.25346620  0.37390399  0.35164430  1
  O2-  O267  1  0.25019152  0.37469001  0.84489962  1
  O2-  O268  1  0.24982572  0.62453874  0.35007539  1
  O2-  O269  1  0.24913660  0.62505877  0.84251085  1
  O2-  O270  1  0.25094769  0.87565197  0.34910505  1
  O2-  O271  1  0.24637248  0.87463447  0.84899416  1
  O2-  O272  1  0.49984919  0.12548736  0.34113123  1
  O2-  O273  1  0.49965510  0.12462154  0.85272824  1
  O2-  O274  1  0.49912781  0.37528407  0.34272060  1
  O2-  O275  1  0.49938738  0.37683091  0.85426551  1
  O2-  O276  1  0.50064221  0.62448827  0.34693776  1
  O2-  O277  1  0.50121058  0.62287083  0.85493034  1
  O2-  O278  1  0.49996135  0.87574864  0.34575681  1
  O2-  O279  1  0.50244333  0.87430247  0.85374887  1
  O2-  O280  1  0.74951351  0.12612647  0.34256564  1
  O2-  O281  1  0.75304915  0.12483970  0.84827877  1
  O2-  O282  1  0.74801622  0.37444276  0.34333848  1
  O2-  O283  1  0.74779532  0.37556657  0.85222085  1
  O2-  O284  1  0.75001167  0.62450264  0.34493892  1
  O2-  O285  1  0.74917909  0.62505010  0.85109443  1
  O2-  O286  1  0.74897214  0.87562750  0.34674251  1
  O2-  O287  1  0.75013050  0.87347166  0.84886683  1
