# generated using pymatgen
data_BaYFeCuO5
_symmetry_space_group_name_H-M   'P 1'
_cell_length_a   15.65820241
_cell_length_b   15.66226377
_cell_length_c   15.46020113
_cell_angle_alpha   89.99711434
_cell_angle_beta   90.00252939
_cell_angle_gamma   90.00431780
_symmetry_Int_Tables_number   1
_chemical_formula_structural   BaYFeCuO5
_chemical_formula_sum   'Ba32 Y32 Fe32 Cu32 O160'
_cell_volume   3791.50448457
_cell_formula_units_Z   32
loop_
 _symmetry_equiv_pos_site_id
 _symmetry_equiv_pos_as_xyz
  1  'x, y, z'
loop_
 _atom_type_symbol
 _atom_type_oxidation_number
  Ba2+  2.0
  Y3+  3.0
  Fe3+  3.0
  Cu2+  2.0
  O2-  -2.0
loop_
 _atom_site_type_symbol
 _atom_site_label
 _atom_site_symmetry_multiplicity
 _atom_site_fract_x
 _atom_site_fract_y
 _atom_site_fract_z
 _atom_site_occupancy
  Ba2+  Ba0  1  -0.00579511  0.00262096  0.01714285  1
  Ba2+  Ba1  1  0.00542641  -0.00393167  0.51247664  1
  Ba2+  Ba2  1  -0.00418766  0.24506315  0.02294903  1
  Ba2+  Ba3  1  0.00225834  0.25589252  0.51429092  1
  Ba2+  Ba4  1  -0.00896568  0.50156479  0.01204049  1
  Ba2+  Ba5  1  0.00581334  0.49715691  0.51197396  1
  Ba2+  Ba6  1  -0.01064778  0.75159632  0.00665229  1
  Ba2+  Ba7  1  0.00906736  0.75000917  0.50733701  1
  Ba2+  Ba8  1  0.25537594  0.00279503  0.01642861  1
  Ba2+  Ba9  1  0.25516041  -0.00063618  0.51511385  1
  Ba2+  Ba10  1  0.25361245  0.24493207  0.02085563  1
  Ba2+  Ba11  1  0.25285766  0.24781472  0.51870428  1
  Ba2+  Ba12  1  0.25631668  0.49875288  0.00596985  1
  Ba2+  Ba13  1  0.24829218  0.50213381  0.52204562  1
  Ba2+  Ba14  1  0.25803619  0.75362478  0.00176878  1
  Ba2+  Ba15  1  0.25040484  0.75072771  0.51841170  1
  Ba2+  Ba16  1  0.49736257  0.00473677  0.01242816  1
  Ba2+  Ba17  1  0.49631792  0.00221056  0.51182910  1
  Ba2+  Ba18  1  0.49888222  0.24314286  0.01732071  1
  Ba2+  Ba19  1  0.49937687  0.24337207  0.50583303  1
  Ba2+  Ba20  1  0.49346626  0.49774129  0.00672794  1
  Ba2+  Ba21  1  0.49365084  0.49552216  0.51327317  1
  Ba2+  Ba22  1  0.49189345  0.75439305  0.00184701  1
  Ba2+  Ba23  1  0.49234467  0.75685816  0.51669752  1
  Ba2+  Ba24  1  0.75315564  0.00459628  0.01256260  1
  Ba2+  Ba25  1  0.74152683  0.00029969  0.50825257  1
  Ba2+  Ba26  1  0.75141747  0.24315380  0.01809475  1
  Ba2+  Ba27  1  0.74468643  0.25205278  0.50110293  1
  Ba2+  Ba28  1  0.75920155  0.50079181  0.01219454  1
  Ba2+  Ba29  1  0.75240963  0.48999961  0.50167299  1
  Ba2+  Ba30  1  0.76068209  0.75201791  0.00683123  1
  Ba2+  Ba31  1  0.75013258  0.75844526  0.50701361  1
  Y3+  Y32  1  -0.00152139  -0.00135825  0.25640783  1
  Y3+  Y33  1  0.00092831  -0.00077013  0.75691310  1
  Y3+  Y34  1  -0.00193860  0.25013345  0.25910039  1
  Y3+  Y35  1  0.00077720  0.25132819  0.75115544  1
  Y3+  Y36  1  -0.00175412  0.50085932  0.25945292  1
  Y3+  Y37  1  -0.00007836  0.50031744  0.75502774  1
  Y3+  Y38  1  -0.00130268  0.74985188  0.25737092  1
  Y3+  Y39  1  -0.00000152  0.74938195  0.75921308  1
  Y3+  Y40  1  0.25427564  -0.00011342  0.25781709  1
  Y3+  Y41  1  0.25161343  -0.00074369  0.75444537  1
  Y3+  Y42  1  0.25237915  0.24708121  0.25686819  1
  Y3+  Y43  1  0.25014741  0.24853783  0.75214980  1
  Y3+  Y44  1  0.24897542  0.50102902  0.25643390  1
  Y3+  Y45  1  0.25005007  0.50132142  0.75659585  1
  Y3+  Y46  1  0.25063729  0.75187771  0.25839121  1
  Y3+  Y47  1  0.25150033  0.75106403  0.75729223  1
  Y3+  Y48  1  0.49822823  0.00207312  0.25951938  1
  Y3+  Y49  1  0.50004639  0.00074558  0.75563372  1
  Y3+  Y50  1  0.50096826  0.24608468  0.25988650  1
  Y3+  Y51  1  0.50079981  0.24566833  0.75391826  1
  Y3+  Y52  1  0.50024448  0.49839950  0.25724776  1
  Y3+  Y53  1  0.49807048  0.50079902  0.75835310  1
  Y3+  Y54  1  0.49760219  0.75290546  0.25718675  1
  Y3+  Y55  1  0.49671502  0.75302942  0.75863900  1
  Y3+  Y56  1  0.74939464  0.00055726  0.25742800  1
  Y3+  Y57  1  0.74697471  0.00103862  0.75847798  1
  Y3+  Y58  1  0.74865131  0.24919004  0.26057876  1
  Y3+  Y59  1  0.74797452  0.24820614  0.75381159  1
  Y3+  Y60  1  0.75258816  0.49817318  0.25837387  1
  Y3+  Y61  1  0.75209787  0.49966243  0.75743739  1
  Y3+  Y62  1  0.75291464  0.75116584  0.25606551  1
  Y3+  Y63  1  0.75167722  0.75134033  0.76150507  1
  Fe3+  Fe64  1  0.12634747  0.87504660  0.37522106  1
  Fe3+  Fe65  1  0.12456665  0.37326280  0.87966624  1
  Fe3+  Fe66  1  0.12460731  0.62466058  0.88013205  1
  Fe3+  Fe67  1  0.62522506  0.62469959  0.88086265  1
  Fe3+  Fe68  1  0.37466808  0.12522253  0.87414575  1
  Fe3+  Fe69  1  0.37390706  0.37458446  0.37595649  1
  Fe3+  Fe70  1  0.87554803  0.12372358  0.37946633  1
  Fe3+  Fe71  1  0.37393971  0.62527693  0.37808807  1
  Fe3+  Fe72  1  0.12592778  0.12460791  0.37680920  1
  Fe3+  Fe73  1  0.12488475  0.87683003  0.88000504  1
  Fe3+  Fe74  1  0.87533888  0.37274589  0.87598590  1
  Fe3+  Fe75  1  0.62502513  0.87694085  0.88027623  1
  Fe3+  Fe76  1  0.87544723  0.12600752  0.87280221  1
  Fe3+  Fe77  1  0.12674692  0.37508575  0.37509882  1
  Fe3+  Fe78  1  0.62363723  0.87453283  0.37588583  1
  Fe3+  Fe79  1  0.62530239  0.37318717  0.88123092  1
  Fe3+  Fe80  1  0.12488395  0.12602644  0.87635998  1
  Fe3+  Fe81  1  0.37483968  0.37226399  0.87577006  1
  Fe3+  Fe82  1  0.62390214  0.62516541  0.38072264  1
  Fe3+  Fe83  1  0.87557856  0.62564152  0.38067248  1
  Fe3+  Fe84  1  0.87466510  0.62524074  0.63498454  1
  Fe3+  Fe85  1  0.62467179  0.87517358  0.13470532  1
  Fe3+  Fe86  1  0.12465649  0.62574874  0.13327317  1
  Fe3+  Fe87  1  0.62535037  0.62564495  0.13445340  1
  Fe3+  Fe88  1  0.87442919  0.12492854  0.63285889  1
  Fe3+  Fe89  1  0.87500801  0.87510573  0.63798514  1
  Fe3+  Fe90  1  0.62505521  0.62599034  0.63547126  1
  Fe3+  Fe91  1  0.62423767  0.37545667  0.63847434  1
  Fe3+  Fe92  1  0.12497066  0.37488951  0.13385232  1
  Fe3+  Fe93  1  0.37523647  0.62515349  0.13736461  1
  Fe3+  Fe94  1  0.62507055  0.37480473  0.13592359  1
  Fe3+  Fe95  1  0.12529149  0.87515004  0.13394711  1
  Cu2+  Cu96  1  0.37489579  0.62475035  0.86309272  1
  Cu2+  Cu97  1  0.87533718  0.87534795  0.36622476  1
  Cu2+  Cu98  1  0.62360989  0.37554553  0.36196722  1
  Cu2+  Cu99  1  0.37428868  0.12451040  0.37247870  1
  Cu2+  Cu100  1  0.37455286  0.87776688  0.87166680  1
  Cu2+  Cu101  1  0.62467748  0.12377343  0.37226754  1
  Cu2+  Cu102  1  0.12636216  0.62496918  0.37230873  1
  Cu2+  Cu103  1  0.87526096  0.62389508  0.87026785  1
  Cu2+  Cu104  1  0.37475755  0.87505311  0.37236795  1
  Cu2+  Cu105  1  0.62486382  0.12600156  0.87355189  1
  Cu2+  Cu106  1  0.87553909  0.87754134  0.87205062  1
  Cu2+  Cu107  1  0.87626958  0.37409046  0.37329022  1
  Cu2+  Cu108  1  0.62528842  0.87413026  0.65374394  1
  Cu2+  Cu109  1  0.37558863  0.12454385  0.64168603  1
  Cu2+  Cu110  1  0.12466136  0.87466950  0.65425883  1
  Cu2+  Cu111  1  0.62521662  0.12421269  0.64067497  1
  Cu2+  Cu112  1  0.87446217  0.12508656  0.15804342  1
  Cu2+  Cu113  1  0.37546333  0.87478028  0.14144260  1
  Cu2+  Cu114  1  0.37534624  0.37490238  0.15042057  1
  Cu2+  Cu115  1  0.37566325  0.12488659  0.15453251  1
  Cu2+  Cu116  1  0.87486436  0.37450752  0.15337285  1
  Cu2+  Cu117  1  0.37582533  0.37475060  0.65193621  1
  Cu2+  Cu118  1  0.12591163  0.37542778  0.65196111  1
  Cu2+  Cu119  1  0.87490984  0.62514790  0.14620783  1
  Cu2+  Cu120  1  0.12471257  0.62597744  0.64360250  1
  Cu2+  Cu121  1  0.37488510  0.87578173  0.64407378  1
  Cu2+  Cu122  1  0.62511839  0.12419672  0.14293642  1
  Cu2+  Cu123  1  0.87365222  0.37538217  0.63996709  1
  Cu2+  Cu124  1  0.12445155  0.12433445  0.64600068  1
  Cu2+  Cu125  1  0.87455058  0.87528088  0.14313481  1
  Cu2+  Cu126  1  0.37551569  0.62546160  0.65303943  1
  Cu2+  Cu127  1  0.12498876  0.12447706  0.15107317  1
  O2-  O128  1  0.12381204  0.12690875  -0.00386106  1
  O2-  O129  1  0.12505409  0.12487776  0.49686536  1
  O2-  O130  1  0.12367259  0.37273785  0.00527670  1
  O2-  O131  1  0.12819654  0.37577523  0.49559155  1
  O2-  O132  1  0.12411343  0.62443944  0.00697215  1
  O2-  O133  1  0.12607102  0.62507388  0.50742031  1
  O2-  O134  1  0.12445573  0.87656306  0.00672821  1
  O2-  O135  1  0.12658008  0.87467975  0.49603650  1
  O2-  O136  1  0.37422816  0.12638933  -0.00471478  1
  O2-  O137  1  0.37429462  0.12541433  0.50665282  1
  O2-  O138  1  0.37457128  0.37183205  -0.00372390  1
  O2-  O139  1  0.37240047  0.37649877  0.49626842  1
  O2-  O140  1  0.37622835  0.62431170  0.01627647  1
  O2-  O141  1  0.37414868  0.62436315  0.49853509  1
  O2-  O142  1  0.37478674  0.87674183  0.00684730  1
  O2-  O143  1  0.37403966  0.87460195  0.50812631  1
  O2-  O144  1  0.62561394  0.12597753  0.00813918  1
  O2-  O145  1  0.62503695  0.12456568  0.50700417  1
  O2-  O146  1  0.62585213  0.37370148  0.00770512  1
  O2-  O147  1  0.62337051  0.37765270  0.51762049  1
  O2-  O148  1  0.62537084  0.62426067  0.00789209  1
  O2-  O149  1  0.62392094  0.62520095  0.50782773  1
  O2-  O150  1  0.62558539  0.87588410  0.00745808  1
  O2-  O151  1  0.62349870  0.87282348  0.49687349  1
  O2-  O152  1  0.87614809  0.12679366  -0.00631865  1
  O2-  O153  1  0.87539886  0.12371121  0.50600236  1
  O2-  O154  1  0.87571347  0.37166064  -0.00361767  1
  O2-  O155  1  0.87560388  0.37546543  0.50624346  1
  O2-  O156  1  0.87451837  0.62395957  0.00757420  1
  O2-  O157  1  0.87507504  0.62585401  0.50809775  1
  O2-  O158  1  0.87507760  0.87754571  0.00761942  1
  O2-  O159  1  0.87568922  0.87395585  0.51737271  1
  O2-  O160  1  0.12433321  -0.00095056  0.16098439  1
  O2-  O161  1  0.12369301  -0.00071872  0.66415144  1
  O2-  O162  1  0.12517219  0.25119596  0.16191068  1
  O2-  O163  1  0.12496354  0.25052204  0.66114210  1
  O2-  O164  1  0.12463314  0.49991505  0.15934586  1
  O2-  O165  1  0.12537182  0.49917018  0.66897701  1
  O2-  O166  1  0.12535243  0.74971363  0.16091761  1
  O2-  O167  1  0.12488856  0.75124935  0.67069591  1
  O2-  O168  1  0.37579778  0.00118185  0.16512040  1
  O2-  O169  1  0.37507192  -0.00005001  0.66467005  1
  O2-  O170  1  0.37515788  0.25005489  0.16369027  1
  O2-  O171  1  0.37563701  0.25091223  0.66159012  1
  O2-  O172  1  0.37567226  0.50098239  0.16448875  1
  O2-  O173  1  0.37533022  0.50007462  0.66660722  1
  O2-  O174  1  0.37489712  0.74750138  0.16674934  1
  O2-  O175  1  0.37501300  0.74972885  0.66779962  1
  O2-  O176  1  0.62499801  -0.00262356  0.16287148  1
  O2-  O177  1  0.62574608  -0.00219415  0.66552164  1
  O2-  O178  1  0.62549716  0.25270550  0.16462087  1
  O2-  O179  1  0.62482935  0.25153933  0.66532800  1
  O2-  O180  1  0.62498647  0.50007289  0.16225117  1
  O2-  O181  1  0.62446139  0.50269918  0.66926277  1
  O2-  O182  1  0.62536525  0.74947595  0.16202518  1
  O2-  O183  1  0.62562874  0.74769336  0.66827207  1
  O2-  O184  1  0.87484524  0.00135386  0.16548863  1
  O2-  O185  1  0.87599753  0.00072052  0.66313482  1
  O2-  O186  1  0.87464600  0.24984602  0.16595267  1
  O2-  O187  1  0.87466415  0.24768942  0.65909717  1
  O2-  O188  1  0.87502792  0.49905427  0.16584504  1
  O2-  O189  1  0.87442981  0.50304946  0.66456442  1
  O2-  O190  1  0.87481716  0.74956674  0.16713057  1
  O2-  O191  1  0.87420077  0.74878228  0.66818547  1
  O2-  O192  1  -0.00087493  0.12551363  0.16525800  1
  O2-  O193  1  -0.00164372  0.12543392  0.65981930  1
  O2-  O194  1  0.00144468  0.37501777  0.16259532  1
  O2-  O195  1  0.00140564  0.37599813  0.66282557  1
  O2-  O196  1  0.00348409  0.62476954  0.16586981  1
  O2-  O197  1  -0.00305821  0.62544148  0.66378059  1
  O2-  O198  1  0.00291290  0.87452800  0.16369271  1
  O2-  O199  1  -0.00087586  0.87388791  0.66648099  1
  O2-  O200  1  0.25089114  0.12489077  0.16213645  1
  O2-  O201  1  0.24838607  0.12471772  0.66323157  1
  O2-  O202  1  0.24850203  0.37582994  0.15816889  1
  O2-  O203  1  0.25082347  0.37575114  0.66575058  1
  O2-  O204  1  0.24837238  0.62388336  0.16140186  1
  O2-  O205  1  0.25140234  0.62526883  0.66744939  1
  O2-  O206  1  0.24752727  0.87516955  0.16176398  1
  O2-  O207  1  0.24825790  0.87456082  0.66667690  1
  O2-  O208  1  0.49891963  0.12545304  0.16633394  1
  O2-  O209  1  0.50061647  0.12402254  0.66494554  1
  O2-  O210  1  0.50161118  0.37599717  0.16181905  1
  O2-  O211  1  0.50065523  0.37697237  0.66896980  1
  O2-  O212  1  0.50174271  0.62448150  0.16566948  1
  O2-  O213  1  0.50160118  0.62540586  0.66458833  1
  O2-  O214  1  0.50255006  0.87356444  0.16285159  1
  O2-  O215  1  0.50153923  0.87399011  0.66733866  1
  O2-  O216  1  0.75114346  0.12504649  0.16838897  1
  O2-  O217  1  0.75262375  0.12405092  0.66333732  1
  O2-  O218  1  0.74875652  0.37594103  0.16476558  1
  O2-  O219  1  0.74733882  0.37659809  0.66852926  1
  O2-  O220  1  0.74648889  0.62414335  0.16843805  1
  O2-  O221  1  0.74988791  0.62530711  0.66327534  1
  O2-  O222  1  0.74702912  0.87419225  0.16546232  1
  O2-  O223  1  0.75105837  0.87408466  0.66759719  1
  O2-  O224  1  0.12441540  -0.00009393  0.34369005  1
  O2-  O225  1  0.12466577  0.00023681  0.84785826  1
  O2-  O226  1  0.12480430  0.24958179  0.34392757  1
  O2-  O227  1  0.12480508  0.25150460  0.84385627  1
  O2-  O228  1  0.12534016  0.49837703  0.34271572  1
  O2-  O229  1  0.12517788  0.49901921  0.85398447  1
  O2-  O230  1  0.12444749  0.75173922  0.34425617  1
  O2-  O231  1  0.12456206  0.74994909  0.85579218  1
  O2-  O232  1  0.37502399  -0.00028716  0.34919992  1
  O2-  O233  1  0.37442021  0.00256173  0.84568743  1
  O2-  O234  1  0.37538389  0.25144226  0.34696686  1
  O2-  O235  1  0.37464624  0.24987481  0.84158006  1
  O2-  O236  1  0.37506256  0.50003651  0.34459319  1
  O2-  O237  1  0.37493844  0.49864479  0.85028784  1
  O2-  O238  1  0.37566347  0.74840943  0.34745159  1
  O2-  O239  1  0.37515689  0.74950656  0.85215772  1
  O2-  O240  1  0.62580439  -0.00246235  0.34605110  1
  O2-  O241  1  0.62539918  -0.00143791  0.85008674  1
  O2-  O242  1  0.62474341  0.25101096  0.34943829  1
  O2-  O243  1  0.62504331  0.25312119  0.84774994  1
  O2-  O244  1  0.62566366  0.50285362  0.34776651  1
  O2-  O245  1  0.62491842  0.49940137  0.85394277  1
  O2-  O246  1  0.62515719  0.74785782  0.34586678  1
  O2-  O247  1  0.62518901  0.75001677  0.85479948  1
  O2-  O248  1  0.87492101  0.00121396  0.34933257  1
  O2-  O249  1  0.87540742  0.00272495  0.84419013  1
  O2-  O250  1  0.87530425  0.24652447  0.35012977  1
  O2-  O251  1  0.87538859  0.25070188  0.83902614  1
  O2-  O252  1  0.87420050  0.50309457  0.35010391  1
  O2-  O253  1  0.87496312  0.49711809  0.84712418  1
  O2-  O254  1  0.87468840  0.74833033  0.35068805  1
  O2-  O255  1  0.87515113  0.74992115  0.85152242  1
  O2-  O256  1  -0.00058515  0.12418876  0.34827000  1
  O2-  O257  1  0.00081404  0.12607771  0.84099852  1
  O2-  O258  1  0.00252758  0.37526668  0.34572424  1
  O2-  O259  1  0.00145554  0.37519939  0.84599129  1
  O2-  O260  1  -0.00272404  0.62520422  0.35055513  1
  O2-  O261  1  0.00354222  0.62411230  0.84755089  1
  O2-  O262  1  0.00039261  0.87477589  0.34721464  1
  O2-  O263  1  0.00317906  0.87511195  0.84906537  1
  O2-  O264  1  0.24834685  0.12480440  0.34495188  1
  O2-  O265  1  0.24928266  0.12586720  0.84426842  1
  O2-  O266  1  0.25030243  0.37486820  0.33933495  1
  O2-  O267  1  0.24850997  0.37538752  0.84934391  1
  O2-  O268  1  0.25220962  0.62512461  0.34247272  1
  O2-  O269  1  0.24758712  0.62468200  0.85217645  1
  O2-  O270  1  0.24905046  0.87491792  0.34397178  1
  O2-  O271  1  0.24680624  0.87500613  0.85040795  1
  O2-  O272  1  0.50017096  0.12462332  0.34999425  1
  O2-  O273  1  0.49840761  0.12566746  0.84742259  1
  O2-  O274  1  0.49895890  0.37631577  0.34588362  1
  O2-  O275  1  0.50087984  0.37612170  0.85107977  1
  O2-  O276  1  0.50084149  0.62421853  0.34833274  1
  O2-  O277  1  0.50248970  0.62485107  0.85045720  1
  O2-  O278  1  0.50106195  0.87404622  0.34531988  1
  O2-  O279  1  0.50243849  0.87485218  0.85123235  1
  O2-  O280  1  0.75217592  0.12471572  0.35228306  1
  O2-  O281  1  0.75147262  0.12620258  0.84581462  1
  O2-  O282  1  0.74819773  0.37521912  0.35004175  1
  O2-  O283  1  0.74916052  0.37547081  0.84959849  1
  O2-  O284  1  0.74966067  0.62541974  0.35432349  1
  O2-  O285  1  0.74650629  0.62465647  0.84757662  1
  O2-  O286  1  0.74958647  0.87336268  0.34895223  1
  O2-  O287  1  0.74743726  0.87484827  0.85053207  1
