# generated using pymatgen
data_BaYFeCuO5
_symmetry_space_group_name_H-M   'P 1'
_cell_length_a   15.68510556
_cell_length_b   15.68132389
_cell_length_c   15.52157876
_cell_angle_alpha   90.00340548
_cell_angle_beta   90.00014439
_cell_angle_gamma   89.99987817
_symmetry_Int_Tables_number   1
_chemical_formula_structural   BaYFeCuO5
_chemical_formula_sum   'Ba32 Y32 Fe32 Cu32 O160'
_cell_volume   3817.73749286
_cell_formula_units_Z   32
loop_
 _symmetry_equiv_pos_site_id
 _symmetry_equiv_pos_as_xyz
  1  'x, y, z'
loop_
 _atom_type_symbol
 _atom_type_oxidation_number
  Ba2+  2.0
  Y3+  3.0
  Fe3+  3.0
  Cu2+  2.0
  O2-  -2.0
loop_
 _atom_site_type_symbol
 _atom_site_label
 _atom_site_symmetry_multiplicity
 _atom_site_fract_x
 _atom_site_fract_y
 _atom_site_fract_z
 _atom_site_occupancy
  Ba2+  Ba0  1  0.00212000  0.00344913  0.01069039  1
  Ba2+  Ba1  1  0.00113882  0.00081040  0.52198710  1
  Ba2+  Ba2  1  -0.00825254  0.24499498  0.01396624  1
  Ba2+  Ba3  1  -0.00132492  0.25176921  0.52313127  1
  Ba2+  Ba4  1  -0.00449410  0.50601509  0.01683054  1
  Ba2+  Ba5  1  -0.00325301  0.49832198  0.50103152  1
  Ba2+  Ba6  1  0.00678649  0.74692525  0.01025447  1
  Ba2+  Ba7  1  0.00140821  0.74979409  0.49282812  1
  Ba2+  Ba8  1  0.24532155  -0.00620444  0.01434412  1
  Ba2+  Ba9  1  0.24639151  -0.00168303  0.50625102  1
  Ba2+  Ba10  1  0.25107439  0.25048515  0.01454554  1
  Ba2+  Ba11  1  0.24336469  0.24447232  0.52350802  1
  Ba2+  Ba12  1  0.24786504  0.50349823  0.01078077  1
  Ba2+  Ba13  1  0.24378263  0.50487147  0.51356257  1
  Ba2+  Ba14  1  0.24293380  0.75304312  0.01070521  1
  Ba2+  Ba15  1  0.24800524  0.75198880  0.49223917  1
  Ba2+  Ba16  1  0.50623340  -0.00369226  0.02301553  1
  Ba2+  Ba17  1  0.49403306  -0.00576359  0.50130094  1
  Ba2+  Ba18  1  0.50654413  0.25378818  0.01242665  1
  Ba2+  Ba19  1  0.50259141  0.25288908  0.51087202  1
  Ba2+  Ba20  1  0.50568766  0.49663073  0.01320270  1
  Ba2+  Ba21  1  0.50792421  0.50415197  0.51102822  1
  Ba2+  Ba22  1  0.50503384  0.75310932  0.02346332  1
  Ba2+  Ba23  1  0.50163444  0.74715740  0.50264970  1
  Ba2+  Ba24  1  0.74814693  0.00656964  0.01717207  1
  Ba2+  Ba25  1  0.75721594  -0.00380476  0.51297721  1
  Ba2+  Ba26  1  0.75190369  0.24877905  0.01216070  1
  Ba2+  Ba27  1  0.75580637  0.25844610  0.51066536  1
  Ba2+  Ba28  1  0.75027155  0.49985633  0.02132259  1
  Ba2+  Ba29  1  0.74962409  0.49856551  0.50316885  1
  Ba2+  Ba30  1  0.74578764  0.74477692  0.02347708  1
  Ba2+  Ba31  1  0.74914822  0.74595887  0.50211960  1
  Y3+  Y32  1  0.00133487  0.00061946  0.25150972  1
  Y3+  Y33  1  -0.00166980  0.00067444  0.76273231  1
  Y3+  Y34  1  -0.00298435  0.24967520  0.25375898  1
  Y3+  Y35  1  -0.00339172  0.24957663  0.75795347  1
  Y3+  Y36  1  -0.00241456  0.50123679  0.25740288  1
  Y3+  Y37  1  -0.00029660  0.49953692  0.75742509  1
  Y3+  Y38  1  0.00194371  0.74815193  0.25274360  1
  Y3+  Y39  1  0.00134792  0.75075953  0.76434068  1
  Y3+  Y40  1  0.24848923  -0.00311378  0.25406431  1
  Y3+  Y41  1  0.24876276  -0.00028880  0.75913114  1
  Y3+  Y42  1  0.24962968  0.24956528  0.25335900  1
  Y3+  Y43  1  0.24978507  0.24935320  0.75706666  1
  Y3+  Y44  1  0.24892470  0.50082578  0.25443723  1
  Y3+  Y45  1  0.24913211  0.50226315  0.75954883  1
  Y3+  Y46  1  0.24795495  0.75187837  0.25270537  1
  Y3+  Y47  1  0.24793301  0.74930867  0.76407628  1
  Y3+  Y48  1  0.50057833  -0.00286099  0.25894656  1
  Y3+  Y49  1  0.49926326  0.00043456  0.75417804  1
  Y3+  Y50  1  0.50124328  0.25104389  0.25983531  1
  Y3+  Y51  1  0.50152915  0.25137214  0.75358577  1
  Y3+  Y52  1  0.50248333  0.49934137  0.26196188  1
  Y3+  Y53  1  0.50242763  0.50122581  0.75204824  1
  Y3+  Y54  1  0.50175126  0.75145827  0.26119774  1
  Y3+  Y55  1  0.50063460  0.74752722  0.75369026  1
  Y3+  Y56  1  0.74964914  0.00063940  0.25660215  1
  Y3+  Y57  1  0.75345624  0.00125467  0.75748519  1
  Y3+  Y58  1  0.75208621  0.25120870  0.25977902  1
  Y3+  Y59  1  0.75161773  0.25201648  0.75455059  1
  Y3+  Y60  1  0.75120834  0.49966940  0.26530449  1
  Y3+  Y61  1  0.74857940  0.49859947  0.75096611  1
  Y3+  Y62  1  0.74880756  0.74756684  0.26138268  1
  Y3+  Y63  1  0.74990392  0.74914972  0.75393182  1
  Fe3+  Fe64  1  0.87735743  0.12466460  0.37647238  1
  Fe3+  Fe65  1  0.87272945  0.62447047  0.87821819  1
  Fe3+  Fe66  1  0.37677055  0.37544919  0.87657692  1
  Fe3+  Fe67  1  0.12513780  0.37338484  0.37490733  1
  Fe3+  Fe68  1  0.62489073  0.12542845  0.87462737  1
  Fe3+  Fe69  1  0.87288913  0.87452330  0.88182928  1
  Fe3+  Fe70  1  0.62567259  0.62422945  0.87556389  1
  Fe3+  Fe71  1  0.37745113  0.87491064  0.88001716  1
  Fe3+  Fe72  1  0.12512952  0.12628142  0.87809354  1
  Fe3+  Fe73  1  0.37273377  0.37473008  0.37977862  1
  Fe3+  Fe74  1  0.37713669  0.62532950  0.88124134  1
  Fe3+  Fe75  1  0.12385344  0.37512542  0.87982787  1
  Fe3+  Fe76  1  0.12367962  0.12507773  0.37337633  1
  Fe3+  Fe77  1  0.37288646  0.12516405  0.37588059  1
  Fe3+  Fe78  1  0.37366101  0.62429414  0.37551320  1
  Fe3+  Fe79  1  0.37686467  0.12461943  0.87977914  1
  Fe3+  Fe80  1  0.62617022  0.12443914  0.38005229  1
  Fe3+  Fe81  1  0.87679402  0.87638537  0.37379348  1
  Fe3+  Fe82  1  0.87284106  0.37626614  0.87731683  1
  Fe3+  Fe83  1  0.62515468  0.87454275  0.87607532  1
  Fe3+  Fe84  1  0.62567434  0.12409752  0.63294811  1
  Fe3+  Fe85  1  0.37281879  0.87325201  0.63797765  1
  Fe3+  Fe86  1  0.37363915  0.37650176  0.63428754  1
  Fe3+  Fe87  1  0.12409711  0.62719993  0.64024571  1
  Fe3+  Fe88  1  0.62627679  0.37493540  0.14311444  1
  Fe3+  Fe89  1  0.37648874  0.62482251  0.13590303  1
  Fe3+  Fe90  1  0.62575611  0.87500774  0.63453154  1
  Fe3+  Fe91  1  0.12357540  0.37485907  0.13373341  1
  Fe3+  Fe92  1  0.87424887  0.87416421  0.13481850  1
  Fe3+  Fe93  1  0.87688626  0.62647842  0.63672827  1
  Fe3+  Fe94  1  0.37627154  0.12464426  0.13451268  1
  Fe3+  Fe95  1  0.12416141  0.87326188  0.64157480  1
  Cu2+  Cu96  1  0.87321791  0.12577512  0.87317128  1
  Cu2+  Cu97  1  0.37379805  0.87492515  0.36003444  1
  Cu2+  Cu98  1  0.87724520  0.37375821  0.37219345  1
  Cu2+  Cu99  1  0.62519438  0.37563267  0.85866169  1
  Cu2+  Cu100  1  0.12549242  0.62452102  0.35778532  1
  Cu2+  Cu101  1  0.12441464  0.62347806  0.87607411  1
  Cu2+  Cu102  1  0.62637203  0.87601503  0.36685808  1
  Cu2+  Cu103  1  0.62485892  0.62476242  0.37280557  1
  Cu2+  Cu104  1  0.62508914  0.37359310  0.37482150  1
  Cu2+  Cu105  1  0.12476246  0.87616207  0.87544853  1
  Cu2+  Cu106  1  0.87625156  0.62548945  0.36304307  1
  Cu2+  Cu107  1  0.12361601  0.87584368  0.35731900  1
  Cu2+  Cu108  1  0.62645006  0.87460850  0.15688664  1
  Cu2+  Cu109  1  0.37565822  0.87434706  0.14995077  1
  Cu2+  Cu110  1  0.12517627  0.62396317  0.14228456  1
  Cu2+  Cu111  1  0.37596923  0.37552758  0.15056222  1
  Cu2+  Cu112  1  0.62464696  0.62363416  0.15858346  1
  Cu2+  Cu113  1  0.12372678  0.87495995  0.14145711  1
  Cu2+  Cu114  1  0.62564861  0.37520832  0.63979464  1
  Cu2+  Cu115  1  0.37479876  0.12390263  0.64896386  1
  Cu2+  Cu116  1  0.12548184  0.12580311  0.14586620  1
  Cu2+  Cu117  1  0.87367766  0.12466408  0.14158168  1
  Cu2+  Cu118  1  0.87486737  0.12478693  0.65202273  1
  Cu2+  Cu119  1  0.12421132  0.12396743  0.65708177  1
  Cu2+  Cu120  1  0.12488036  0.37582880  0.65417680  1
  Cu2+  Cu121  1  0.87431134  0.37557880  0.15241393  1
  Cu2+  Cu122  1  0.87658822  0.87352099  0.65428683  1
  Cu2+  Cu123  1  0.87602230  0.37705272  0.64215584  1
  Cu2+  Cu124  1  0.87385806  0.62522713  0.15417000  1
  Cu2+  Cu125  1  0.62459356  0.12597530  0.15650074  1
  Cu2+  Cu126  1  0.37312527  0.62646786  0.65050252  1
  Cu2+  Cu127  1  0.62586526  0.62630770  0.63961390  1
  O2-  O128  1  0.12683623  0.12715367  -0.00195711  1
  O2-  O129  1  0.12397898  0.12524834  0.49345044  1
  O2-  O130  1  0.12419014  0.37502164  0.00555208  1
  O2-  O131  1  0.12633828  0.37265344  0.49472385  1
  O2-  O132  1  0.12545935  0.62263316  0.00876903  1
  O2-  O133  1  0.12520078  0.62863585  0.52048327  1
  O2-  O134  1  0.12436883  0.87595736  0.00805958  1
  O2-  O135  1  0.12429055  0.87272741  0.52169127  1
  O2-  O136  1  0.37874473  0.12476671  0.00543281  1
  O2-  O137  1  0.37019679  0.12421536  0.49541107  1
  O2-  O138  1  0.37895404  0.37415501  -0.00386471  1
  O2-  O139  1  0.37064878  0.37522122  0.50568921  1
  O2-  O140  1  0.37899935  0.62477842  0.00720517  1
  O2-  O141  1  0.37103657  0.62489666  0.49545105  1
  O2-  O142  1  0.38044707  0.87593995  -0.00033225  1
  O2-  O143  1  0.37063688  0.87406540  0.51791554  1
  O2-  O144  1  0.62365580  0.12563458  -0.00524323  1
  O2-  O145  1  0.62547651  0.12334283  0.50622931  1
  O2-  O146  1  0.62581279  0.37514605  0.02227281  1
  O2-  O147  1  0.62417448  0.37352110  0.50721686  1
  O2-  O148  1  0.62496787  0.62407459  -0.00464294  1
  O2-  O149  1  0.62511110  0.62702595  0.50607816  1
  O2-  O150  1  0.62501975  0.87444034  -0.00426665  1
  O2-  O151  1  0.62537787  0.87628124  0.51430462  1
  O2-  O152  1  0.87178724  0.12491445  0.00668531  1
  O2-  O153  1  0.87952278  0.12327377  0.49624065  1
  O2-  O154  1  0.87180574  0.37657896  -0.00267056  1
  O2-  O155  1  0.87866108  0.37541216  0.50652436  1
  O2-  O156  1  0.86978443  0.62381989  -0.00202095  1
  O2-  O157  1  0.87938172  0.62749601  0.51660929  1
  O2-  O158  1  0.87088799  0.87394677  0.00751505  1
  O2-  O159  1  0.87935576  0.87718050  0.49381084  1
  O2-  O160  1  0.12543371  0.00191520  0.16260465  1
  O2-  O161  1  0.12482402  -0.00075659  0.66720620  1
  O2-  O162  1  0.12591256  0.25206932  0.15957276  1
  O2-  O163  1  0.12559507  0.24930152  0.66445688  1
  O2-  O164  1  0.12522793  0.49621283  0.16385308  1
  O2-  O165  1  0.12632489  0.50128599  0.66703028  1
  O2-  O166  1  0.12505469  0.74929812  0.16399206  1
  O2-  O167  1  0.12465663  0.75035484  0.67659978  1
  O2-  O168  1  0.37606400  0.00111695  0.16218123  1
  O2-  O169  1  0.37408443  -0.00149801  0.66713545  1
  O2-  O170  1  0.37608875  0.24847591  0.16174797  1
  O2-  O171  1  0.37420249  0.25123817  0.66224781  1
  O2-  O172  1  0.37582351  0.50138974  0.16348478  1
  O2-  O173  1  0.37287655  0.49946538  0.66313449  1
  O2-  O174  1  0.37652378  0.74841804  0.16321659  1
  O2-  O175  1  0.37438372  0.75089652  0.67127502  1
  O2-  O176  1  0.62470950  0.00071916  0.16440787  1
  O2-  O177  1  0.62542282  0.00071465  0.66426082  1
  O2-  O178  1  0.62430782  0.25069802  0.16885576  1
  O2-  O179  1  0.62442383  0.24649752  0.66188918  1
  O2-  O180  1  0.62473038  0.49915141  0.16978134  1
  O2-  O181  1  0.62448977  0.50063812  0.66270533  1
  O2-  O182  1  0.62471673  0.74867791  0.16568337  1
  O2-  O183  1  0.62480942  0.75282113  0.66567774  1
  O2-  O184  1  0.87375745  -0.00274586  0.16094638  1
  O2-  O185  1  0.87577622  -0.00055211  0.66612797  1
  O2-  O186  1  0.87368349  0.25085538  0.16336614  1
  O2-  O187  1  0.87551351  0.24947491  0.66389372  1
  O2-  O188  1  0.87449883  0.50082027  0.16681136  1
  O2-  O189  1  0.87644097  0.50275045  0.66551046  1
  O2-  O190  1  0.87358227  0.75090847  0.16350766  1
  O2-  O191  1  0.87640147  0.74959069  0.67095146  1
  O2-  O192  1  0.00096603  0.12548574  0.15955548  1
  O2-  O193  1  -0.00083343  0.12471291  0.66786038  1
  O2-  O194  1  -0.00015635  0.37469374  0.15921606  1
  O2-  O195  1  0.00187818  0.37483122  0.66900470  1
  O2-  O196  1  -0.00159044  0.62432845  0.16289162  1
  O2-  O197  1  0.00093782  0.62555416  0.67346173  1
  O2-  O198  1  -0.00332647  0.87462444  0.15978009  1
  O2-  O199  1  0.00057400  0.87600457  0.67297641  1
  O2-  O200  1  0.25272769  0.12563408  0.15847594  1
  O2-  O201  1  0.24955788  0.12504168  0.66780232  1
  O2-  O202  1  0.24932490  0.37463276  0.15907550  1
  O2-  O203  1  0.25114582  0.37459733  0.66621062  1
  O2-  O204  1  0.25353992  0.62432887  0.16065522  1
  O2-  O205  1  0.24826155  0.62555171  0.67267080  1
  O2-  O206  1  0.25058887  0.87491846  0.16279209  1
  O2-  O207  1  0.24894896  0.87492670  0.67325579  1
  O2-  O208  1  0.49847936  0.12519468  0.16657038  1
  O2-  O209  1  0.50169410  0.12425430  0.66078439  1
  O2-  O210  1  0.50073008  0.37483087  0.17067161  1
  O2-  O211  1  0.49625918  0.37527563  0.66018231  1
  O2-  O212  1  0.49915849  0.62408473  0.16508400  1
  O2-  O213  1  0.49821373  0.62553185  0.66163723  1
  O2-  O214  1  0.50198895  0.87508347  0.16747438  1
  O2-  O215  1  0.49951568  0.87575786  0.66315997  1
  O2-  O216  1  0.74789955  0.12528179  0.16830150  1
  O2-  O217  1  0.74912851  0.12398451  0.66018672  1
  O2-  O218  1  0.75027356  0.37537512  0.17047868  1
  O2-  O219  1  0.75067927  0.37510339  0.66253159  1
  O2-  O220  1  0.74893893  0.62448887  0.16830287  1
  O2-  O221  1  0.75240446  0.62647048  0.66266119  1
  O2-  O222  1  0.75094469  0.87475529  0.16464010  1
  O2-  O223  1  0.75091405  0.87564489  0.66288464  1
  O2-  O224  1  0.12531319  0.00070867  0.34483767  1
  O2-  O225  1  0.12557396  0.00283401  0.84858252  1
  O2-  O226  1  0.12597540  0.24924591  0.33949840  1
  O2-  O227  1  0.12635770  0.25180478  0.84720506  1
  O2-  O228  1  0.12645862  0.49916870  0.34705015  1
  O2-  O229  1  0.12581879  0.49641085  0.84931912  1
  O2-  O230  1  0.12513906  0.75015388  0.34804416  1
  O2-  O231  1  0.12552762  0.74978609  0.85606580  1
  O2-  O232  1  0.37458837  0.00007063  0.34629201  1
  O2-  O233  1  0.37639991  0.00171650  0.84874131  1
  O2-  O234  1  0.37389404  0.25076546  0.34522202  1
  O2-  O235  1  0.37596527  0.24878826  0.84674438  1
  O2-  O236  1  0.37344462  0.49790131  0.34691255  1
  O2-  O237  1  0.37575540  0.50132610  0.84787780  1
  O2-  O238  1  0.37383703  0.75022275  0.34728246  1
  O2-  O239  1  0.37610655  0.74858880  0.85234065  1
  O2-  O240  1  0.62448689  0.00252367  0.34846166  1
  O2-  O241  1  0.62413059  -0.00025754  0.84398139  1
  O2-  O242  1  0.62422054  0.24592017  0.35032309  1
  O2-  O243  1  0.62345291  0.25045348  0.84518758  1
  O2-  O244  1  0.62425589  0.49905090  0.35188055  1
  O2-  O245  1  0.62360229  0.50045562  0.84493299  1
  O2-  O246  1  0.62507604  0.75142780  0.35002462  1
  O2-  O247  1  0.62477478  0.74955205  0.84454293  1
  O2-  O248  1  0.87565062  0.00090738  0.34100946  1
  O2-  O249  1  0.87370401  -0.00260608  0.85072729  1
  O2-  O250  1  0.87580896  0.24723910  0.34504230  1
  O2-  O251  1  0.87363020  0.25287893  0.84639077  1
  O2-  O252  1  0.87661994  0.50152283  0.35133703  1
  O2-  O253  1  0.87437445  0.49978915  0.84440104  1
  O2-  O254  1  0.87605913  0.75041269  0.34695955  1
  O2-  O255  1  0.87331755  0.75081714  0.85151058  1
  O2-  O256  1  0.00052044  0.12467087  0.33970092  1
  O2-  O257  1  0.00122095  0.12635765  0.85112207  1
  O2-  O258  1  0.00275548  0.37500121  0.34204367  1
  O2-  O259  1  0.00033254  0.37470778  0.85098145  1
  O2-  O260  1  0.00143330  0.62506175  0.34706350  1
  O2-  O261  1  -0.00278816  0.62476525  0.85266765  1
  O2-  O262  1  -0.00007728  0.87446406  0.34111914  1
  O2-  O263  1  -0.00355065  0.87515232  0.85543979  1
  O2-  O264  1  0.24943153  0.12437198  0.34005548  1
  O2-  O265  1  0.25272718  0.12613448  0.85072268  1
  O2-  O266  1  0.25092494  0.37443158  0.34188867  1
  O2-  O267  1  0.25006784  0.37473772  0.85000541  1
  O2-  O268  1  0.25033178  0.62517228  0.34266006  1
  O2-  O269  1  0.25350801  0.62394239  0.85512469  1
  O2-  O270  1  0.24794682  0.87525047  0.34694273  1
  O2-  O271  1  0.25318501  0.87583670  0.85264060  1
  O2-  O272  1  0.49990253  0.12465371  0.35115875  1
  O2-  O273  1  0.49888119  0.12588293  0.84300011  1
  O2-  O274  1  0.49565843  0.37362052  0.35329362  1
  O2-  O275  1  0.49980892  0.37505018  0.84292617  1
  O2-  O276  1  0.49722122  0.62495275  0.34755449  1
  O2-  O277  1  0.49959259  0.62446036  0.84417329  1
  O2-  O278  1  0.50010635  0.87558532  0.35204985  1
  O2-  O279  1  0.50033192  0.87505975  0.84156303  1
  O2-  O280  1  0.75007360  0.12406432  0.35117031  1
  O2-  O281  1  0.74715518  0.12555974  0.84296373  1
  O2-  O282  1  0.75096387  0.37398880  0.35309975  1
  O2-  O283  1  0.74918562  0.37543722  0.84454787  1
  O2-  O284  1  0.75168075  0.62527665  0.35235865  1
  O2-  O285  1  0.74926937  0.62479913  0.84169234  1
  O2-  O286  1  0.75186048  0.87582171  0.34751237  1
  O2-  O287  1  0.75007535  0.87533191  0.84458449  1
