# generated using pymatgen
data_BaYFeCuO5
_symmetry_space_group_name_H-M   'P 1'
_cell_length_a   15.68044250
_cell_length_b   15.67693471
_cell_length_c   15.51295489
_cell_angle_alpha   90.00478139
_cell_angle_beta   90.00307991
_cell_angle_gamma   90.00177094
_symmetry_Int_Tables_number   1
_chemical_formula_structural   BaYFeCuO5
_chemical_formula_sum   'Ba32 Y32 Fe32 Cu32 O160'
_cell_volume   3813.41430386
_cell_formula_units_Z   32
loop_
 _symmetry_equiv_pos_site_id
 _symmetry_equiv_pos_as_xyz
  1  'x, y, z'
loop_
 _atom_type_symbol
 _atom_type_oxidation_number
  Ba2+  2.0
  Y3+  3.0
  Fe3+  3.0
  Cu2+  2.0
  O2-  -2.0
loop_
 _atom_site_type_symbol
 _atom_site_label
 _atom_site_symmetry_multiplicity
 _atom_site_fract_x
 _atom_site_fract_y
 _atom_site_fract_z
 _atom_site_occupancy
  Ba2+  Ba0  1  -0.00169405  -0.00156882  0.01848165  1
  Ba2+  Ba1  1  -0.00624535  0.00160059  0.51591145  1
  Ba2+  Ba2  1  0.00729897  0.24754271  0.00512125  1
  Ba2+  Ba3  1  0.00424603  0.24707528  0.52433016  1
  Ba2+  Ba4  1  0.00630146  0.50241213  0.00563810  1
  Ba2+  Ba5  1  0.00700307  0.50490956  0.50684758  1
  Ba2+  Ba6  1  -0.00210873  0.75248422  0.02014459  1
  Ba2+  Ba7  1  -0.00334245  0.74513021  0.50168777  1
  Ba2+  Ba8  1  0.25343070  0.00131860  0.01126315  1
  Ba2+  Ba9  1  0.24389877  0.00592506  0.51193844  1
  Ba2+  Ba10  1  0.25141487  0.24932838  0.00573036  1
  Ba2+  Ba11  1  0.24654943  0.25760314  0.52483455  1
  Ba2+  Ba12  1  0.24931373  0.49811068  0.00185493  1
  Ba2+  Ba13  1  0.24797327  0.50003824  0.51442841  1
  Ba2+  Ba14  1  0.25086338  0.75135173  0.00629169  1
  Ba2+  Ba15  1  0.24708612  0.73746930  0.50268470  1
  Ba2+  Ba16  1  0.49949230  0.00041605  0.02359474  1
  Ba2+  Ba17  1  0.50410690  0.00533717  0.50243204  1
  Ba2+  Ba18  1  0.49771550  0.24761133  0.02100145  1
  Ba2+  Ba19  1  0.50471348  0.25895437  0.50646102  1
  Ba2+  Ba20  1  0.50218721  0.50307126  0.01149176  1
  Ba2+  Ba21  1  0.50035607  0.49562223  0.51429385  1
  Ba2+  Ba22  1  0.50364882  0.74877209  0.01218475  1
  Ba2+  Ba23  1  0.49971400  0.73949911  0.50757937  1
  Ba2+  Ba24  1  0.74906416  -0.00199861  0.02828387  1
  Ba2+  Ba25  1  0.75788492  0.00175749  0.50669153  1
  Ba2+  Ba26  1  0.74542178  0.24382185  0.02273426  1
  Ba2+  Ba27  1  0.74407466  0.24989644  0.50512713  1
  Ba2+  Ba28  1  0.74425144  0.50788655  0.01586585  1
  Ba2+  Ba29  1  0.74343103  0.50051238  0.50783522  1
  Ba2+  Ba30  1  0.74760728  0.75049878  0.02343191  1
  Ba2+  Ba31  1  0.75751272  0.74771935  0.50639951  1
  Y3+  Y32  1  -0.00216615  -0.00240154  0.25867735  1
  Y3+  Y33  1  -0.00116321  0.00054495  0.75426905  1
  Y3+  Y34  1  0.00022088  0.25181116  0.25179557  1
  Y3+  Y35  1  0.00231434  0.24956132  0.76096857  1
  Y3+  Y36  1  0.00045943  0.50150718  0.25581206  1
  Y3+  Y37  1  0.00352166  0.50050288  0.75928192  1
  Y3+  Y38  1  -0.00194669  0.74888553  0.26128953  1
  Y3+  Y39  1  0.00004339  0.74935812  0.75430141  1
  Y3+  Y40  1  0.25111354  -0.00057735  0.25549951  1
  Y3+  Y41  1  0.24981065  0.00237494  0.75884750  1
  Y3+  Y42  1  0.25163006  0.25242973  0.25028049  1
  Y3+  Y43  1  0.24859300  0.25016034  0.76339104  1
  Y3+  Y44  1  0.24922412  0.49959205  0.25637324  1
  Y3+  Y45  1  0.24761462  0.50020086  0.76034874  1
  Y3+  Y46  1  0.24892914  0.74865551  0.25958040  1
  Y3+  Y47  1  0.24888514  0.74667501  0.75774004  1
  Y3+  Y48  1  0.49946901  0.00178036  0.25793906  1
  Y3+  Y49  1  0.49945346  0.00125494  0.75630529  1
  Y3+  Y50  1  0.50087868  0.25146023  0.25677580  1
  Y3+  Y51  1  0.49953521  0.25171141  0.75669661  1
  Y3+  Y52  1  0.50130468  0.49827640  0.25639827  1
  Y3+  Y53  1  0.50233236  0.50076158  0.75907665  1
  Y3+  Y54  1  0.50046724  0.74862872  0.25674038  1
  Y3+  Y55  1  0.50175348  0.74630972  0.75910154  1
  Y3+  Y56  1  0.75080637  0.00018413  0.26146563  1
  Y3+  Y57  1  0.75248697  -0.00099910  0.75109607  1
  Y3+  Y58  1  0.74660622  0.25093325  0.25909504  1
  Y3+  Y59  1  0.74995080  0.25075461  0.75406757  1
  Y3+  Y60  1  0.74843854  0.50019787  0.25668002  1
  Y3+  Y61  1  0.74681257  0.50085115  0.75736966  1
  Y3+  Y62  1  0.75228605  0.74903939  0.25927358  1
  Y3+  Y63  1  0.74950591  0.74865438  0.75503960  1
  Fe3+  Fe64  1  0.87454380  0.62655100  0.87833196  1
  Fe3+  Fe65  1  0.37337300  0.12778827  0.37953681  1
  Fe3+  Fe66  1  0.12525814  0.12744350  0.37581440  1
  Fe3+  Fe67  1  0.87317955  0.12353056  0.87680254  1
  Fe3+  Fe68  1  0.62648087  0.87619205  0.87498113  1
  Fe3+  Fe69  1  0.62442298  0.62386393  0.37632593  1
  Fe3+  Fe70  1  0.87380969  0.37490622  0.88073189  1
  Fe3+  Fe71  1  0.37374818  0.37600198  0.37575330  1
  Fe3+  Fe72  1  0.87378115  0.87499852  0.87524749  1
  Fe3+  Fe73  1  0.12339214  0.87527117  0.87551295  1
  Fe3+  Fe74  1  0.37442013  0.87436532  0.38119760  1
  Fe3+  Fe75  1  0.62522634  0.87454291  0.37943285  1
  Fe3+  Fe76  1  0.37667895  0.87495283  0.87500651  1
  Fe3+  Fe77  1  0.12482987  0.37371491  0.37471363  1
  Fe3+  Fe78  1  0.87587548  0.37537366  0.37951609  1
  Fe3+  Fe79  1  0.37691593  0.37524501  0.87716566  1
  Fe3+  Fe80  1  0.62623459  0.37372009  0.87871381  1
  Fe3+  Fe81  1  0.62558931  0.12359427  0.87550679  1
  Fe3+  Fe82  1  0.12451964  0.87551340  0.37994553  1
  Fe3+  Fe83  1  0.87680118  0.12785985  0.37564557  1
  Fe3+  Fe84  1  0.87527692  0.62319300  0.63756292  1
  Fe3+  Fe85  1  0.37527739  0.12683001  0.63428256  1
  Fe3+  Fe86  1  0.12505659  0.12399863  0.13734585  1
  Fe3+  Fe87  1  0.37475696  0.87454222  0.63259540  1
  Fe3+  Fe88  1  0.12530157  0.62595440  0.13870237  1
  Fe3+  Fe89  1  0.37461304  0.62492838  0.13877583  1
  Fe3+  Fe90  1  0.62466022  0.87400175  0.63178563  1
  Fe3+  Fe91  1  0.62522916  0.12540973  0.63455487  1
  Fe3+  Fe92  1  0.87539688  0.37586249  0.63499566  1
  Fe3+  Fe93  1  0.37492088  0.62350362  0.64028993  1
  Fe3+  Fe94  1  0.87490440  0.37552293  0.13389258  1
  Fe3+  Fe95  1  0.12552169  0.87388694  0.63352856  1
  Cu2+  Cu96  1  0.62473315  0.37572360  0.37107569  1
  Cu2+  Cu97  1  0.12405500  0.62707376  0.86543228  1
  Cu2+  Cu98  1  0.12447177  0.37499666  0.87368068  1
  Cu2+  Cu99  1  0.62436158  0.12529606  0.36481283  1
  Cu2+  Cu100  1  0.37544916  0.62518290  0.86455430  1
  Cu2+  Cu101  1  0.37703799  0.12445995  0.87325291  1
  Cu2+  Cu102  1  0.37518599  0.62350646  0.36326777  1
  Cu2+  Cu103  1  0.12436462  0.12266334  0.86377796  1
  Cu2+  Cu104  1  0.87444361  0.62260565  0.36315008  1
  Cu2+  Cu105  1  0.12503081  0.62321740  0.37194758  1
  Cu2+  Cu106  1  0.87520327  0.87510766  0.37407702  1
  Cu2+  Cu107  1  0.62644934  0.62610800  0.87334854  1
  Cu2+  Cu108  1  0.37525740  0.37641111  0.14789857  1
  Cu2+  Cu109  1  0.87519353  0.12548465  0.15265623  1
  Cu2+  Cu110  1  0.87536844  0.87356549  0.63840433  1
  Cu2+  Cu111  1  0.87501644  0.62465695  0.15182678  1
  Cu2+  Cu112  1  0.12482523  0.62497841  0.64319625  1
  Cu2+  Cu113  1  0.62514555  0.37545646  0.14855525  1
  Cu2+  Cu114  1  0.12518610  0.87432690  0.15519153  1
  Cu2+  Cu115  1  0.87463437  0.87468818  0.15738277  1
  Cu2+  Cu116  1  0.12448514  0.37542073  0.65680357  1
  Cu2+  Cu117  1  0.62453360  0.62550776  0.14560319  1
  Cu2+  Cu118  1  0.62469981  0.87484182  0.15873139  1
  Cu2+  Cu119  1  0.62543906  0.37496958  0.64187344  1
  Cu2+  Cu120  1  0.62495127  0.12461260  0.15805042  1
  Cu2+  Cu121  1  0.37490916  0.87364737  0.15590760  1
  Cu2+  Cu122  1  0.12520936  0.37621564  0.13845387  1
  Cu2+  Cu123  1  0.62506749  0.62484825  0.64986768  1
  Cu2+  Cu124  1  0.37477967  0.37526188  0.65453408  1
  Cu2+  Cu125  1  0.37433754  0.12497379  0.14236856  1
  Cu2+  Cu126  1  0.87501175  0.12668368  0.65029598  1
  Cu2+  Cu127  1  0.12566143  0.12468888  0.65450286  1
  O2-  O128  1  0.12517074  0.12040774  0.01688952  1
  O2-  O129  1  0.12577344  0.12956007  0.49560872  1
  O2-  O130  1  0.12392859  0.37552226  0.00617281  1
  O2-  O131  1  0.12455778  0.37299509  0.49448983  1
  O2-  O132  1  0.12541264  0.62881329  0.01828037  1
  O2-  O133  1  0.12509518  0.62343324  0.50732332  1
  O2-  O134  1  0.12324395  0.87582851  -0.00457379  1
  O2-  O135  1  0.12542007  0.87487125  0.50637826  1
  O2-  O136  1  0.37640336  0.12310022  0.00673080  1
  O2-  O137  1  0.37293578  0.12857571  0.50642058  1
  O2-  O138  1  0.37805565  0.37449869  -0.00269815  1
  O2-  O139  1  0.37209012  0.37505694  0.49562071  1
  O2-  O140  1  0.37444849  0.62754763  0.01874519  1
  O2-  O141  1  0.37468486  0.62212633  0.51949018  1
  O2-  O142  1  0.37765581  0.87591738  -0.00511010  1
  O2-  O143  1  0.37350075  0.87451818  0.50684951  1
  O2-  O144  1  0.62605709  0.12146389  -0.00458086  1
  O2-  O145  1  0.62377489  0.12649688  0.51433345  1
  O2-  O146  1  0.62663890  0.37266626  -0.00139015  1
  O2-  O147  1  0.62558488  0.37569873  0.50664859  1
  O2-  O148  1  0.62548245  0.62749965  0.00726463  1
  O2-  O149  1  0.62382425  0.62315035  0.49690803  1
  O2-  O150  1  0.62576840  0.87742957  -0.00526931  1
  O2-  O151  1  0.62466120  0.87400996  0.50543976  1
  O2-  O152  1  0.87138383  0.12130759  -0.00364391  1
  O2-  O153  1  0.87801189  0.12915145  0.49575181  1
  O2-  O154  1  0.87287843  0.37421578  0.00641171  1
  O2-  O155  1  0.87717237  0.37471748  0.50686960  1
  O2-  O156  1  0.87369616  0.62909555  -0.00156454  1
  O2-  O157  1  0.87580829  0.62086903  0.51721646  1
  O2-  O158  1  0.87278897  0.87574265  -0.00516297  1
  O2-  O159  1  0.87598574  0.87493074  0.50601771  1
  O2-  O160  1  0.12461542  -0.00088984  0.16958144  1
  O2-  O161  1  0.12624585  -0.00136051  0.65823091  1
  O2-  O162  1  0.12491773  0.24867822  0.16060042  1
  O2-  O163  1  0.12458981  0.24982757  0.66740029  1
  O2-  O164  1  0.12432924  0.50247179  0.16508724  1
  O2-  O165  1  0.12513514  0.49885312  0.66765385  1
  O2-  O166  1  0.12462981  0.74998503  0.17060376  1
  O2-  O167  1  0.12639659  0.75268145  0.66268370  1
  O2-  O168  1  0.37532133  -0.00230679  0.16982183  1
  O2-  O169  1  0.37478088  0.00047557  0.65645678  1
  O2-  O170  1  0.37535296  0.25251172  0.16241460  1
  O2-  O171  1  0.37518252  0.24934234  0.66263725  1
  O2-  O172  1  0.37535513  0.50042375  0.16487877  1
  O2-  O173  1  0.37504440  0.49933736  0.66854261  1
  O2-  O174  1  0.37478962  0.74941414  0.17098297  1
  O2-  O175  1  0.37543207  0.75132371  0.66396667  1
  O2-  O176  1  0.62435825  -0.00042735  0.16936375  1
  O2-  O177  1  0.62423939  -0.00085929  0.65895611  1
  O2-  O178  1  0.62518486  0.24959610  0.16421658  1
  O2-  O179  1  0.62516929  0.24778811  0.66545296  1
  O2-  O180  1  0.62532308  0.49972440  0.16380076  1
  O2-  O181  1  0.62508776  0.50081206  0.66712809  1
  O2-  O182  1  0.62497332  0.75116703  0.16860694  1
  O2-  O183  1  0.62374298  0.75175993  0.66146929  1
  O2-  O184  1  0.87483950  -0.00009151  0.16713349  1
  O2-  O185  1  0.87536619  0.00184548  0.65850234  1
  O2-  O186  1  0.87435925  0.25174464  0.16138487  1
  O2-  O187  1  0.87616540  0.25217754  0.66563721  1
  O2-  O188  1  0.87426156  0.49840003  0.16283211  1
  O2-  O189  1  0.87507828  0.49857744  0.66964964  1
  O2-  O190  1  0.87452386  0.75014566  0.16759291  1
  O2-  O191  1  0.87470994  0.74711891  0.66369223  1
  O2-  O192  1  0.00022334  0.12436359  0.16392816  1
  O2-  O193  1  0.00034319  0.12530188  0.66434322  1
  O2-  O194  1  -0.00322167  0.37543527  0.16307126  1
  O2-  O195  1  -0.00113125  0.37494015  0.66549818  1
  O2-  O196  1  0.00011125  0.62615754  0.16672050  1
  O2-  O197  1  -0.00120087  0.62392301  0.66692127  1
  O2-  O198  1  -0.00087573  0.87454430  0.16601624  1
  O2-  O199  1  0.00318349  0.87523254  0.66165908  1
  O2-  O200  1  0.24817180  0.12352873  0.16715471  1
  O2-  O201  1  0.25243229  0.12546456  0.66494754  1
  O2-  O202  1  0.25163272  0.37586600  0.16219016  1
  O2-  O203  1  0.24898098  0.37447059  0.66645271  1
  O2-  O204  1  0.24979529  0.62609608  0.17003703  1
  O2-  O205  1  0.25145280  0.62455481  0.66835274  1
  O2-  O206  1  0.25032291  0.87467144  0.16758160  1
  O2-  O207  1  0.25092136  0.87606975  0.66190803  1
  O2-  O208  1  0.50077230  0.12454694  0.16851825  1
  O2-  O209  1  0.49859738  0.12456244  0.66134345  1
  O2-  O210  1  0.50028286  0.37495067  0.16506839  1
  O2-  O211  1  0.49927187  0.37493488  0.66295668  1
  O2-  O212  1  0.49852838  0.62570166  0.16717015  1
  O2-  O213  1  0.49998655  0.62464892  0.66606708  1
  O2-  O214  1  0.50015422  0.87523641  0.16922082  1
  O2-  O215  1  0.49920408  0.87590943  0.65797716  1
  O2-  O216  1  0.75020806  0.12483026  0.16702659  1
  O2-  O217  1  0.74962936  0.12523408  0.65983085  1
  O2-  O218  1  0.75143741  0.37483017  0.16581380  1
  O2-  O219  1  0.75297946  0.37502063  0.66131739  1
  O2-  O220  1  0.75094500  0.62520440  0.16642498  1
  O2-  O221  1  0.74971939  0.62417260  0.66260454  1
  O2-  O222  1  0.74978022  0.87532135  0.16823824  1
  O2-  O223  1  0.74693205  0.87491826  0.65805270  1
  O2-  O224  1  0.12621471  -0.00009716  0.35176523  1
  O2-  O225  1  0.12480401  -0.00172053  0.84094322  1
  O2-  O226  1  0.12523161  0.25036882  0.33909986  1
  O2-  O227  1  0.12468648  0.24752973  0.85189225  1
  O2-  O228  1  0.12430961  0.49727401  0.34570931  1
  O2-  O229  1  0.12416553  0.50261888  0.85179010  1
  O2-  O230  1  0.12513007  0.75224671  0.35380049  1
  O2-  O231  1  0.12472808  0.75144668  0.84413498  1
  O2-  O232  1  0.37438390  0.00006767  0.35480644  1
  O2-  O233  1  0.37528279  -0.00265044  0.83956865  1
  O2-  O234  1  0.37465735  0.24963149  0.34490669  1
  O2-  O235  1  0.37540109  0.25209908  0.84553256  1
  O2-  O236  1  0.37467064  0.49953246  0.34613366  1
  O2-  O237  1  0.37530939  0.50040757  0.85074439  1
  O2-  O238  1  0.37479974  0.75109359  0.35501308  1
  O2-  O239  1  0.37534867  0.75019493  0.84582001  1
  O2-  O240  1  0.62415570  -0.00152804  0.35332352  1
  O2-  O241  1  0.62556259  -0.00035486  0.83791693  1
  O2-  O242  1  0.62400027  0.24934718  0.34835588  1
  O2-  O243  1  0.62619202  0.24984878  0.84476016  1
  O2-  O244  1  0.62530087  0.50145353  0.34535119  1
  O2-  O245  1  0.62632694  0.49780112  0.85006957  1
  O2-  O246  1  0.62410581  0.75078279  0.35077427  1
  O2-  O247  1  0.62550392  0.75240241  0.84403024  1
  O2-  O248  1  0.87494249  0.00304861  0.34966642  1
  O2-  O249  1  0.87461233  -0.00046865  0.83961497  1
  O2-  O250  1  0.87541892  0.25211319  0.34381291  1
  O2-  O251  1  0.87474008  0.25052882  0.84915364  1
  O2-  O252  1  0.87492715  0.49718750  0.34758195  1
  O2-  O253  1  0.87525799  0.49884044  0.85241515  1
  O2-  O254  1  0.87505949  0.74755015  0.35215276  1
  O2-  O255  1  0.87496907  0.75078210  0.84253339  1
  O2-  O256  1  0.00104428  0.12585549  0.34311070  1
  O2-  O257  1  -0.00142901  0.12440441  0.84808060  1
  O2-  O258  1  -0.00093657  0.37484948  0.34548769  1
  O2-  O259  1  -0.00328800  0.37443945  0.85035181  1
  O2-  O260  1  -0.00165160  0.62369477  0.34948133  1
  O2-  O261  1  -0.00129188  0.62536631  0.84776940  1
  O2-  O262  1  0.00290364  0.87541993  0.35021046  1
  O2-  O263  1  -0.00133416  0.87534161  0.84270859  1
  O2-  O264  1  0.25118892  0.12474555  0.34762954  1
  O2-  O265  1  0.24856129  0.12361129  0.84998440  1
  O2-  O266  1  0.24967178  0.37470401  0.34272870  1
  O2-  O267  1  0.25141480  0.37549215  0.85027988  1
  O2-  O268  1  0.25143881  0.62488965  0.35065393  1
  O2-  O269  1  0.24953573  0.62615136  0.85143164  1
  O2-  O270  1  0.25023919  0.87516508  0.35208231  1
  O2-  O271  1  0.25003490  0.87457233  0.84512479  1
  O2-  O272  1  0.49669290  0.12468021  0.35293856  1
  O2-  O273  1  0.50325838  0.12458310  0.84142439  1
  O2-  O274  1  0.49801659  0.37486130  0.34831330  1
  O2-  O275  1  0.50179515  0.37516616  0.84439819  1
  O2-  O276  1  0.50026571  0.62545538  0.34843509  1
  O2-  O277  1  0.49955876  0.62534537  0.84894337  1
  O2-  O278  1  0.49917374  0.87553419  0.35395796  1
  O2-  O279  1  0.50108021  0.87487861  0.83988839  1
  O2-  O280  1  0.75082384  0.12655653  0.35025868  1
  O2-  O281  1  0.74998810  0.12497995  0.83926623  1
  O2-  O282  1  0.75251736  0.37435941  0.35121868  1
  O2-  O283  1  0.75121263  0.37449003  0.84350795  1
  O2-  O284  1  0.74920754  0.62453377  0.34909058  1
  O2-  O285  1  0.75278307  0.62486386  0.84331240  1
  O2-  O286  1  0.74710354  0.87485497  0.35211057  1
  O2-  O287  1  0.75041592  0.87523271  0.83855130  1
