# generated using pymatgen
data_BaYFeCuO5
_symmetry_space_group_name_H-M   'P 1'
_cell_length_a   15.66829623
_cell_length_b   15.66806466
_cell_length_c   15.48067441
_cell_angle_alpha   90.00196845
_cell_angle_beta   90.00244003
_cell_angle_gamma   89.99780762
_symmetry_Int_Tables_number   1
_chemical_formula_structural   BaYFeCuO5
_chemical_formula_sum   'Ba32 Y32 Fe32 Cu32 O160'
_cell_volume   3800.37983043
_cell_formula_units_Z   32
loop_
 _symmetry_equiv_pos_site_id
 _symmetry_equiv_pos_as_xyz
  1  'x, y, z'
loop_
 _atom_type_symbol
 _atom_type_oxidation_number
  Ba2+  2.0
  Y3+  3.0
  Fe3+  3.0
  Cu2+  2.0
  O2-  -2.0
loop_
 _atom_site_type_symbol
 _atom_site_label
 _atom_site_symmetry_multiplicity
 _atom_site_fract_x
 _atom_site_fract_y
 _atom_site_fract_z
 _atom_site_occupancy
  Ba2+  Ba0  1  -0.00304704  -0.00547881  0.01829860  1
  Ba2+  Ba1  1  0.00387819  0.00582514  0.50120265  1
  Ba2+  Ba2  1  -0.00368638  0.25462010  0.01692306  1
  Ba2+  Ba3  1  0.00057185  0.25056219  0.50583844  1
  Ba2+  Ba4  1  -0.00129613  0.49416390  0.00677073  1
  Ba2+  Ba5  1  -0.00331779  0.49471623  0.51228627  1
  Ba2+  Ba6  1  -0.00060318  0.75630386  0.00668284  1
  Ba2+  Ba7  1  -0.00035131  0.74918901  0.50713449  1
  Ba2+  Ba8  1  0.24983183  -0.01149108  0.00681314  1
  Ba2+  Ba9  1  0.24789807  0.00726076  0.51418261  1
  Ba2+  Ba10  1  0.24764144  0.25927516  0.01014522  1
  Ba2+  Ba11  1  0.25276991  0.25202396  0.52287291  1
  Ba2+  Ba12  1  0.25419537  0.49825348  0.01174270  1
  Ba2+  Ba13  1  0.25704494  0.49229420  0.51695592  1
  Ba2+  Ba14  1  0.25593757  0.75453473  0.00683280  1
  Ba2+  Ba15  1  0.25123027  0.74940312  0.50659200  1
  Ba2+  Ba16  1  0.50528105  -0.00359561  0.01121002  1
  Ba2+  Ba17  1  0.50322483  0.00588232  0.52275750  1
  Ba2+  Ba18  1  0.50949692  0.25258006  0.00925679  1
  Ba2+  Ba19  1  0.49799088  0.25241942  0.52297894  1
  Ba2+  Ba20  1  0.49681355  0.49674089  0.01171603  1
  Ba2+  Ba21  1  0.49679906  0.49522440  0.51260925  1
  Ba2+  Ba22  1  0.49219338  0.75320099  0.01080565  1
  Ba2+  Ba23  1  0.50339105  0.74481835  0.51218286  1
  Ba2+  Ba24  1  0.74838805  0.00228457  0.02137625  1
  Ba2+  Ba25  1  0.74484790  0.00477085  0.51125637  1
  Ba2+  Ba26  1  0.74650656  0.24909237  0.01573866  1
  Ba2+  Ba27  1  0.74918887  0.25070171  0.50483437  1
  Ba2+  Ba28  1  0.75088214  0.49336702  0.00728056  1
  Ba2+  Ba29  1  0.74782214  0.49837477  0.50643387  1
  Ba2+  Ba30  1  0.75317753  0.75468173  0.01387678  1
  Ba2+  Ba31  1  0.74493268  0.74559783  0.51166913  1
  Y3+  Y32  1  0.00013979  -0.00046166  0.25700778  1
  Y3+  Y33  1  0.00202510  -0.00026553  0.75829374  1
  Y3+  Y34  1  -0.00306446  0.25105194  0.25612235  1
  Y3+  Y35  1  0.00275466  0.25098411  0.75827931  1
  Y3+  Y36  1  0.00001739  0.49708921  0.25585029  1
  Y3+  Y37  1  0.00027441  0.50001999  0.75944599  1
  Y3+  Y38  1  0.00231541  0.75240012  0.25784766  1
  Y3+  Y39  1  -0.00019692  0.74849794  0.75857057  1
  Y3+  Y40  1  0.24934964  -0.00304937  0.25481209  1
  Y3+  Y41  1  0.25017124  -0.00077736  0.76074859  1
  Y3+  Y42  1  0.25151133  0.25375973  0.25422856  1
  Y3+  Y43  1  0.24950503  0.25123918  0.75798033  1
  Y3+  Y44  1  0.25292726  0.49818047  0.25418887  1
  Y3+  Y45  1  0.25129426  0.49873752  0.75990552  1
  Y3+  Y46  1  0.25098065  0.75166828  0.25375300  1
  Y3+  Y47  1  0.25186717  0.75000554  0.76214073  1
  Y3+  Y48  1  0.50047133  -0.00027687  0.25191202  1
  Y3+  Y49  1  0.50111490  0.00123070  0.76002073  1
  Y3+  Y50  1  0.50056950  0.25267154  0.25244944  1
  Y3+  Y51  1  0.50241842  0.25032484  0.75988475  1
  Y3+  Y52  1  0.49824470  0.49860324  0.25494459  1
  Y3+  Y53  1  0.49850818  0.49874292  0.75990626  1
  Y3+  Y54  1  0.49803638  0.74983038  0.25393892  1
  Y3+  Y55  1  0.49785320  0.74898685  0.76014309  1
  Y3+  Y56  1  0.75016922  0.00217392  0.25599568  1
  Y3+  Y57  1  0.74680093  0.00178022  0.75632575  1
  Y3+  Y58  1  0.75038537  0.25030506  0.25426030  1
  Y3+  Y59  1  0.74580162  0.25004080  0.75988968  1
  Y3+  Y60  1  0.74860341  0.49784431  0.25650133  1
  Y3+  Y61  1  0.75002243  0.50011321  0.75959815  1
  Y3+  Y62  1  0.74850913  0.75046856  0.25855286  1
  Y3+  Y63  1  0.75077597  0.74753950  0.75651728  1
  Fe3+  Fe64  1  0.12609226  0.62385220  0.37924870  1
  Fe3+  Fe65  1  0.62296660  0.12597779  0.37405237  1
  Fe3+  Fe66  1  0.37540095  0.62397336  0.37621658  1
  Fe3+  Fe67  1  0.12420625  0.12472490  0.88093734  1
  Fe3+  Fe68  1  0.87447577  0.12442805  0.87876653  1
  Fe3+  Fe69  1  0.12642377  0.37508324  0.37617303  1
  Fe3+  Fe70  1  0.87465668  0.37354435  0.87639918  1
  Fe3+  Fe71  1  0.87396032  0.87623915  0.87400871  1
  Fe3+  Fe72  1  0.12703296  0.12678896  0.37314369  1
  Fe3+  Fe73  1  0.12521344  0.62478564  0.88007489  1
  Fe3+  Fe74  1  0.37547905  0.87684347  0.38002185  1
  Fe3+  Fe75  1  0.87430996  0.87579479  0.37956057  1
  Fe3+  Fe76  1  0.37555518  0.12474549  0.88020332  1
  Fe3+  Fe77  1  0.37551226  0.37412959  0.87676710  1
  Fe3+  Fe78  1  0.37571021  0.12664831  0.37504314  1
  Fe3+  Fe79  1  0.87461524  0.62431805  0.37754656  1
  Fe3+  Fe80  1  0.62331510  0.37484447  0.37548263  1
  Fe3+  Fe81  1  0.62516068  0.62500985  0.88106890  1
  Fe3+  Fe82  1  0.62317373  0.87545870  0.37669949  1
  Fe3+  Fe83  1  0.62614723  0.87463000  0.87584521  1
  Fe3+  Fe84  1  0.37478452  0.12516637  0.13199944  1
  Fe3+  Fe85  1  0.12524146  0.12521235  0.13397390  1
  Fe3+  Fe86  1  0.62408394  0.62317129  0.64047262  1
  Fe3+  Fe87  1  0.12597552  0.62413577  0.63589784  1
  Fe3+  Fe88  1  0.37543298  0.87491396  0.63607969  1
  Fe3+  Fe89  1  0.12514894  0.62512767  0.13500529  1
  Fe3+  Fe90  1  0.87539301  0.12555954  0.63726023  1
  Fe3+  Fe91  1  0.62485251  0.62526656  0.13491015  1
  Fe3+  Fe92  1  0.87569581  0.62515131  0.13721834  1
  Fe3+  Fe93  1  0.87406946  0.37440102  0.63897004  1
  Fe3+  Fe94  1  0.12495039  0.87499253  0.63744819  1
  Fe3+  Fe95  1  0.87439549  0.87523172  0.63371438  1
  Cu2+  Cu96  1  0.62540757  0.37546670  0.87297265  1
  Cu2+  Cu97  1  0.12469024  0.37490551  0.87353981  1
  Cu2+  Cu98  1  0.12411265  0.87476948  0.87248184  1
  Cu2+  Cu99  1  0.37627099  0.87571401  0.87064633  1
  Cu2+  Cu100  1  0.12612380  0.87515786  0.36666585  1
  Cu2+  Cu101  1  0.37537457  0.37374414  0.37048657  1
  Cu2+  Cu102  1  0.87453432  0.37506448  0.36233900  1
  Cu2+  Cu103  1  0.62583511  0.12437443  0.87378396  1
  Cu2+  Cu104  1  0.62368997  0.62463158  0.36062740  1
  Cu2+  Cu105  1  0.87440300  0.12529794  0.36261190  1
  Cu2+  Cu106  1  0.37532315  0.62453438  0.87454146  1
  Cu2+  Cu107  1  0.87487894  0.62520249  0.86737242  1
  Cu2+  Cu108  1  0.87551098  0.62429015  0.64955299  1
  Cu2+  Cu109  1  0.12455306  0.37601811  0.14078388  1
  Cu2+  Cu110  1  0.62537226  0.87401036  0.15109375  1
  Cu2+  Cu111  1  0.37563294  0.37465167  0.64675257  1
  Cu2+  Cu112  1  0.12451537  0.37512649  0.65266304  1
  Cu2+  Cu113  1  0.87550908  0.12504638  0.14993241  1
  Cu2+  Cu114  1  0.87428654  0.37589368  0.15153394  1
  Cu2+  Cu115  1  0.62537303  0.37632642  0.14098277  1
  Cu2+  Cu116  1  0.62549930  0.12608012  0.65365192  1
  Cu2+  Cu117  1  0.37493779  0.12439927  0.65620945  1
  Cu2+  Cu118  1  0.62465234  0.87401468  0.65068279  1
  Cu2+  Cu119  1  0.37471718  0.62521150  0.14075447  1
  Cu2+  Cu120  1  0.12492446  0.87421890  0.14204308  1
  Cu2+  Cu121  1  0.37553272  0.37442019  0.14728601  1
  Cu2+  Cu122  1  0.87471376  0.87418219  0.15653057  1
  Cu2+  Cu123  1  0.12457974  0.12493701  0.65481159  1
  Cu2+  Cu124  1  0.62475918  0.12537436  0.14098202  1
  Cu2+  Cu125  1  0.62542465  0.37552277  0.65351332  1
  Cu2+  Cu126  1  0.37509308  0.87599607  0.14294074  1
  Cu2+  Cu127  1  0.37434369  0.62499118  0.65247401  1
  O2-  O128  1  0.12285804  0.12385675  0.00691136  1
  O2-  O129  1  0.12752272  0.12758933  0.49372625  1
  O2-  O130  1  0.12347040  0.37578569  0.00665652  1
  O2-  O131  1  0.12620105  0.37431205  0.49647794  1
  O2-  O132  1  0.12358261  0.62603754  0.00770312  1
  O2-  O133  1  0.12616764  0.62353046  0.50699267  1
  O2-  O134  1  0.12326836  0.87410089  0.00789312  1
  O2-  O135  1  0.12576548  0.87575591  0.51725105  1
  O2-  O136  1  0.37509696  0.12432653  0.00580391  1
  O2-  O137  1  0.37526883  0.12597759  0.49507004  1
  O2-  O138  1  0.37527042  0.37408751  -0.00218363  1
  O2-  O139  1  0.37553743  0.37336341  0.50787242  1
  O2-  O140  1  0.37473672  0.62551272  0.00702206  1
  O2-  O141  1  0.37494265  0.62458596  0.49679776  1
  O2-  O142  1  0.37596116  0.87636063  0.00650216  1
  O2-  O143  1  0.37544763  0.87624578  0.50698107  1
  O2-  O144  1  0.62636983  0.12340008  0.00693309  1
  O2-  O145  1  0.62232151  0.12646897  0.49448077  1
  O2-  O146  1  0.62672151  0.37636200  0.00703571  1
  O2-  O147  1  0.62357603  0.37412247  0.49605271  1
  O2-  O148  1  0.62653675  0.62670759  0.00791911  1
  O2-  O149  1  0.62432862  0.62312518  0.51945004  1
  O2-  O150  1  0.62848351  0.87450559  -0.00382045  1
  O2-  O151  1  0.62249235  0.87567651  0.49661204  1
  O2-  O152  1  0.87545363  0.12298691  -0.00114753  1
  O2-  O153  1  0.87567231  0.12586120  0.51694853  1
  O2-  O154  1  0.87453405  0.37356240  -0.00256036  1
  O2-  O155  1  0.87438278  0.37451854  0.51812399  1
  O2-  O156  1  0.87611762  0.62715619  0.01710511  1
  O2-  O157  1  0.87463255  0.62401331  0.49800148  1
  O2-  O158  1  0.87306513  0.87631840  -0.00551458  1
  O2-  O159  1  0.87501905  0.87569277  0.50646818  1
  O2-  O160  1  0.12437266  0.00292506  0.16370142  1
  O2-  O161  1  0.12536455  -0.00115023  0.66657163  1
  O2-  O162  1  0.12477952  0.24778241  0.15981672  1
  O2-  O163  1  0.12490711  0.24973801  0.66562481  1
  O2-  O164  1  0.12436573  0.50283573  0.16353972  1
  O2-  O165  1  0.12522070  0.50159124  0.66466486  1
  O2-  O166  1  0.12459182  0.74699138  0.16783395  1
  O2-  O167  1  0.12497857  0.74922256  0.66494194  1
  O2-  O168  1  0.37436222  0.00315775  0.16461084  1
  O2-  O169  1  0.37472448  -0.00140858  0.66360171  1
  O2-  O170  1  0.37423929  0.24851034  0.15989231  1
  O2-  O171  1  0.37477999  0.24800443  0.66749786  1
  O2-  O172  1  0.37507838  0.49841927  0.16320979  1
  O2-  O173  1  0.37425909  0.50081171  0.66700223  1
  O2-  O174  1  0.37455142  0.75080089  0.16688578  1
  O2-  O175  1  0.37458648  0.75185579  0.66374734  1
  O2-  O176  1  0.62559927  -0.00187984  0.16369030  1
  O2-  O177  1  0.62502857  -0.00028170  0.66220337  1
  O2-  O178  1  0.62565298  0.25080524  0.16196377  1
  O2-  O179  1  0.62475930  0.25082167  0.66612265  1
  O2-  O180  1  0.62538067  0.50343833  0.16335929  1
  O2-  O181  1  0.62486531  0.50039642  0.67057563  1
  O2-  O182  1  0.62568101  0.74859398  0.16464452  1
  O2-  O183  1  0.62453649  0.74844078  0.66676601  1
  O2-  O184  1  0.87546538  -0.00141835  0.16603338  1
  O2-  O185  1  0.87443624  -0.00126230  0.66231737  1
  O2-  O186  1  0.87489887  0.25117212  0.16298479  1
  O2-  O187  1  0.87561928  0.24983790  0.66801180  1
  O2-  O188  1  0.87524156  0.50115516  0.16483700  1
  O2-  O189  1  0.87576116  0.49914056  0.66811434  1
  O2-  O190  1  0.87538492  0.74928716  0.16911043  1
  O2-  O191  1  0.87557667  0.75149968  0.66144605  1
  O2-  O192  1  0.00117166  0.12488931  0.16425525  1
  O2-  O193  1  -0.00052920  0.12408441  0.66746596  1
  O2-  O194  1  -0.00176453  0.37547346  0.16589653  1
  O2-  O195  1  -0.00038489  0.37537023  0.66582589  1
  O2-  O196  1  0.00092042  0.62554232  0.16801728  1
  O2-  O197  1  0.00241338  0.62508401  0.66366655  1
  O2-  O198  1  -0.00136252  0.87459352  0.16798734  1
  O2-  O199  1  -0.00113020  0.87461676  0.66396890  1
  O2-  O200  1  0.24980761  0.12515813  0.15845943  1
  O2-  O201  1  0.24912369  0.12431328  0.66756664  1
  O2-  O202  1  0.25140777  0.37565116  0.16243733  1
  O2-  O203  1  0.24852163  0.37453041  0.66663681  1
  O2-  O204  1  0.24770746  0.62500291  0.16312775  1
  O2-  O205  1  0.24860191  0.62547097  0.66454749  1
  O2-  O206  1  0.25017797  0.87499346  0.16620520  1
  O2-  O207  1  0.25097738  0.87507111  0.66604473  1
  O2-  O208  1  0.49722509  0.12480303  0.15935053  1
  O2-  O209  1  0.50098050  0.12453294  0.66640166  1
  O2-  O210  1  0.49899323  0.37543795  0.16199500  1
  O2-  O211  1  0.50169873  0.37523962  0.66674492  1
  O2-  O212  1  0.50207969  0.62592241  0.16133572  1
  O2-  O213  1  0.49900435  0.62486766  0.66752132  1
  O2-  O214  1  0.50136552  0.87488458  0.16310882  1
  O2-  O215  1  0.49816376  0.87477501  0.66304378  1
  O2-  O216  1  0.75154866  0.12453936  0.16557924  1
  O2-  O217  1  0.75036386  0.12504317  0.66482345  1
  O2-  O218  1  0.75116194  0.37605032  0.16591414  1
  O2-  O219  1  0.75011447  0.37551734  0.66590927  1
  O2-  O220  1  0.74950583  0.62620984  0.16544052  1
  O2-  O221  1  0.74966406  0.62475205  0.66693653  1
  O2-  O222  1  0.75028022  0.87409544  0.16676413  1
  O2-  O223  1  0.75137525  0.87394205  0.65869205  1
  O2-  O224  1  0.12525348  0.00085299  0.34699115  1
  O2-  O225  1  0.12502856  0.00259065  0.84914556  1
  O2-  O226  1  0.12454424  0.25073937  0.34096040  1
  O2-  O227  1  0.12505664  0.24659265  0.84998613  1
  O2-  O228  1  0.12472413  0.50102448  0.34645978  1
  O2-  O229  1  0.12430878  0.50277924  0.84968948  1
  O2-  O230  1  0.12543901  0.74826497  0.35303428  1
  O2-  O231  1  0.12423985  0.74723853  0.84858825  1
  O2-  O232  1  0.37431710  -0.00085891  0.34698495  1
  O2-  O233  1  0.37505853  0.00284002  0.84783359  1
  O2-  O234  1  0.37511375  0.24861088  0.34146883  1
  O2-  O235  1  0.37442905  0.24830389  0.84968376  1
  O2-  O236  1  0.37476869  0.50117272  0.34619132  1
  O2-  O237  1  0.37481089  0.49787937  0.84921792  1
  O2-  O238  1  0.37478478  0.75171887  0.35015148  1
  O2-  O239  1  0.37493251  0.75025498  0.84833503  1
  O2-  O240  1  0.62484056  0.00005994  0.34451994  1
  O2-  O241  1  0.62526053  -0.00205855  0.84532507  1
  O2-  O242  1  0.62523314  0.25002599  0.34250276  1
  O2-  O243  1  0.62524920  0.25020948  0.85046824  1
  O2-  O244  1  0.62505767  0.49995533  0.34636169  1
  O2-  O245  1  0.62561817  0.50279393  0.85294562  1
  O2-  O246  1  0.62413464  0.75064631  0.34816267  1
  O2-  O247  1  0.62619451  0.74858433  0.84816613  1
  O2-  O248  1  0.87524102  -0.00204940  0.35085862  1
  O2-  O249  1  0.87521714  0.00039551  0.84200215  1
  O2-  O250  1  0.87491555  0.25031383  0.34800566  1
  O2-  O251  1  0.87556326  0.24880607  0.84692373  1
  O2-  O252  1  0.87527155  0.50120574  0.34660066  1
  O2-  O253  1  0.87560579  0.49962605  0.85091481  1
  O2-  O254  1  0.87538185  0.75137113  0.35105856  1
  O2-  O255  1  0.87506904  0.75066116  0.84590087  1
  O2-  O256  1  0.00058432  0.12488484  0.34834567  1
  O2-  O257  1  0.00067658  0.12427110  0.84889569  1
  O2-  O258  1  0.00050072  0.37514032  0.34913170  1
  O2-  O259  1  -0.00190934  0.37509340  0.84719087  1
  O2-  O260  1  0.00156470  0.62594345  0.35083076  1
  O2-  O261  1  0.00149987  0.62550194  0.84926741  1
  O2-  O262  1  -0.00138909  0.87502113  0.35270859  1
  O2-  O263  1  -0.00225950  0.87454893  0.84529356  1
  O2-  O264  1  0.25063150  0.12479391  0.33974453  1
  O2-  O265  1  0.24976638  0.12413041  0.85325015  1
  O2-  O266  1  0.24872100  0.37541192  0.34433853  1
  O2-  O267  1  0.25171737  0.37433378  0.84898377  1
  O2-  O268  1  0.24920998  0.62578854  0.34684999  1
  O2-  O269  1  0.24749545  0.62527391  0.84970701  1
  O2-  O270  1  0.25241400  0.87479131  0.34984345  1
  O2-  O271  1  0.25003020  0.87490442  0.84934499  1
  O2-  O272  1  0.49975114  0.12441746  0.33960584  1
  O2-  O273  1  0.49804307  0.12477758  0.85135059  1
  O2-  O274  1  0.50129746  0.37548990  0.34378501  1
  O2-  O275  1  0.49861998  0.37447225  0.84894568  1
  O2-  O276  1  0.49881975  0.62575403  0.34458594  1
  O2-  O277  1  0.50308680  0.62566741  0.85082899  1
  O2-  O278  1  0.49814032  0.87531251  0.34554124  1
  O2-  O279  1  0.50255810  0.87434249  0.84625009  1
  O2-  O280  1  0.74886898  0.12500723  0.34884431  1
  O2-  O281  1  0.75179211  0.12433524  0.84636734  1
  O2-  O282  1  0.74922911  0.37548103  0.34891717  1
  O2-  O283  1  0.75194882  0.37545295  0.84692906  1
  O2-  O284  1  0.74994846  0.62578642  0.34859913  1
  O2-  O285  1  0.74855909  0.62537046  0.85043678  1
  O2-  O286  1  0.75034284  0.87462115  0.35046834  1
  O2-  O287  1  0.75023836  0.87434551  0.84009140  1
