# generated using pymatgen
data_BaYFeCuO5
_symmetry_space_group_name_H-M   'P 1'
_cell_length_a   15.66985859
_cell_length_b   15.66829546
_cell_length_c   15.47866262
_cell_angle_alpha   89.99567747
_cell_angle_beta   89.99735945
_cell_angle_gamma   90.00292614
_symmetry_Int_Tables_number   1
_chemical_formula_structural   BaYFeCuO5
_chemical_formula_sum   'Ba32 Y32 Fe32 Cu32 O160'
_cell_volume   3800.32082687
_cell_formula_units_Z   32
loop_
 _symmetry_equiv_pos_site_id
 _symmetry_equiv_pos_as_xyz
  1  'x, y, z'
loop_
 _atom_type_symbol
 _atom_type_oxidation_number
  Ba2+  2.0
  Y3+  3.0
  Fe3+  3.0
  Cu2+  2.0
  O2-  -2.0
loop_
 _atom_site_type_symbol
 _atom_site_label
 _atom_site_symmetry_multiplicity
 _atom_site_fract_x
 _atom_site_fract_y
 _atom_site_fract_z
 _atom_site_occupancy
  Ba2+  Ba0  1  -0.01240879  0.00173088  0.01129238  1
  Ba2+  Ba1  1  0.00602060  0.00537454  0.51153827  1
  Ba2+  Ba2  1  -0.00353285  0.24798987  0.00161840  1
  Ba2+  Ba3  1  0.00810024  0.25765653  0.51789135  1
  Ba2+  Ba4  1  0.00345395  0.50765870  0.00285928  1
  Ba2+  Ba5  1  0.00715617  0.49331137  0.51857525  1
  Ba2+  Ba6  1  -0.00445268  0.74201715  0.01122669  1
  Ba2+  Ba7  1  0.00564017  0.74345594  0.51243012  1
  Ba2+  Ba8  1  0.26081389  -0.00010767  0.01631852  1
  Ba2+  Ba9  1  0.25630449  0.00708035  0.51494096  1
  Ba2+  Ba10  1  0.25606878  0.25440157  0.01227344  1
  Ba2+  Ba11  1  0.25074950  0.25298856  0.50691035  1
  Ba2+  Ba12  1  0.25133191  0.50533961  0.00692377  1
  Ba2+  Ba13  1  0.24866018  0.49671315  0.51340308  1
  Ba2+  Ba14  1  0.25432913  0.74182555  0.00973339  1
  Ba2+  Ba15  1  0.25523226  0.74367079  0.52418045  1
  Ba2+  Ba16  1  0.50291926  -0.00021307  0.02689650  1
  Ba2+  Ba17  1  0.49191236  -0.00185397  0.51394443  1
  Ba2+  Ba18  1  0.50262403  0.25136926  0.02212047  1
  Ba2+  Ba19  1  0.49455751  0.25514746  0.50159786  1
  Ba2+  Ba20  1  0.49996262  0.49982312  0.00747117  1
  Ba2+  Ba21  1  0.50076935  0.49816668  0.50040740  1
  Ba2+  Ba22  1  0.49861117  0.74766663  0.01132214  1
  Ba2+  Ba23  1  0.49725289  0.74906236  0.51830856  1
  Ba2+  Ba24  1  0.74883246  0.00106015  0.02379583  1
  Ba2+  Ba25  1  0.74428723  -0.00427119  0.51047522  1
  Ba2+  Ba26  1  0.74400879  0.24608430  0.01255258  1
  Ba2+  Ba27  1  0.74747271  0.26111020  0.51287577  1
  Ba2+  Ba28  1  0.74498197  0.50349776  0.00114574  1
  Ba2+  Ba29  1  0.74293751  0.49488531  0.50723588  1
  Ba2+  Ba30  1  0.75079357  0.74900112  0.01332451  1
  Ba2+  Ba31  1  0.74030047  0.74750530  0.50692167  1
  Y3+  Y32  1  -0.00142935  0.00048284  0.25528877  1
  Y3+  Y33  1  0.00034129  0.00266038  0.75805196  1
  Y3+  Y34  1  0.00006449  0.25102645  0.25589884  1
  Y3+  Y35  1  0.00097500  0.25183375  0.75924795  1
  Y3+  Y36  1  0.00116139  0.50105999  0.25493256  1
  Y3+  Y37  1  0.00260061  0.49938032  0.76148232  1
  Y3+  Y38  1  -0.00053928  0.74709906  0.25295726  1
  Y3+  Y39  1  0.00103426  0.74625827  0.76045193  1
  Y3+  Y40  1  0.25246881  0.00115384  0.25740496  1
  Y3+  Y41  1  0.25176525  0.00169010  0.75411195  1
  Y3+  Y42  1  0.25286809  0.25259030  0.25974711  1
  Y3+  Y43  1  0.24900347  0.25113268  0.75590956  1
  Y3+  Y44  1  0.25095202  0.49910572  0.25441537  1
  Y3+  Y45  1  0.24827457  0.50117681  0.76173206  1
  Y3+  Y46  1  0.25120815  0.74695348  0.25023993  1
  Y3+  Y47  1  0.25141865  0.74624887  0.76120112  1
  Y3+  Y48  1  0.49783012  0.00143111  0.25944020  1
  Y3+  Y49  1  0.49885122  -0.00061543  0.75073291  1
  Y3+  Y50  1  0.49908739  0.25265305  0.25902057  1
  Y3+  Y51  1  0.50152340  0.25234859  0.75542029  1
  Y3+  Y52  1  0.50020307  0.49752609  0.25616952  1
  Y3+  Y53  1  0.50119851  0.50020353  0.76111256  1
  Y3+  Y54  1  0.49920088  0.74885227  0.25494570  1
  Y3+  Y55  1  0.49878075  0.74830496  0.75857297  1
  Y3+  Y56  1  0.75027564  0.00051415  0.25715786  1
  Y3+  Y57  1  0.74930937  0.00093329  0.75500466  1
  Y3+  Y58  1  0.74775940  0.25188368  0.25584638  1
  Y3+  Y59  1  0.74880939  0.25328030  0.75913006  1
  Y3+  Y60  1  0.74750406  0.49888495  0.25719202  1
  Y3+  Y61  1  0.74857497  0.49826706  0.75987903  1
  Y3+  Y62  1  0.75060356  0.74902140  0.25643082  1
  Y3+  Y63  1  0.74874263  0.74786951  0.75848803  1
  Fe3+  Fe64  1  0.87513523  0.12636290  0.38048578  1
  Fe3+  Fe65  1  0.62443912  0.12539807  0.37923006  1
  Fe3+  Fe66  1  0.37562088  0.37431463  0.87804787  1
  Fe3+  Fe67  1  0.87355635  0.87556293  0.87457973  1
  Fe3+  Fe68  1  0.37648325  0.87627956  0.87586273  1
  Fe3+  Fe69  1  0.62379921  0.12369404  0.87475048  1
  Fe3+  Fe70  1  0.12535234  0.12610061  0.37566316  1
  Fe3+  Fe71  1  0.62312215  0.87408751  0.37638492  1
  Fe3+  Fe72  1  0.87639897  0.37555765  0.37721626  1
  Fe3+  Fe73  1  0.12661136  0.12407448  0.87988767  1
  Fe3+  Fe74  1  0.12641599  0.87356619  0.37855421  1
  Fe3+  Fe75  1  0.12627170  0.62422264  0.37609525  1
  Fe3+  Fe76  1  0.37475056  0.62486900  0.37552308  1
  Fe3+  Fe77  1  0.87487596  0.62384799  0.38089006  1
  Fe3+  Fe78  1  0.87445211  0.37489112  0.87938740  1
  Fe3+  Fe79  1  0.62451917  0.87629801  0.87597490  1
  Fe3+  Fe80  1  0.12551595  0.87573826  0.87964932  1
  Fe3+  Fe81  1  0.37286942  0.87288623  0.37589896  1
  Fe3+  Fe82  1  0.37781389  0.12492162  0.87606402  1
  Fe3+  Fe83  1  0.87641461  0.87420642  0.38002055  1
  Fe3+  Fe84  1  0.87573943  0.87365467  0.63298653  1
  Fe3+  Fe85  1  0.87481565  0.12689997  0.63395460  1
  Fe3+  Fe86  1  0.62502220  0.62450903  0.13959827  1
  Fe3+  Fe87  1  0.12561172  0.12524112  0.13399390  1
  Fe3+  Fe88  1  0.12496742  0.87495938  0.13284990  1
  Fe3+  Fe89  1  0.62407598  0.12633084  0.63243493  1
  Fe3+  Fe90  1  0.62384055  0.62362303  0.63967643  1
  Fe3+  Fe91  1  0.12497503  0.37504961  0.13488452  1
  Fe3+  Fe92  1  0.12575034  0.87460552  0.63519649  1
  Fe3+  Fe93  1  0.37561864  0.37665274  0.63962881  1
  Fe3+  Fe94  1  0.87433656  0.37611078  0.13402286  1
  Fe3+  Fe95  1  0.87488463  0.62287189  0.63555230  1
  Cu2+  Cu96  1  0.62443613  0.62537002  0.36347286  1
  Cu2+  Cu97  1  0.12456429  0.37597682  0.37080540  1
  Cu2+  Cu98  1  0.37421942  0.37664425  0.36279597  1
  Cu2+  Cu99  1  0.62526965  0.37485119  0.37215998  1
  Cu2+  Cu100  1  0.62485534  0.62601117  0.86438069  1
  Cu2+  Cu101  1  0.12543060  0.62594335  0.87256833  1
  Cu2+  Cu102  1  0.37453345  0.12545829  0.37336035  1
  Cu2+  Cu103  1  0.87236552  0.12439719  0.87140178  1
  Cu2+  Cu104  1  0.62364062  0.37379420  0.87548474  1
  Cu2+  Cu105  1  0.12604118  0.37399821  0.86989816  1
  Cu2+  Cu106  1  0.37623596  0.62496113  0.87349951  1
  Cu2+  Cu107  1  0.87395701  0.62530295  0.87255980  1
  Cu2+  Cu108  1  0.62426590  0.12515197  0.15783411  1
  Cu2+  Cu109  1  0.12524252  0.62455644  0.65424767  1
  Cu2+  Cu110  1  0.37514558  0.87446757  0.15033101  1
  Cu2+  Cu111  1  0.12512794  0.62420595  0.14106413  1
  Cu2+  Cu112  1  0.62504627  0.87426691  0.64866561  1
  Cu2+  Cu113  1  0.87508911  0.37593174  0.65339406  1
  Cu2+  Cu114  1  0.87371445  0.62286439  0.14269771  1
  Cu2+  Cu115  1  0.37513150  0.12786771  0.64099305  1
  Cu2+  Cu116  1  0.37643474  0.62343917  0.14134948  1
  Cu2+  Cu117  1  0.62390639  0.37606833  0.64374801  1
  Cu2+  Cu118  1  0.87511553  0.87447840  0.15394025  1
  Cu2+  Cu119  1  0.12645501  0.37546844  0.64796161  1
  Cu2+  Cu120  1  0.62496148  0.37575487  0.14203679  1
  Cu2+  Cu121  1  0.37520876  0.62283220  0.65550337  1
  Cu2+  Cu122  1  0.37381553  0.87387063  0.65146612  1
  Cu2+  Cu123  1  0.37508488  0.37543029  0.14959161  1
  Cu2+  Cu124  1  0.12507653  0.12583883  0.65208071  1
  Cu2+  Cu125  1  0.87474194  0.12714033  0.14224728  1
  Cu2+  Cu126  1  0.37482225  0.12600610  0.15381201  1
  Cu2+  Cu127  1  0.62499062  0.87454922  0.15433913  1
  O2-  O128  1  0.12575098  0.12293493  0.00682767  1
  O2-  O129  1  0.12489732  0.12579225  0.49639023  1
  O2-  O130  1  0.12525837  0.37327480  0.01481573  1
  O2-  O131  1  0.12607317  0.37547796  0.50715537  1
  O2-  O132  1  0.12470527  0.62736064  0.00692451  1
  O2-  O133  1  0.12672533  0.62494331  0.49652211  1
  O2-  O134  1  0.12422999  0.87659489  0.00585248  1
  O2-  O135  1  0.12659291  0.87403346  0.50561276  1
  O2-  O136  1  0.37904890  0.12320063  -0.00404133  1
  O2-  O137  1  0.37420747  0.12637714  0.50600846  1
  O2-  O138  1  0.37657281  0.37275041  -0.00109028  1
  O2-  O139  1  0.37431384  0.37740554  0.51843639  1
  O2-  O140  1  0.37732154  0.62505727  0.00709727  1
  O2-  O141  1  0.37371099  0.62572395  0.49552250  1
  O2-  O142  1  0.37857871  0.87823354  -0.00404433  1
  O2-  O143  1  0.37119417  0.87203301  0.49605238  1
  O2-  O144  1  0.62408741  0.12184838  -0.00510584  1
  O2-  O145  1  0.62468423  0.12582854  0.50548679  1
  O2-  O146  1  0.62478069  0.37387713  0.00789773  1
  O2-  O147  1  0.62418312  0.37540912  0.50706123  1
  O2-  O148  1  0.62577971  0.62632779  0.01877125  1
  O2-  O149  1  0.62335651  0.62431595  0.51892301  1
  O2-  O150  1  0.62601696  0.87844055  -0.00451897  1
  O2-  O151  1  0.62296785  0.87348762  0.49665536  1
  O2-  O152  1  0.87249474  0.12433351  0.00646594  1
  O2-  O153  1  0.87706980  0.12684461  0.50604730  1
  O2-  O154  1  0.87400109  0.37492924  0.00709625  1
  O2-  O155  1  0.87737315  0.37549150  0.49774671  1
  O2-  O156  1  0.87277192  0.62538075  0.00685376  1
  O2-  O157  1  0.87605074  0.62364932  0.50742712  1
  O2-  O158  1  0.87210462  0.87664152  -0.00522847  1
  O2-  O159  1  0.87737442  0.87351640  0.50594156  1
  O2-  O160  1  0.12535413  -0.00019958  0.16326068  1
  O2-  O161  1  0.12451945  -0.00141609  0.66120989  1
  O2-  O162  1  0.12472018  0.24867907  0.16343962  1
  O2-  O163  1  0.12390464  0.24912927  0.66804805  1
  O2-  O164  1  0.12464656  0.49765899  0.16548327  1
  O2-  O165  1  0.12478111  0.50151241  0.66836010  1
  O2-  O166  1  0.12402107  0.75319525  0.16308054  1
  O2-  O167  1  0.12355304  0.75115533  0.66284224  1
  O2-  O168  1  0.37422056  0.00029701  0.16528781  1
  O2-  O169  1  0.37319460  -0.00065351  0.65888309  1
  O2-  O170  1  0.37513693  0.24991743  0.16628691  1
  O2-  O171  1  0.37529215  0.25279174  0.66684533  1
  O2-  O172  1  0.37539524  0.49867260  0.16570019  1
  O2-  O173  1  0.37424150  0.49957249  0.67047622  1
  O2-  O174  1  0.37509179  0.75079654  0.16170778  1
  O2-  O175  1  0.37432169  0.74856776  0.66516273  1
  O2-  O176  1  0.62576460  -0.00039955  0.16742192  1
  O2-  O177  1  0.62643331  0.00088285  0.65682828  1
  O2-  O178  1  0.62460071  0.24896675  0.16580655  1
  O2-  O179  1  0.62626626  0.24768735  0.66357143  1
  O2-  O180  1  0.62513228  0.50100922  0.16792274  1
  O2-  O181  1  0.62599765  0.50181468  0.67092413  1
  O2-  O182  1  0.62603774  0.75029430  0.16547627  1
  O2-  O183  1  0.62511509  0.74934198  0.66622462  1
  O2-  O184  1  0.87480873  -0.00058151  0.16861452  1
  O2-  O185  1  0.87589425  0.00011848  0.65614383  1
  O2-  O186  1  0.87545183  0.25375699  0.16508464  1
  O2-  O187  1  0.87505504  0.24882201  0.66437649  1
  O2-  O188  1  0.87493983  0.49653917  0.16642627  1
  O2-  O189  1  0.87527006  0.50157938  0.66587211  1
  O2-  O190  1  0.87523258  0.75049223  0.16670116  1
  O2-  O191  1  0.87718604  0.74922540  0.65947238  1
  O2-  O192  1  0.00360388  0.12367878  0.16355386  1
  O2-  O193  1  -0.00201580  0.12479678  0.66518204  1
  O2-  O194  1  -0.00055871  0.37440258  0.16295150  1
  O2-  O195  1  0.00001226  0.37496358  0.66839046  1
  O2-  O196  1  -0.00022937  0.62498419  0.16509021  1
  O2-  O197  1  -0.00157702  0.62463934  0.66433361  1
  O2-  O198  1  0.00171813  0.87627503  0.16458043  1
  O2-  O199  1  0.00011354  0.87584981  0.66177142  1
  O2-  O200  1  0.24849552  0.12462532  0.16067204  1
  O2-  O201  1  0.24880092  0.12555737  0.66686783  1
  O2-  O202  1  0.24950680  0.37395077  0.16460176  1
  O2-  O203  1  0.25125412  0.37541566  0.66826407  1
  O2-  O204  1  0.25035968  0.62484957  0.16055351  1
  O2-  O205  1  0.25022796  0.62545041  0.66669037  1
  O2-  O206  1  0.24856375  0.87552244  0.15991524  1
  O2-  O207  1  0.24742376  0.87423803  0.66577145  1
  O2-  O208  1  0.49946971  0.12432172  0.16740408  1
  O2-  O209  1  0.50277532  0.12416498  0.65941548  1
  O2-  O210  1  0.49880414  0.37424641  0.16611840  1
  O2-  O211  1  0.49922166  0.37606905  0.66687735  1
  O2-  O212  1  0.50196370  0.62536517  0.16729614  1
  O2-  O213  1  0.49981848  0.62511913  0.66723100  1
  O2-  O214  1  0.49957797  0.87578577  0.16529004  1
  O2-  O215  1  0.49874758  0.87488212  0.66009565  1
  O2-  O216  1  0.74842708  0.12524111  0.16966468  1
  O2-  O217  1  0.75050100  0.12428953  0.65714497  1
  O2-  O218  1  0.75192584  0.37427456  0.16467885  1
  O2-  O219  1  0.75057229  0.37535514  0.66529689  1
  O2-  O220  1  0.74816205  0.62519429  0.17147333  1
  O2-  O221  1  0.75151988  0.62578322  0.66404858  1
  O2-  O222  1  0.75061535  0.87523620  0.16843780  1
  O2-  O223  1  0.75347773  0.87417162  0.65854483  1
  O2-  O224  1  0.12361947  -0.00172464  0.34802922  1
  O2-  O225  1  0.12506456  0.00019059  0.84614787  1
  O2-  O226  1  0.12407462  0.24887029  0.34548093  1
  O2-  O227  1  0.12530287  0.24689686  0.85194162  1
  O2-  O228  1  0.12386498  0.50226473  0.34627936  1
  O2-  O229  1  0.12456230  0.49878066  0.85222628  1
  O2-  O230  1  0.12371229  0.75047485  0.34651820  1
  O2-  O231  1  0.12497043  0.75442222  0.84757980  1
  O2-  O232  1  0.37362344  -0.00307645  0.34786878  1
  O2-  O233  1  0.37524166  0.00034632  0.83995425  1
  O2-  O234  1  0.37433883  0.25331069  0.35088030  1
  O2-  O235  1  0.37459018  0.24907334  0.84604516  1
  O2-  O236  1  0.37505309  0.50042013  0.34809084  1
  O2-  O237  1  0.37519675  0.49843782  0.85188933  1
  O2-  O238  1  0.37387257  0.74956256  0.34183497  1
  O2-  O239  1  0.37481042  0.75219901  0.84836364  1
  O2-  O240  1  0.62543209  0.00034617  0.35010909  1
  O2-  O241  1  0.62446899  -0.00045099  0.83778846  1
  O2-  O242  1  0.62630192  0.24719643  0.34949333  1
  O2-  O243  1  0.62509592  0.24776136  0.84578148  1
  O2-  O244  1  0.62573601  0.50124444  0.35067465  1
  O2-  O245  1  0.62511830  0.50217898  0.85359478  1
  O2-  O246  1  0.62622947  0.75111072  0.34683113  1
  O2-  O247  1  0.62572637  0.75074722  0.84837622  1
  O2-  O248  1  0.87667953  -0.00021978  0.35337194  1
  O2-  O249  1  0.87512833  -0.00221845  0.83889993  1
  O2-  O250  1  0.87481116  0.24808427  0.34759179  1
  O2-  O251  1  0.87490618  0.25259102  0.84951199  1
  O2-  O252  1  0.87503021  0.50202191  0.34863221  1
  O2-  O253  1  0.87543262  0.49697322  0.85071322  1
  O2-  O254  1  0.87549229  0.74985497  0.35198624  1
  O2-  O255  1  0.87503898  0.75279546  0.84258279  1
  O2-  O256  1  -0.00173451  0.12410567  0.34623404  1
  O2-  O257  1  0.00305855  0.12374215  0.85130487  1
  O2-  O258  1  -0.00249677  0.37477198  0.34296996  1
  O2-  O259  1  -0.00077305  0.37367576  0.85282464  1
  O2-  O260  1  -0.00131468  0.62638370  0.34800692  1
  O2-  O261  1  0.00029801  0.62594157  0.84893900  1
  O2-  O262  1  0.00028420  0.87467501  0.35021118  1
  O2-  O263  1  0.00143505  0.87642670  0.84673668  1
  O2-  O264  1  0.24791791  0.12457667  0.34402357  1
  O2-  O265  1  0.25014569  0.12340700  0.85006141  1
  O2-  O266  1  0.25127072  0.37568618  0.34794884  1
  O2-  O267  1  0.25096390  0.37403581  0.85001554  1
  O2-  O268  1  0.24988595  0.62523632  0.34148586  1
  O2-  O269  1  0.24997149  0.62570112  0.85093120  1
  O2-  O270  1  0.24769958  0.87440410  0.34254395  1
  O2-  O271  1  0.24955120  0.87674762  0.84980700  1
  O2-  O272  1  0.50252296  0.12490725  0.35160320  1
  O2-  O273  1  0.50000814  0.12443541  0.83908488  1
  O2-  O274  1  0.49833872  0.37517096  0.35054325  1
  O2-  O275  1  0.49818071  0.37436060  0.84702585  1
  O2-  O276  1  0.49955165  0.62539618  0.34857406  1
  O2-  O277  1  0.50226422  0.62614352  0.84987765  1
  O2-  O278  1  0.49886709  0.87444406  0.34703179  1
  O2-  O279  1  0.50038048  0.87507979  0.84193904  1
  O2-  O280  1  0.75092725  0.12308636  0.35384232  1
  O2-  O281  1  0.74709433  0.12442149  0.83979281  1
  O2-  O282  1  0.75289307  0.37500382  0.34725662  1
  O2-  O283  1  0.75175348  0.37509458  0.84990623  1
  O2-  O284  1  0.75147748  0.62587875  0.35497650  1
  O2-  O285  1  0.74788138  0.62525187  0.84692494  1
  O2-  O286  1  0.75205893  0.87573156  0.35284324  1
  O2-  O287  1  0.74887633  0.87552249  0.84018488  1
