# generated using pymatgen
data_BaYFeCuO5
_symmetry_space_group_name_H-M   'P 1'
_cell_length_a   15.67726775
_cell_length_b   15.67861100
_cell_length_c   15.49706082
_cell_angle_alpha   89.99747174
_cell_angle_beta   89.99191581
_cell_angle_gamma   89.99980077
_symmetry_Int_Tables_number   1
_chemical_formula_structural   BaYFeCuO5
_chemical_formula_sum   'Ba32 Y32 Fe32 Cu32 O160'
_cell_volume   3809.14314357
_cell_formula_units_Z   32
loop_
 _symmetry_equiv_pos_site_id
 _symmetry_equiv_pos_as_xyz
  1  'x, y, z'
loop_
 _atom_type_symbol
 _atom_type_oxidation_number
  Ba2+  2.0
  Y3+  3.0
  Fe3+  3.0
  Cu2+  2.0
  O2-  -2.0
loop_
 _atom_site_type_symbol
 _atom_site_label
 _atom_site_symmetry_multiplicity
 _atom_site_fract_x
 _atom_site_fract_y
 _atom_site_fract_z
 _atom_site_occupancy
  Ba2+  Ba0  1  0.00431425  -0.00085657  0.01319528  1
  Ba2+  Ba1  1  -0.00257004  -0.00222135  0.50694706  1
  Ba2+  Ba2  1  0.00133037  0.24750499  0.00547328  1
  Ba2+  Ba3  1  0.00907490  0.25384727  0.51126854  1
  Ba2+  Ba4  1  0.00579809  0.49450341  0.01151220  1
  Ba2+  Ba5  1  0.00872578  0.50444044  0.51119585  1
  Ba2+  Ba6  1  0.00796066  0.75703601  0.01550157  1
  Ba2+  Ba7  1  -0.00304752  0.74129724  0.50734617  1
  Ba2+  Ba8  1  0.24884405  -0.00071230  0.02359517  1
  Ba2+  Ba9  1  0.24715205  0.00408628  0.51096509  1
  Ba2+  Ba10  1  0.25102373  0.24850892  0.02053706  1
  Ba2+  Ba11  1  0.24864167  0.26058921  0.51062024  1
  Ba2+  Ba12  1  0.25266988  0.50208678  0.01208848  1
  Ba2+  Ba13  1  0.24878104  0.49794638  0.50147157  1
  Ba2+  Ba14  1  0.24986295  0.75072712  0.01703295  1
  Ba2+  Ba15  1  0.24867728  0.73802016  0.50128734  1
  Ba2+  Ba16  1  0.50051287  0.00482996  0.01206620  1
  Ba2+  Ba17  1  0.51034741  0.00183184  0.51196841  1
  Ba2+  Ba18  1  0.50010900  0.24760796  0.02297024  1
  Ba2+  Ba19  1  0.50265633  0.25625862  0.51122254  1
  Ba2+  Ba20  1  0.49214188  0.49626453  0.01628941  1
  Ba2+  Ba21  1  0.49658658  0.49746786  0.51187299  1
  Ba2+  Ba22  1  0.49093366  0.75225555  0.00721802  1
  Ba2+  Ba23  1  0.50563809  0.74422208  0.51458365  1
  Ba2+  Ba24  1  0.74793363  0.00598365  0.00000139  1
  Ba2+  Ba25  1  0.74441160  -0.00346403  0.50702532  1
  Ba2+  Ba26  1  0.74673912  0.24616245  0.01268634  1
  Ba2+  Ba27  1  0.73994503  0.24867722  0.51171616  1
  Ba2+  Ba28  1  0.74982565  0.48881687  0.01525606  1
  Ba2+  Ba29  1  0.74516076  0.50576872  0.52386205  1
  Ba2+  Ba30  1  0.75038118  0.75961649  0.00712893  1
  Ba2+  Ba31  1  0.74910927  0.74872911  0.52068434  1
  Y3+  Y32  1  -0.00031128  -0.00280902  0.25768528  1
  Y3+  Y33  1  0.00115771  0.00071558  0.75815487  1
  Y3+  Y34  1  0.00053637  0.25140508  0.25992377  1
  Y3+  Y35  1  0.00297735  0.25054183  0.75441954  1
  Y3+  Y36  1  0.00302472  0.50033008  0.25956717  1
  Y3+  Y37  1  0.00324048  0.50074943  0.75435450  1
  Y3+  Y38  1  0.00159590  0.75052552  0.25676294  1
  Y3+  Y39  1  0.00275398  0.74938879  0.75741884  1
  Y3+  Y40  1  0.25000634  -0.00081434  0.25801187  1
  Y3+  Y41  1  0.24816553  0.00007436  0.75530581  1
  Y3+  Y42  1  0.25146755  0.25248616  0.26278179  1
  Y3+  Y43  1  0.24869442  0.25306214  0.75166917  1
  Y3+  Y44  1  0.25088666  0.50115872  0.26047307  1
  Y3+  Y45  1  0.24945803  0.49915295  0.75528151  1
  Y3+  Y46  1  0.24945936  0.74658227  0.25546924  1
  Y3+  Y47  1  0.24961084  0.74772677  0.76027475  1
  Y3+  Y48  1  0.50119151  0.00260392  0.25778572  1
  Y3+  Y49  1  0.50428355  0.00156608  0.75747043  1
  Y3+  Y50  1  0.50047391  0.24985655  0.25948806  1
  Y3+  Y51  1  0.50124271  0.24989618  0.75328215  1
  Y3+  Y52  1  0.49509321  0.49882961  0.25656339  1
  Y3+  Y53  1  0.49764630  0.49931743  0.75777805  1
  Y3+  Y54  1  0.49651945  0.74836384  0.25428696  1
  Y3+  Y55  1  0.49984068  0.74995418  0.76125430  1
  Y3+  Y56  1  0.74931404  0.00084855  0.25795067  1
  Y3+  Y57  1  0.74636026  0.00210219  0.75836884  1
  Y3+  Y58  1  0.74720022  0.24869928  0.25699435  1
  Y3+  Y59  1  0.74739165  0.24750818  0.75719805  1
  Y3+  Y60  1  0.75059737  0.49723367  0.25248831  1
  Y3+  Y61  1  0.74898376  0.50050186  0.75842770  1
  Y3+  Y62  1  0.75239577  0.75255919  0.25465176  1
  Y3+  Y63  1  0.74801059  0.75102483  0.75997591  1
  Fe3+  Fe64  1  0.87409650  0.12511261  0.38134863  1
  Fe3+  Fe65  1  0.87592276  0.37366982  0.87495231  1
  Fe3+  Fe66  1  0.62555663  0.37704664  0.37497070  1
  Fe3+  Fe67  1  0.37365359  0.37314511  0.87592466  1
  Fe3+  Fe68  1  0.62317646  0.37368515  0.87643371  1
  Fe3+  Fe69  1  0.37601613  0.87386142  0.38060208  1
  Fe3+  Fe70  1  0.12480781  0.87345931  0.37968997  1
  Fe3+  Fe71  1  0.12563448  0.62444788  0.87828532  1
  Fe3+  Fe72  1  0.37426695  0.12622637  0.87408796  1
  Fe3+  Fe73  1  0.87575037  0.62452698  0.88010673  1
  Fe3+  Fe74  1  0.62505154  0.87269954  0.37529774  1
  Fe3+  Fe75  1  0.87415806  0.37612526  0.38075097  1
  Fe3+  Fe76  1  0.87276588  0.62444023  0.37422715  1
  Fe3+  Fe77  1  0.62547737  0.62460061  0.37235522  1
  Fe3+  Fe78  1  0.12708711  0.12559420  0.87489706  1
  Fe3+  Fe79  1  0.37341034  0.87729901  0.87534563  1
  Fe3+  Fe80  1  0.62403871  0.62408763  0.88098552  1
  Fe3+  Fe81  1  0.37615807  0.12511689  0.38036179  1
  Fe3+  Fe82  1  0.87647245  0.87660299  0.87710649  1
  Fe3+  Fe83  1  0.12474909  0.12479692  0.37833923  1
  Fe3+  Fe84  1  0.37525215  0.12548025  0.63291212  1
  Fe3+  Fe85  1  0.62488661  0.62469023  0.13244523  1
  Fe3+  Fe86  1  0.87623242  0.62463784  0.13230894  1
  Fe3+  Fe87  1  0.12557257  0.37424642  0.14091799  1
  Fe3+  Fe88  1  0.37585923  0.87430372  0.63323388  1
  Fe3+  Fe89  1  0.62449717  0.87610579  0.13619915  1
  Fe3+  Fe90  1  0.87507214  0.12503770  0.63474643  1
  Fe3+  Fe91  1  0.87477895  0.87447118  0.63830294  1
  Fe3+  Fe92  1  0.87586314  0.12486764  0.14010614  1
  Fe3+  Fe93  1  0.87461572  0.37607665  0.63388669  1
  Fe3+  Fe94  1  0.37460978  0.62509825  0.63898820  1
  Fe3+  Fe95  1  0.12549359  0.87331877  0.63367000  1
  Cu2+  Cu96  1  0.12630490  0.87579496  0.87165856  1
  Cu2+  Cu97  1  0.37586146  0.37541492  0.37359160  1
  Cu2+  Cu98  1  0.62406991  0.87579178  0.86701077  1
  Cu2+  Cu99  1  0.62317706  0.12701594  0.87235003  1
  Cu2+  Cu100  1  0.37607515  0.62537535  0.36318409  1
  Cu2+  Cu101  1  0.87568534  0.12603497  0.85994594  1
  Cu2+  Cu102  1  0.12445997  0.37568157  0.37252519  1
  Cu2+  Cu103  1  0.12443912  0.62502791  0.37083689  1
  Cu2+  Cu104  1  0.62503921  0.12510888  0.37320949  1
  Cu2+  Cu105  1  0.87442484  0.87394249  0.36592816  1
  Cu2+  Cu106  1  0.37434667  0.62384883  0.87417204  1
  Cu2+  Cu107  1  0.12569334  0.37468844  0.86139242  1
  Cu2+  Cu108  1  0.62540783  0.37607005  0.65188323  1
  Cu2+  Cu109  1  0.62461515  0.87450940  0.65433360  1
  Cu2+  Cu110  1  0.37386872  0.37398107  0.15512217  1
  Cu2+  Cu111  1  0.37539571  0.87573017  0.15501016  1
  Cu2+  Cu112  1  0.37513828  0.37615171  0.64082356  1
  Cu2+  Cu113  1  0.12577551  0.87518922  0.14510653  1
  Cu2+  Cu114  1  0.62411857  0.37464738  0.15108201  1
  Cu2+  Cu115  1  0.87499289  0.62552586  0.65541597  1
  Cu2+  Cu116  1  0.87631900  0.37354637  0.15217260  1
  Cu2+  Cu117  1  0.12651591  0.62613867  0.64279592  1
  Cu2+  Cu118  1  0.12462903  0.12426815  0.64579019  1
  Cu2+  Cu119  1  0.12470550  0.62403446  0.15119944  1
  Cu2+  Cu120  1  0.37428513  0.62451332  0.14189000  1
  Cu2+  Cu121  1  0.12485022  0.12559414  0.15748989  1
  Cu2+  Cu122  1  0.12516730  0.37705312  0.64168149  1
  Cu2+  Cu123  1  0.62552475  0.12509186  0.64118835  1
  Cu2+  Cu124  1  0.37446845  0.12506103  0.15725652  1
  Cu2+  Cu125  1  0.62355227  0.62523668  0.65810342  1
  Cu2+  Cu126  1  0.87486995  0.87603734  0.15021947  1
  Cu2+  Cu127  1  0.62523743  0.12436564  0.14409110  1
  O2-  O128  1  0.12762664  0.12519060  -0.00512947  1
  O2-  O129  1  0.12344037  0.12323071  0.49829760  1
  O2-  O130  1  0.12530964  0.37228926  0.02020580  1
  O2-  O131  1  0.12390791  0.37711396  0.50734123  1
  O2-  O132  1  0.12448596  0.62445819  -0.00140948  1
  O2-  O133  1  0.12484523  0.62617830  0.50667707  1
  O2-  O134  1  0.12689850  0.87688315  0.00754489  1
  O2-  O135  1  0.12372442  0.87268545  0.50665062  1
  O2-  O136  1  0.37283444  0.12544021  -0.00614757  1
  O2-  O137  1  0.37660865  0.12524165  0.50599030  1
  O2-  O138  1  0.37371572  0.37092115  -0.00389474  1
  O2-  O139  1  0.37630367  0.37645100  0.50659079  1
  O2-  O140  1  0.37450214  0.62484917  0.00833282  1
  O2-  O141  1  0.37698442  0.62559101  0.51829533  1
  O2-  O142  1  0.37274978  0.87925684  -0.00438294  1
  O2-  O143  1  0.37757142  0.87192963  0.50658112  1
  O2-  O144  1  0.62420994  0.12602859  0.00789799  1
  O2-  O145  1  0.62593439  0.12439545  0.50735244  1
  O2-  O146  1  0.62332204  0.37236462  -0.00343675  1
  O2-  O147  1  0.62714499  0.37995820  0.49519676  1
  O2-  O148  1  0.62428449  0.62431350  0.00637706  1
  O2-  O149  1  0.62715890  0.62525634  0.49227336  1
  O2-  O150  1  0.62438636  0.87810033  0.01571424  1
  O2-  O151  1  0.62557722  0.87010453  0.49556120  1
  O2-  O152  1  0.87636524  0.12563467  0.01974336  1
  O2-  O153  1  0.87398757  0.12445258  0.50802690  1
  O2-  O154  1  0.87701492  0.37220097  -0.00479646  1
  O2-  O155  1  0.87245278  0.37882923  0.50667574  1
  O2-  O156  1  0.87703986  0.62414536  0.00527230  1
  O2-  O157  1  0.86984515  0.62478028  0.49416437  1
  O2-  O158  1  0.87730753  0.87766312  -0.00248397  1
  O2-  O159  1  0.87365499  0.87191699  0.51808430  1
  O2-  O160  1  0.12513143  0.00153051  0.16912178  1
  O2-  O161  1  0.12427681  -0.00306458  0.65991984  1
  O2-  O162  1  0.12500661  0.25004072  0.16972784  1
  O2-  O163  1  0.12436524  0.24908141  0.66087001  1
  O2-  O164  1  0.12479118  0.49923685  0.16602559  1
  O2-  O165  1  0.12465502  0.50159450  0.66646105  1
  O2-  O166  1  0.12497213  0.74817627  0.16545078  1
  O2-  O167  1  0.12571642  0.75329002  0.66595118  1
  O2-  O168  1  0.37479368  0.00056081  0.16980670  1
  O2-  O169  1  0.37505880  -0.00079065  0.65615523  1
  O2-  O170  1  0.37455193  0.24936759  0.16820559  1
  O2-  O171  1  0.37470446  0.24787605  0.65845866  1
  O2-  O172  1  0.37400630  0.49801817  0.16435997  1
  O2-  O173  1  0.37595570  0.50184407  0.66783709  1
  O2-  O174  1  0.37446787  0.75121905  0.16466293  1
  O2-  O175  1  0.37606986  0.75181833  0.66742586  1
  O2-  O176  1  0.62462428  -0.00155917  0.17003537  1
  O2-  O177  1  0.62581498  -0.00117908  0.66404283  1
  O2-  O178  1  0.62451549  0.25125640  0.16743345  1
  O2-  O179  1  0.62592352  0.25175675  0.66053244  1
  O2-  O180  1  0.62644873  0.50070715  0.15781323  1
  O2-  O181  1  0.62553932  0.50066629  0.66675402  1
  O2-  O182  1  0.62593990  0.74885303  0.16031444  1
  O2-  O183  1  0.62462788  0.74984452  0.66829094  1
  O2-  O184  1  0.87580160  0.00075431  0.17182822  1
  O2-  O185  1  0.87541494  0.00047503  0.66276548  1
  O2-  O186  1  0.87588389  0.24924611  0.17244912  1
  O2-  O187  1  0.87512517  0.25059396  0.65667062  1
  O2-  O188  1  0.87488173  0.50058100  0.15947805  1
  O2-  O189  1  0.87388243  0.50017955  0.66442051  1
  O2-  O190  1  0.87506913  0.74846597  0.15946375  1
  O2-  O191  1  0.87416536  0.75009149  0.66936534  1
  O2-  O192  1  0.00008557  0.12473198  0.16930888  1
  O2-  O193  1  -0.00200770  0.12465273  0.66246065  1
  O2-  O194  1  0.00129774  0.37494708  0.17059067  1
  O2-  O195  1  -0.00356476  0.37611330  0.66229837  1
  O2-  O196  1  -0.00196320  0.62455055  0.16396842  1
  O2-  O197  1  -0.00042061  0.62627120  0.66383732  1
  O2-  O198  1  -0.00080573  0.87500701  0.16776999  1
  O2-  O199  1  0.00104941  0.87420023  0.66375341  1
  O2-  O200  1  0.24967977  0.12446407  0.16873372  1
  O2-  O201  1  0.25138713  0.12343538  0.65762109  1
  O2-  O202  1  0.24955417  0.37376923  0.17010130  1
  O2-  O203  1  0.24998203  0.37591875  0.66311229  1
  O2-  O204  1  0.24838115  0.62480019  0.16670580  1
  O2-  O205  1  0.25219205  0.62640096  0.66705768  1
  O2-  O206  1  0.25175498  0.87544110  0.17062114  1
  O2-  O207  1  0.25066304  0.87565446  0.65737439  1
  O2-  O208  1  0.49864169  0.12484068  0.16609454  1
  O2-  O209  1  0.49738593  0.12434066  0.66225597  1
  O2-  O210  1  0.49847547  0.37473996  0.16419567  1
  O2-  O211  1  0.50188290  0.37561802  0.66254046  1
  O2-  O212  1  0.50317498  0.62445504  0.16272679  1
  O2-  O213  1  0.49927066  0.62619701  0.66803461  1
  O2-  O214  1  0.50032133  0.87474390  0.16575546  1
  O2-  O215  1  0.49888250  0.87512290  0.66218977  1
  O2-  O216  1  0.75174985  0.12529598  0.16797221  1
  O2-  O217  1  0.75346712  0.12515015  0.66559996  1
  O2-  O218  1  0.75054242  0.37364941  0.16126471  1
  O2-  O219  1  0.75186232  0.37627124  0.66412346  1
  O2-  O220  1  0.75078836  0.62430982  0.15617823  1
  O2-  O221  1  0.74839822  0.62573557  0.66822145  1
  O2-  O222  1  0.74922949  0.87522545  0.16440221  1
  O2-  O223  1  0.74991582  0.87406384  0.66763802  1
  O2-  O224  1  0.12481876  -0.00191306  0.35169118  1
  O2-  O225  1  0.12513839  0.00246841  0.84235825  1
  O2-  O226  1  0.12443537  0.24784105  0.35066558  1
  O2-  O227  1  0.12466036  0.25002349  0.84390386  1
  O2-  O228  1  0.12449706  0.50063328  0.34853436  1
  O2-  O229  1  0.12372708  0.49982242  0.84897527  1
  O2-  O230  1  0.12512174  0.75264343  0.34888280  1
  O2-  O231  1  0.12466279  0.74802683  0.84779623  1
  O2-  O232  1  0.37513480  -0.00102506  0.35425923  1
  O2-  O233  1  0.37481994  0.00136368  0.83837247  1
  O2-  O234  1  0.37525990  0.24711513  0.35189295  1
  O2-  O235  1  0.37438248  0.25019583  0.83887529  1
  O2-  O236  1  0.37546828  0.50194097  0.34857420  1
  O2-  O237  1  0.37479287  0.49723960  0.84889694  1
  O2-  O238  1  0.37485365  0.75161830  0.34888342  1
  O2-  O239  1  0.37526583  0.75173772  0.84948496  1
  O2-  O240  1  0.62508318  -0.00236497  0.35140958  1
  O2-  O241  1  0.62505885  0.00045799  0.84825130  1
  O2-  O242  1  0.62564508  0.25201955  0.35017596  1
  O2-  O243  1  0.62498889  0.25217136  0.84247155  1
  O2-  O244  1  0.62569675  0.50047045  0.33889588  1
  O2-  O245  1  0.62547051  0.50032917  0.84946210  1
  O2-  O246  1  0.62495383  0.74948759  0.33972221  1
  O2-  O247  1  0.62549551  0.74806097  0.85315611  1
  O2-  O248  1  0.87491446  0.00079624  0.35596754  1
  O2-  O249  1  0.87504233  0.00087319  0.84538726  1
  O2-  O250  1  0.87483978  0.25048654  0.35614056  1
  O2-  O251  1  0.87549565  0.25068118  0.84086156  1
  O2-  O252  1  0.87405265  0.49864776  0.34297594  1
  O2-  O253  1  0.87497041  0.50107655  0.84813688  1
  O2-  O254  1  0.87473760  0.74923292  0.34321089  1
  O2-  O255  1  0.87409842  0.74847427  0.85149975  1
  O2-  O256  1  -0.00165809  0.12413576  0.35115386  1
  O2-  O257  1  0.00119194  0.12618292  0.84567118  1
  O2-  O258  1  -0.00354849  0.37536943  0.35269797  1
  O2-  O259  1  0.00025416  0.37475725  0.84525535  1
  O2-  O260  1  -0.00279480  0.62528653  0.34722243  1
  O2-  O261  1  -0.00119217  0.62472347  0.84660979  1
  O2-  O262  1  0.00146110  0.87447939  0.35235631  1
  O2-  O263  1  -0.00135099  0.87523799  0.84502559  1
  O2-  O264  1  0.25109736  0.12324428  0.35229574  1
  O2-  O265  1  0.25016029  0.12566009  0.83820468  1
  O2-  O266  1  0.24995265  0.37532892  0.35263948  1
  O2-  O267  1  0.24963037  0.37451697  0.84511337  1
  O2-  O268  1  0.25183920  0.62562518  0.35112562  1
  O2-  O269  1  0.24823234  0.62427681  0.84746668  1
  O2-  O270  1  0.25036817  0.87511583  0.35559178  1
  O2-  O271  1  0.25162399  0.87588326  0.83985434  1
  O2-  O272  1  0.49782275  0.12414973  0.34947331  1
  O2-  O273  1  0.49788080  0.12546357  0.84407517  1
  O2-  O274  1  0.50208613  0.37583589  0.34706322  1
  O2-  O275  1  0.49943449  0.37483532  0.84363881  1
  O2-  O276  1  0.50085116  0.62559404  0.34527105  1
  O2-  O277  1  0.50260070  0.62488034  0.85062076  1
  O2-  O278  1  0.49878863  0.87402933  0.34756831  1
  O2-  O279  1  0.49905504  0.87583583  0.84609939  1
  O2-  O280  1  0.75297393  0.12482502  0.35007507  1
  O2-  O281  1  0.75100041  0.12586730  0.84963684  1
  O2-  O282  1  0.75136069  0.37509568  0.34422410  1
  O2-  O283  1  0.74985430  0.37521454  0.84636126  1
  O2-  O284  1  0.74977922  0.62484868  0.33650945  1
  O2-  O285  1  0.75013191  0.62436019  0.85291454  1
  O2-  O286  1  0.74924240  0.87426613  0.34583335  1
  O2-  O287  1  0.75071773  0.87561067  0.85045030  1
