# generated using pymatgen
data_BaYFeCuO5
_symmetry_space_group_name_H-M   'P 1'
_cell_length_a   15.66731919
_cell_length_b   15.66777416
_cell_length_c   15.48246291
_cell_angle_alpha   89.99289408
_cell_angle_beta   90.01505720
_cell_angle_gamma   90.00216335
_symmetry_Int_Tables_number   1
_chemical_formula_structural   BaYFeCuO5
_chemical_formula_sum   'Ba32 Y32 Fe32 Cu32 O160'
_cell_volume   3800.51126403
_cell_formula_units_Z   32
loop_
 _symmetry_equiv_pos_site_id
 _symmetry_equiv_pos_as_xyz
  1  'x, y, z'
loop_
 _atom_type_symbol
 _atom_type_oxidation_number
  Ba2+  2.0
  Y3+  3.0
  Fe3+  3.0
  Cu2+  2.0
  O2-  -2.0
loop_
 _atom_site_type_symbol
 _atom_site_label
 _atom_site_symmetry_multiplicity
 _atom_site_fract_x
 _atom_site_fract_y
 _atom_site_fract_z
 _atom_site_occupancy
  Ba2+  Ba0  1  -0.00634840  -0.00538782  0.02228635  1
  Ba2+  Ba1  1  0.00730046  -0.00298255  0.51513470  1
  Ba2+  Ba2  1  -0.00472958  0.25451610  0.01117686  1
  Ba2+  Ba3  1  0.00274159  0.24761053  0.51057669  1
  Ba2+  Ba4  1  0.00088356  0.50241687  0.01886937  1
  Ba2+  Ba5  1  -0.00581782  0.50612726  0.51435583  1
  Ba2+  Ba6  1  -0.00106035  0.74975989  0.02513019  1
  Ba2+  Ba7  1  -0.00052187  0.74871214  0.51787811  1
  Ba2+  Ba8  1  0.24961240  -0.01025784  0.01734297  1
  Ba2+  Ba9  1  0.25088409  0.00468036  0.50590025  1
  Ba2+  Ba10  1  0.24994415  0.25990184  0.00699985  1
  Ba2+  Ba11  1  0.25596312  0.24213065  0.50220435  1
  Ba2+  Ba12  1  0.24932753  0.50274586  0.00627678  1
  Ba2+  Ba13  1  0.25438411  0.50392667  0.51356933  1
  Ba2+  Ba14  1  0.24943149  0.74896718  0.01654732  1
  Ba2+  Ba15  1  0.24766992  0.75105693  0.51791562  1
  Ba2+  Ba16  1  0.50933121  -0.00520345  0.01075102  1
  Ba2+  Ba17  1  0.49285020  0.00744444  0.50704346  1
  Ba2+  Ba18  1  0.50342551  0.24737264  0.00278629  1
  Ba2+  Ba19  1  0.49949915  0.24950234  0.50779637  1
  Ba2+  Ba20  1  0.49787141  0.50672681  -0.00433221  1
  Ba2+  Ba21  1  0.49942415  0.49179893  0.50606146  1
  Ba2+  Ba22  1  0.50620862  0.75038348  0.00651197  1
  Ba2+  Ba23  1  0.49089099  0.75001329  0.50687970  1
  Ba2+  Ba24  1  0.74625690  -0.00207564  0.01570286  1
  Ba2+  Ba25  1  0.74975221  0.00009700  0.51605669  1
  Ba2+  Ba26  1  0.75137849  0.24274088  0.00750098  1
  Ba2+  Ba27  1  0.74267834  0.25607418  0.51728091  1
  Ba2+  Ba28  1  0.75206999  0.50742267  0.00678994  1
  Ba2+  Ba29  1  0.75275486  0.49559427  0.51299349  1
  Ba2+  Ba30  1  0.74676547  0.75101319  0.01687735  1
  Ba2+  Ba31  1  0.76040841  0.74768495  0.51125049  1
  Y3+  Y32  1  0.00048018  0.00050957  0.25813170  1
  Y3+  Y33  1  0.00116743  -0.00066965  0.75204653  1
  Y3+  Y34  1  0.00149128  0.24903983  0.25807562  1
  Y3+  Y35  1  -0.00075840  0.25040693  0.75489617  1
  Y3+  Y36  1  -0.00061414  0.50163240  0.25872777  1
  Y3+  Y37  1  -0.00287064  0.50057359  0.75372876  1
  Y3+  Y38  1  -0.00158071  0.74855691  0.25771072  1
  Y3+  Y39  1  -0.00106172  0.74958967  0.75044361  1
  Y3+  Y40  1  0.25192160  -0.00004362  0.26005361  1
  Y3+  Y41  1  0.24926688  0.00135458  0.75354631  1
  Y3+  Y42  1  0.25070128  0.24869319  0.26021205  1
  Y3+  Y43  1  0.25069078  0.24825705  0.75631878  1
  Y3+  Y44  1  0.24908556  0.49890515  0.25683731  1
  Y3+  Y45  1  0.25204426  0.50183518  0.75832368  1
  Y3+  Y46  1  0.25067758  0.75221607  0.25598453  1
  Y3+  Y47  1  0.24984245  0.74836035  0.75623274  1
  Y3+  Y48  1  0.49976131  -0.00056599  0.25592204  1
  Y3+  Y49  1  0.50206088  0.00213922  0.75959813  1
  Y3+  Y50  1  0.50035113  0.24988789  0.25995499  1
  Y3+  Y51  1  0.50158321  0.24852816  0.75796310  1
  Y3+  Y52  1  0.50253232  0.49901213  0.25956394  1
  Y3+  Y53  1  0.50042094  0.50111632  0.75844974  1
  Y3+  Y54  1  0.50136502  0.75161202  0.25473079  1
  Y3+  Y55  1  0.50128486  0.74880656  0.76114594  1
  Y3+  Y56  1  0.74851289  -0.00002844  0.25298649  1
  Y3+  Y57  1  0.74747906  0.00017742  0.75915380  1
  Y3+  Y58  1  0.74768659  0.24973225  0.25640874  1
  Y3+  Y59  1  0.74823829  0.25125714  0.75821571  1
  Y3+  Y60  1  0.74924877  0.50205783  0.26000422  1
  Y3+  Y61  1  0.75015946  0.49946823  0.75625676  1
  Y3+  Y62  1  0.74977357  0.74814917  0.25574278  1
  Y3+  Y63  1  0.74934008  0.74944507  0.75744873  1
  Fe3+  Fe64  1  0.62564180  0.12449257  0.37676959  1
  Fe3+  Fe65  1  0.37446487  0.87471634  0.87756331  1
  Fe3+  Fe66  1  0.62600737  0.37557114  0.87949370  1
  Fe3+  Fe67  1  0.12556154  0.87436016  0.37581271  1
  Fe3+  Fe68  1  0.12304264  0.62653697  0.87508689  1
  Fe3+  Fe69  1  0.12324354  0.87441947  0.87550130  1
  Fe3+  Fe70  1  0.37401612  0.12372306  0.88114427  1
  Fe3+  Fe71  1  0.87625159  0.62588371  0.87549457  1
  Fe3+  Fe72  1  0.62456069  0.87491429  0.38030618  1
  Fe3+  Fe73  1  0.87483994  0.87544007  0.37647755  1
  Fe3+  Fe74  1  0.12521511  0.62554852  0.37694377  1
  Fe3+  Fe75  1  0.12560956  0.37539783  0.38030051  1
  Fe3+  Fe76  1  0.87443392  0.12471030  0.37914842  1
  Fe3+  Fe77  1  0.62536780  0.62534293  0.38121934  1
  Fe3+  Fe78  1  0.37443060  0.62524145  0.37686232  1
  Fe3+  Fe79  1  0.12402103  0.12380591  0.88045731  1
  Fe3+  Fe80  1  0.87553296  0.87428047  0.87472793  1
  Fe3+  Fe81  1  0.87473032  0.37438470  0.37795331  1
  Fe3+  Fe82  1  0.12361931  0.37613843  0.87533955  1
  Fe3+  Fe83  1  0.87614513  0.12384937  0.87540946  1
  Fe3+  Fe84  1  0.37604601  0.62478435  0.13832548  1
  Fe3+  Fe85  1  0.12531420  0.12541803  0.13459395  1
  Fe3+  Fe86  1  0.62397148  0.62499907  0.63510297  1
  Fe3+  Fe87  1  0.87406699  0.12531661  0.63435956  1
  Fe3+  Fe88  1  0.12579337  0.37522905  0.63439741  1
  Fe3+  Fe89  1  0.62379427  0.87492352  0.63446368  1
  Fe3+  Fe90  1  0.37574060  0.37550466  0.13820528  1
  Fe3+  Fe91  1  0.37546144  0.37425433  0.64046302  1
  Fe3+  Fe92  1  0.37548342  0.12476971  0.13489095  1
  Fe3+  Fe93  1  0.37553581  0.87586321  0.63839689  1
  Fe3+  Fe94  1  0.62476559  0.37604677  0.13474273  1
  Fe3+  Fe95  1  0.87406754  0.37541034  0.13840136  1
  Cu2+  Cu96  1  0.37542050  0.87443669  0.36416450  1
  Cu2+  Cu97  1  0.62598983  0.12443110  0.87381101  1
  Cu2+  Cu98  1  0.37411823  0.62627910  0.86391691  1
  Cu2+  Cu99  1  0.62618987  0.87458916  0.86991392  1
  Cu2+  Cu100  1  0.12469568  0.12428566  0.37228482  1
  Cu2+  Cu101  1  0.87563875  0.37547528  0.86334090  1
  Cu2+  Cu102  1  0.87512921  0.62536371  0.37316701  1
  Cu2+  Cu103  1  0.37478357  0.37541797  0.36392076  1
  Cu2+  Cu104  1  0.62581591  0.37446519  0.37389092  1
  Cu2+  Cu105  1  0.37485773  0.37460503  0.86403806  1
  Cu2+  Cu106  1  0.37624968  0.12463321  0.36940315  1
  Cu2+  Cu107  1  0.62667445  0.62547449  0.87201709  1
  Cu2+  Cu108  1  0.12617988  0.87483811  0.64903747  1
  Cu2+  Cu109  1  0.62338869  0.37551433  0.64483997  1
  Cu2+  Cu110  1  0.37639045  0.62520139  0.65230493  1
  Cu2+  Cu111  1  0.62403843  0.62341975  0.14257061  1
  Cu2+  Cu112  1  0.12539717  0.62371508  0.64846075  1
  Cu2+  Cu113  1  0.37563176  0.12535464  0.64582881  1
  Cu2+  Cu114  1  0.87467482  0.62420774  0.15318335  1
  Cu2+  Cu115  1  0.87449263  0.87447084  0.15439314  1
  Cu2+  Cu116  1  0.12530193  0.37475195  0.15295379  1
  Cu2+  Cu117  1  0.37576633  0.87497742  0.14972920  1
  Cu2+  Cu118  1  0.62409011  0.12611913  0.14171567  1
  Cu2+  Cu119  1  0.62455100  0.12491525  0.65124802  1
  Cu2+  Cu120  1  0.87397388  0.87611249  0.64791689  1
  Cu2+  Cu121  1  0.12612424  0.12620174  0.64021930  1
  Cu2+  Cu122  1  0.87320791  0.62474516  0.64179194  1
  Cu2+  Cu123  1  0.87506149  0.12571843  0.15197170  1
  Cu2+  Cu124  1  0.62503850  0.87419910  0.14445848  1
  Cu2+  Cu125  1  0.87460482  0.37402773  0.64917950  1
  Cu2+  Cu126  1  0.12576015  0.62483438  0.15248075  1
  Cu2+  Cu127  1  0.12461540  0.87537768  0.15331797  1
  O2-  O128  1  0.12371678  0.12454511  0.00612996  1
  O2-  O129  1  0.12525494  0.12569450  0.50618107  1
  O2-  O130  1  0.12272020  0.37665007  -0.00418086  1
  O2-  O131  1  0.12659463  0.37508265  0.50693247  1
  O2-  O132  1  0.12269407  0.62641517  -0.00475530  1
  O2-  O133  1  0.12631834  0.62515195  0.49708678  1
  O2-  O134  1  0.12201185  0.87400952  -0.00458788  1
  O2-  O135  1  0.12562938  0.87420909  0.49607984  1
  O2-  O136  1  0.37346467  0.12388843  0.00814555  1
  O2-  O137  1  0.37569371  0.12536343  0.50736899  1
  O2-  O138  1  0.37432715  0.37741253  0.01843033  1
  O2-  O139  1  0.37476877  0.37358782  0.51978824  1
  O2-  O140  1  0.37471583  0.62479508  0.01781110  1
  O2-  O141  1  0.37297752  0.62627638  0.49736131  1
  O2-  O142  1  0.37386401  0.87378601  -0.00200236  1
  O2-  O143  1  0.37474358  0.87618608  0.51776078  1
  O2-  O144  1  0.62574061  0.12534806  0.00718816  1
  O2-  O145  1  0.62613282  0.12452446  0.49705543  1
  O2-  O146  1  0.62588892  0.37645427  0.00798618  1
  O2-  O147  1  0.62372740  0.37508673  0.50835958  1
  O2-  O148  1  0.62548309  0.62414449  0.00764063  1
  O2-  O149  1  0.62413405  0.62532725  0.50799303  1
  O2-  O150  1  0.62688495  0.87383679  0.00818164  1
  O2-  O151  1  0.62385834  0.87516714  0.50710328  1
  O2-  O152  1  0.87758014  0.12345119  -0.00418656  1
  O2-  O153  1  0.87403177  0.12536456  0.50550252  1
  O2-  O154  1  0.87547993  0.37643333  0.01813208  1
  O2-  O155  1  0.87499488  0.37288420  0.49837335  1
  O2-  O156  1  0.87779637  0.62631770  -0.00417525  1
  O2-  O157  1  0.87454661  0.62480945  0.50661309  1
  O2-  O158  1  0.87582159  0.87402823  -0.00540958  1
  O2-  O159  1  0.87605293  0.87691971  0.49653792  1
  O2-  O160  1  0.12452163  0.00211229  0.16197263  1
  O2-  O161  1  0.12576967  -0.00084251  0.66421385  1
  O2-  O162  1  0.12554911  0.24751612  0.16439172  1
  O2-  O163  1  0.12493030  0.25390644  0.66684901  1
  O2-  O164  1  0.12518551  0.49981395  0.16607596  1
  O2-  O165  1  0.12544236  0.49788767  0.66163346  1
  O2-  O166  1  0.12518444  0.75052766  0.16365274  1
  O2-  O167  1  0.12531423  0.74912815  0.66011892  1
  O2-  O168  1  0.37471863  0.00122834  0.16243337  1
  O2-  O169  1  0.37553570  -0.00118092  0.66789449  1
  O2-  O170  1  0.37392031  0.24901333  0.16461354  1
  O2-  O171  1  0.37524090  0.25112743  0.67130824  1
  O2-  O172  1  0.37450332  0.49943459  0.17065684  1
  O2-  O173  1  0.37534395  0.50023681  0.66642085  1
  O2-  O174  1  0.37485907  0.75003169  0.16531436  1
  O2-  O175  1  0.37548442  0.75041554  0.66387625  1
  O2-  O176  1  0.62513576  0.00021637  0.16435018  1
  O2-  O177  1  0.62453634  -0.00166627  0.66302929  1
  O2-  O178  1  0.62485287  0.25352730  0.16313721  1
  O2-  O179  1  0.62461677  0.24874130  0.66815458  1
  O2-  O180  1  0.62504246  0.49653177  0.16834365  1
  O2-  O181  1  0.62452286  0.50291579  0.66530633  1
  O2-  O182  1  0.62518019  0.74937045  0.16717779  1
  O2-  O183  1  0.62442603  0.75049196  0.66175023  1
  O2-  O184  1  0.87502634  0.00053914  0.16405420  1
  O2-  O185  1  0.87437981  0.00180184  0.66040644  1
  O2-  O186  1  0.87562520  0.25091509  0.16656079  1
  O2-  O187  1  0.87445849  0.24807570  0.66433143  1
  O2-  O188  1  0.87548740  0.49938963  0.16818903  1
  O2-  O189  1  0.87354619  0.49824861  0.66438229  1
  O2-  O190  1  0.87472946  0.74884455  0.16421009  1
  O2-  O191  1  0.87434550  0.75210602  0.66065905  1
  O2-  O192  1  0.00183533  0.12555467  0.16366793  1
  O2-  O193  1  -0.00282340  0.12537061  0.66047173  1
  O2-  O194  1  0.00009582  0.37453321  0.16666992  1
  O2-  O195  1  0.00131375  0.37473119  0.65888218  1
  O2-  O196  1  0.00078285  0.62427824  0.16414049  1
  O2-  O197  1  0.00027342  0.62400764  0.65955102  1
  O2-  O198  1  -0.00067616  0.87541829  0.16404226  1
  O2-  O199  1  0.00059906  0.87610951  0.65820275  1
  O2-  O200  1  0.25022463  0.12449011  0.16230293  1
  O2-  O201  1  0.25051939  0.12572613  0.66786125  1
  O2-  O202  1  0.25036636  0.37424819  0.16677372  1
  O2-  O203  1  0.24936776  0.37558447  0.66703002  1
  O2-  O204  1  0.25074870  0.62469977  0.16450794  1
  O2-  O205  1  0.25052977  0.62447928  0.66477205  1
  O2-  O206  1  0.24942737  0.87562885  0.16290316  1
  O2-  O207  1  0.25084013  0.87451866  0.66662892  1
  O2-  O208  1  0.49647767  0.12546092  0.16461435  1
  O2-  O209  1  0.50150400  0.12506522  0.66877230  1
  O2-  O210  1  0.50072355  0.37452492  0.16751573  1
  O2-  O211  1  0.49822066  0.37516485  0.67143978  1
  O2-  O212  1  0.49788297  0.62449245  0.17069608  1
  O2-  O213  1  0.50224362  0.62566656  0.66671780  1
  O2-  O214  1  0.49943992  0.87520056  0.16830390  1
  O2-  O215  1  0.50147543  0.87484527  0.66694854  1
  O2-  O216  1  0.75106077  0.12570300  0.16453787  1
  O2-  O217  1  0.75080347  0.12517419  0.66142922  1
  O2-  O218  1  0.74884603  0.37500220  0.16530801  1
  O2-  O219  1  0.75019589  0.37437897  0.66574018  1
  O2-  O220  1  0.75096628  0.62401780  0.16653343  1
  O2-  O221  1  0.74638759  0.62539199  0.66318208  1
  O2-  O222  1  0.75156146  0.87463885  0.16740069  1
  O2-  O223  1  0.74696693  0.87549445  0.66059597  1
  O2-  O224  1  0.12542018  -0.00219807  0.34523923  1
  O2-  O225  1  0.12429922  0.00132138  0.84675013  1
  O2-  O226  1  0.12524421  0.25291301  0.34936359  1
  O2-  O227  1  0.12490740  0.24821781  0.85016391  1
  O2-  O228  1  0.12532889  0.49872313  0.34955830  1
  O2-  O229  1  0.12480078  0.50087798  0.84408847  1
  O2-  O230  1  0.12554860  0.75012942  0.34516877  1
  O2-  O231  1  0.12458529  0.75025416  0.84163704  1
  O2-  O232  1  0.37567818  -0.00152877  0.34683901  1
  O2-  O233  1  0.37393808  0.00119066  0.84893562  1
  O2-  O234  1  0.37515452  0.25162091  0.34762630  1
  O2-  O235  1  0.37323635  0.24725678  0.85453515  1
  O2-  O236  1  0.37506582  0.50075250  0.35077651  1
  O2-  O237  1  0.37471252  0.50055113  0.85011581  1
  O2-  O238  1  0.37616132  0.74866279  0.34701298  1
  O2-  O239  1  0.37432085  0.75119987  0.84579265  1
  O2-  O240  1  0.62517400  -0.00158803  0.34763761  1
  O2-  O241  1  0.62541467  -0.00036475  0.84736242  1
  O2-  O242  1  0.62521194  0.24768182  0.34568695  1
  O2-  O243  1  0.62542542  0.25292868  0.85224202  1
  O2-  O244  1  0.62503186  0.50286122  0.35180821  1
  O2-  O245  1  0.62478428  0.49738192  0.84949931  1
  O2-  O246  1  0.62405717  0.75037547  0.35196056  1
  O2-  O247  1  0.62561603  0.74994814  0.84586979  1
  O2-  O248  1  0.87431047  0.00096668  0.34717063  1
  O2-  O249  1  0.87615408  -0.00024094  0.84182574  1
  O2-  O250  1  0.87551866  0.24835066  0.34811365  1
  O2-  O251  1  0.87635161  0.24970889  0.84855913  1
  O2-  O252  1  0.87540262  0.49810223  0.34950125  1
  O2-  O253  1  0.87571371  0.50029601  0.84732951  1
  O2-  O254  1  0.87454006  0.75226367  0.34714389  1
  O2-  O255  1  0.87538399  0.75004592  0.84126013  1
  O2-  O256  1  -0.00340035  0.12496002  0.34809565  1
  O2-  O257  1  0.00188642  0.12545741  0.84335137  1
  O2-  O258  1  0.00138020  0.37422005  0.34949628  1
  O2-  O259  1  0.00130009  0.37420699  0.84162981  1
  O2-  O260  1  0.00235959  0.62486401  0.34658938  1
  O2-  O261  1  -0.00034982  0.62506982  0.83988878  1
  O2-  O262  1  -0.00007599  0.87566939  0.34522692  1
  O2-  O263  1  0.00015475  0.87529724  0.83927845  1
  O2-  O264  1  0.25110160  0.12489594  0.34705923  1
  O2-  O265  1  0.24863293  0.12485280  0.85158504  1
  O2-  O266  1  0.24862795  0.37488039  0.35061627  1
  O2-  O267  1  0.24902899  0.37484856  0.84889287  1
  O2-  O268  1  0.24974878  0.62468352  0.34437381  1
  O2-  O269  1  0.24856970  0.62503329  0.84846738  1
  O2-  O270  1  0.25040751  0.87491776  0.34655808  1
  O2-  O271  1  0.24888390  0.87574028  0.84694498  1
  O2-  O272  1  0.50204414  0.12434110  0.34742683  1
  O2-  O273  1  0.49674102  0.12493522  0.85286019  1
  O2-  O274  1  0.49876178  0.37493696  0.35038890  1
  O2-  O275  1  0.50084387  0.37479763  0.85468045  1
  O2-  O276  1  0.50128774  0.62475318  0.35204355  1
  O2-  O277  1  0.49878918  0.62524489  0.85098511  1
  O2-  O278  1  0.50178309  0.87494104  0.35244970  1
  O2-  O279  1  0.49861818  0.87511629  0.84925165  1
  O2-  O280  1  0.75113448  0.12447957  0.34707050  1
  O2-  O281  1  0.75281696  0.12534018  0.84505687  1
  O2-  O282  1  0.75200454  0.37421781  0.34656338  1
  O2-  O283  1  0.74904395  0.37518418  0.85014181  1
  O2-  O284  1  0.74682518  0.62579742  0.35051550  1
  O2-  O285  1  0.75281631  0.62426144  0.84539955  1
  O2-  O286  1  0.74816073  0.87497939  0.35016674  1
  O2-  O287  1  0.75219176  0.87529333  0.84355422  1
