# generated using pymatgen
data_BaYFeCuO5
_symmetry_space_group_name_H-M   'P 1'
_cell_length_a   15.67631715
_cell_length_b   15.67468051
_cell_length_c   15.50220923
_cell_angle_alpha   90.00102174
_cell_angle_beta   89.99490339
_cell_angle_gamma   89.99639994
_symmetry_Int_Tables_number   1
_chemical_formula_structural   BaYFeCuO5
_chemical_formula_sum   'Ba32 Y32 Fe32 Cu32 O160'
_cell_volume   3809.22240833
_cell_formula_units_Z   32
loop_
 _symmetry_equiv_pos_site_id
 _symmetry_equiv_pos_as_xyz
  1  'x, y, z'
loop_
 _atom_type_symbol
 _atom_type_oxidation_number
  Ba2+  2.0
  Y3+  3.0
  Fe3+  3.0
  Cu2+  2.0
  O2-  -2.0
loop_
 _atom_site_type_symbol
 _atom_site_label
 _atom_site_symmetry_multiplicity
 _atom_site_fract_x
 _atom_site_fract_y
 _atom_site_fract_z
 _atom_site_occupancy
  Ba2+  Ba0  1  0.00743662  -0.00157257  0.00718793  1
  Ba2+  Ba1  1  0.00292566  -0.00084252  0.51130815  1
  Ba2+  Ba2  1  0.00454874  0.25321391  0.00194703  1
  Ba2+  Ba3  1  -0.00186223  0.24958644  0.51897265  1
  Ba2+  Ba4  1  -0.00633795  0.49743969  0.00302328  1
  Ba2+  Ba5  1  -0.00551686  0.49428145  0.51256497  1
  Ba2+  Ba6  1  -0.00568975  0.75124628  0.00904272  1
  Ba2+  Ba7  1  -0.00133770  0.75739750  0.50707389  1
  Ba2+  Ba8  1  0.24379726  -0.00239912  -0.00468008  1
  Ba2+  Ba9  1  0.25143679  -0.00063151  0.50149313  1
  Ba2+  Ba10  1  0.24244004  0.24982968  0.00650591  1
  Ba2+  Ba11  1  0.25319920  0.24628114  0.51094348  1
  Ba2+  Ba12  1  0.25398419  0.49736577  0.01379743  1
  Ba2+  Ba13  1  0.25497888  0.49432336  0.52105055  1
  Ba2+  Ba14  1  0.25323627  0.75457046  -0.00031806  1
  Ba2+  Ba15  1  0.25281129  0.75906681  0.51062104  1
  Ba2+  Ba16  1  0.50079508  -0.01062878  0.00161002  1
  Ba2+  Ba17  1  0.49177195  0.00487439  0.51088121  1
  Ba2+  Ba18  1  0.49804271  0.25748194  0.01625744  1
  Ba2+  Ba19  1  0.49943199  0.24847829  0.52137220  1
  Ba2+  Ba20  1  0.49540286  0.49840201  0.01986333  1
  Ba2+  Ba21  1  0.50188190  0.49787103  0.52428009  1
  Ba2+  Ba22  1  0.49799462  0.75507685  0.00720610  1
  Ba2+  Ba23  1  0.49411093  0.74758776  0.51635387  1
  Ba2+  Ba24  1  0.74866744  -0.01075972  0.01177866  1
  Ba2+  Ba25  1  0.75479739  0.00637803  0.52319658  1
  Ba2+  Ba26  1  0.75307489  0.25946551  0.01033529  1
  Ba2+  Ba27  1  0.74944956  0.25121951  0.52787046  1
  Ba2+  Ba28  1  0.75833725  0.49877858  0.01077281  1
  Ba2+  Ba29  1  0.74832181  0.49721617  0.51927253  1
  Ba2+  Ba30  1  0.75393621  0.75232836  0.01265908  1
  Ba2+  Ba31  1  0.75362951  0.74506194  0.51070709  1
  Y3+  Y32  1  0.00316054  0.00036492  0.25876717  1
  Y3+  Y33  1  0.00244718  -0.00062673  0.75722241  1
  Y3+  Y34  1  0.00135324  0.24845707  0.25351883  1
  Y3+  Y35  1  0.00142626  0.25184038  0.76151843  1
  Y3+  Y36  1  -0.00307137  0.50126459  0.25532054  1
  Y3+  Y37  1  -0.00087383  0.49792986  0.76114306  1
  Y3+  Y38  1  -0.00156920  0.74979390  0.25960915  1
  Y3+  Y39  1  0.00055132  0.75115201  0.75728110  1
  Y3+  Y40  1  0.24910209  0.00152297  0.26389476  1
  Y3+  Y41  1  0.24962134  -0.00156537  0.75408260  1
  Y3+  Y42  1  0.24929265  0.24658660  0.25750843  1
  Y3+  Y43  1  0.24849118  0.24925517  0.75746039  1
  Y3+  Y44  1  0.25051662  0.50023816  0.25688292  1
  Y3+  Y45  1  0.24907254  0.49860605  0.75663707  1
  Y3+  Y46  1  0.25045253  0.75230712  0.26362471  1
  Y3+  Y47  1  0.25050756  0.75322738  0.75315177  1
  Y3+  Y48  1  0.49843821  -0.00078306  0.25952980  1
  Y3+  Y49  1  0.49858904  -0.00156792  0.75576112  1
  Y3+  Y50  1  0.49876539  0.24970519  0.25553926  1
  Y3+  Y51  1  0.49922295  0.24817699  0.75560547  1
  Y3+  Y52  1  0.49983433  0.49927805  0.25351373  1
  Y3+  Y53  1  0.50049867  0.50127226  0.75506651  1
  Y3+  Y54  1  0.49946596  0.75196086  0.25777517  1
  Y3+  Y55  1  0.49959547  0.75191771  0.75632246  1
  Y3+  Y56  1  0.74904494  -0.00216363  0.25324242  1
  Y3+  Y57  1  0.74982183  -0.00075353  0.75903862  1
  Y3+  Y58  1  0.75036179  0.25258202  0.25054851  1
  Y3+  Y59  1  0.75139290  0.25095375  0.76041988  1
  Y3+  Y60  1  0.75236991  0.50035323  0.25191074  1
  Y3+  Y61  1  0.75166641  0.50028567  0.76125736  1
  Y3+  Y62  1  0.75127239  0.74943673  0.25402017  1
  Y3+  Y63  1  0.74982938  0.74955583  0.75969482  1
  Fe3+  Fe64  1  0.62532989  0.62353405  0.37606614  1
  Fe3+  Fe65  1  0.87351964  0.12666846  0.37395763  1
  Fe3+  Fe66  1  0.37477072  0.12438856  0.87960402  1
  Fe3+  Fe67  1  0.62454759  0.12474654  0.88002460  1
  Fe3+  Fe68  1  0.62475981  0.62548528  0.87971905  1
  Fe3+  Fe69  1  0.62558261  0.37463531  0.37428158  1
  Fe3+  Fe70  1  0.87312477  0.87644839  0.37611810  1
  Fe3+  Fe71  1  0.12439394  0.37476474  0.37813484  1
  Fe3+  Fe72  1  0.12424789  0.62370390  0.38185092  1
  Fe3+  Fe73  1  0.87553554  0.12439486  0.87965087  1
  Fe3+  Fe74  1  0.62550474  0.87540455  0.38097092  1
  Fe3+  Fe75  1  0.37598198  0.62325956  0.37763838  1
  Fe3+  Fe76  1  0.87355931  0.37402732  0.37452033  1
  Fe3+  Fe77  1  0.37496879  0.37495150  0.87509779  1
  Fe3+  Fe78  1  0.12534625  0.62538093  0.87976069  1
  Fe3+  Fe79  1  0.37630913  0.37467926  0.37552017  1
  Fe3+  Fe80  1  0.62343616  0.37600282  0.87710625  1
  Fe3+  Fe81  1  0.62683795  0.12652643  0.37532291  1
  Fe3+  Fe82  1  0.87575821  0.87495667  0.87521582  1
  Fe3+  Fe83  1  0.37503436  0.62513213  0.87533196  1
  Fe3+  Fe84  1  0.87644070  0.12375307  0.13180650  1
  Fe3+  Fe85  1  0.37322430  0.12331542  0.13370398  1
  Fe3+  Fe86  1  0.12618226  0.87469713  0.14084113  1
  Fe3+  Fe87  1  0.12509748  0.12522094  0.63951127  1
  Fe3+  Fe88  1  0.37312565  0.87595473  0.14054751  1
  Fe3+  Fe89  1  0.87574045  0.62504290  0.63991664  1
  Fe3+  Fe90  1  0.12479046  0.37534830  0.13778716  1
  Fe3+  Fe91  1  0.62571642  0.87504745  0.63494574  1
  Fe3+  Fe92  1  0.12596855  0.62652507  0.13552058  1
  Fe3+  Fe93  1  0.62412723  0.12418699  0.13171711  1
  Fe3+  Fe94  1  0.62420854  0.62582952  0.13362236  1
  Fe3+  Fe95  1  0.12460170  0.62469800  0.63541788  1
  Cu2+  Cu96  1  0.37656390  0.87523894  0.37455291  1
  Cu2+  Cu97  1  0.12516397  0.12466555  0.87272375  1
  Cu2+  Cu98  1  0.12404652  0.87513168  0.37505857  1
  Cu2+  Cu99  1  0.87490763  0.37471339  0.87223471  1
  Cu2+  Cu100  1  0.12645447  0.37621538  0.86443160  1
  Cu2+  Cu101  1  0.37627366  0.12675836  0.37249399  1
  Cu2+  Cu102  1  0.62539070  0.87404194  0.87116190  1
  Cu2+  Cu103  1  0.87400145  0.62418104  0.36328160  1
  Cu2+  Cu104  1  0.12353362  0.12656780  0.36519656  1
  Cu2+  Cu105  1  0.87523696  0.62580401  0.87321387  1
  Cu2+  Cu106  1  0.12491824  0.87367688  0.86046546  1
  Cu2+  Cu107  1  0.37454848  0.87506698  0.85947804  1
  Cu2+  Cu108  1  0.37394495  0.12467371  0.64483863  1
  Cu2+  Cu109  1  0.37506395  0.87615545  0.64258672  1
  Cu2+  Cu110  1  0.12455402  0.37491780  0.65140646  1
  Cu2+  Cu111  1  0.62535772  0.12421098  0.65551104  1
  Cu2+  Cu112  1  0.87613698  0.12518321  0.65823009  1
  Cu2+  Cu113  1  0.62352210  0.87450496  0.14184506  1
  Cu2+  Cu114  1  0.87473076  0.87485780  0.65246636  1
  Cu2+  Cu115  1  0.87668180  0.62583530  0.14045448  1
  Cu2+  Cu116  1  0.37507311  0.37401398  0.65389317  1
  Cu2+  Cu117  1  0.87502951  0.37521117  0.65812844  1
  Cu2+  Cu118  1  0.37432298  0.62488344  0.65132575  1
  Cu2+  Cu119  1  0.62578678  0.62559913  0.65250335  1
  Cu2+  Cu120  1  0.12458442  0.87517201  0.64172835  1
  Cu2+  Cu121  1  0.62540453  0.37467413  0.65675091  1
  Cu2+  Cu122  1  0.62498305  0.37551788  0.14571085  1
  Cu2+  Cu123  1  0.37364059  0.62694742  0.15077203  1
  Cu2+  Cu124  1  0.87656038  0.87591862  0.15210013  1
  Cu2+  Cu125  1  0.12598997  0.12342550  0.14162479  1
  Cu2+  Cu126  1  0.87735443  0.37446413  0.14076706  1
  Cu2+  Cu127  1  0.37290970  0.37384689  0.15096791  1
  O2-  O128  1  0.12579562  0.12366807  0.00672904  1
  O2-  O129  1  0.12362427  0.12682803  0.51892523  1
  O2-  O130  1  0.12601921  0.37738714  0.01699639  1
  O2-  O131  1  0.12369867  0.37478219  0.49826577  1
  O2-  O132  1  0.12689030  0.62667490  0.00775708  1
  O2-  O133  1  0.12399264  0.62284467  0.50836429  1
  O2-  O134  1  0.12732478  0.87276432  0.02058733  1
  O2-  O135  1  0.12322958  0.87543922  0.50833112  1
  O2-  O136  1  0.37396018  0.12325254  0.00662127  1
  O2-  O137  1  0.37570296  0.12719372  0.50715500  1
  O2-  O138  1  0.37482325  0.37595248  -0.00481714  1
  O2-  O139  1  0.37825364  0.37498683  0.49546570  1
  O2-  O140  1  0.37442677  0.62545045  -0.00497882  1
  O2-  O141  1  0.37716226  0.62026905  0.49729038  1
  O2-  O142  1  0.37224162  0.87563848  0.02007887  1
  O2-  O143  1  0.37750595  0.87550783  0.50850537  1
  O2-  O144  1  0.62327458  0.12392760  0.00534110  1
  O2-  O145  1  0.62847255  0.12800748  0.49494239  1
  O2-  O146  1  0.62198344  0.37648406  -0.00299010  1
  O2-  O147  1  0.62599753  0.37394674  0.49383715  1
  O2-  O148  1  0.62335405  0.62627726  0.00587113  1
  O2-  O149  1  0.62580186  0.62196309  0.49609078  1
  O2-  O150  1  0.62408114  0.87326983  0.00666279  1
  O2-  O151  1  0.62672693  0.87578991  0.50672192  1
  O2-  O152  1  0.87634880  0.12304076  0.00520668  1
  O2-  O153  1  0.87181218  0.12856010  0.49392995  1
  O2-  O154  1  0.87660220  0.37478666  0.00602832  1
  O2-  O155  1  0.87179114  0.37290330  0.49462256  1
  O2-  O156  1  0.87618715  0.62674881  0.00748780  1
  O2-  O157  1  0.87440836  0.62290162  0.51950479  1
  O2-  O158  1  0.87618332  0.87500434  -0.00409664  1
  O2-  O159  1  0.87125511  0.87722447  0.49621589  1
  O2-  O160  1  0.12520624  -0.00204178  0.16934453  1
  O2-  O161  1  0.12406935  0.00164851  0.66777199  1
  O2-  O162  1  0.12590800  0.25068961  0.16262776  1
  O2-  O163  1  0.12406804  0.25040349  0.66864366  1
  O2-  O164  1  0.12586819  0.50197747  0.16445277  1
  O2-  O165  1  0.12482203  0.50075232  0.66413572  1
  O2-  O166  1  0.12607901  0.74943600  0.17053699  1
  O2-  O167  1  0.12472482  0.74700028  0.66369761  1
  O2-  O168  1  0.37565819  0.00119121  0.16900641  1
  O2-  O169  1  0.37549393  0.00052558  0.66850173  1
  O2-  O170  1  0.37406235  0.24749234  0.15966884  1
  O2-  O171  1  0.37540851  0.25074437  0.66748566  1
  O2-  O172  1  0.37389679  0.50019340  0.15967848  1
  O2-  O173  1  0.37514551  0.49935315  0.66364575  1
  O2-  O174  1  0.37407780  0.75151997  0.16961391  1
  O2-  O175  1  0.37511187  0.74884427  0.66414338  1
  O2-  O176  1  0.62402904  0.00327003  0.16483946  1
  O2-  O177  1  0.62617488  -0.00150103  0.66536319  1
  O2-  O178  1  0.62524301  0.24805406  0.15746538  1
  O2-  O179  1  0.62540279  0.24918741  0.66755878  1
  O2-  O180  1  0.62371495  0.50199069  0.15954378  1
  O2-  O181  1  0.62547255  0.49996755  0.66537634  1
  O2-  O182  1  0.62430083  0.74706078  0.16696028  1
  O2-  O183  1  0.62572039  0.75181473  0.66291983  1
  O2-  O184  1  0.87454958  0.00125808  0.16163006  1
  O2-  O185  1  0.87454696  -0.00014426  0.66550767  1
  O2-  O186  1  0.87484521  0.24646408  0.15809962  1
  O2-  O187  1  0.87483432  0.25092520  0.66875228  1
  O2-  O188  1  0.87659832  0.49981666  0.16324583  1
  O2-  O189  1  0.87487254  0.50019513  0.66803773  1
  O2-  O190  1  0.87554756  0.75240340  0.16706447  1
  O2-  O191  1  0.87495971  0.74935986  0.66548613  1
  O2-  O192  1  -0.00198907  0.12375833  0.16326940  1
  O2-  O193  1  0.00030527  0.12597004  0.66868087  1
  O2-  O194  1  0.00265109  0.37505362  0.16830144  1
  O2-  O195  1  -0.00090577  0.37541830  0.66698606  1
  O2-  O196  1  0.00390826  0.62662682  0.16635194  1
  O2-  O197  1  0.00116649  0.62404183  0.66863589  1
  O2-  O198  1  0.00132871  0.87436621  0.16746710  1
  O2-  O199  1  -0.00190516  0.87448654  0.66551700  1
  O2-  O200  1  0.25276725  0.12393141  0.16692884  1
  O2-  O201  1  0.24796893  0.12592840  0.66902508  1
  O2-  O202  1  0.24880513  0.37576634  0.16786589  1
  O2-  O203  1  0.25055713  0.37507582  0.66428404  1
  O2-  O204  1  0.24870849  0.62513082  0.16643036  1
  O2-  O205  1  0.24799058  0.62399309  0.66356888  1
  O2-  O206  1  0.25015507  0.87527821  0.17459167  1
  O2-  O207  1  0.24994734  0.87501980  0.66488323  1
  O2-  O208  1  0.49908317  0.12579451  0.15895134  1
  O2-  O209  1  0.50112501  0.12465062  0.66697832  1
  O2-  O210  1  0.49850121  0.37422225  0.15968256  1
  O2-  O211  1  0.50066121  0.37443806  0.66358764  1
  O2-  O212  1  0.49984590  0.62553947  0.15930698  1
  O2-  O213  1  0.50036792  0.62522332  0.66409267  1
  O2-  O214  1  0.49725287  0.87495086  0.16737819  1
  O2-  O215  1  0.50344144  0.87512387  0.66393713  1
  O2-  O216  1  0.74966051  0.12396561  0.15405680  1
  O2-  O217  1  0.75121370  0.12493329  0.66839344  1
  O2-  O218  1  0.74971558  0.37567543  0.15854274  1
  O2-  O219  1  0.74998768  0.37486792  0.66713933  1
  O2-  O220  1  0.74764811  0.62535104  0.15922116  1
  O2-  O221  1  0.75095867  0.62492657  0.66908859  1
  O2-  O222  1  0.75132255  0.87523738  0.16026790  1
  O2-  O223  1  0.74866271  0.87516484  0.66391105  1
  O2-  O224  1  0.12417524  0.00218586  0.35195686  1
  O2-  O225  1  0.12494725  -0.00255227  0.85048628  1
  O2-  O226  1  0.12409897  0.25138285  0.34449307  1
  O2-  O227  1  0.12593833  0.25185988  0.85160184  1
  O2-  O228  1  0.12467919  0.50086765  0.34641792  1
  O2-  O229  1  0.12602912  0.50213159  0.84916776  1
  O2-  O230  1  0.12434596  0.74610207  0.35330992  1
  O2-  O231  1  0.12580252  0.74843769  0.84838126  1
  O2-  O232  1  0.37582864  0.00073561  0.35118129  1
  O2-  O233  1  0.37549843  0.00046538  0.85220955  1
  O2-  O234  1  0.37543154  0.25227223  0.34220695  1
  O2-  O235  1  0.37524802  0.24858109  0.85012523  1
  O2-  O236  1  0.37545935  0.49956313  0.34096409  1
  O2-  O237  1  0.37482450  0.50033139  0.84466891  1
  O2-  O238  1  0.37585253  0.74741843  0.35079571  1
  O2-  O239  1  0.37475086  0.75016795  0.84722386  1
  O2-  O240  1  0.62636889  -0.00113886  0.34802229  1
  O2-  O241  1  0.62458280  0.00292058  0.85009291  1
  O2-  O242  1  0.62541838  0.25107485  0.33837224  1
  O2-  O243  1  0.62418514  0.24847539  0.85086127  1
  O2-  O244  1  0.62546162  0.49939586  0.34065863  1
  O2-  O245  1  0.62388219  0.50166765  0.84834858  1
  O2-  O246  1  0.62527378  0.75088208  0.35048378  1
  O2-  O247  1  0.62460135  0.74715522  0.84728862  1
  O2-  O248  1  0.87349412  0.00082382  0.34315724  1
  O2-  O249  1  0.87526578  0.00105459  0.84837389  1
  O2-  O250  1  0.87471210  0.25060331  0.33776811  1
  O2-  O251  1  0.87466354  0.24724416  0.85258418  1
  O2-  O252  1  0.87412250  0.49919455  0.34546282  1
  O2-  O253  1  0.87530854  0.49994340  0.85035471  1
  O2-  O254  1  0.87387112  0.75006890  0.35042107  1
  O2-  O255  1  0.87538631  0.75167809  0.84645059  1
  O2-  O256  1  -0.00157917  0.12547199  0.34611984  1
  O2-  O257  1  -0.00197627  0.12490748  0.85151436  1
  O2-  O258  1  -0.00082976  0.37595806  0.34753280  1
  O2-  O259  1  0.00226734  0.37545301  0.85124125  1
  O2-  O260  1  0.00053238  0.62413702  0.35117512  1
  O2-  O261  1  0.00323322  0.62514051  0.85212480  1
  O2-  O262  1  -0.00283971  0.87495821  0.34902275  1
  O2-  O263  1  0.00020837  0.87448494  0.84804720  1
  O2-  O264  1  0.24786157  0.12642491  0.35127518  1
  O2-  O265  1  0.25293136  0.12434283  0.85118255  1
  O2-  O266  1  0.24996776  0.37535621  0.34851745  1
  O2-  O267  1  0.25141322  0.37528160  0.84698559  1
  O2-  O268  1  0.24929876  0.62392277  0.34998905  1
  O2-  O269  1  0.24927381  0.62564461  0.84743025  1
  O2-  O270  1  0.25001916  0.87482375  0.35473417  1
  O2-  O271  1  0.24946736  0.87421421  0.84876749  1
  O2-  O272  1  0.50391480  0.12517410  0.34185861  1
  O2-  O273  1  0.49931754  0.12438894  0.85121837  1
  O2-  O274  1  0.50073053  0.37511399  0.34092503  1
  O2-  O275  1  0.49942822  0.37469334  0.84401142  1
  O2-  O276  1  0.50059867  0.62449683  0.34144055  1
  O2-  O277  1  0.50051134  0.62568304  0.84715073  1
  O2-  O278  1  0.50395560  0.87542721  0.34885897  1
  O2-  O279  1  0.49889380  0.87474413  0.84779538  1
  O2-  O280  1  0.74966901  0.12550473  0.33494789  1
  O2-  O281  1  0.74985981  0.12463884  0.85261902  1
  O2-  O282  1  0.74989752  0.37515410  0.33902050  1
  O2-  O283  1  0.74691753  0.37481300  0.84939638  1
  O2-  O284  1  0.74887309  0.62531464  0.34249991  1
  O2-  O285  1  0.74741269  0.62497418  0.85196923  1
  O2-  O286  1  0.74828946  0.87428655  0.34264180  1
  O2-  O287  1  0.75192819  0.87549804  0.84635647  1
