# generated using pymatgen
data_BaYFeCuO5
_symmetry_space_group_name_H-M   'P 1'
_cell_length_a   15.66935055
_cell_length_b   15.66958391
_cell_length_c   15.47930725
_cell_angle_alpha   89.99313232
_cell_angle_beta   90.00075310
_cell_angle_gamma   89.99526460
_symmetry_Int_Tables_number   1
_chemical_formula_structural   BaYFeCuO5
_chemical_formula_sum   'Ba32 Y32 Fe32 Cu32 O160'
_cell_volume   3800.66837250
_cell_formula_units_Z   32
loop_
 _symmetry_equiv_pos_site_id
 _symmetry_equiv_pos_as_xyz
  1  'x, y, z'
loop_
 _atom_type_symbol
 _atom_type_oxidation_number
  Ba2+  2.0
  Y3+  3.0
  Fe3+  3.0
  Cu2+  2.0
  O2-  -2.0
loop_
 _atom_site_type_symbol
 _atom_site_label
 _atom_site_symmetry_multiplicity
 _atom_site_fract_x
 _atom_site_fract_y
 _atom_site_fract_z
 _atom_site_occupancy
  Ba2+  Ba0  1  -0.00044332  -0.00317646  0.02173253  1
  Ba2+  Ba1  1  0.00051720  -0.00916411  0.50639895  1
  Ba2+  Ba2  1  0.00541292  0.24423537  0.01310681  1
  Ba2+  Ba3  1  0.00704844  0.25678319  0.50739320  1
  Ba2+  Ba4  1  0.00498419  0.50538638  -0.00045858  1
  Ba2+  Ba5  1  0.00751668  0.50533954  0.51180901  1
  Ba2+  Ba6  1  -0.00218688  0.75342879  0.01171450  1
  Ba2+  Ba7  1  0.00177463  0.74571402  0.51266003  1
  Ba2+  Ba8  1  0.24959729  -0.00120190  0.02807298  1
  Ba2+  Ba9  1  0.25853506  -0.00279829  0.50289911  1
  Ba2+  Ba10  1  0.24612416  0.24440044  0.01405065  1
  Ba2+  Ba11  1  0.25714096  0.25535001  0.50756774  1
  Ba2+  Ba12  1  0.24671748  0.50484687  -0.00118701  1
  Ba2+  Ba13  1  0.24489291  0.49457298  0.50746854  1
  Ba2+  Ba14  1  0.25069934  0.75145616  0.01960707  1
  Ba2+  Ba15  1  0.24597448  0.75286042  0.50193033  1
  Ba2+  Ba16  1  0.49714226  -0.00781913  0.01656439  1
  Ba2+  Ba17  1  0.49242347  0.00429718  0.51123491  1
  Ba2+  Ba18  1  0.49869952  0.24974171  0.01632380  1
  Ba2+  Ba19  1  0.49352092  0.25006751  0.50661678  1
  Ba2+  Ba20  1  0.50232914  0.50631288  0.02294694  1
  Ba2+  Ba21  1  0.50282645  0.49576245  0.50097411  1
  Ba2+  Ba22  1  0.50094512  0.75155201  0.02288078  1
  Ba2+  Ba23  1  0.49991386  0.74971056  0.50685598  1
  Ba2+  Ba24  1  0.75371724  -0.01015326  0.00881103  1
  Ba2+  Ba25  1  0.74901853  -0.00042494  0.51717484  1
  Ba2+  Ba26  1  0.75066941  0.24964623  0.01559760  1
  Ba2+  Ba27  1  0.73954173  0.25024618  0.50652563  1
  Ba2+  Ba28  1  0.74582593  0.50701677  0.02139185  1
  Ba2+  Ba29  1  0.74388571  0.50712757  0.50675901  1
  Ba2+  Ba30  1  0.74997498  0.75397659  0.01535297  1
  Ba2+  Ba31  1  0.75274321  0.74389634  0.51826472  1
  Y3+  Y32  1  0.00021768  -0.00168915  0.25628327  1
  Y3+  Y33  1  -0.00195205  -0.00316240  0.75700236  1
  Y3+  Y34  1  0.00078071  0.24946539  0.25853022  1
  Y3+  Y35  1  0.00274109  0.25257450  0.75675109  1
  Y3+  Y36  1  0.00175808  0.50134333  0.26135072  1
  Y3+  Y37  1  0.00399414  0.50146632  0.75492535  1
  Y3+  Y38  1  0.00084424  0.75075736  0.25782073  1
  Y3+  Y39  1  -0.00073615  0.74899278  0.75658110  1
  Y3+  Y40  1  0.25212438  -0.00109298  0.26209701  1
  Y3+  Y41  1  0.25325977  -0.00021625  0.75146382  1
  Y3+  Y42  1  0.25184047  0.24984493  0.26236118  1
  Y3+  Y43  1  0.25078854  0.25221705  0.75342851  1
  Y3+  Y44  1  0.24934849  0.49964461  0.26332722  1
  Y3+  Y45  1  0.24770066  0.49891129  0.75356208  1
  Y3+  Y46  1  0.24956583  0.75149824  0.26203773  1
  Y3+  Y47  1  0.24959394  0.74904822  0.75339085  1
  Y3+  Y48  1  0.49714876  -0.00199251  0.25882080  1
  Y3+  Y49  1  0.49942849  -0.00082780  0.75439488  1
  Y3+  Y50  1  0.49826410  0.25119527  0.25954308  1
  Y3+  Y51  1  0.49741432  0.24880788  0.75407058  1
  Y3+  Y52  1  0.50155868  0.50045406  0.26089694  1
  Y3+  Y53  1  0.49892936  0.50059758  0.75369241  1
  Y3+  Y54  1  0.50037795  0.75027981  0.25946325  1
  Y3+  Y55  1  0.50096515  0.75147575  0.75406582  1
  Y3+  Y56  1  0.75070827  -0.00245511  0.25234944  1
  Y3+  Y57  1  0.74936031  -0.00358248  0.75992614  1
  Y3+  Y58  1  0.74924352  0.25072399  0.25562676  1
  Y3+  Y59  1  0.74913864  0.24910847  0.75740344  1
  Y3+  Y60  1  0.74747186  0.50197056  0.25841571  1
  Y3+  Y61  1  0.74963649  0.50330089  0.75464336  1
  Y3+  Y62  1  0.74931265  0.74933954  0.25435823  1
  Y3+  Y63  1  0.75072341  0.75172064  0.75825944  1
  Fe3+  Fe64  1  0.62603044  0.87488045  0.37902772  1
  Fe3+  Fe65  1  0.12654482  0.87547012  0.87667514  1
  Fe3+  Fe66  1  0.62483752  0.12348853  0.37515096  1
  Fe3+  Fe67  1  0.12516299  0.12445313  0.37966539  1
  Fe3+  Fe68  1  0.87594847  0.12449603  0.87670685  1
  Fe3+  Fe69  1  0.62403352  0.12409706  0.87974095  1
  Fe3+  Fe70  1  0.37541912  0.62633258  0.87609385  1
  Fe3+  Fe71  1  0.37405436  0.12398132  0.87732723  1
  Fe3+  Fe72  1  0.62364706  0.62605273  0.87553537  1
  Fe3+  Fe73  1  0.12624338  0.12263066  0.87405164  1
  Fe3+  Fe74  1  0.87490959  0.62556287  0.37630536  1
  Fe3+  Fe75  1  0.62442706  0.37598454  0.87897313  1
  Fe3+  Fe76  1  0.37474266  0.62462917  0.37916027  1
  Fe3+  Fe77  1  0.87516451  0.37571280  0.87941091  1
  Fe3+  Fe78  1  0.87364066  0.87419154  0.37709461  1
  Fe3+  Fe79  1  0.87407749  0.12472335  0.37925862  1
  Fe3+  Fe80  1  0.87474153  0.62546490  0.87635315  1
  Fe3+  Fe81  1  0.37433211  0.87450003  0.87540944  1
  Fe3+  Fe82  1  0.37507376  0.37522244  0.88030318  1
  Fe3+  Fe83  1  0.87413088  0.37567900  0.38018930  1
  Fe3+  Fe84  1  0.62443878  0.12366172  0.13508051  1
  Fe3+  Fe85  1  0.37364863  0.37643277  0.13647458  1
  Fe3+  Fe86  1  0.87650497  0.37678304  0.13538287  1
  Fe3+  Fe87  1  0.87537359  0.12581775  0.63331940  1
  Fe3+  Fe88  1  0.12519586  0.87502104  0.63613158  1
  Fe3+  Fe89  1  0.12563498  0.37583287  0.13914301  1
  Fe3+  Fe90  1  0.62474947  0.87517703  0.63462739  1
  Fe3+  Fe91  1  0.37464582  0.62439940  0.63313310  1
  Fe3+  Fe92  1  0.62435252  0.37496315  0.63791726  1
  Fe3+  Fe93  1  0.12536268  0.12470050  0.63276726  1
  Fe3+  Fe94  1  0.87430863  0.37607007  0.63408712  1
  Fe3+  Fe95  1  0.12562553  0.62482121  0.14063301  1
  Cu2+  Cu96  1  0.12383222  0.87553722  0.36486469  1
  Cu2+  Cu97  1  0.62578040  0.62668691  0.37315286  1
  Cu2+  Cu98  1  0.37582713  0.12517609  0.37119003  1
  Cu2+  Cu99  1  0.12602470  0.62650975  0.86083777  1
  Cu2+  Cu100  1  0.87605397  0.87433017  0.87184070  1
  Cu2+  Cu101  1  0.12573089  0.37427234  0.86447583  1
  Cu2+  Cu102  1  0.62329138  0.87400333  0.87264608  1
  Cu2+  Cu103  1  0.12436937  0.37456445  0.37292860  1
  Cu2+  Cu104  1  0.37542255  0.37560579  0.37217012  1
  Cu2+  Cu105  1  0.62595767  0.37432958  0.36147130  1
  Cu2+  Cu106  1  0.12433266  0.62559655  0.37390462  1
  Cu2+  Cu107  1  0.37613628  0.87420132  0.37351989  1
  Cu2+  Cu108  1  0.87636522  0.62423978  0.15117010  1
  Cu2+  Cu109  1  0.62435501  0.62573088  0.15586173  1
  Cu2+  Cu110  1  0.87501174  0.87468699  0.64909457  1
  Cu2+  Cu111  1  0.62393851  0.62503523  0.64062376  1
  Cu2+  Cu112  1  0.87503935  0.12547455  0.15118629  1
  Cu2+  Cu113  1  0.12603729  0.62573844  0.64181270  1
  Cu2+  Cu114  1  0.12557728  0.87468006  0.15577533  1
  Cu2+  Cu115  1  0.37446665  0.87406614  0.15719490  1
  Cu2+  Cu116  1  0.12573891  0.12511815  0.15861000  1
  Cu2+  Cu117  1  0.12515106  0.37464798  0.64240056  1
  Cu2+  Cu118  1  0.37502811  0.87391936  0.63893062  1
  Cu2+  Cu119  1  0.87567900  0.87382197  0.14344830  1
  Cu2+  Cu120  1  0.37459995  0.12557604  0.64099573  1
  Cu2+  Cu121  1  0.62457868  0.37478060  0.15144618  1
  Cu2+  Cu122  1  0.62460706  0.87514477  0.14301719  1
  Cu2+  Cu123  1  0.87532399  0.62434112  0.65064985  1
  Cu2+  Cu124  1  0.37554269  0.37618433  0.64235402  1
  Cu2+  Cu125  1  0.62517730  0.12494058  0.65130946  1
  Cu2+  Cu126  1  0.37358416  0.62433694  0.15637401  1
  Cu2+  Cu127  1  0.37529584  0.12551720  0.15311755  1
  O2-  O128  1  0.12555679  0.12219875  -0.00566626  1
  O2-  O129  1  0.12449855  0.12474157  0.50623758  1
  O2-  O130  1  0.12535544  0.37560304  0.01891872  1
  O2-  O131  1  0.12353495  0.37430587  0.50780815  1
  O2-  O132  1  0.12658533  0.62464860  0.01984955  1
  O2-  O133  1  0.12508996  0.62614770  0.50757884  1
  O2-  O134  1  0.12725358  0.87679218  -0.00302890  1
  O2-  O135  1  0.12341787  0.87492602  0.51542649  1
  O2-  O136  1  0.37285608  0.12395486  -0.00287553  1
  O2-  O137  1  0.37511591  0.12629024  0.50593208  1
  O2-  O138  1  0.37372458  0.37543397  0.00771375  1
  O2-  O139  1  0.37671523  0.37631687  0.50687040  1
  O2-  O140  1  0.37572736  0.62683282  -0.00390387  1
  O2-  O141  1  0.37486914  0.62344139  0.50633085  1
  O2-  O142  1  0.37330433  0.87434686  -0.00418596  1
  O2-  O143  1  0.37633969  0.87406525  0.50613537  1
  O2-  O144  1  0.62475797  0.12423568  0.00614090  1
  O2-  O145  1  0.62573592  0.12387997  0.49555786  1
  O2-  O146  1  0.62487628  0.37630834  -0.00128116  1
  O2-  O147  1  0.62559792  0.37403186  0.51730219  1
  O2-  O148  1  0.62297126  0.62579121  -0.00408949  1
  O2-  O149  1  0.62532723  0.62576345  0.50622551  1
  O2-  O150  1  0.62321339  0.87473856  0.00691590  1
  O2-  O151  1  0.62691596  0.87618931  0.50606994  1
  O2-  O152  1  0.87715096  0.12587885  -0.00333184  1
  O2-  O153  1  0.87358071  0.12591433  0.50569262  1
  O2-  O154  1  0.87634675  0.37545805  0.00686008  1
  O2-  O155  1  0.87308629  0.37533788  0.50703545  1
  O2-  O156  1  0.87482131  0.62426688  -0.00339333  1
  O2-  O157  1  0.87460169  0.62443144  0.49675722  1
  O2-  O158  1  0.87681272  0.87461325  0.00740264  1
  O2-  O159  1  0.87239315  0.87482021  0.49721269  1
  O2-  O160  1  0.12509037  0.00030972  0.16719589  1
  O2-  O161  1  0.12292148  0.00123448  0.66141542  1
  O2-  O162  1  0.12471747  0.25081895  0.16722726  1
  O2-  O163  1  0.12382286  0.24710241  0.66381381  1
  O2-  O164  1  0.12519308  0.49940829  0.17108108  1
  O2-  O165  1  0.12491894  0.49989172  0.66541850  1
  O2-  O166  1  0.12563915  0.74958449  0.16693005  1
  O2-  O167  1  0.12424126  0.75205760  0.66487463  1
  O2-  O168  1  0.37494590  -0.00019168  0.16613768  1
  O2-  O169  1  0.37561011  -0.00005030  0.66136270  1
  O2-  O170  1  0.37484311  0.25247763  0.16380182  1
  O2-  O171  1  0.37511442  0.25039081  0.66597265  1
  O2-  O172  1  0.37475458  0.49821844  0.16594391  1
  O2-  O173  1  0.37482138  0.50257218  0.66648820  1
  O2-  O174  1  0.37458889  0.74927717  0.16731871  1
  O2-  O175  1  0.37546679  0.74714347  0.66048727  1
  O2-  O176  1  0.62476901  0.00250828  0.16414824  1
  O2-  O177  1  0.62637732  -0.00104039  0.66270329  1
  O2-  O178  1  0.62546400  0.24785774  0.16212945  1
  O2-  O179  1  0.62605786  0.25013236  0.66823075  1
  O2-  O180  1  0.62490753  0.50060386  0.16581584  1
  O2-  O181  1  0.62574254  0.49845983  0.66574814  1
  O2-  O182  1  0.62433658  0.74909130  0.16693985  1
  O2-  O183  1  0.62539910  0.75290594  0.66048134  1
  O2-  O184  1  0.87554008  0.00131917  0.16644220  1
  O2-  O185  1  0.87492848  0.00264680  0.66088813  1
  O2-  O186  1  0.87525521  0.25252049  0.16484782  1
  O2-  O187  1  0.87453443  0.25042000  0.66252795  1
  O2-  O188  1  0.87497733  0.49816318  0.16553841  1
  O2-  O189  1  0.87413328  0.49818178  0.66340112  1
  O2-  O190  1  0.87557010  0.74764726  0.16471487  1
  O2-  O191  1  0.87523898  0.74905446  0.66270293  1
  O2-  O192  1  0.00023879  0.12593970  0.16758169  1
  O2-  O193  1  -0.00065790  0.12631703  0.65907082  1
  O2-  O194  1  -0.00025295  0.37442655  0.16762032  1
  O2-  O195  1  -0.00357486  0.37471089  0.66429120  1
  O2-  O196  1  0.00159363  0.62396306  0.16774488  1
  O2-  O197  1  -0.00070794  0.62416912  0.66483271  1
  O2-  O198  1  0.00148317  0.87530990  0.16596061  1
  O2-  O199  1  -0.00016910  0.87541594  0.66492733  1
  O2-  O200  1  0.25084696  0.12578368  0.16784554  1
  O2-  O201  1  0.24670508  0.12504401  0.66119234  1
  O2-  O202  1  0.25058061  0.37440623  0.16769617  1
  O2-  O203  1  0.25011466  0.37488421  0.66550834  1
  O2-  O204  1  0.24914080  0.62477697  0.17086964  1
  O2-  O205  1  0.25257942  0.62466958  0.66358737  1
  O2-  O206  1  0.25031656  0.87511712  0.16804983  1
  O2-  O207  1  0.24834058  0.87557466  0.66320237  1
  O2-  O208  1  0.50099288  0.12548380  0.16105605  1
  O2-  O209  1  0.50129388  0.12518153  0.66585492  1
  O2-  O210  1  0.49792177  0.37521198  0.16238244  1
  O2-  O211  1  0.50181326  0.37465248  0.66784486  1
  O2-  O212  1  0.49887942  0.62467432  0.16650336  1
  O2-  O213  1  0.49745732  0.62453824  0.66143495  1
  O2-  O214  1  0.49819518  0.87455656  0.16728847  1
  O2-  O215  1  0.50270402  0.87581757  0.66160845  1
  O2-  O216  1  0.74838039  0.12585036  0.16216704  1
  O2-  O217  1  0.75247613  0.12592803  0.66359490  1
  O2-  O218  1  0.75185606  0.37472346  0.16226172  1
  O2-  O219  1  0.75104397  0.37404156  0.66647499  1
  O2-  O220  1  0.75002992  0.62425608  0.16250457  1
  O2-  O221  1  0.75076959  0.62489440  0.66351968  1
  O2-  O222  1  0.75032765  0.87490995  0.16366704  1
  O2-  O223  1  0.74909463  0.87573016  0.66416835  1
  O2-  O224  1  0.12360320  0.00194088  0.35178177  1
  O2-  O225  1  0.12530605  -0.00011930  0.83952817  1
  O2-  O226  1  0.12327537  0.24676049  0.35035781  1
  O2-  O227  1  0.12471819  0.24871658  0.84674502  1
  O2-  O228  1  0.12413024  0.49943397  0.35133779  1
  O2-  O229  1  0.12508525  0.50003158  0.85064048  1
  O2-  O230  1  0.12421579  0.75195119  0.34978701  1
  O2-  O231  1  0.12584235  0.75099488  0.84605470  1
  O2-  O232  1  0.37578404  -0.00020002  0.35034187  1
  O2-  O233  1  0.37546534  0.00037112  0.84247433  1
  O2-  O234  1  0.37609709  0.25030535  0.34811585  1
  O2-  O235  1  0.37472155  0.25099574  0.84923720  1
  O2-  O236  1  0.37559810  0.50238942  0.34968797  1
  O2-  O237  1  0.37500956  0.49872390  0.84949624  1
  O2-  O238  1  0.37504495  0.74724584  0.35158602  1
  O2-  O239  1  0.37459690  0.74998953  0.84135500  1
  O2-  O240  1  0.62644572  -0.00154110  0.34632987  1
  O2-  O241  1  0.62488883  0.00360621  0.84706376  1
  O2-  O242  1  0.62658469  0.24877841  0.34607912  1
  O2-  O243  1  0.62569803  0.24911234  0.85026730  1
  O2-  O244  1  0.62600449  0.49868118  0.35081226  1
  O2-  O245  1  0.62478226  0.50004422  0.84487428  1
  O2-  O246  1  0.62577052  0.75352692  0.34997738  1
  O2-  O247  1  0.62460621  0.74761411  0.84211621  1
  O2-  O248  1  0.87447506  0.00125025  0.34992388  1
  O2-  O249  1  0.87444119  0.00194817  0.84444249  1
  O2-  O250  1  0.87420836  0.24929434  0.35101195  1
  O2-  O251  1  0.87526463  0.25144422  0.84664585  1
  O2-  O252  1  0.87417300  0.49876050  0.34908734  1
  O2-  O253  1  0.87556849  0.49875763  0.84716536  1
  O2-  O254  1  0.87487528  0.75053765  0.34592546  1
  O2-  O255  1  0.87538132  0.74774646  0.84581402  1
  O2-  O256  1  -0.00142030  0.12525927  0.35267440  1
  O2-  O257  1  0.00030016  0.12562973  0.84115754  1
  O2-  O258  1  -0.00431762  0.37378784  0.35067646  1
  O2-  O259  1  -0.00144505  0.37489919  0.84972616  1
  O2-  O260  1  -0.00190071  0.62470720  0.34840607  1
  O2-  O261  1  0.00063014  0.62406373  0.84839606  1
  O2-  O262  1  -0.00201334  0.87630116  0.34881835  1
  O2-  O263  1  0.00233599  0.87520843  0.84647460  1
  O2-  O264  1  0.24754249  0.12505881  0.35239760  1
  O2-  O265  1  0.25068208  0.12569502  0.84154901  1
  O2-  O266  1  0.24954829  0.37439671  0.35008494  1
  O2-  O267  1  0.25206981  0.37511975  0.85018483  1
  O2-  O268  1  0.25168320  0.62484441  0.35302872  1
  O2-  O269  1  0.25060671  0.62396065  0.84613596  1
  O2-  O270  1  0.24852972  0.87555979  0.35257177  1
  O2-  O271  1  0.25071347  0.87520619  0.84156564  1
  O2-  O272  1  0.50234198  0.12501792  0.34439840  1
  O2-  O273  1  0.50013429  0.12609353  0.84897761  1
  O2-  O274  1  0.50225230  0.37481229  0.34725501  1
  O2-  O275  1  0.49893954  0.37404030  0.84917932  1
  O2-  O276  1  0.49805175  0.62476900  0.35125980  1
  O2-  O277  1  0.49934775  0.62451737  0.84145940  1
  O2-  O278  1  0.50359528  0.87519497  0.35069573  1
  O2-  O279  1  0.49723858  0.87521128  0.84352108  1
  O2-  O280  1  0.75149892  0.12531786  0.34582677  1
  O2-  O281  1  0.74928912  0.12590544  0.84812139  1
  O2-  O282  1  0.75238327  0.37378526  0.34765509  1
  O2-  O283  1  0.75090156  0.37428366  0.84855414  1
  O2-  O284  1  0.75201107  0.62479430  0.34546977  1
  O2-  O285  1  0.74963917  0.62426588  0.84487020  1
  O2-  O286  1  0.74959318  0.87582424  0.34510410  1
  O2-  O287  1  0.74981031  0.87525616  0.84908878  1
