# generated using pymatgen
data_BaYFeCuO5
_symmetry_space_group_name_H-M   'P 1'
_cell_length_a   15.66314313
_cell_length_b   15.66885095
_cell_length_c   15.46813112
_cell_angle_alpha   89.99689947
_cell_angle_beta   89.99324772
_cell_angle_gamma   89.99640077
_symmetry_Int_Tables_number   1
_chemical_formula_structural   BaYFeCuO5
_chemical_formula_sum   'Ba32 Y32 Fe32 Cu32 O160'
_cell_volume   3796.24214561
_cell_formula_units_Z   32
loop_
 _symmetry_equiv_pos_site_id
 _symmetry_equiv_pos_as_xyz
  1  'x, y, z'
loop_
 _atom_type_symbol
 _atom_type_oxidation_number
  Ba2+  2.0
  Y3+  3.0
  Fe3+  3.0
  Cu2+  2.0
  O2-  -2.0
loop_
 _atom_site_type_symbol
 _atom_site_label
 _atom_site_symmetry_multiplicity
 _atom_site_fract_x
 _atom_site_fract_y
 _atom_site_fract_z
 _atom_site_occupancy
  Ba2+  Ba0  1  -0.00858800  -0.00503605  0.01059327  1
  Ba2+  Ba1  1  0.00406760  0.00247876  0.51186695  1
  Ba2+  Ba2  1  -0.00345499  0.24642461  0.01121739  1
  Ba2+  Ba3  1  -0.00158949  0.23936092  0.51079852  1
  Ba2+  Ba4  1  0.00458465  0.50602883  0.02075581  1
  Ba2+  Ba5  1  -0.00688234  0.49979898  0.51696981  1
  Ba2+  Ba6  1  -0.00082431  0.75281349  0.02017520  1
  Ba2+  Ba7  1  -0.00024046  0.75837974  0.51549708  1
  Ba2+  Ba8  1  0.25441586  -0.00616858  0.02334355  1
  Ba2+  Ba9  1  0.24545889  -0.00163209  0.50134546  1
  Ba2+  Ba10  1  0.25066140  0.24995931  0.01678734  1
  Ba2+  Ba11  1  0.25112011  0.24351484  0.50009006  1
  Ba2+  Ba12  1  0.24918053  0.50831909  0.01779660  1
  Ba2+  Ba13  1  0.25780134  0.49727773  0.51211123  1
  Ba2+  Ba14  1  0.25152478  0.74853861  0.02228905  1
  Ba2+  Ba15  1  0.25113502  0.76003599  0.50975632  1
  Ba2+  Ba16  1  0.50258626  -0.00028619  0.02308914  1
  Ba2+  Ba17  1  0.48965879  -0.00131241  0.50220127  1
  Ba2+  Ba18  1  0.50610907  0.24235155  0.00649102  1
  Ba2+  Ba19  1  0.48998111  0.25197737  0.50229346  1
  Ba2+  Ba20  1  0.50085751  0.50750665  -0.00502397  1
  Ba2+  Ba21  1  0.49107674  0.49742568  0.51250285  1
  Ba2+  Ba22  1  0.49718041  0.74940019  0.01244589  1
  Ba2+  Ba23  1  0.48987255  0.75219800  0.51204658  1
  Ba2+  Ba24  1  0.75119498  0.00088465  0.01173229  1
  Ba2+  Ba25  1  0.76137041  0.00259696  0.51247551  1
  Ba2+  Ba26  1  0.74601994  0.23991030  0.00250270  1
  Ba2+  Ba27  1  0.76130719  0.24715937  0.51300985  1
  Ba2+  Ba28  1  0.74534841  0.50510286  -0.00037262  1
  Ba2+  Ba29  1  0.75778302  0.49941295  0.51787247  1
  Ba2+  Ba30  1  0.75211561  0.75464954  0.01140432  1
  Ba2+  Ba31  1  0.75896150  0.75063523  0.51740928  1
  Y3+  Y32  1  -0.00038420  0.00030555  0.25793884  1
  Y3+  Y33  1  -0.00100715  0.00025389  0.75626804  1
  Y3+  Y34  1  0.00012520  0.24640242  0.25716169  1
  Y3+  Y35  1  -0.00141761  0.24592353  0.75676865  1
  Y3+  Y36  1  0.00147239  0.50049741  0.25502688  1
  Y3+  Y37  1  -0.00101633  0.49961537  0.75543558  1
  Y3+  Y38  1  0.00079910  0.75282411  0.25511982  1
  Y3+  Y39  1  -0.00030553  0.75420098  0.75544036  1
  Y3+  Y40  1  0.24985756  -0.00124863  0.26239569  1
  Y3+  Y41  1  0.24785971  -0.00181546  0.75162673  1
  Y3+  Y42  1  0.25015899  0.24905877  0.25942091  1
  Y3+  Y43  1  0.24928725  0.24959933  0.75482229  1
  Y3+  Y44  1  0.25045502  0.49984805  0.25682504  1
  Y3+  Y45  1  0.25403895  0.50079817  0.75668849  1
  Y3+  Y46  1  0.24992283  0.75278757  0.25874447  1
  Y3+  Y47  1  0.25169878  0.75111282  0.75301501  1
  Y3+  Y48  1  0.49896818  0.00013230  0.25841630  1
  Y3+  Y49  1  0.49983989  -0.00031538  0.75665368  1
  Y3+  Y50  1  0.49880119  0.24848961  0.25798469  1
  Y3+  Y51  1  0.50137747  0.25044218  0.75929288  1
  Y3+  Y52  1  0.49767038  0.49986787  0.25901709  1
  Y3+  Y53  1  0.49794773  0.50071578  0.75771819  1
  Y3+  Y54  1  0.49791772  0.75169461  0.25772090  1
  Y3+  Y55  1  0.49647524  0.74912360  0.75684911  1
  Y3+  Y56  1  0.75143253  0.00150131  0.25375369  1
  Y3+  Y57  1  0.75395065  0.00148409  0.76165524  1
  Y3+  Y58  1  0.75093699  0.24604840  0.25537581  1
  Y3+  Y59  1  0.75051789  0.24670012  0.76120483  1
  Y3+  Y60  1  0.75063331  0.50031633  0.25671278  1
  Y3+  Y61  1  0.74925356  0.49958383  0.75785479  1
  Y3+  Y62  1  0.75113875  0.75218661  0.25423805  1
  Y3+  Y63  1  0.75202602  0.75198057  0.75879855  1
  Fe3+  Fe64  1  0.62583518  0.62533864  0.38249432  1
  Fe3+  Fe65  1  0.12524260  0.37574197  0.87768210  1
  Fe3+  Fe66  1  0.37372120  0.87521868  0.87625055  1
  Fe3+  Fe67  1  0.62618413  0.87481714  0.38074381  1
  Fe3+  Fe68  1  0.12394643  0.37504065  0.37895290  1
  Fe3+  Fe69  1  0.37403991  0.62532040  0.37718111  1
  Fe3+  Fe70  1  0.87677248  0.62630383  0.87589888  1
  Fe3+  Fe71  1  0.12618346  0.12343120  0.88068123  1
  Fe3+  Fe72  1  0.62597028  0.37504425  0.38197297  1
  Fe3+  Fe73  1  0.12551582  0.62634194  0.87369932  1
  Fe3+  Fe74  1  0.12593402  0.87455089  0.87740201  1
  Fe3+  Fe75  1  0.87555330  0.37430404  0.37517931  1
  Fe3+  Fe76  1  0.12421337  0.62560982  0.37965900  1
  Fe3+  Fe77  1  0.87556987  0.37526369  0.87924388  1
  Fe3+  Fe78  1  0.37388349  0.12290231  0.87878496  1
  Fe3+  Fe79  1  0.62417590  0.87529596  0.87624290  1
  Fe3+  Fe80  1  0.62608374  0.12500993  0.38113181  1
  Fe3+  Fe81  1  0.37444329  0.37448416  0.88023536  1
  Fe3+  Fe82  1  0.87514963  0.87584973  0.37520862  1
  Fe3+  Fe83  1  0.87564031  0.62556381  0.37539538  1
  Fe3+  Fe84  1  0.12513999  0.12365216  0.13619317  1
  Fe3+  Fe85  1  0.87390471  0.37489811  0.13350910  1
  Fe3+  Fe86  1  0.62485569  0.62560683  0.63508649  1
  Fe3+  Fe87  1  0.62432878  0.62491307  0.14000449  1
  Fe3+  Fe88  1  0.62521078  0.87619679  0.63363823  1
  Fe3+  Fe89  1  0.62527891  0.37349053  0.63582455  1
  Fe3+  Fe90  1  0.62469634  0.37520606  0.13685168  1
  Fe3+  Fe91  1  0.62487291  0.12477250  0.63423362  1
  Fe3+  Fe92  1  0.12482181  0.37346725  0.63360942  1
  Fe3+  Fe93  1  0.12526857  0.62540666  0.63277311  1
  Fe3+  Fe94  1  0.37644071  0.37532806  0.13550886  1
  Fe3+  Fe95  1  0.37461842  0.12516742  0.63792863  1
  Cu2+  Cu96  1  0.12342712  0.87473657  0.37135417  1
  Cu2+  Cu97  1  0.37525867  0.12472567  0.36182891  1
  Cu2+  Cu98  1  0.62486224  0.37485981  0.86494700  1
  Cu2+  Cu99  1  0.62508055  0.62712744  0.85829645  1
  Cu2+  Cu100  1  0.87640550  0.12414714  0.87387229  1
  Cu2+  Cu101  1  0.62361304  0.12221616  0.87078184  1
  Cu2+  Cu102  1  0.87617279  0.87472204  0.87167921  1
  Cu2+  Cu103  1  0.87492335  0.12447454  0.36983589  1
  Cu2+  Cu104  1  0.37420176  0.37561158  0.37159472  1
  Cu2+  Cu105  1  0.37512962  0.87446886  0.37144284  1
  Cu2+  Cu106  1  0.12394786  0.12448133  0.37093322  1
  Cu2+  Cu107  1  0.37307951  0.62681834  0.87240853  1
  Cu2+  Cu108  1  0.37541560  0.87501897  0.15535071  1
  Cu2+  Cu109  1  0.12553557  0.62614282  0.15607238  1
  Cu2+  Cu110  1  0.37468460  0.62505743  0.64904175  1
  Cu2+  Cu111  1  0.37662786  0.62471202  0.14369661  1
  Cu2+  Cu112  1  0.87505221  0.12498799  0.14158857  1
  Cu2+  Cu113  1  0.12519948  0.87590488  0.15153228  1
  Cu2+  Cu114  1  0.87424550  0.87632097  0.65262084  1
  Cu2+  Cu115  1  0.87517229  0.62573282  0.65238500  1
  Cu2+  Cu116  1  0.12491140  0.87616965  0.64044874  1
  Cu2+  Cu117  1  0.87412289  0.62479509  0.14933774  1
  Cu2+  Cu118  1  0.37537811  0.87674404  0.64133150  1
  Cu2+  Cu119  1  0.37467226  0.12525441  0.15254027  1
  Cu2+  Cu120  1  0.37496331  0.37299242  0.64360281  1
  Cu2+  Cu121  1  0.87487416  0.12438115  0.64657211  1
  Cu2+  Cu122  1  0.62472569  0.12502808  0.14518125  1
  Cu2+  Cu123  1  0.87493056  0.37343880  0.65421612  1
  Cu2+  Cu124  1  0.87441643  0.87559024  0.14213435  1
  Cu2+  Cu125  1  0.12543585  0.12498663  0.64254006  1
  Cu2+  Cu126  1  0.62453301  0.87497162  0.15339548  1
  Cu2+  Cu127  1  0.12512972  0.37423930  0.14979103  1
  O2-  O128  1  0.12648405  0.12376852  0.00713571  1
  O2-  O129  1  0.12518541  0.12575507  0.50646837  1
  O2-  O130  1  0.12632564  0.37800942  -0.00270851  1
  O2-  O131  1  0.12356880  0.37415467  0.50585950  1
  O2-  O132  1  0.12494073  0.62583194  -0.00593604  1
  O2-  O133  1  0.12399075  0.62483332  0.50541472  1
  O2-  O134  1  0.12754488  0.87311910  -0.00241667  1
  O2-  O135  1  0.12352006  0.87519819  0.50617328  1
  O2-  O136  1  0.37439498  0.12291583  -0.00091080  1
  O2-  O137  1  0.37476261  0.12620285  0.51686544  1
  O2-  O138  1  0.37590526  0.37577383  0.00765282  1
  O2-  O139  1  0.37415776  0.37458617  0.50766772  1
  O2-  O140  1  0.37527165  0.62541319  0.00708692  1
  O2-  O141  1  0.37410530  0.62397503  0.49785351  1
  O2-  O142  1  0.37451885  0.87425400  -0.00331279  1
  O2-  O143  1  0.37535870  0.87602111  0.50592824  1
  O2-  O144  1  0.62330285  0.12247163  0.00809616  1
  O2-  O145  1  0.62599315  0.12659635  0.50797411  1
  O2-  O146  1  0.62383447  0.37699367  0.01701730  1
  O2-  O147  1  0.62667175  0.37439590  0.50868034  1
  O2-  O148  1  0.62402032  0.62484642  0.01952699  1
  O2-  O149  1  0.62639920  0.62443250  0.50802110  1
  O2-  O150  1  0.62305711  0.87422533  -0.00347497  1
  O2-  O151  1  0.62684766  0.87476422  0.50670900  1
  O2-  O152  1  0.87557877  0.12576060  0.00738305  1
  O2-  O153  1  0.87533256  0.12473463  0.50704828  1
  O2-  O154  1  0.87407307  0.37667436  0.00608400  1
  O2-  O155  1  0.87583938  0.37572089  0.49560341  1
  O2-  O156  1  0.87636511  0.62487742  -0.00381990  1
  O2-  O157  1  0.87530091  0.62423577  0.49577347  1
  O2-  O158  1  0.87447101  0.87306202  0.00719207  1
  O2-  O159  1  0.87456347  0.87490493  0.49596959  1
  O2-  O160  1  0.12613079  0.00130021  0.16438413  1
  O2-  O161  1  0.12413991  0.00041408  0.66540444  1
  O2-  O162  1  0.12529076  0.24776670  0.16392139  1
  O2-  O163  1  0.12439967  0.25248673  0.66614500  1
  O2-  O164  1  0.12546216  0.50048032  0.16638220  1
  O2-  O165  1  0.12317575  0.49964071  0.65768709  1
  O2-  O166  1  0.12535107  0.75073170  0.16543778  1
  O2-  O167  1  0.12491415  0.74726012  0.65959465  1
  O2-  O168  1  0.37557084  -0.00029243  0.16584175  1
  O2-  O169  1  0.37666636  0.00254125  0.66574534  1
  O2-  O170  1  0.37505359  0.25237379  0.16350271  1
  O2-  O171  1  0.37579694  0.24785552  0.67115233  1
  O2-  O172  1  0.37499532  0.49697415  0.16509640  1
  O2-  O173  1  0.37602087  0.50038205  0.66566216  1
  O2-  O174  1  0.37585791  0.75102375  0.16578311  1
  O2-  O175  1  0.37523074  0.74927920  0.66091108  1
  O2-  O176  1  0.62395147  -0.00140442  0.16856374  1
  O2-  O177  1  0.62461303  0.00056883  0.65926928  1
  O2-  O178  1  0.62463953  0.25260140  0.16976190  1
  O2-  O179  1  0.62578160  0.24965634  0.66468043  1
  O2-  O180  1  0.62505518  0.49891086  0.17330446  1
  O2-  O181  1  0.62580155  0.49984987  0.66121097  1
  O2-  O182  1  0.62463590  0.74978983  0.16894434  1
  O2-  O183  1  0.62619685  0.74987609  0.65770161  1
  O2-  O184  1  0.87461773  0.00041245  0.16437145  1
  O2-  O185  1  0.87436392  -0.00055589  0.66660019  1
  O2-  O186  1  0.87523475  0.25310195  0.16318392  1
  O2-  O187  1  0.87418285  0.24995881  0.66886444  1
  O2-  O188  1  0.87487784  0.49836552  0.16294018  1
  O2-  O189  1  0.87444730  0.49947127  0.66328038  1
  O2-  O190  1  0.87424173  0.74857827  0.16408440  1
  O2-  O191  1  0.87399874  0.75094353  0.66141084  1
  O2-  O192  1  0.00287446  0.12520531  0.16249561  1
  O2-  O193  1  -0.00047547  0.12546027  0.66646823  1
  O2-  O194  1  -0.00164929  0.37589787  0.16061638  1
  O2-  O195  1  0.00100189  0.37478949  0.66331634  1
  O2-  O196  1  0.00036668  0.62455086  0.16318036  1
  O2-  O197  1  0.00094984  0.62432569  0.66033443  1
  O2-  O198  1  0.00131154  0.87495114  0.16334141  1
  O2-  O199  1  -0.00207431  0.87536074  0.66417387  1
  O2-  O200  1  0.24868044  0.12566763  0.16379532  1
  O2-  O201  1  0.25134857  0.12589151  0.66688491  1
  O2-  O202  1  0.25188105  0.37491127  0.16331046  1
  O2-  O203  1  0.24666497  0.37576722  0.66417672  1
  O2-  O204  1  0.24936810  0.62458556  0.16615990  1
  O2-  O205  1  0.24828845  0.62279350  0.66061070  1
  O2-  O206  1  0.25052963  0.87479138  0.16574012  1
  O2-  O207  1  0.25049680  0.87573024  0.66179183  1
  O2-  O208  1  0.49843296  0.12544684  0.16914164  1
  O2-  O209  1  0.50206085  0.12603408  0.66464676  1
  O2-  O210  1  0.49907684  0.37490252  0.16961595  1
  O2-  O211  1  0.50374322  0.37491570  0.66493155  1
  O2-  O212  1  0.50203012  0.62453272  0.17205568  1
  O2-  O213  1  0.50197774  0.62450415  0.66262159  1
  O2-  O214  1  0.49966233  0.87510358  0.16799631  1
  O2-  O215  1  0.50361076  0.87449433  0.66238389  1
  O2-  O216  1  0.74983003  0.12555191  0.16601723  1
  O2-  O217  1  0.74702557  0.12508961  0.66569311  1
  O2-  O218  1  0.75085724  0.37541176  0.16603840  1
  O2-  O219  1  0.74830952  0.37474679  0.66456894  1
  O2-  O220  1  0.74862012  0.62431140  0.16805429  1
  O2-  O221  1  0.74861572  0.62436878  0.66329187  1
  O2-  O222  1  0.74836838  0.87498613  0.16539696  1
  O2-  O223  1  0.74800782  0.87559802  0.66397826  1
  O2-  O224  1  0.12452058  -0.00012338  0.34829964  1
  O2-  O225  1  0.12614271  0.00082374  0.84811028  1
  O2-  O226  1  0.12451722  0.25265575  0.34892359  1
  O2-  O227  1  0.12525778  0.24959986  0.84983182  1
  O2-  O228  1  0.12387766  0.50005023  0.35099256  1
  O2-  O229  1  0.12522371  0.49942339  0.84040359  1
  O2-  O230  1  0.12430775  0.74697023  0.34946426  1
  O2-  O231  1  0.12484829  0.75048212  0.84071870  1
  O2-  O232  1  0.37576419  0.00102142  0.35034422  1
  O2-  O233  1  0.37368095  -0.00054848  0.84447457  1
  O2-  O234  1  0.37496957  0.24920344  0.34781288  1
  O2-  O235  1  0.37504211  0.25094553  0.85291462  1
  O2-  O236  1  0.37486930  0.50230611  0.34664525  1
  O2-  O237  1  0.37518426  0.49711931  0.85001542  1
  O2-  O238  1  0.37520070  0.74760837  0.34769908  1
  O2-  O239  1  0.37454993  0.75232059  0.84346089  1
  O2-  O240  1  0.62505760  0.00014121  0.35417930  1
  O2-  O241  1  0.62449839  -0.00261812  0.84180164  1
  O2-  O242  1  0.62507332  0.25028787  0.35344662  1
  O2-  O243  1  0.62463411  0.24990628  0.84937522  1
  O2-  O244  1  0.62594474  0.50030255  0.35483805  1
  O2-  O245  1  0.62507561  0.50119707  0.84727020  1
  O2-  O246  1  0.62616770  0.74924010  0.35301538  1
  O2-  O247  1  0.62463665  0.75158824  0.84147726  1
  O2-  O248  1  0.87372430  -0.00138096  0.34626010  1
  O2-  O249  1  0.87597053  -0.00013062  0.85013368  1
  O2-  O250  1  0.87474440  0.25164822  0.34560883  1
  O2-  O251  1  0.87526212  0.25271666  0.85257840  1
  O2-  O252  1  0.87519065  0.49994692  0.34430004  1
  O2-  O253  1  0.87461899  0.49902763  0.84696554  1
  O2-  O254  1  0.87420319  0.74973281  0.34532323  1
  O2-  O255  1  0.87577649  0.74852968  0.84432199  1
  O2-  O256  1  -0.00094428  0.12542355  0.34554807  1
  O2-  O257  1  0.00417976  0.12560619  0.85031039  1
  O2-  O258  1  0.00091547  0.37528952  0.34462601  1
  O2-  O259  1  -0.00079876  0.37541333  0.84720335  1
  O2-  O260  1  0.00061925  0.62418458  0.34649812  1
  O2-  O261  1  0.00062923  0.62397510  0.84141650  1
  O2-  O262  1  -0.00247636  0.87465482  0.34525156  1
  O2-  O263  1  0.00253957  0.87544737  0.84701848  1
  O2-  O264  1  0.25123466  0.12560568  0.34845889  1
  O2-  O265  1  0.24879963  0.12662061  0.84761200  1
  O2-  O266  1  0.24648910  0.37545186  0.34872833  1
  O2-  O267  1  0.25120177  0.37457710  0.84702926  1
  O2-  O268  1  0.24805384  0.62396049  0.34940359  1
  O2-  O269  1  0.24776083  0.62457908  0.84225703  1
  O2-  O270  1  0.24966279  0.87472731  0.35011917  1
  O2-  O271  1  0.24951855  0.87479860  0.84218303  1
  O2-  O272  1  0.50236106  0.12575249  0.35332505  1
  O2-  O273  1  0.49685560  0.12507977  0.84557565  1
  O2-  O274  1  0.50354629  0.37549306  0.35289459  1
  O2-  O275  1  0.49806344  0.37537996  0.84978887  1
  O2-  O276  1  0.50188922  0.62433245  0.35303745  1
  O2-  O277  1  0.50097319  0.62503958  0.84720591  1
  O2-  O278  1  0.50387453  0.87437770  0.35201508  1
  O2-  O279  1  0.49866003  0.87481699  0.84331290  1
  O2-  O280  1  0.74703084  0.12565095  0.34926784  1
  O2-  O281  1  0.75010809  0.12475109  0.84995716  1
  O2-  O282  1  0.74893219  0.37540060  0.34813331  1
  O2-  O283  1  0.75161715  0.37582466  0.85020052  1
  O2-  O284  1  0.74926871  0.62402348  0.34916986  1
  O2-  O285  1  0.75099060  0.62481637  0.84703846  1
  O2-  O286  1  0.74870184  0.87475696  0.34737664  1
  O2-  O287  1  0.74918023  0.87444576  0.84779638  1
