# generated using pymatgen
data_BaYFeCuO5
_symmetry_space_group_name_H-M   'P 1'
_cell_length_a   15.67558285
_cell_length_b   15.67572549
_cell_length_c   15.50266637
_cell_angle_alpha   89.99601830
_cell_angle_beta   89.98877037
_cell_angle_gamma   90.00012786
_symmetry_Int_Tables_number   1
_chemical_formula_structural   BaYFeCuO5
_chemical_formula_sum   'Ba32 Y32 Fe32 Cu32 O160'
_cell_volume   3809.41018443
_cell_formula_units_Z   32
loop_
 _symmetry_equiv_pos_site_id
 _symmetry_equiv_pos_as_xyz
  1  'x, y, z'
loop_
 _atom_type_symbol
 _atom_type_oxidation_number
  Ba2+  2.0
  Y3+  3.0
  Fe3+  3.0
  Cu2+  2.0
  O2-  -2.0
loop_
 _atom_site_type_symbol
 _atom_site_label
 _atom_site_symmetry_multiplicity
 _atom_site_fract_x
 _atom_site_fract_y
 _atom_site_fract_z
 _atom_site_occupancy
  Ba2+  Ba0  1  -0.00451812  -0.00498249  0.01224126  1
  Ba2+  Ba1  1  -0.00203720  0.00573739  0.51808391  1
  Ba2+  Ba2  1  -0.00237281  0.25608660  -0.00347019  1
  Ba2+  Ba3  1  0.00605059  0.24371869  0.51793044  1
  Ba2+  Ba4  1  0.00211399  0.49869162  0.00101840  1
  Ba2+  Ba5  1  0.00323012  0.50326052  0.51256323  1
  Ba2+  Ba6  1  0.00075566  0.74982802  0.01772634  1
  Ba2+  Ba7  1  -0.00469820  0.74748162  0.51246830  1
  Ba2+  Ba8  1  0.25657944  -0.00479820  0.02309917  1
  Ba2+  Ba9  1  0.25343254  0.00761158  0.51035334  1
  Ba2+  Ba10  1  0.25273044  0.25742592  0.00477890  1
  Ba2+  Ba11  1  0.24573627  0.24146821  0.51102100  1
  Ba2+  Ba12  1  0.24765052  0.49933298  0.01312167  1
  Ba2+  Ba13  1  0.24556562  0.50326877  0.50012820  1
  Ba2+  Ba14  1  0.25196546  0.74919014  0.02652933  1
  Ba2+  Ba15  1  0.25320624  0.74702552  0.49999753  1
  Ba2+  Ba16  1  0.50420327  -0.00078848  0.01646537  1
  Ba2+  Ba17  1  0.49591113  -0.00349543  0.51244693  1
  Ba2+  Ba18  1  0.50296275  0.24636676  0.01293208  1
  Ba2+  Ba19  1  0.49630900  0.24591034  0.51115981  1
  Ba2+  Ba20  1  0.49987440  0.50132575  0.01974020  1
  Ba2+  Ba21  1  0.50018495  0.50029831  0.50649296  1
  Ba2+  Ba22  1  0.50071189  0.75232473  0.02301039  1
  Ba2+  Ba23  1  0.49991323  0.75769518  0.50710871  1
  Ba2+  Ba24  1  0.74288284  -0.00036131  0.00563326  1
  Ba2+  Ba25  1  0.75205355  -0.00580751  0.51821248  1
  Ba2+  Ba26  1  0.74625651  0.24649522  0.00056581  1
  Ba2+  Ba27  1  0.75094241  0.24839707  0.51759967  1
  Ba2+  Ba28  1  0.74949377  0.50023325  0.00546482  1
  Ba2+  Ba29  1  0.75121345  0.50078809  0.51695093  1
  Ba2+  Ba30  1  0.74630594  0.75363284  0.01172538  1
  Ba2+  Ba31  1  0.75216740  0.75705277  0.51690962  1
  Y3+  Y32  1  0.00100748  0.00024723  0.25647660  1
  Y3+  Y33  1  -0.00120546  0.00209746  0.75733021  1
  Y3+  Y34  1  0.00252262  0.24967894  0.25646153  1
  Y3+  Y35  1  0.00157888  0.24982171  0.75902477  1
  Y3+  Y36  1  0.00286534  0.49987173  0.25490099  1
  Y3+  Y37  1  -0.00006893  0.49878016  0.75992532  1
  Y3+  Y38  1  0.00117497  0.75041516  0.25642350  1
  Y3+  Y39  1  -0.00265892  0.74928682  0.75691920  1
  Y3+  Y40  1  0.25094447  0.00252007  0.26009522  1
  Y3+  Y41  1  0.25198253  0.00198844  0.75268269  1
  Y3+  Y42  1  0.24966320  0.24754470  0.25871160  1
  Y3+  Y43  1  0.24885951  0.25037752  0.75628017  1
  Y3+  Y44  1  0.24825480  0.50128317  0.25634008  1
  Y3+  Y45  1  0.24859389  0.49664205  0.75946044  1
  Y3+  Y46  1  0.24987241  0.74831381  0.25854360  1
  Y3+  Y47  1  0.25173040  0.75133659  0.75401505  1
  Y3+  Y48  1  0.50136283  0.00020925  0.25747937  1
  Y3+  Y49  1  0.50116754  -0.00120925  0.75677230  1
  Y3+  Y50  1  0.50012090  0.24628441  0.25756399  1
  Y3+  Y51  1  0.49946356  0.24836070  0.75691022  1
  Y3+  Y52  1  0.50024852  0.50168668  0.25897809  1
  Y3+  Y53  1  0.49958294  0.49867182  0.75547356  1
  Y3+  Y54  1  0.50155553  0.75149261  0.25918457  1
  Y3+  Y55  1  0.50132612  0.75427953  0.75482187  1
  Y3+  Y56  1  0.74688508  -0.00198039  0.25430832  1
  Y3+  Y57  1  0.74829176  -0.00065298  0.76046168  1
  Y3+  Y58  1  0.74754135  0.24855892  0.25481807  1
  Y3+  Y59  1  0.75015589  0.24806953  0.76008364  1
  Y3+  Y60  1  0.74836120  0.49984832  0.25621707  1
  Y3+  Y61  1  0.75180921  0.50054300  0.75785931  1
  Y3+  Y62  1  0.74775224  0.75338169  0.25635562  1
  Y3+  Y63  1  0.74985993  0.75230157  0.75730185  1
  Fe3+  Fe64  1  0.62588655  0.12330062  0.38052299  1
  Fe3+  Fe65  1  0.87539724  0.37419856  0.38099888  1
  Fe3+  Fe66  1  0.37496941  0.87445404  0.87591272  1
  Fe3+  Fe67  1  0.12629060  0.12310673  0.87989860  1
  Fe3+  Fe68  1  0.37440979  0.37446005  0.37999233  1
  Fe3+  Fe69  1  0.62599083  0.37398742  0.37920132  1
  Fe3+  Fe70  1  0.12622547  0.62732716  0.87699990  1
  Fe3+  Fe71  1  0.87510912  0.87439397  0.87624129  1
  Fe3+  Fe72  1  0.62342223  0.62632505  0.87536725  1
  Fe3+  Fe73  1  0.37498668  0.87584252  0.37544490  1
  Fe3+  Fe74  1  0.87452774  0.62484750  0.37729497  1
  Fe3+  Fe75  1  0.12405513  0.37408513  0.37790229  1
  Fe3+  Fe76  1  0.62640382  0.62641048  0.37983574  1
  Fe3+  Fe77  1  0.62314485  0.37552767  0.87493461  1
  Fe3+  Fe78  1  0.87490682  0.87605474  0.37551316  1
  Fe3+  Fe79  1  0.37529694  0.12424656  0.87705235  1
  Fe3+  Fe80  1  0.37555690  0.62554740  0.87681785  1
  Fe3+  Fe81  1  0.12689587  0.87481122  0.87627728  1
  Fe3+  Fe82  1  0.87471920  0.12506745  0.37738808  1
  Fe3+  Fe83  1  0.12393829  0.87586661  0.37925806  1
  Fe3+  Fe84  1  0.37520900  0.37437639  0.14084598  1
  Fe3+  Fe85  1  0.12521969  0.87502506  0.63295291  1
  Fe3+  Fe86  1  0.37476293  0.62496653  0.63493532  1
  Fe3+  Fe87  1  0.37374678  0.37519417  0.63452131  1
  Fe3+  Fe88  1  0.87443716  0.12507389  0.13545923  1
  Fe3+  Fe89  1  0.87465613  0.37437771  0.13742823  1
  Fe3+  Fe90  1  0.12529728  0.12595457  0.13351790  1
  Fe3+  Fe91  1  0.12545207  0.62500320  0.63786432  1
  Fe3+  Fe92  1  0.62488927  0.12453397  0.63653528  1
  Fe3+  Fe93  1  0.87611217  0.37439759  0.63682660  1
  Fe3+  Fe94  1  0.62515109  0.62540596  0.63455643  1
  Fe3+  Fe95  1  0.87434229  0.62483494  0.13721414  1
  Cu2+  Cu96  1  0.87514657  0.12393027  0.86624283  1
  Cu2+  Cu97  1  0.12591206  0.37514172  0.87334824  1
  Cu2+  Cu98  1  0.62595627  0.87606393  0.37371884  1
  Cu2+  Cu99  1  0.37575698  0.62477639  0.36468872  1
  Cu2+  Cu100  1  0.12373362  0.12423493  0.37166058  1
  Cu2+  Cu101  1  0.87456991  0.62600357  0.86457857  1
  Cu2+  Cu102  1  0.37563815  0.12505606  0.37275696  1
  Cu2+  Cu103  1  0.62336342  0.12411947  0.87037518  1
  Cu2+  Cu104  1  0.37600056  0.37522651  0.86202329  1
  Cu2+  Cu105  1  0.62344553  0.87451751  0.87168879  1
  Cu2+  Cu106  1  0.12352465  0.62546825  0.36263492  1
  Cu2+  Cu107  1  0.87378500  0.37501794  0.86126080  1
  Cu2+  Cu108  1  0.62483570  0.87527998  0.14288729  1
  Cu2+  Cu109  1  0.62554570  0.62503275  0.15357626  1
  Cu2+  Cu110  1  0.62522654  0.12486136  0.14275862  1
  Cu2+  Cu111  1  0.37534419  0.12532799  0.64203347  1
  Cu2+  Cu112  1  0.37508049  0.12512754  0.15116629  1
  Cu2+  Cu113  1  0.12477514  0.37397754  0.14143307  1
  Cu2+  Cu114  1  0.12509515  0.12448582  0.64579716  1
  Cu2+  Cu115  1  0.62498826  0.87556190  0.64131814  1
  Cu2+  Cu116  1  0.62487334  0.37474019  0.64800741  1
  Cu2+  Cu117  1  0.12531281  0.37534976  0.64971339  1
  Cu2+  Cu118  1  0.87439879  0.12529335  0.65432700  1
  Cu2+  Cu119  1  0.12558960  0.87599375  0.15348056  1
  Cu2+  Cu120  1  0.62475620  0.37472901  0.15242962  1
  Cu2+  Cu121  1  0.37412680  0.87480596  0.64671067  1
  Cu2+  Cu122  1  0.37540650  0.87514585  0.15689469  1
  Cu2+  Cu123  1  0.87464200  0.87533181  0.15032602  1
  Cu2+  Cu124  1  0.87621297  0.87555851  0.65296451  1
  Cu2+  Cu125  1  0.37537152  0.62476637  0.15599198  1
  Cu2+  Cu126  1  0.87514102  0.62485943  0.65170471  1
  Cu2+  Cu127  1  0.12446551  0.62488168  0.15142595  1
  O2-  O128  1  0.12659181  0.12379964  0.00655245  1
  O2-  O129  1  0.12337984  0.12375216  0.50730304  1
  O2-  O130  1  0.12549383  0.37539086  0.00667611  1
  O2-  O131  1  0.12299010  0.37479785  0.49804164  1
  O2-  O132  1  0.12689977  0.62804934  -0.00294365  1
  O2-  O133  1  0.12424754  0.62516986  0.51724974  1
  O2-  O134  1  0.12767962  0.87368371  -0.00427344  1
  O2-  O135  1  0.12353072  0.87554008  0.50576497  1
  O2-  O136  1  0.37501896  0.12412266  -0.00284903  1
  O2-  O137  1  0.37578792  0.12605678  0.50699423  1
  O2-  O138  1  0.37634864  0.37635828  0.02025840  1
  O2-  O139  1  0.37296502  0.37529875  0.50718396  1
  O2-  O140  1  0.37615638  0.62595979  -0.00355138  1
  O2-  O141  1  0.37370105  0.62307042  0.51511714  1
  O2-  O142  1  0.37405847  0.87300818  -0.00427319  1
  O2-  O143  1  0.37349327  0.87511007  0.49629138  1
  O2-  O144  1  0.62402283  0.12521482  0.00685530  1
  O2-  O145  1  0.62663483  0.12406589  0.50790279  1
  O2-  O146  1  0.62253146  0.37697899  -0.00479034  1
  O2-  O147  1  0.62837052  0.37481043  0.49851684  1
  O2-  O148  1  0.62259124  0.62519163  -0.00463148  1
  O2-  O149  1  0.62690539  0.62573211  0.50646834  1
  O2-  O150  1  0.62368477  0.87362094  0.00726047  1
  O2-  O151  1  0.62614819  0.87545180  0.50785595  1
  O2-  O152  1  0.87512184  0.12672382  0.01546835  1
  O2-  O153  1  0.87467890  0.12486142  0.49738671  1
  O2-  O154  1  0.87396691  0.37587953  0.01740080  1
  O2-  O155  1  0.87595709  0.37434198  0.50729990  1
  O2-  O156  1  0.87493716  0.62361594  0.01732506  1
  O2-  O157  1  0.87474359  0.62488122  0.49748087  1
  O2-  O158  1  0.87628380  0.87279334  -0.00352096  1
  O2-  O159  1  0.87665098  0.87613958  0.49577016  1
  O2-  O160  1  0.12503445  0.00222783  0.16258025  1
  O2-  O161  1  0.12490650  -0.00314196  0.66397819  1
  O2-  O162  1  0.12540062  0.24662440  0.16473399  1
  O2-  O163  1  0.12456099  0.25101637  0.66727910  1
  O2-  O164  1  0.12487545  0.50069175  0.16538402  1
  O2-  O165  1  0.12503402  0.50081691  0.66645943  1
  O2-  O166  1  0.12533532  0.75077738  0.16649632  1
  O2-  O167  1  0.12412642  0.75111432  0.66167673  1
  O2-  O168  1  0.37539475  0.00006886  0.16391940  1
  O2-  O169  1  0.37414928  -0.00129400  0.66237202  1
  O2-  O170  1  0.37530459  0.24996856  0.16920009  1
  O2-  O171  1  0.37549241  0.25327889  0.66426549  1
  O2-  O172  1  0.37595651  0.49994109  0.16997379  1
  O2-  O173  1  0.37432554  0.49931511  0.66459965  1
  O2-  O174  1  0.37474030  0.74931516  0.16595084  1
  O2-  O175  1  0.37557051  0.74905307  0.66168602  1
  O2-  O176  1  0.62419780  -0.00001975  0.16555688  1
  O2-  O177  1  0.62612716  0.00238673  0.66477033  1
  O2-  O178  1  0.62443091  0.25081410  0.16705667  1
  O2-  O179  1  0.62457960  0.24860126  0.66318096  1
  O2-  O180  1  0.62443123  0.50009736  0.16710957  1
  O2-  O181  1  0.62600762  0.50158347  0.66032172  1
  O2-  O182  1  0.62507278  0.74901116  0.16724438  1
  O2-  O183  1  0.62488434  0.74752111  0.66132187  1
  O2-  O184  1  0.87601697  0.00009687  0.16302187  1
  O2-  O185  1  0.87535211  0.00068612  0.66472937  1
  O2-  O186  1  0.87453087  0.24970410  0.17023706  1
  O2-  O187  1  0.87568228  0.25148466  0.66386824  1
  O2-  O188  1  0.87445079  0.49965980  0.17095544  1
  O2-  O189  1  0.87514244  0.49792664  0.66258725  1
  O2-  O190  1  0.87493090  0.75021477  0.16559412  1
  O2-  O191  1  0.87596045  0.75013588  0.66161499  1
  O2-  O192  1  0.00095011  0.12481563  0.16361673  1
  O2-  O193  1  -0.00113390  0.12508100  0.66751604  1
  O2-  O194  1  -0.00200692  0.37447572  0.16729115  1
  O2-  O195  1  -0.00110423  0.37509467  0.66413678  1
  O2-  O196  1  -0.00078899  0.62564460  0.16549561  1
  O2-  O197  1  0.00064213  0.62445899  0.66641397  1
  O2-  O198  1  0.00079095  0.87494013  0.16381703  1
  O2-  O199  1  0.00160244  0.87525724  0.66210009  1
  O2-  O200  1  0.24870577  0.12440618  0.16502867  1
  O2-  O201  1  0.25016564  0.12583047  0.66467909  1
  O2-  O202  1  0.25159537  0.37515454  0.16866259  1
  O2-  O203  1  0.25121998  0.37487013  0.66402769  1
  O2-  O204  1  0.24936138  0.62456282  0.16591258  1
  O2-  O205  1  0.25006789  0.62532233  0.66572007  1
  O2-  O206  1  0.25069376  0.87553872  0.16730499  1
  O2-  O207  1  0.24821870  0.87402522  0.65918686  1
  O2-  O208  1  0.49893725  0.12533510  0.16731235  1
  O2-  O209  1  0.50245292  0.12475251  0.66133395  1
  O2-  O210  1  0.49978359  0.37521879  0.17051552  1
  O2-  O211  1  0.49810978  0.37648610  0.65836163  1
  O2-  O212  1  0.50111243  0.62490146  0.16801176  1
  O2-  O213  1  0.50073886  0.62347378  0.65974208  1
  O2-  O214  1  0.49871133  0.87427012  0.16807860  1
  O2-  O215  1  0.49813665  0.87547874  0.66187205  1
  O2-  O216  1  0.75167059  0.12482973  0.16705647  1
  O2-  O217  1  0.74861919  0.12603557  0.66414889  1
  O2-  O218  1  0.75002130  0.37519906  0.16732980  1
  O2-  O219  1  0.75205771  0.37446095  0.66240283  1
  O2-  O220  1  0.75035044  0.62457108  0.16651776  1
  O2-  O221  1  0.74902473  0.62491972  0.66259527  1
  O2-  O222  1  0.75055681  0.87504119  0.16502404  1
  O2-  O223  1  0.75246037  0.87475992  0.66523576  1
  O2-  O224  1  0.12476428  -0.00314653  0.34672098  1
  O2-  O225  1  0.12529834  0.00068288  0.84662912  1
  O2-  O226  1  0.12444505  0.25188447  0.34603235  1
  O2-  O227  1  0.12543616  0.24662818  0.85161964  1
  O2-  O228  1  0.12457554  0.49919342  0.34849740  1
  O2-  O229  1  0.12448090  0.50256984  0.84850812  1
  O2-  O230  1  0.12406755  0.75170963  0.35161428  1
  O2-  O231  1  0.12561928  0.75059325  0.84064336  1
  O2-  O232  1  0.37440165  -0.00118433  0.34661070  1
  O2-  O233  1  0.37457671  -0.00021558  0.84386454  1
  O2-  O234  1  0.37549445  0.25314352  0.35122226  1
  O2-  O235  1  0.37450316  0.24980493  0.84814068  1
  O2-  O236  1  0.37496185  0.49806496  0.35299040  1
  O2-  O237  1  0.37567726  0.50034032  0.84594868  1
  O2-  O238  1  0.37500006  0.75034170  0.34902954  1
  O2-  O239  1  0.37465141  0.75004721  0.84123356  1
  O2-  O240  1  0.62612333  0.00257436  0.34859264  1
  O2-  O241  1  0.62423076  -0.00024080  0.84819258  1
  O2-  O242  1  0.62533756  0.24883680  0.34982498  1
  O2-  O243  1  0.62514579  0.25128812  0.84668048  1
  O2-  O244  1  0.62595894  0.50064073  0.35093583  1
  O2-  O245  1  0.62486398  0.50068073  0.84206238  1
  O2-  O246  1  0.62546015  0.74802017  0.35105289  1
  O2-  O247  1  0.62504776  0.74851411  0.84294508  1
  O2-  O248  1  0.87497375  0.00034925  0.34371572  1
  O2-  O249  1  0.87586666  -0.00120898  0.84779857  1
  O2-  O250  1  0.87488061  0.25153635  0.35017204  1
  O2-  O251  1  0.87447930  0.24946799  0.84885260  1
  O2-  O252  1  0.87409654  0.49816695  0.35167144  1
  O2-  O253  1  0.87495461  0.50012863  0.84744977  1
  O2-  O254  1  0.87536712  0.75013760  0.34679699  1
  O2-  O255  1  0.87460140  0.75131182  0.84417215  1
  O2-  O256  1  -0.00246203  0.12517341  0.34448459  1
  O2-  O257  1  0.00240229  0.12484040  0.85175255  1
  O2-  O258  1  -0.00158064  0.37539029  0.34808840  1
  O2-  O259  1  -0.00205531  0.37470506  0.84876676  1
  O2-  O260  1  -0.00178997  0.62428726  0.34675529  1
  O2-  O261  1  0.00040108  0.62579329  0.84915211  1
  O2-  O262  1  0.00065778  0.87508990  0.34654934  1
  O2-  O263  1  0.00125125  0.87504768  0.84470667  1
  O2-  O264  1  0.24978125  0.12548951  0.34940074  1
  O2-  O265  1  0.24937567  0.12485955  0.84641560  1
  O2-  O266  1  0.25040612  0.37539047  0.35084875  1
  O2-  O267  1  0.25204076  0.37496593  0.84801237  1
  O2-  O268  1  0.24923295  0.62492232  0.35100040  1
  O2-  O269  1  0.25069468  0.62484140  0.84369633  1
  O2-  O270  1  0.24828751  0.87397102  0.35054425  1
  O2-  O271  1  0.25028042  0.87551917  0.83987011  1
  O2-  O272  1  0.50342563  0.12519753  0.35156999  1
  O2-  O273  1  0.49748596  0.12546526  0.84321748  1
  O2-  O274  1  0.49991875  0.37593559  0.35346822  1
  O2-  O275  1  0.50049613  0.37479183  0.84112596  1
  O2-  O276  1  0.50290098  0.62412564  0.35279645  1
  O2-  O277  1  0.49925583  0.62495076  0.83969643  1
  O2-  O278  1  0.49922264  0.87516509  0.35046873  1
  O2-  O279  1  0.49790304  0.87476695  0.84397431  1
  O2-  O280  1  0.74929685  0.12605446  0.34818002  1
  O2-  O281  1  0.75048819  0.12467618  0.84883708  1
  O2-  O282  1  0.75119426  0.37456277  0.34874441  1
  O2-  O283  1  0.74884246  0.37568221  0.84645553  1
  O2-  O284  1  0.74938396  0.62457142  0.34759460  1
  O2-  O285  1  0.74924044  0.62436451  0.84683317  1
  O2-  O286  1  0.75176540  0.87507935  0.34693223  1
  O2-  O287  1  0.75080221  0.87516266  0.84844678  1
