# generated using pymatgen
data_BaYFeCuO5
_symmetry_space_group_name_H-M   'P 1'
_cell_length_a   15.67920814
_cell_length_b   15.68134992
_cell_length_c   15.50781710
_cell_angle_alpha   89.99786109
_cell_angle_beta   90.00689576
_cell_angle_gamma   89.99925969
_symmetry_Int_Tables_number   1
_chemical_formula_structural   BaYFeCuO5
_chemical_formula_sum   'Ba32 Y32 Fe32 Cu32 O160'
_cell_volume   3812.92478386
_cell_formula_units_Z   32
loop_
 _symmetry_equiv_pos_site_id
 _symmetry_equiv_pos_as_xyz
  1  'x, y, z'
loop_
 _atom_type_symbol
 _atom_type_oxidation_number
  Ba2+  2.0
  Y3+  3.0
  Fe3+  3.0
  Cu2+  2.0
  O2-  -2.0
loop_
 _atom_site_type_symbol
 _atom_site_label
 _atom_site_symmetry_multiplicity
 _atom_site_fract_x
 _atom_site_fract_y
 _atom_site_fract_z
 _atom_site_occupancy
  Ba2+  Ba0  1  -0.00244008  -0.00268828  0.00340444  1
  Ba2+  Ba1  1  -0.00409157  -0.00828125  0.52467699  1
  Ba2+  Ba2  1  0.00420902  0.25614849  0.01580246  1
  Ba2+  Ba3  1  -0.00492140  0.24398780  0.51066909  1
  Ba2+  Ba4  1  0.00212085  0.50077847  0.02213693  1
  Ba2+  Ba5  1  -0.00104931  0.51161581  0.50513166  1
  Ba2+  Ba6  1  -0.00326363  0.74457985  0.01110667  1
  Ba2+  Ba7  1  0.00057216  0.75279629  0.52053249  1
  Ba2+  Ba8  1  0.25753633  0.00257323  -0.00320563  1
  Ba2+  Ba9  1  0.25814653  -0.00732715  0.51075352  1
  Ba2+  Ba10  1  0.25280835  0.25084006  -0.00757281  1
  Ba2+  Ba11  1  0.25575453  0.24230061  0.50718565  1
  Ba2+  Ba12  1  0.24847424  0.50091186  0.00197270  1
  Ba2+  Ba13  1  0.25044842  0.51248667  0.51683050  1
  Ba2+  Ba14  1  0.25445774  0.74543776  0.00234652  1
  Ba2+  Ba15  1  0.25171190  0.75426355  0.52329058  1
  Ba2+  Ba16  1  0.50030408  -0.00010577  0.00804663  1
  Ba2+  Ba17  1  0.49278358  -0.00709586  0.51080829  1
  Ba2+  Ba18  1  0.50023562  0.24769318  -0.00031605  1
  Ba2+  Ba19  1  0.49771630  0.24588710  0.51074859  1
  Ba2+  Ba20  1  0.50117405  0.50174494  0.00135777  1
  Ba2+  Ba21  1  0.50519509  0.50742325  0.52160680  1
  Ba2+  Ba22  1  0.50030842  0.75010021  0.00704522  1
  Ba2+  Ba23  1  0.49919055  0.75329780  0.52352609  1
  Ba2+  Ba24  1  0.74469754  -0.00365791  0.01113518  1
  Ba2+  Ba25  1  0.75324874  -0.00759946  0.52421780  1
  Ba2+  Ba26  1  0.74232816  0.25247807  0.01784688  1
  Ba2+  Ba27  1  0.74854110  0.24956152  0.51521254  1
  Ba2+  Ba28  1  0.74751171  0.50110377  0.02108879  1
  Ba2+  Ba29  1  0.74586996  0.50711599  0.51091883  1
  Ba2+  Ba30  1  0.74850622  0.74918019  0.01420282  1
  Ba2+  Ba31  1  0.74902907  0.75180516  0.51873817  1
  Y3+  Y32  1  -0.00057819  -0.00247543  0.25277024  1
  Y3+  Y33  1  -0.00111857  -0.00128397  0.76182378  1
  Y3+  Y34  1  -0.00012024  0.25133009  0.25851554  1
  Y3+  Y35  1  -0.00064068  0.24812463  0.75652001  1
  Y3+  Y36  1  0.00007201  0.50218139  0.25542282  1
  Y3+  Y37  1  0.00163604  0.50289519  0.75742492  1
  Y3+  Y38  1  -0.00160339  0.74878212  0.25085442  1
  Y3+  Y39  1  0.00128499  0.75071577  0.76293624  1
  Y3+  Y40  1  0.25481451  -0.00231460  0.26012152  1
  Y3+  Y41  1  0.25332488  -0.00114108  0.75681543  1
  Y3+  Y42  1  0.25174198  0.24897651  0.26231654  1
  Y3+  Y43  1  0.25236551  0.24765915  0.75470252  1
  Y3+  Y44  1  0.24857211  0.50179818  0.25640599  1
  Y3+  Y45  1  0.25083464  0.50359100  0.75891539  1
  Y3+  Y46  1  0.25184164  0.75203615  0.25359024  1
  Y3+  Y47  1  0.25155248  0.74972789  0.76078488  1
  Y3+  Y48  1  0.49842870  -0.00188635  0.25673634  1
  Y3+  Y49  1  0.49800726  -0.00071243  0.75861132  1
  Y3+  Y50  1  0.50090877  0.24774240  0.25890742  1
  Y3+  Y51  1  0.50017406  0.24826439  0.75601617  1
  Y3+  Y52  1  0.50221696  0.50116676  0.25522657  1
  Y3+  Y53  1  0.50068384  0.50249940  0.75866272  1
  Y3+  Y54  1  0.49970743  0.75295134  0.25234628  1
  Y3+  Y55  1  0.49876024  0.74980460  0.76097632  1
  Y3+  Y56  1  0.74785328  -0.00183032  0.25083807  1
  Y3+  Y57  1  0.75014988  -0.00067863  0.76217024  1
  Y3+  Y58  1  0.74754408  0.25015709  0.25571301  1
  Y3+  Y59  1  0.74782569  0.24865779  0.75668615  1
  Y3+  Y60  1  0.74955237  0.50219620  0.25530357  1
  Y3+  Y61  1  0.74626884  0.50118184  0.75657108  1
  Y3+  Y62  1  0.75018778  0.74949454  0.25043691  1
  Y3+  Y63  1  0.74856858  0.75088922  0.76185785  1
  Fe3+  Fe64  1  0.62424218  0.87502027  0.87628608  1
  Fe3+  Fe65  1  0.87377340  0.12178980  0.37635197  1
  Fe3+  Fe66  1  0.87424101  0.37610843  0.37905064  1
  Fe3+  Fe67  1  0.12524276  0.37584640  0.38198656  1
  Fe3+  Fe68  1  0.62596850  0.12220965  0.38020008  1
  Fe3+  Fe69  1  0.62506698  0.62789968  0.37489765  1
  Fe3+  Fe70  1  0.87441752  0.87356900  0.37272883  1
  Fe3+  Fe71  1  0.62565769  0.87395718  0.37500056  1
  Fe3+  Fe72  1  0.12604086  0.87508041  0.87908006  1
  Fe3+  Fe73  1  0.62519156  0.37500353  0.87437083  1
  Fe3+  Fe74  1  0.87401181  0.12715026  0.87986803  1
  Fe3+  Fe75  1  0.12376615  0.12145075  0.38135972  1
  Fe3+  Fe76  1  0.37614640  0.62727186  0.37782176  1
  Fe3+  Fe77  1  0.87403112  0.62298270  0.87795711  1
  Fe3+  Fe78  1  0.37594385  0.37768587  0.38265394  1
  Fe3+  Fe79  1  0.62486806  0.37597271  0.37867623  1
  Fe3+  Fe80  1  0.12427954  0.37502970  0.87264134  1
  Fe3+  Fe81  1  0.12426732  0.87401730  0.37548027  1
  Fe3+  Fe82  1  0.87445869  0.37587323  0.87582521  1
  Fe3+  Fe83  1  0.12502632  0.62880436  0.37533092  1
  Fe3+  Fe84  1  0.37481913  0.37398632  0.13899860  1
  Fe3+  Fe85  1  0.37512963  0.62423827  0.13700058  1
  Fe3+  Fe86  1  0.12701180  0.87550310  0.13239405  1
  Fe3+  Fe87  1  0.62465391  0.12266761  0.63576056  1
  Fe3+  Fe88  1  0.37537006  0.37605392  0.63597899  1
  Fe3+  Fe89  1  0.87475968  0.37607545  0.63328806  1
  Fe3+  Fe90  1  0.12764194  0.12528057  0.13740120  1
  Fe3+  Fe91  1  0.37463615  0.12579160  0.14042439  1
  Fe3+  Fe92  1  0.12518844  0.12282027  0.63596531  1
  Fe3+  Fe93  1  0.87478371  0.62626769  0.63932446  1
  Fe3+  Fe94  1  0.87504971  0.12601449  0.13423642  1
  Fe3+  Fe95  1  0.12474160  0.37569045  0.63263865  1
  Cu2+  Cu96  1  0.37632923  0.12368145  0.37549288  1
  Cu2+  Cu97  1  0.62527227  0.12513146  0.87249574  1
  Cu2+  Cu98  1  0.12475607  0.12548543  0.86292652  1
  Cu2+  Cu99  1  0.37575919  0.87457702  0.87421134  1
  Cu2+  Cu100  1  0.37531680  0.37537836  0.85850210  1
  Cu2+  Cu101  1  0.12410409  0.62428290  0.87451121  1
  Cu2+  Cu102  1  0.87431573  0.87417683  0.87533208  1
  Cu2+  Cu103  1  0.87447583  0.62680314  0.36139657  1
  Cu2+  Cu104  1  0.62566030  0.62480992  0.87361328  1
  Cu2+  Cu105  1  0.37570285  0.12536964  0.85879809  1
  Cu2+  Cu106  1  0.37552055  0.62433866  0.86367688  1
  Cu2+  Cu107  1  0.37590865  0.87214403  0.37093205  1
  Cu2+  Cu108  1  0.12728534  0.37367523  0.15700023  1
  Cu2+  Cu109  1  0.87536826  0.87519518  0.13631614  1
  Cu2+  Cu110  1  0.62276768  0.12498812  0.14049829  1
  Cu2+  Cu111  1  0.12694745  0.62504473  0.14009257  1
  Cu2+  Cu112  1  0.12447451  0.62611619  0.65471521  1
  Cu2+  Cu113  1  0.37429067  0.87608344  0.13882809  1
  Cu2+  Cu114  1  0.87460305  0.12439713  0.65347351  1
  Cu2+  Cu115  1  0.62489174  0.87540326  0.65570195  1
  Cu2+  Cu116  1  0.62279073  0.37471806  0.15239554  1
  Cu2+  Cu117  1  0.12518753  0.87505883  0.65800047  1
  Cu2+  Cu118  1  0.62558193  0.62670233  0.65555008  1
  Cu2+  Cu119  1  0.87462834  0.62405484  0.14953570  1
  Cu2+  Cu120  1  0.37552304  0.12377794  0.64215926  1
  Cu2+  Cu121  1  0.87463300  0.37442368  0.15364349  1
  Cu2+  Cu122  1  0.87475699  0.87389439  0.66036866  1
  Cu2+  Cu123  1  0.62474520  0.37485046  0.64750089  1
  Cu2+  Cu124  1  0.37537193  0.62565943  0.65456928  1
  Cu2+  Cu125  1  0.37540442  0.87430237  0.64794359  1
  Cu2+  Cu126  1  0.62318660  0.62506021  0.13940514  1
  Cu2+  Cu127  1  0.62368352  0.87526298  0.14751936  1
  O2-  O128  1  0.12811237  0.13001999  0.01765321  1
  O2-  O129  1  0.12189787  0.11970122  0.50777307  1
  O2-  O130  1  0.12485071  0.37390610  -0.00734013  1
  O2-  O131  1  0.12425833  0.37676786  0.50697805  1
  O2-  O132  1  0.12520716  0.62208384  0.00657397  1
  O2-  O133  1  0.12396607  0.62975853  0.49549887  1
  O2-  O134  1  0.12691108  0.87667418  0.00612430  1
  O2-  O135  1  0.12240481  0.87405337  0.49533491  1
  O2-  O136  1  0.37359878  0.12895596  0.02025089  1
  O2-  O137  1  0.37573083  0.12381454  0.50888728  1
  O2-  O138  1  0.37388375  0.37292255  0.01918152  1
  O2-  O139  1  0.37554697  0.37818097  0.50864703  1
  O2-  O140  1  0.37449594  0.62050074  0.01638721  1
  O2-  O141  1  0.37599103  0.62810894  0.49819666  1
  O2-  O142  1  0.37453883  0.87655402  0.00614709  1
  O2-  O143  1  0.37525228  0.87181220  0.50856487  1
  O2-  O144  1  0.62435693  0.12677760  0.00671283  1
  O2-  O145  1  0.62737989  0.12137025  0.50686456  1
  O2-  O146  1  0.62473933  0.37454265  -0.00514680  1
  O2-  O147  1  0.62635131  0.37696527  0.49840298  1
  O2-  O148  1  0.62477817  0.62331697  0.00640682  1
  O2-  O149  1  0.62559472  0.62870036  0.49529398  1
  O2-  O150  1  0.62388832  0.87549857  -0.00275970  1
  O2-  O151  1  0.62734565  0.87392219  0.49508787  1
  O2-  O152  1  0.87522926  0.12978171  0.00633591  1
  O2-  O153  1  0.87448610  0.11986784  0.49606332  1
  O2-  O154  1  0.87540924  0.37507256  -0.00482824  1
  O2-  O155  1  0.87461068  0.37562798  0.50601793  1
  O2-  O156  1  0.87469386  0.61953530  -0.00179284  1
  O2-  O157  1  0.87494357  0.62851592  0.51843841  1
  O2-  O158  1  0.87593925  0.87600983  0.00588329  1
  O2-  O159  1  0.87496140  0.87391084  0.49307089  1
  O2-  O160  1  0.12407613  0.00024126  0.16352757  1
  O2-  O161  1  0.12344834  0.00104351  0.66701640  1
  O2-  O162  1  0.12507527  0.24855819  0.17504890  1
  O2-  O163  1  0.12483202  0.24973981  0.65658536  1
  O2-  O164  1  0.12536917  0.49802678  0.16746064  1
  O2-  O165  1  0.12397387  0.49871150  0.66001384  1
  O2-  O166  1  0.12558943  0.75272249  0.15794295  1
  O2-  O167  1  0.12472659  0.75062221  0.66827591  1
  O2-  O168  1  0.37478441  0.00171252  0.16719712  1
  O2-  O169  1  0.37514704  -0.00097772  0.66661002  1
  O2-  O170  1  0.37459248  0.24987463  0.17619614  1
  O2-  O171  1  0.37433068  0.25298597  0.66163756  1
  O2-  O172  1  0.37483277  0.49905660  0.17077308  1
  O2-  O173  1  0.37486932  0.49931269  0.66334576  1
  O2-  O174  1  0.37452156  0.74928879  0.15992091  1
  O2-  O175  1  0.37438834  0.74894405  0.66903645  1
  O2-  O176  1  0.62451021  -0.00181584  0.16326494  1
  O2-  O177  1  0.62573094  0.00070949  0.66492361  1
  O2-  O178  1  0.62451057  0.25128870  0.16999604  1
  O2-  O179  1  0.62597462  0.24762079  0.65988383  1
  O2-  O180  1  0.62465076  0.49819286  0.16608034  1
  O2-  O181  1  0.62479722  0.50071862  0.66202452  1
  O2-  O182  1  0.62452026  0.75222372  0.15907752  1
  O2-  O183  1  0.62617188  0.75123312  0.66670348  1
  O2-  O184  1  0.87588387  0.00380366  0.15936867  1
  O2-  O185  1  0.87596828  -0.00136558  0.66844526  1
  O2-  O186  1  0.87554769  0.24875249  0.16829768  1
  O2-  O187  1  0.87487717  0.25212528  0.65989471  1
  O2-  O188  1  0.87531411  0.49858924  0.16804043  1
  O2-  O189  1  0.87614522  0.49906935  0.66057042  1
  O2-  O190  1  0.87512421  0.74850263  0.15904861  1
  O2-  O191  1  0.87488561  0.74984329  0.66892513  1
  O2-  O192  1  -0.00027617  0.12710761  0.16408730  1
  O2-  O193  1  0.00123685  0.12521184  0.66442094  1
  O2-  O194  1  0.00156384  0.37356860  0.16606173  1
  O2-  O195  1  0.00019401  0.37346020  0.65947685  1
  O2-  O196  1  -0.00087052  0.62345963  0.16304509  1
  O2-  O197  1  -0.00058497  0.62581697  0.66623613  1
  O2-  O198  1  0.00359454  0.87578699  0.16040464  1
  O2-  O199  1  -0.00012619  0.87496907  0.66808497  1
  O2-  O200  1  0.25044762  0.12523057  0.17540314  1
  O2-  O201  1  0.24698721  0.12456038  0.66356623  1
  O2-  O202  1  0.25130893  0.37393385  0.17414529  1
  O2-  O203  1  0.24917368  0.37553678  0.66059456  1
  O2-  O204  1  0.25248192  0.62418214  0.16800224  1
  O2-  O205  1  0.24898340  0.62475183  0.66520824  1
  O2-  O206  1  0.24734759  0.87674738  0.16679205  1
  O2-  O207  1  0.24888648  0.87530020  0.66733198  1
  O2-  O208  1  0.49767969  0.12550224  0.17062728  1
  O2-  O209  1  0.50287314  0.12501625  0.66348769  1
  O2-  O210  1  0.49869543  0.37406508  0.16959178  1
  O2-  O211  1  0.49830912  0.37492123  0.66223530  1
  O2-  O212  1  0.49771560  0.62455542  0.16613034  1
  O2-  O213  1  0.50135058  0.62554167  0.66520407  1
  O2-  O214  1  0.50099865  0.87611070  0.16405344  1
  O2-  O215  1  0.50138520  0.87467793  0.66582604  1
  O2-  O216  1  0.75222388  0.12632187  0.16158746  1
  O2-  O217  1  0.74883829  0.12430160  0.66342566  1
  O2-  O218  1  0.74853167  0.37397921  0.16362143  1
  O2-  O219  1  0.75196134  0.37535203  0.66005469  1
  O2-  O220  1  0.75052389  0.62383468  0.16252434  1
  O2-  O221  1  0.75041817  0.62469767  0.66526259  1
  O2-  O222  1  0.74784632  0.87575619  0.15967342  1
  O2-  O223  1  0.75019288  0.87575931  0.66572978  1
  O2-  O224  1  0.12433116  0.00006948  0.34478080  1
  O2-  O225  1  0.12540686  -0.00023943  0.85213913  1
  O2-  O226  1  0.12345643  0.24991160  0.35877424  1
  O2-  O227  1  0.12512801  0.25049830  0.84010257  1
  O2-  O228  1  0.12438184  0.49952302  0.35102829  1
  O2-  O229  1  0.12577792  0.49747720  0.84222906  1
  O2-  O230  1  0.12428961  0.75050643  0.33844524  1
  O2-  O231  1  0.12517039  0.75253453  0.85243266  1
  O2-  O232  1  0.37547853  -0.00116349  0.35020319  1
  O2-  O233  1  0.37457127  0.00268528  0.84982399  1
  O2-  O234  1  0.37502994  0.25385190  0.35713427  1
  O2-  O235  1  0.37506396  0.24878800  0.84553521  1
  O2-  O236  1  0.37391819  0.49968626  0.35040574  1
  O2-  O237  1  0.37453349  0.50071007  0.84741686  1
  O2-  O238  1  0.37543987  0.74772716  0.34057261  1
  O2-  O239  1  0.37489360  0.74738075  0.85207542  1
  O2-  O240  1  0.62613082  0.00038806  0.34531801  1
  O2-  O241  1  0.62501307  -0.00102838  0.84766653  1
  O2-  O242  1  0.62610573  0.24910961  0.35279780  1
  O2-  O243  1  0.62432388  0.25181593  0.84301833  1
  O2-  O244  1  0.62627648  0.50057655  0.34715515  1
  O2-  O245  1  0.62458990  0.49791808  0.84485829  1
  O2-  O246  1  0.62558268  0.75019103  0.33960848  1
  O2-  O247  1  0.62453179  0.75131206  0.84940475  1
  O2-  O248  1  0.87480652  -0.00048614  0.33923870  1
  O2-  O249  1  0.87525186  0.00359696  0.85341308  1
  O2-  O250  1  0.87558961  0.25060941  0.35243721  1
  O2-  O251  1  0.87551783  0.25012348  0.84326178  1
  O2-  O252  1  0.87542479  0.49890852  0.35337484  1
  O2-  O253  1  0.87474636  0.49881835  0.84023468  1
  O2-  O254  1  0.87513858  0.75091515  0.34071353  1
  O2-  O255  1  0.87548168  0.74745342  0.85085044  1
  O2-  O256  1  0.00052226  0.12508531  0.34660329  1
  O2-  O257  1  -0.00242043  0.12619396  0.84923442  1
  O2-  O258  1  0.00012224  0.37483440  0.35169510  1
  O2-  O259  1  -0.00097396  0.37415885  0.84067294  1
  O2-  O260  1  0.00038426  0.62475107  0.34597051  1
  O2-  O261  1  -0.00225848  0.62351048  0.84703202  1
  O2-  O262  1  -0.00059829  0.87523353  0.34054671  1
  O2-  O263  1  0.00303561  0.87636543  0.85169514  1
  O2-  O264  1  0.24634162  0.12526409  0.35634619  1
  O2-  O265  1  0.25170761  0.12664459  0.84795944  1
  O2-  O266  1  0.24931449  0.37460570  0.35610221  1
  O2-  O267  1  0.25032387  0.37354920  0.84477651  1
  O2-  O268  1  0.24963050  0.62487782  0.34744207  1
  O2-  O269  1  0.25185406  0.62408457  0.85023511  1
  O2-  O270  1  0.24866578  0.87446544  0.34862646  1
  O2-  O271  1  0.24839616  0.87591804  0.85077057  1
  O2-  O272  1  0.50410596  0.12533581  0.35285380  1
  O2-  O273  1  0.49817633  0.12599035  0.84718954  1
  O2-  O274  1  0.49975538  0.37550979  0.35074801  1
  O2-  O275  1  0.49960678  0.37465516  0.84648693  1
  O2-  O276  1  0.50067440  0.62397569  0.34527853  1
  O2-  O277  1  0.49842767  0.62375700  0.84989973  1
  O2-  O278  1  0.50210715  0.87494362  0.34640672  1
  O2-  O279  1  0.50083372  0.87555057  0.84782123  1
  O2-  O280  1  0.74909111  0.12553162  0.34445399  1
  O2-  O281  1  0.75299135  0.12672512  0.84726295  1
  O2-  O282  1  0.75092985  0.37445411  0.34771489  1
  O2-  O283  1  0.75035366  0.37406374  0.84161108  1
  O2-  O284  1  0.74969077  0.62506570  0.34539916  1
  O2-  O285  1  0.75163586  0.62390762  0.84591161  1
  O2-  O286  1  0.75000060  0.87496896  0.34038505  1
  O2-  O287  1  0.74817000  0.87543318  0.84816496  1
