# generated using pymatgen
data_BaYFeCuO5
_symmetry_space_group_name_H-M   'P 1'
_cell_length_a   15.65520931
_cell_length_b   15.65378285
_cell_length_c   15.45186583
_cell_angle_alpha   89.99315825
_cell_angle_beta   89.99749161
_cell_angle_gamma   89.99571561
_symmetry_Int_Tables_number   1
_chemical_formula_structural   BaYFeCuO5
_chemical_formula_sum   'Ba32 Y32 Fe32 Cu32 O160'
_cell_volume   3786.68437090
_cell_formula_units_Z   32
loop_
 _symmetry_equiv_pos_site_id
 _symmetry_equiv_pos_as_xyz
  1  'x, y, z'
loop_
 _atom_type_symbol
 _atom_type_oxidation_number
  Ba2+  2.0
  Y3+  3.0
  Fe3+  3.0
  Cu2+  2.0
  O2-  -2.0
loop_
 _atom_site_type_symbol
 _atom_site_label
 _atom_site_symmetry_multiplicity
 _atom_site_fract_x
 _atom_site_fract_y
 _atom_site_fract_z
 _atom_site_occupancy
  Ba2+  Ba0  1  0.00212429  0.00442191  0.01659431  1
  Ba2+  Ba1  1  0.00560930  0.00838458  0.50775092  1
  Ba2+  Ba2  1  -0.00402950  0.24289633  0.00669531  1
  Ba2+  Ba3  1  0.00572655  0.24934513  0.50736066  1
  Ba2+  Ba4  1  -0.00084215  0.49689140  0.01085099  1
  Ba2+  Ba5  1  0.00623117  0.49168541  0.50651214  1
  Ba2+  Ba6  1  0.00636963  0.75477339  0.02182445  1
  Ba2+  Ba7  1  0.00759740  0.75082391  0.50617244  1
  Ba2+  Ba8  1  0.24915354  -0.00114255  0.00649325  1
  Ba2+  Ba9  1  0.24610028  -0.00188964  0.50142537  1
  Ba2+  Ba10  1  0.25004664  0.24195999  0.00552045  1
  Ba2+  Ba11  1  0.24280403  0.25401690  0.50742984  1
  Ba2+  Ba12  1  0.25384912  0.50506403  0.02325102  1
  Ba2+  Ba13  1  0.24588093  0.49148677  0.51096694  1
  Ba2+  Ba14  1  0.25191695  0.75244977  0.02250646  1
  Ba2+  Ba15  1  0.25012944  0.75694659  0.50631203  1
  Ba2+  Ba16  1  0.49156227  0.00005531  0.00510606  1
  Ba2+  Ba17  1  0.50299597  -0.00675390  0.51127563  1
  Ba2+  Ba18  1  0.49511417  0.24602964  0.01211298  1
  Ba2+  Ba19  1  0.49710501  0.25034399  0.51195885  1
  Ba2+  Ba20  1  0.49542458  0.50535526  0.02346539  1
  Ba2+  Ba21  1  0.49658753  0.49757998  0.51022797  1
  Ba2+  Ba22  1  0.49167683  0.74862207  0.01816093  1
  Ba2+  Ba23  1  0.50241879  0.75874403  0.51052904  1
  Ba2+  Ba24  1  0.75603465  0.00585804  0.01545339  1
  Ba2+  Ba25  1  0.74411621  0.00327673  0.51779252  1
  Ba2+  Ba26  1  0.75840474  0.24605004  0.01055631  1
  Ba2+  Ba27  1  0.75516417  0.24421458  0.51405850  1
  Ba2+  Ba28  1  0.75233061  0.49657652  0.01034327  1
  Ba2+  Ba29  1  0.75118951  0.49848209  0.50604016  1
  Ba2+  Ba30  1  0.74852642  0.74980861  0.01656768  1
  Ba2+  Ba31  1  0.74035271  0.75357396  0.51121997  1
  Y3+  Y32  1  0.00242829  0.00219579  0.25582997  1
  Y3+  Y33  1  0.00112458  0.00512884  0.75967403  1
  Y3+  Y34  1  0.00106447  0.24927847  0.25615776  1
  Y3+  Y35  1  0.00098164  0.24714565  0.76045458  1
  Y3+  Y36  1  0.00043509  0.49623064  0.25702562  1
  Y3+  Y37  1  0.00156753  0.49792430  0.75715785  1
  Y3+  Y38  1  0.00154484  0.75250081  0.25713972  1
  Y3+  Y39  1  0.00184162  0.74928048  0.75530314  1
  Y3+  Y40  1  0.24784595  -0.00102190  0.25836749  1
  Y3+  Y41  1  0.25087594  0.00123645  0.75869710  1
  Y3+  Y42  1  0.24806070  0.25027870  0.26064138  1
  Y3+  Y43  1  0.24759982  0.24842724  0.75558894  1
  Y3+  Y44  1  0.25075195  0.49771139  0.26075266  1
  Y3+  Y45  1  0.24837272  0.49825403  0.75144891  1
  Y3+  Y46  1  0.25082697  0.75361556  0.25875309  1
  Y3+  Y47  1  0.25183001  0.75208093  0.75459694  1
  Y3+  Y48  1  0.49922040  -0.00225980  0.25902815  1
  Y3+  Y49  1  0.49820357  -0.00230794  0.75611546  1
  Y3+  Y50  1  0.49808819  0.25044262  0.25822771  1
  Y3+  Y51  1  0.49824901  0.24920847  0.75604275  1
  Y3+  Y52  1  0.49799809  0.49925800  0.25911818  1
  Y3+  Y53  1  0.49915013  0.50012068  0.75247438  1
  Y3+  Y54  1  0.49880982  0.75315204  0.25959688  1
  Y3+  Y55  1  0.49905677  0.75287625  0.75351104  1
  Y3+  Y56  1  0.75051448  0.00097749  0.25525110  1
  Y3+  Y57  1  0.74963956  0.00177815  0.75752650  1
  Y3+  Y58  1  0.75317009  0.24909600  0.25293918  1
  Y3+  Y59  1  0.75322593  0.24834340  0.76171965  1
  Y3+  Y60  1  0.75119994  0.49805168  0.25483884  1
  Y3+  Y61  1  0.75077018  0.49951475  0.75852799  1
  Y3+  Y62  1  0.74883256  0.75205884  0.25775075  1
  Y3+  Y63  1  0.74715184  0.75031943  0.75438690  1
  Fe3+  Fe64  1  0.62498974  0.62488472  0.37651075  1
  Fe3+  Fe65  1  0.37472706  0.62558352  0.37914689  1
  Fe3+  Fe66  1  0.87553758  0.87421402  0.87758122  1
  Fe3+  Fe67  1  0.62542235  0.12506360  0.37593100  1
  Fe3+  Fe68  1  0.37470876  0.37653078  0.87685680  1
  Fe3+  Fe69  1  0.87476197  0.87656387  0.37976240  1
  Fe3+  Fe70  1  0.12686648  0.62549805  0.87723225  1
  Fe3+  Fe71  1  0.87525270  0.62477842  0.37863235  1
  Fe3+  Fe72  1  0.12618526  0.37521438  0.88020703  1
  Fe3+  Fe73  1  0.37452163  0.12468302  0.38050149  1
  Fe3+  Fe74  1  0.62404668  0.12475239  0.87820745  1
  Fe3+  Fe75  1  0.12522457  0.62460453  0.37639325  1
  Fe3+  Fe76  1  0.87523614  0.12532459  0.37613485  1
  Fe3+  Fe77  1  0.87579377  0.62649899  0.87885079  1
  Fe3+  Fe78  1  0.62426895  0.87443667  0.88000618  1
  Fe3+  Fe79  1  0.62642372  0.37342461  0.37835932  1
  Fe3+  Fe80  1  0.62291932  0.62516946  0.87676878  1
  Fe3+  Fe81  1  0.12543805  0.87443198  0.87695432  1
  Fe3+  Fe82  1  0.37418378  0.62489451  0.87322110  1
  Fe3+  Fe83  1  0.62363702  0.37529902  0.87968997  1
  Fe3+  Fe84  1  0.87602062  0.37357847  0.63905224  1
  Fe3+  Fe85  1  0.37413946  0.62553013  0.63243111  1
  Fe3+  Fe86  1  0.87561691  0.62490876  0.63324520  1
  Fe3+  Fe87  1  0.62406648  0.87642214  0.13516261  1
  Fe3+  Fe88  1  0.62426830  0.37384242  0.13504570  1
  Fe3+  Fe89  1  0.87571244  0.62533432  0.13639573  1
  Fe3+  Fe90  1  0.87578198  0.87665619  0.63373491  1
  Fe3+  Fe91  1  0.37413277  0.12427544  0.14147113  1
  Fe3+  Fe92  1  0.12462589  0.87658551  0.63776141  1
  Fe3+  Fe93  1  0.37387222  0.12425597  0.63546442  1
  Fe3+  Fe94  1  0.62623679  0.37387097  0.63554937  1
  Fe3+  Fe95  1  0.12602942  0.37380795  0.13542295  1
  Cu2+  Cu96  1  0.87477524  0.12320464  0.87163638  1
  Cu2+  Cu97  1  0.12478506  0.12552455  0.37192939  1
  Cu2+  Cu98  1  0.37525312  0.87579566  0.37379426  1
  Cu2+  Cu99  1  0.37537349  0.12530438  0.86062620  1
  Cu2+  Cu100  1  0.37440944  0.87353932  0.87293211  1
  Cu2+  Cu101  1  0.12352818  0.87535837  0.36347057  1
  Cu2+  Cu102  1  0.12424762  0.37462164  0.36888889  1
  Cu2+  Cu103  1  0.37507692  0.37436854  0.37487184  1
  Cu2+  Cu104  1  0.62656046  0.87634332  0.36999649  1
  Cu2+  Cu105  1  0.12555303  0.12443832  0.87434586  1
  Cu2+  Cu106  1  0.87557426  0.37539272  0.87482377  1
  Cu2+  Cu107  1  0.87462415  0.37415844  0.36413488  1
  Cu2+  Cu108  1  0.87628430  0.37444919  0.14096539  1
  Cu2+  Cu109  1  0.62484399  0.62520680  0.15177059  1
  Cu2+  Cu110  1  0.37394137  0.87639898  0.64098208  1
  Cu2+  Cu111  1  0.87611953  0.12472816  0.14560005  1
  Cu2+  Cu112  1  0.12352810  0.37342866  0.64633161  1
  Cu2+  Cu113  1  0.37417902  0.37411735  0.15145681  1
  Cu2+  Cu114  1  0.62375135  0.12500810  0.14663541  1
  Cu2+  Cu115  1  0.62520944  0.62395324  0.64568999  1
  Cu2+  Cu116  1  0.62433695  0.12608996  0.65276633  1
  Cu2+  Cu117  1  0.37458066  0.62563607  0.15937474  1
  Cu2+  Cu118  1  0.12524277  0.12480186  0.64354715  1
  Cu2+  Cu119  1  0.37402216  0.37359365  0.64046328  1
  Cu2+  Cu120  1  0.87566687  0.12499863  0.65157830  1
  Cu2+  Cu121  1  0.87515899  0.87521887  0.15026301  1
  Cu2+  Cu122  1  0.12650226  0.12550009  0.14326667  1
  Cu2+  Cu123  1  0.37470685  0.87668449  0.14399725  1
  Cu2+  Cu124  1  0.12513417  0.62445450  0.15331993  1
  Cu2+  Cu125  1  0.12463132  0.62517866  0.64501068  1
  Cu2+  Cu126  1  0.12566665  0.87598899  0.15309981  1
  Cu2+  Cu127  1  0.62548652  0.87609862  0.64489009  1
  O2-  O128  1  0.12648219  0.12449311  0.00826882  1
  O2-  O129  1  0.12527210  0.12574498  0.50776135  1
  O2-  O130  1  0.12778762  0.37605332  0.00707991  1
  O2-  O131  1  0.12312993  0.37414011  0.50715827  1
  O2-  O132  1  0.12740145  0.62627125  -0.00313443  1
  O2-  O133  1  0.12341648  0.62413093  0.49712901  1
  O2-  O134  1  0.12586604  0.87278435  -0.00225348  1
  O2-  O135  1  0.12303060  0.87621360  0.51644002  1
  O2-  O136  1  0.37454601  0.12432560  0.01986440  1
  O2-  O137  1  0.37481110  0.12447400  0.50779454  1
  O2-  O138  1  0.37637050  0.37885826  -0.00296810  1
  O2-  O139  1  0.37643873  0.37462962  0.50703206  1
  O2-  O140  1  0.37434818  0.62454164  -0.00627279  1
  O2-  O141  1  0.37474233  0.62546586  0.50503055  1
  O2-  O142  1  0.37473696  0.87380723  0.00769050  1
  O2-  O143  1  0.37526103  0.87544308  0.50705749  1
  O2-  O144  1  0.62316906  0.12538815  -0.00137873  1
  O2-  O145  1  0.62613232  0.12670277  0.49640801  1
  O2-  O146  1  0.62238181  0.37589088  0.00629326  1
  O2-  O147  1  0.62742054  0.37328811  0.50645275  1
  O2-  O148  1  0.62248689  0.62551856  -0.00340854  1
  O2-  O149  1  0.62683332  0.62343203  0.49692893  1
  O2-  O150  1  0.62395020  0.87406461  0.00631059  1
  O2-  O151  1  0.62700594  0.87631865  0.50713263  1
  O2-  O152  1  0.87553280  0.12283832  0.00681605  1
  O2-  O153  1  0.87383426  0.12433300  0.49674822  1
  O2-  O154  1  0.87499310  0.37743211  0.00753513  1
  O2-  O155  1  0.87412532  0.37451998  0.51857346  1
  O2-  O156  1  0.87560206  0.62719845  0.00657916  1
  O2-  O157  1  0.87499829  0.62409660  0.50586098  1
  O2-  O158  1  0.87485318  0.87137077  -0.00224195  1
  O2-  O159  1  0.87457481  0.87658187  0.50654251  1
  O2-  O160  1  0.12548229  -0.00054814  0.16590096  1
  O2-  O161  1  0.12372559  -0.00137266  0.66792434  1
  O2-  O162  1  0.12608852  0.25259168  0.16441021  1
  O2-  O163  1  0.12422736  0.24926199  0.66889761  1
  O2-  O164  1  0.12497408  0.49839650  0.16290721  1
  O2-  O165  1  0.12337277  0.50070942  0.66451538  1
  O2-  O166  1  0.12470515  0.74992943  0.16546049  1
  O2-  O167  1  0.12385590  0.75115711  0.66279584  1
  O2-  O168  1  0.37546319  0.00127649  0.16987846  1
  O2-  O169  1  0.37563849  0.00240414  0.66602553  1
  O2-  O170  1  0.37540498  0.24952792  0.16780162  1
  O2-  O171  1  0.37538922  0.24723178  0.66537047  1
  O2-  O172  1  0.37568642  0.50033578  0.16606737  1
  O2-  O173  1  0.37469262  0.50213906  0.65971074  1
  O2-  O174  1  0.37524858  0.74966536  0.16709015  1
  O2-  O175  1  0.37526410  0.74798633  0.66033860  1
  O2-  O176  1  0.62520345  -0.00124588  0.16223944  1
  O2-  O177  1  0.62515013  0.00211973  0.66722666  1
  O2-  O178  1  0.62402563  0.25162193  0.16231736  1
  O2-  O179  1  0.62570620  0.25194917  0.66517228  1
  O2-  O180  1  0.62468628  0.49835926  0.16394050  1
  O2-  O181  1  0.62674576  0.49735511  0.66229319  1
  O2-  O182  1  0.62556101  0.75169810  0.16313935  1
  O2-  O183  1  0.62576826  0.74874156  0.66353706  1
  O2-  O184  1  0.87474690  -0.00103797  0.16549227  1
  O2-  O185  1  0.87488210  -0.00047069  0.66191619  1
  O2-  O186  1  0.87540171  0.24953317  0.16421355  1
  O2-  O187  1  0.87413018  0.24943451  0.66838470  1
  O2-  O188  1  0.87499663  0.50289604  0.16462487  1
  O2-  O189  1  0.87468246  0.50091366  0.66574319  1
  O2-  O190  1  0.87477644  0.74848088  0.16678052  1
  O2-  O191  1  0.87435034  0.74994168  0.65821278  1
  O2-  O192  1  0.00080311  0.12478183  0.16508575  1
  O2-  O193  1  -0.00069039  0.12532841  0.66684701  1
  O2-  O194  1  0.00324288  0.37578010  0.16334303  1
  O2-  O195  1  -0.00202477  0.37476341  0.66995095  1
  O2-  O196  1  -0.00141309  0.62558093  0.16319704  1
  O2-  O197  1  -0.00254987  0.62543700  0.66398038  1
  O2-  O198  1  0.00067731  0.87442703  0.16504118  1
  O2-  O199  1  -0.00192497  0.87409129  0.66465031  1
  O2-  O200  1  0.25164697  0.12548126  0.17059077  1
  O2-  O201  1  0.25206191  0.12482123  0.66494476  1
  O2-  O202  1  0.24904899  0.37612264  0.16535054  1
  O2-  O203  1  0.24864406  0.37443636  0.66400985  1
  O2-  O204  1  0.25011045  0.62479295  0.16690061  1
  O2-  O205  1  0.25098122  0.62477142  0.65909792  1
  O2-  O206  1  0.24908275  0.87493819  0.16744609  1
  O2-  O207  1  0.24799336  0.87531341  0.66481336  1
  O2-  O208  1  0.49885904  0.12580931  0.16870884  1
  O2-  O209  1  0.49856310  0.12594512  0.66176413  1
  O2-  O210  1  0.50072489  0.37533105  0.16509977  1
  O2-  O211  1  0.50302087  0.37489133  0.66137684  1
  O2-  O212  1  0.49955361  0.62479256  0.16622984  1
  O2-  O213  1  0.49850138  0.62383838  0.65886772  1
  O2-  O214  1  0.50249979  0.87483039  0.16513516  1
  O2-  O215  1  0.50015353  0.87527118  0.66461405  1
  O2-  O216  1  0.74909830  0.12524469  0.16254434  1
  O2-  O217  1  0.74953334  0.12520834  0.66504685  1
  O2-  O218  1  0.74742850  0.37548735  0.16243112  1
  O2-  O219  1  0.75007768  0.37479907  0.66794911  1
  O2-  O220  1  0.75181900  0.62507257  0.16221012  1
  O2-  O221  1  0.75252527  0.62456914  0.66402824  1
  O2-  O222  1  0.74791884  0.87447964  0.16231161  1
  O2-  O223  1  0.75352650  0.87510534  0.66483372  1
  O2-  O224  1  0.12380881  -0.00120342  0.35002031  1
  O2-  O225  1  0.12519533  -0.00172394  0.84919492  1
  O2-  O226  1  0.12436967  0.25036103  0.34750416  1
  O2-  O227  1  0.12584854  0.25234454  0.85289993  1
  O2-  O228  1  0.12409515  0.50166127  0.34581423  1
  O2-  O229  1  0.12501399  0.49947111  0.84721058  1
  O2-  O230  1  0.12376882  0.74941670  0.34916438  1
  O2-  O231  1  0.12494461  0.74935070  0.84246009  1
  O2-  O232  1  0.37553924  0.00272902  0.35179930  1
  O2-  O233  1  0.37557725  0.00117729  0.85023953  1
  O2-  O234  1  0.37581456  0.24693053  0.35072537  1
  O2-  O235  1  0.37609435  0.25147124  0.84906087  1
  O2-  O236  1  0.37574919  0.50281416  0.35029442  1
  O2-  O237  1  0.37534304  0.49992679  0.83984041  1
  O2-  O238  1  0.37538013  0.74811034  0.35083190  1
  O2-  O239  1  0.37548161  0.74747697  0.84209351  1
  O2-  O240  1  0.62585097  0.00245437  0.34488734  1
  O2-  O241  1  0.62495284  -0.00179115  0.85040770  1
  O2-  O242  1  0.62586502  0.25054845  0.34575429  1
  O2-  O243  1  0.62392440  0.25144007  0.84940721  1
  O2-  O244  1  0.62623437  0.49901333  0.34833331  1
  O2-  O245  1  0.62496018  0.49951001  0.84576801  1
  O2-  O246  1  0.62645867  0.74826615  0.34705481  1
  O2-  O247  1  0.62478512  0.75070876  0.84623395  1
  O2-  O248  1  0.87510035  -0.00046974  0.34828831  1
  O2-  O249  1  0.87385279  -0.00339383  0.84518891  1
  O2-  O250  1  0.87426781  0.24959209  0.34712882  1
  O2-  O251  1  0.87455792  0.24961420  0.85192213  1
  O2-  O252  1  0.87441846  0.50137521  0.35002461  1
  O2-  O253  1  0.87444680  0.50455753  0.84948915  1
  O2-  O254  1  0.87452627  0.74970246  0.35243950  1
  O2-  O255  1  0.87449200  0.74853031  0.84206106  1
  O2-  O256  1  -0.00140006  0.12528594  0.34763510  1
  O2-  O257  1  0.00002607  0.12458314  0.85031996  1
  O2-  O258  1  -0.00173706  0.37563690  0.34724237  1
  O2-  O259  1  0.00348599  0.37653013  0.85266860  1
  O2-  O260  1  -0.00153730  0.62525682  0.34776623  1
  O2-  O261  1  -0.00003029  0.62534318  0.84794837  1
  O2-  O262  1  -0.00282611  0.87390275  0.35017223  1
  O2-  O263  1  0.00026065  0.87328739  0.84524557  1
  O2-  O264  1  0.25176002  0.12490677  0.35299732  1
  O2-  O265  1  0.25209961  0.12538924  0.84873375  1
  O2-  O266  1  0.24952671  0.37521100  0.34942568  1
  O2-  O267  1  0.24924732  0.37549627  0.84662819  1
  O2-  O268  1  0.25082404  0.62538530  0.35036597  1
  O2-  O269  1  0.24977398  0.62425574  0.84045413  1
  O2-  O270  1  0.24800344  0.87492823  0.35171977  1
  O2-  O271  1  0.24845877  0.87431405  0.84612168  1
  O2-  O272  1  0.49946321  0.12569256  0.35023519  1
  O2-  O273  1  0.50079545  0.12503529  0.84561034  1
  O2-  O274  1  0.50410069  0.37517804  0.35022817  1
  O2-  O275  1  0.50087093  0.37574526  0.84457091  1
  O2-  O276  1  0.49945858  0.62465836  0.34965463  1
  O2-  O277  1  0.50001686  0.62433034  0.84064553  1
  O2-  O278  1  0.50113783  0.87513983  0.34877124  1
  O2-  O279  1  0.50259286  0.87453293  0.84861478  1
  O2-  O280  1  0.75054930  0.12557305  0.34377802  1
  O2-  O281  1  0.74737597  0.12470008  0.84808488  1
  O2-  O282  1  0.74850948  0.37577197  0.34716933  1
  O2-  O283  1  0.74646946  0.37629879  0.85144751  1
  O2-  O284  1  0.75158798  0.62427622  0.34638453  1
  O2-  O285  1  0.74996548  0.62557897  0.84849933  1
  O2-  O286  1  0.75364954  0.87460144  0.34634723  1
  O2-  O287  1  0.74823340  0.87299196  0.84808530  1
