# generated using pymatgen
data_BaYFeCuO5
_symmetry_space_group_name_H-M   'P 1'
_cell_length_a   15.67726383
_cell_length_b   15.67334633
_cell_length_c   15.50463706
_cell_angle_alpha   89.99448817
_cell_angle_beta   90.00320452
_cell_angle_gamma   89.99735134
_symmetry_Int_Tables_number   1
_chemical_formula_structural   BaYFeCuO5
_chemical_formula_sum   'Ba32 Y32 Fe32 Cu32 O160'
_cell_volume   3809.72474337
_cell_formula_units_Z   32
loop_
 _symmetry_equiv_pos_site_id
 _symmetry_equiv_pos_as_xyz
  1  'x, y, z'
loop_
 _atom_type_symbol
 _atom_type_oxidation_number
  Ba2+  2.0
  Y3+  3.0
  Fe3+  3.0
  Cu2+  2.0
  O2-  -2.0
loop_
 _atom_site_type_symbol
 _atom_site_label
 _atom_site_symmetry_multiplicity
 _atom_site_fract_x
 _atom_site_fract_y
 _atom_site_fract_z
 _atom_site_occupancy
  Ba2+  Ba0  1  -0.00132444  -0.00193168  0.02044460  1
  Ba2+  Ba1  1  0.00096560  0.00220238  0.51762488  1
  Ba2+  Ba2  1  0.00709144  0.24777679  0.01698833  1
  Ba2+  Ba3  1  0.00091258  0.25297383  0.51609911  1
  Ba2+  Ba4  1  0.00810661  0.50432334  0.01206688  1
  Ba2+  Ba5  1  -0.00342506  0.49100819  0.50217445  1
  Ba2+  Ba6  1  -0.00061323  0.75009771  0.01781249  1
  Ba2+  Ba7  1  -0.00446189  0.75438419  0.49982209  1
  Ba2+  Ba8  1  0.24373954  0.00537894  0.02088172  1
  Ba2+  Ba9  1  0.25188721  -0.00035807  0.52063729  1
  Ba2+  Ba10  1  0.24751600  0.25219369  0.02027849  1
  Ba2+  Ba11  1  0.24726499  0.25041936  0.52024119  1
  Ba2+  Ba12  1  0.24144824  0.49505685  0.01109343  1
  Ba2+  Ba13  1  0.25056391  0.49274989  0.50741063  1
  Ba2+  Ba14  1  0.23805539  0.74734081  0.01190070  1
  Ba2+  Ba15  1  0.25604317  0.75705666  0.50648207  1
  Ba2+  Ba16  1  0.49969835  0.00082484  0.00631070  1
  Ba2+  Ba17  1  0.49679562  -0.00300123  0.51295386  1
  Ba2+  Ba18  1  0.49380391  0.25348146  0.01144946  1
  Ba2+  Ba19  1  0.49505472  0.24439799  0.52311023  1
  Ba2+  Ba20  1  0.50229060  0.49594121  0.01122187  1
  Ba2+  Ba21  1  0.49662382  0.50489332  0.51223168  1
  Ba2+  Ba22  1  0.50930409  0.74862002  0.00712422  1
  Ba2+  Ba23  1  0.49795482  0.75402212  0.50059101  1
  Ba2+  Ba24  1  0.75797484  -0.00655022  0.00600298  1
  Ba2+  Ba25  1  0.74969669  -0.00060919  0.50631812  1
  Ba2+  Ba26  1  0.75128185  0.24968137  0.00545726  1
  Ba2+  Ba27  1  0.75708579  0.24693874  0.51807264  1
  Ba2+  Ba28  1  0.74862541  0.50642523  0.01452594  1
  Ba2+  Ba29  1  0.75633305  0.50169624  0.50698812  1
  Ba2+  Ba30  1  0.75575598  0.75237102  0.01181770  1
  Ba2+  Ba31  1  0.74918606  0.75117733  0.49551900  1
  Y3+  Y32  1  -0.00126240  -0.00040111  0.25472828  1
  Y3+  Y33  1  0.00010234  -0.00019066  0.75624978  1
  Y3+  Y34  1  0.00149136  0.25207087  0.25867605  1
  Y3+  Y35  1  0.00161988  0.25232948  0.75383138  1
  Y3+  Y36  1  0.00088907  0.49890207  0.25912379  1
  Y3+  Y37  1  0.00258138  0.49797197  0.75713046  1
  Y3+  Y38  1  -0.00122074  0.74920485  0.25538097  1
  Y3+  Y39  1  0.00117668  0.75043161  0.76001014  1
  Y3+  Y40  1  0.25004490  0.00040654  0.25671994  1
  Y3+  Y41  1  0.24938476  -0.00084036  0.75327926  1
  Y3+  Y42  1  0.24789164  0.25179037  0.25526574  1
  Y3+  Y43  1  0.24749873  0.25237939  0.75492238  1
  Y3+  Y44  1  0.24745904  0.49817051  0.25682458  1
  Y3+  Y45  1  0.24591670  0.49887872  0.75806058  1
  Y3+  Y46  1  0.24953275  0.74919256  0.25838273  1
  Y3+  Y47  1  0.24813667  0.75051028  0.75678096  1
  Y3+  Y48  1  0.49878210  -0.00161441  0.25823036  1
  Y3+  Y49  1  0.49963041  -0.00062742  0.75649952  1
  Y3+  Y50  1  0.49809233  0.24924172  0.25396334  1
  Y3+  Y51  1  0.50016333  0.25011320  0.75788674  1
  Y3+  Y52  1  0.49890445  0.50070631  0.25697633  1
  Y3+  Y53  1  0.50052606  0.49980137  0.75707682  1
  Y3+  Y54  1  0.49885392  0.75078198  0.25919098  1
  Y3+  Y55  1  0.50060457  0.75101529  0.75725585  1
  Y3+  Y56  1  0.75234689  -0.00183589  0.25594940  1
  Y3+  Y57  1  0.75051848  -0.00053404  0.75950650  1
  Y3+  Y58  1  0.75254601  0.24987477  0.25774760  1
  Y3+  Y59  1  0.75118270  0.25041387  0.75606333  1
  Y3+  Y60  1  0.75298403  0.50103939  0.25989325  1
  Y3+  Y61  1  0.75063866  0.49933365  0.75587374  1
  Y3+  Y62  1  0.75297770  0.74992447  0.25618633  1
  Y3+  Y63  1  0.75013595  0.75176326  0.76147272  1
  Fe3+  Fe64  1  0.62565280  0.62436397  0.87636231  1
  Fe3+  Fe65  1  0.62503604  0.12519315  0.87903518  1
  Fe3+  Fe66  1  0.62430794  0.12500097  0.37681360  1
  Fe3+  Fe67  1  0.12487701  0.87694562  0.37603613  1
  Fe3+  Fe68  1  0.37377905  0.37520872  0.87605491  1
  Fe3+  Fe69  1  0.12526409  0.12559032  0.87459433  1
  Fe3+  Fe70  1  0.87731870  0.12526386  0.87684649  1
  Fe3+  Fe71  1  0.12541506  0.12543098  0.37670908  1
  Fe3+  Fe72  1  0.12437239  0.87634917  0.87676514  1
  Fe3+  Fe73  1  0.37267195  0.12511312  0.87645135  1
  Fe3+  Fe74  1  0.37376239  0.87482511  0.88096271  1
  Fe3+  Fe75  1  0.12534972  0.62461396  0.37999796  1
  Fe3+  Fe76  1  0.87608594  0.37560322  0.88007211  1
  Fe3+  Fe77  1  0.37343836  0.62485230  0.88111246  1
  Fe3+  Fe78  1  0.37564826  0.37358436  0.37639126  1
  Fe3+  Fe79  1  0.87687660  0.62482914  0.87812715  1
  Fe3+  Fe80  1  0.62483208  0.37295361  0.38080392  1
  Fe3+  Fe81  1  0.37403992  0.12528433  0.37525440  1
  Fe3+  Fe82  1  0.62454604  0.62461043  0.37613112  1
  Fe3+  Fe83  1  0.87621184  0.12468667  0.37561138  1
  Fe3+  Fe84  1  0.37430142  0.87427641  0.13411609  1
  Fe3+  Fe85  1  0.37463058  0.62577554  0.63898581  1
  Fe3+  Fe86  1  0.37460903  0.62448622  0.13479914  1
  Fe3+  Fe87  1  0.12391546  0.62586642  0.63338388  1
  Fe3+  Fe88  1  0.62581270  0.37529071  0.13786668  1
  Fe3+  Fe89  1  0.62518119  0.37552549  0.63494975  1
  Fe3+  Fe90  1  0.62568223  0.87396243  0.63942554  1
  Fe3+  Fe91  1  0.62515951  0.87459660  0.13833385  1
  Fe3+  Fe92  1  0.62578040  0.12447815  0.13369940  1
  Fe3+  Fe93  1  0.87485394  0.62608645  0.63721846  1
  Fe3+  Fe94  1  0.87559116  0.37539600  0.13519758  1
  Fe3+  Fe95  1  0.87447949  0.87403952  0.63902798  1
  Cu2+  Cu96  1  0.87454497  0.37307014  0.37209964  1
  Cu2+  Cu97  1  0.62568792  0.37495004  0.86382052  1
  Cu2+  Cu98  1  0.87577634  0.87619563  0.36130093  1
  Cu2+  Cu99  1  0.12548614  0.37364753  0.37254999  1
  Cu2+  Cu100  1  0.87594695  0.62503390  0.36366772  1
  Cu2+  Cu101  1  0.87689111  0.87518294  0.87333787  1
  Cu2+  Cu102  1  0.12434812  0.37390737  0.87212151  1
  Cu2+  Cu103  1  0.37406403  0.62425127  0.36200522  1
  Cu2+  Cu104  1  0.37381149  0.87644267  0.37119207  1
  Cu2+  Cu105  1  0.62474530  0.87544352  0.86696827  1
  Cu2+  Cu106  1  0.12480775  0.62498952  0.87217364  1
  Cu2+  Cu107  1  0.62533527  0.87591001  0.36147767  1
  Cu2+  Cu108  1  0.37451988  0.12491232  0.65442285  1
  Cu2+  Cu109  1  0.12458981  0.37686680  0.64114569  1
  Cu2+  Cu110  1  0.62576296  0.62609048  0.65012715  1
  Cu2+  Cu111  1  0.12407840  0.37546938  0.14350301  1
  Cu2+  Cu112  1  0.87516046  0.12424034  0.65290847  1
  Cu2+  Cu113  1  0.87438834  0.12596624  0.14851365  1
  Cu2+  Cu114  1  0.12424270  0.12498129  0.15352021  1
  Cu2+  Cu115  1  0.87522388  0.87440141  0.14323036  1
  Cu2+  Cu116  1  0.12419712  0.87358121  0.64853365  1
  Cu2+  Cu117  1  0.12471902  0.12488381  0.64946422  1
  Cu2+  Cu118  1  0.87550377  0.62375936  0.15215795  1
  Cu2+  Cu119  1  0.87496334  0.37603795  0.64317314  1
  Cu2+  Cu120  1  0.37533274  0.12446184  0.14800872  1
  Cu2+  Cu121  1  0.62485270  0.62516387  0.15348717  1
  Cu2+  Cu122  1  0.37527498  0.37611982  0.65203639  1
  Cu2+  Cu123  1  0.37481724  0.37582669  0.15071581  1
  Cu2+  Cu124  1  0.12546106  0.87463859  0.15272388  1
  Cu2+  Cu125  1  0.62543805  0.12404584  0.65259321  1
  Cu2+  Cu126  1  0.37546054  0.87365652  0.64474487  1
  Cu2+  Cu127  1  0.12528153  0.62457354  0.14643689  1
  O2-  O128  1  0.12518274  0.12508523  -0.00529464  1
  O2-  O129  1  0.12583634  0.12426938  0.49647844  1
  O2-  O130  1  0.12420075  0.37376066  0.00786930  1
  O2-  O131  1  0.12594565  0.37496405  0.50709026  1
  O2-  O132  1  0.12488609  0.62536352  0.00792354  1
  O2-  O133  1  0.12517453  0.62528559  0.50716097  1
  O2-  O134  1  0.12486424  0.87690928  -0.00312010  1
  O2-  O135  1  0.12519348  0.87724164  0.49613638  1
  O2-  O136  1  0.37303733  0.12541762  -0.00390357  1
  O2-  O137  1  0.37539851  0.12479624  0.49485958  1
  O2-  O138  1  0.37452114  0.37486166  -0.00370212  1
  O2-  O139  1  0.37736749  0.37311926  0.49646916  1
  O2-  O140  1  0.37437392  0.62444557  0.00755812  1
  O2-  O141  1  0.37571053  0.62689022  0.51861111  1
  O2-  O142  1  0.37399121  0.87474000  0.00736092  1
  O2-  O143  1  0.37545419  0.87591814  0.50672276  1
  O2-  O144  1  0.62542860  0.12523883  0.00645415  1
  O2-  O145  1  0.62386523  0.12545833  0.49639373  1
  O2-  O146  1  0.62645610  0.37541363  0.01762821  1
  O2-  O147  1  0.62410104  0.37310078  0.50642548  1
  O2-  O148  1  0.62509062  0.62271199  -0.00336536  1
  O2-  O149  1  0.62365933  0.62535628  0.49604054  1
  O2-  O150  1  0.62484847  0.87558642  0.01799038  1
  O2-  O151  1  0.62553752  0.87483723  0.51930411  1
  O2-  O152  1  0.87689358  0.12584448  -0.00323150  1
  O2-  O153  1  0.87491573  0.12390101  0.49572784  1
  O2-  O154  1  0.87510783  0.37592470  0.00717393  1
  O2-  O155  1  0.87303546  0.37359665  0.50744014  1
  O2-  O156  1  0.87601298  0.62402988  -0.00161510  1
  O2-  O157  1  0.87427909  0.62769406  0.51712151  1
  O2-  O158  1  0.87665175  0.87437189  0.00883139  1
  O2-  O159  1  0.87250595  0.87423478  0.51905550  1
  O2-  O160  1  0.12521939  0.00006175  0.16176544  1
  O2-  O161  1  0.12527814  -0.00055812  0.66206902  1
  O2-  O162  1  0.12455602  0.24875446  0.16375903  1
  O2-  O163  1  0.12497245  0.24965936  0.66254446  1
  O2-  O164  1  0.12500972  0.50006246  0.16851261  1
  O2-  O165  1  0.12503619  0.50364178  0.66573145  1
  O2-  O166  1  0.12545748  0.75059952  0.16716294  1
  O2-  O167  1  0.12500182  0.74804880  0.66491030  1
  O2-  O168  1  0.37533498  -0.00242990  0.16054424  1
  O2-  O169  1  0.37503194  0.00074935  0.66646827  1
  O2-  O170  1  0.37613955  0.25016953  0.16052563  1
  O2-  O171  1  0.37595047  0.25036396  0.66319310  1
  O2-  O172  1  0.37561194  0.50159321  0.16360513  1
  O2-  O173  1  0.37555375  0.50142933  0.66727664  1
  O2-  O174  1  0.37500817  0.75016394  0.16318424  1
  O2-  O175  1  0.37498711  0.74794443  0.67258793  1
  O2-  O176  1  0.62473051  0.00087336  0.16436147  1
  O2-  O177  1  0.62514629  -0.00048758  0.66816765  1
  O2-  O178  1  0.62483355  0.24903725  0.16337981  1
  O2-  O179  1  0.62459561  0.25071123  0.66322098  1
  O2-  O180  1  0.62527824  0.49978680  0.16790273  1
  O2-  O181  1  0.62482445  0.49907355  0.66041426  1
  O2-  O182  1  0.62377269  0.74993567  0.16569581  1
  O2-  O183  1  0.62516194  0.75062583  0.66998893  1
  O2-  O184  1  0.87417970  0.00178792  0.16301297  1
  O2-  O185  1  0.87467790  -0.00083585  0.66629883  1
  O2-  O186  1  0.87388477  0.25194104  0.16074793  1
  O2-  O187  1  0.87438974  0.24851688  0.66485326  1
  O2-  O188  1  0.87400098  0.49829482  0.16485612  1
  O2-  O189  1  0.87444340  0.50252727  0.66740794  1
  O2-  O190  1  0.87540539  0.74759049  0.16537216  1
  O2-  O191  1  0.87492570  0.75010318  0.67196982  1
  O2-  O192  1  -0.00050363  0.12514639  0.16353158  1
  O2-  O193  1  0.00016251  0.12478599  0.66175588  1
  O2-  O194  1  -0.00310497  0.37527926  0.16504431  1
  O2-  O195  1  -0.00033346  0.37568610  0.66507476  1
  O2-  O196  1  -0.00052975  0.62415835  0.16792299  1
  O2-  O197  1  0.00094031  0.62576028  0.66442046  1
  O2-  O198  1  0.00159528  0.87448189  0.16499810  1
  O2-  O199  1  -0.00077546  0.87478725  0.66409344  1
  O2-  O200  1  0.24995947  0.12496277  0.16184782  1
  O2-  O201  1  0.24983159  0.12497400  0.66185968  1
  O2-  O202  1  0.25103952  0.37538641  0.16401903  1
  O2-  O203  1  0.25150879  0.37627678  0.66345759  1
  O2-  O204  1  0.25324278  0.62501041  0.16524378  1
  O2-  O205  1  0.24807676  0.62551224  0.66566946  1
  O2-  O206  1  0.25180378  0.87441873  0.16125900  1
  O2-  O207  1  0.24843693  0.87383402  0.66374257  1
  O2-  O208  1  0.50224882  0.12490979  0.15984067  1
  O2-  O209  1  0.49934990  0.12450488  0.66798561  1
  O2-  O210  1  0.50084042  0.37552685  0.16445710  1
  O2-  O211  1  0.50183280  0.37529648  0.66435126  1
  O2-  O212  1  0.49766247  0.62483625  0.16190070  1
  O2-  O213  1  0.50029200  0.62497751  0.66844822  1
  O2-  O214  1  0.49830016  0.87468157  0.16448248  1
  O2-  O215  1  0.50175822  0.87515304  0.67032842  1
  O2-  O216  1  0.74785029  0.12587458  0.16256525  1
  O2-  O217  1  0.75046860  0.12527555  0.66814617  1
  O2-  O218  1  0.75125634  0.37505583  0.16674732  1
  O2-  O219  1  0.74693662  0.37466282  0.66592878  1
  O2-  O220  1  0.74997870  0.62464118  0.16534810  1
  O2-  O221  1  0.75032816  0.62493924  0.66704773  1
  O2-  O222  1  0.74819219  0.87414934  0.16700011  1
  O2-  O223  1  0.75024098  0.87551802  0.67219839  1
  O2-  O224  1  0.12497149  0.00089996  0.34289018  1
  O2-  O225  1  0.12574005  0.00059024  0.84311281  1
  O2-  O226  1  0.12537470  0.24836638  0.34540732  1
  O2-  O227  1  0.12514512  0.24847026  0.84447685  1
  O2-  O228  1  0.12498992  0.50199952  0.35190508  1
  O2-  O229  1  0.12466238  0.49930493  0.84922519  1
  O2-  O230  1  0.12515001  0.74886394  0.35067832  1
  O2-  O231  1  0.12628856  0.75231850  0.84728477  1
  O2-  O232  1  0.37514616  0.00251189  0.34287030  1
  O2-  O233  1  0.37587201  -0.00120299  0.84952854  1
  O2-  O234  1  0.37583567  0.24958135  0.34183344  1
  O2-  O235  1  0.37548876  0.24982854  0.84494071  1
  O2-  O236  1  0.37608499  0.49882771  0.34759307  1
  O2-  O237  1  0.37601994  0.50125340  0.84922778  1
  O2-  O238  1  0.37466852  0.74859473  0.34786318  1
  O2-  O239  1  0.37461901  0.75022908  0.85504501  1
  O2-  O240  1  0.62449018  0.00041337  0.34644180  1
  O2-  O241  1  0.62411878  0.00202456  0.85171635  1
  O2-  O242  1  0.62481380  0.25034760  0.34448443  1
  O2-  O243  1  0.62536178  0.24792008  0.84862722  1
  O2-  O244  1  0.62441920  0.49805437  0.35018364  1
  O2-  O245  1  0.62470979  0.50097868  0.84390528  1
  O2-  O246  1  0.62504863  0.75048155  0.34886553  1
  O2-  O247  1  0.62440522  0.74930998  0.85098364  1
  O2-  O248  1  0.87500652  0.00089519  0.34512709  1
  O2-  O249  1  0.87487798  0.00194179  0.84785793  1
  O2-  O250  1  0.87427177  0.24730220  0.34321414  1
  O2-  O251  1  0.87370028  0.25105477  0.84828565  1
  O2-  O252  1  0.87470508  0.50026643  0.34947643  1
  O2-  O253  1  0.87473718  0.49871137  0.84859762  1
  O2-  O254  1  0.87495784  0.75111053  0.34978981  1
  O2-  O255  1  0.87514719  0.74872423  0.85109558  1
  O2-  O256  1  0.00046434  0.12498610  0.34528320  1
  O2-  O257  1  0.00032718  0.12580459  0.84298541  1
  O2-  O258  1  -0.00004938  0.37458718  0.34886448  1
  O2-  O259  1  -0.00301767  0.37455190  0.84820355  1
  O2-  O260  1  0.00147586  0.62519651  0.35229626  1
  O2-  O261  1  -0.00127286  0.62459090  0.84516216  1
  O2-  O262  1  0.00072826  0.87469854  0.34751233  1
  O2-  O263  1  0.00209494  0.87568659  0.84483851  1
  O2-  O264  1  0.25004103  0.12522154  0.34317158  1
  O2-  O265  1  0.25028447  0.12452445  0.84251470  1
  O2-  O266  1  0.25223195  0.37525823  0.34659609  1
  O2-  O267  1  0.25122857  0.37553705  0.84568317  1
  O2-  O268  1  0.24822175  0.62472723  0.34932177  1
  O2-  O269  1  0.25294825  0.62489446  0.84865549  1
  O2-  O270  1  0.24744323  0.87466718  0.34346590  1
  O2-  O271  1  0.25144014  0.87538308  0.84645001  1
  O2-  O272  1  0.49993261  0.12491563  0.34155119  1
  O2-  O273  1  0.50029917  0.12528382  0.85121841  1
  O2-  O274  1  0.50157514  0.37439335  0.34561442  1
  O2-  O275  1  0.49957619  0.37490312  0.84778283  1
  O2-  O276  1  0.50022179  0.62523537  0.34521976  1
  O2-  O277  1  0.49828940  0.62534316  0.85082810  1
  O2-  O278  1  0.50084472  0.87485252  0.34711923  1
  O2-  O279  1  0.49772953  0.87470063  0.85384275  1
  O2-  O280  1  0.74951602  0.12431405  0.34454022  1
  O2-  O281  1  0.74934144  0.12536296  0.85161420  1
  O2-  O282  1  0.74634241  0.37439622  0.34923549  1
  O2-  O283  1  0.75197531  0.37465520  0.85054268  1
  O2-  O284  1  0.74992892  0.62479355  0.34882862  1
  O2-  O285  1  0.75072255  0.62430332  0.84752408  1
  O2-  O286  1  0.75094512  0.87606489  0.34996771  1
  O2-  O287  1  0.74896350  0.87565155  0.85313557  1
