# generated using pymatgen
data_BaYFeCuO5
_symmetry_space_group_name_H-M   'P 1'
_cell_length_a   15.66669927
_cell_length_b   15.66229965
_cell_length_c   15.46978492
_cell_angle_alpha   90.00160594
_cell_angle_beta   90.00674887
_cell_angle_gamma   90.00380215
_symmetry_Int_Tables_number   1
_chemical_formula_structural   BaYFeCuO5
_chemical_formula_sum   'Ba32 Y32 Fe32 Cu32 O160'
_cell_volume   3795.92223994
_cell_formula_units_Z   32
loop_
 _symmetry_equiv_pos_site_id
 _symmetry_equiv_pos_as_xyz
  1  'x, y, z'
loop_
 _atom_type_symbol
 _atom_type_oxidation_number
  Ba2+  2.0
  Y3+  3.0
  Fe3+  3.0
  Cu2+  2.0
  O2-  -2.0
loop_
 _atom_site_type_symbol
 _atom_site_label
 _atom_site_symmetry_multiplicity
 _atom_site_fract_x
 _atom_site_fract_y
 _atom_site_fract_z
 _atom_site_occupancy
  Ba2+  Ba0  1  -0.00273341  -0.00574400  0.01324926  1
  Ba2+  Ba1  1  -0.00234339  0.01040181  0.51213383  1
  Ba2+  Ba2  1  0.00191250  0.25015776  -0.00289518  1
  Ba2+  Ba3  1  0.00310182  0.24493460  0.50804455  1
  Ba2+  Ba4  1  0.01051816  0.50155515  0.00679312  1
  Ba2+  Ba5  1  0.00683653  0.50138911  0.51222546  1
  Ba2+  Ba6  1  0.00545187  0.75429227  0.02285271  1
  Ba2+  Ba7  1  0.00080072  0.74183495  0.51532251  1
  Ba2+  Ba8  1  0.25630222  -0.00279952  0.01588301  1
  Ba2+  Ba9  1  0.25531704  0.00512477  0.51269339  1
  Ba2+  Ba10  1  0.25774948  0.25450791  0.00292472  1
  Ba2+  Ba11  1  0.25407836  0.25357615  0.50040405  1
  Ba2+  Ba12  1  0.25677657  0.50092352  0.00602203  1
  Ba2+  Ba13  1  0.25600092  0.49855093  0.50713317  1
  Ba2+  Ba14  1  0.25276637  0.74715758  0.02125530  1
  Ba2+  Ba15  1  0.25687722  0.74347848  0.51417211  1
  Ba2+  Ba16  1  0.49577750  -0.00505091  0.01107596  1
  Ba2+  Ba17  1  0.50243722  -0.00107406  0.51318240  1
  Ba2+  Ba18  1  0.49204089  0.25400367  0.01144197  1
  Ba2+  Ba19  1  0.49806253  0.25256537  0.51370234  1
  Ba2+  Ba20  1  0.49444570  0.50122849  0.01656275  1
  Ba2+  Ba21  1  0.49168939  0.49564614  0.51121296  1
  Ba2+  Ba22  1  0.49860211  0.74917334  0.01746598  1
  Ba2+  Ba23  1  0.49544070  0.75409609  0.51153876  1
  Ba2+  Ba24  1  0.74949488  -0.00780166  0.00682423  1
  Ba2+  Ba25  1  0.74410931  0.00509444  0.51229115  1
  Ba2+  Ba26  1  0.74809419  0.24936386  0.00651115  1
  Ba2+  Ba27  1  0.74590133  0.24377347  0.51858850  1
  Ba2+  Ba28  1  0.73954153  0.50177588  0.01694377  1
  Ba2+  Ba29  1  0.74837443  0.49846216  0.51619015  1
  Ba2+  Ba30  1  0.74270487  0.75599149  0.01628319  1
  Ba2+  Ba31  1  0.74485860  0.75454745  0.50971799  1
  Y3+  Y32  1  -0.00139569  0.00027381  0.25877382  1
  Y3+  Y33  1  -0.00138783  0.00363222  0.75602258  1
  Y3+  Y34  1  0.00034082  0.24934396  0.26028291  1
  Y3+  Y35  1  -0.00023824  0.24764229  0.75755372  1
  Y3+  Y36  1  0.00230617  0.49963778  0.25807158  1
  Y3+  Y37  1  0.00168253  0.50076128  0.75672437  1
  Y3+  Y38  1  0.00099649  0.75124924  0.25735865  1
  Y3+  Y39  1  0.00030338  0.74775475  0.75310241  1
  Y3+  Y40  1  0.25271647  0.00064940  0.25505528  1
  Y3+  Y41  1  0.25229724  0.00144897  0.75873419  1
  Y3+  Y42  1  0.25417916  0.25198258  0.25676936  1
  Y3+  Y43  1  0.25296086  0.25183862  0.76153900  1
  Y3+  Y44  1  0.25422221  0.49986046  0.25813942  1
  Y3+  Y45  1  0.25410493  0.49983034  0.75783795  1
  Y3+  Y46  1  0.25282767  0.74771432  0.25721457  1
  Y3+  Y47  1  0.25360520  0.74664982  0.75381807  1
  Y3+  Y48  1  0.49962407  -0.00127219  0.25567158  1
  Y3+  Y49  1  0.50104528  -0.00221136  0.75882693  1
  Y3+  Y50  1  0.49582936  0.25170208  0.25539458  1
  Y3+  Y51  1  0.49772252  0.25109196  0.76019957  1
  Y3+  Y52  1  0.49613275  0.50012122  0.25697134  1
  Y3+  Y53  1  0.49505305  0.49955886  0.75706380  1
  Y3+  Y54  1  0.49977817  0.74991174  0.25809418  1
  Y3+  Y55  1  0.49880055  0.75081877  0.75544901  1
  Y3+  Y56  1  0.74831214  -0.00179772  0.25878416  1
  Y3+  Y57  1  0.74818626  0.00006932  0.75705707  1
  Y3+  Y58  1  0.74967598  0.24872290  0.25754423  1
  Y3+  Y59  1  0.74969999  0.24697078  0.75788077  1
  Y3+  Y60  1  0.74715876  0.50000240  0.25628438  1
  Y3+  Y61  1  0.74925610  0.50079551  0.75608453  1
  Y3+  Y62  1  0.74609315  0.75323843  0.25747802  1
  Y3+  Y63  1  0.74726421  0.75168239  0.75486447  1
  Fe3+  Fe64  1  0.87470921  0.37443924  0.38024991  1
  Fe3+  Fe65  1  0.87437453  0.62644871  0.87980740  1
  Fe3+  Fe66  1  0.12558849  0.87364392  0.87423017  1
  Fe3+  Fe67  1  0.87401076  0.62447854  0.37656174  1
  Fe3+  Fe68  1  0.37490286  0.87583637  0.37658165  1
  Fe3+  Fe69  1  0.12586587  0.87523139  0.37976903  1
  Fe3+  Fe70  1  0.62319879  0.62595215  0.87596510  1
  Fe3+  Fe71  1  0.62349973  0.62489457  0.37921510  1
  Fe3+  Fe72  1  0.62404507  0.37619315  0.87651705  1
  Fe3+  Fe73  1  0.12688646  0.12494537  0.37580234  1
  Fe3+  Fe74  1  0.12610847  0.12377785  0.88010059  1
  Fe3+  Fe75  1  0.62446940  0.37459988  0.37630313  1
  Fe3+  Fe76  1  0.62381985  0.12380313  0.87995290  1
  Fe3+  Fe77  1  0.37459237  0.87287960  0.87552812  1
  Fe3+  Fe78  1  0.87440964  0.37639859  0.87954823  1
  Fe3+  Fe79  1  0.12646145  0.62660060  0.87569537  1
  Fe3+  Fe80  1  0.62295507  0.12553204  0.37448721  1
  Fe3+  Fe81  1  0.87500897  0.87555069  0.37992937  1
  Fe3+  Fe82  1  0.87579627  0.87342853  0.87421254  1
  Fe3+  Fe83  1  0.12635410  0.62463118  0.37609457  1
  Fe3+  Fe84  1  0.87545664  0.37511040  0.13447956  1
  Fe3+  Fe85  1  0.12696749  0.37359328  0.63977012  1
  Fe3+  Fe86  1  0.62341246  0.62433917  0.63446398  1
  Fe3+  Fe87  1  0.62398530  0.12497380  0.13435943  1
  Fe3+  Fe88  1  0.87503096  0.12482474  0.13608112  1
  Fe3+  Fe89  1  0.12632969  0.87572940  0.63264007  1
  Fe3+  Fe90  1  0.37543247  0.12601787  0.64028366  1
  Fe3+  Fe91  1  0.12546870  0.12547569  0.13481757  1
  Fe3+  Fe92  1  0.87515182  0.87548928  0.63387021  1
  Fe3+  Fe93  1  0.87546769  0.37424026  0.63646446  1
  Fe3+  Fe94  1  0.87481373  0.62565647  0.13427694  1
  Fe3+  Fe95  1  0.12562648  0.37466920  0.13821443  1
  Cu2+  Cu96  1  0.37596223  0.12482119  0.36170818  1
  Cu2+  Cu97  1  0.12568856  0.37518902  0.36415858  1
  Cu2+  Cu98  1  0.12532462  0.37566770  0.86376885  1
  Cu2+  Cu99  1  0.37593480  0.37641834  0.87224847  1
  Cu2+  Cu100  1  0.37589538  0.37503702  0.37203644  1
  Cu2+  Cu101  1  0.87343973  0.12540917  0.37350831  1
  Cu2+  Cu102  1  0.62439984  0.87345795  0.87174862  1
  Cu2+  Cu103  1  0.37583418  0.12378039  0.87490336  1
  Cu2+  Cu104  1  0.37587594  0.62527376  0.37262238  1
  Cu2+  Cu105  1  0.37563556  0.62610374  0.87162393  1
  Cu2+  Cu106  1  0.62382816  0.87568209  0.37366883  1
  Cu2+  Cu107  1  0.87454783  0.12403276  0.86789397  1
  Cu2+  Cu108  1  0.12601574  0.87581232  0.15441679  1
  Cu2+  Cu109  1  0.12684627  0.12588689  0.65380503  1
  Cu2+  Cu110  1  0.37594324  0.62388620  0.64119271  1
  Cu2+  Cu111  1  0.62427182  0.87537018  0.64083194  1
  Cu2+  Cu112  1  0.37458101  0.87597517  0.64958700  1
  Cu2+  Cu113  1  0.37506179  0.62474595  0.14318716  1
  Cu2+  Cu114  1  0.37450013  0.37373854  0.64465040  1
  Cu2+  Cu115  1  0.37494636  0.12551011  0.14064001  1
  Cu2+  Cu116  1  0.62462518  0.37415966  0.14980909  1
  Cu2+  Cu117  1  0.37423543  0.37594264  0.14395958  1
  Cu2+  Cu118  1  0.62324635  0.12533879  0.65644572  1
  Cu2+  Cu119  1  0.62359498  0.87616364  0.14234014  1
  Cu2+  Cu120  1  0.12648284  0.62367572  0.64997226  1
  Cu2+  Cu121  1  0.87413340  0.62447861  0.64810849  1
  Cu2+  Cu122  1  0.12529905  0.62435462  0.15259560  1
  Cu2+  Cu123  1  0.62444402  0.37489692  0.65227142  1
  Cu2+  Cu124  1  0.37497272  0.87432203  0.15288161  1
  Cu2+  Cu125  1  0.87445861  0.12539296  0.64205099  1
  Cu2+  Cu126  1  0.87449689  0.87514781  0.15454219  1
  Cu2+  Cu127  1  0.62440364  0.62516868  0.15326214  1
  O2-  O128  1  0.12401018  0.12338196  0.00787069  1
  O2-  O129  1  0.12647904  0.12460227  0.49644520  1
  O2-  O130  1  0.12345694  0.37473181  0.01800891  1
  O2-  O131  1  0.12487925  0.37282777  0.51925665  1
  O2-  O132  1  0.12395811  0.62887026  -0.00388952  1
  O2-  O133  1  0.12436691  0.62472352  0.49670057  1
  O2-  O134  1  0.12440777  0.87365457  -0.00598519  1
  O2-  O135  1  0.12538267  0.87599048  0.50505339  1
  O2-  O136  1  0.37439243  0.12370391  0.00777809  1
  O2-  O137  1  0.37559574  0.12654083  0.51924478  1
  O2-  O138  1  0.37509601  0.37722363  0.00798098  1
  O2-  O139  1  0.37478424  0.37334591  0.50780587  1
  O2-  O140  1  0.37513538  0.62637542  0.00787262  1
  O2-  O141  1  0.37621899  0.62399763  0.50694528  1
  O2-  O142  1  0.37307916  0.87188920  -0.00359172  1
  O2-  O143  1  0.37388650  0.87761829  0.49723423  1
  O2-  O144  1  0.62540384  0.12366742  0.00704796  1
  O2-  O145  1  0.62307065  0.12667142  0.49531148  1
  O2-  O146  1  0.62600458  0.37677040  -0.00315789  1
  O2-  O147  1  0.62741265  0.37320922  0.49622336  1
  O2-  O148  1  0.62512143  0.62639686  -0.00342497  1
  O2-  O149  1  0.62515590  0.62389226  0.50595362  1
  O2-  O150  1  0.62484305  0.87485138  0.00725281  1
  O2-  O151  1  0.62522376  0.87627645  0.50709783  1
  O2-  O152  1  0.87651123  0.12503634  0.01595910  1
  O2-  O153  1  0.87412783  0.12647776  0.50777168  1
  O2-  O154  1  0.87508104  0.37635857  0.00733101  1
  O2-  O155  1  0.87510304  0.37456271  0.50774427  1
  O2-  O156  1  0.87514183  0.62699771  0.00548816  1
  O2-  O157  1  0.87500312  0.62201480  0.49645132  1
  O2-  O158  1  0.87710873  0.87198089  -0.00535804  1
  O2-  O159  1  0.87515206  0.87564067  0.50627182  1
  O2-  O160  1  0.12422788  0.00162948  0.16266657  1
  O2-  O161  1  0.12427130  -0.00106629  0.66241758  1
  O2-  O162  1  0.12320553  0.24878555  0.16580837  1
  O2-  O163  1  0.12441160  0.25018372  0.67231349  1
  O2-  O164  1  0.12281134  0.49944322  0.16617545  1
  O2-  O165  1  0.12399131  0.49907243  0.66650430  1
  O2-  O166  1  0.12422588  0.75036436  0.16577506  1
  O2-  O167  1  0.12458983  0.75081214  0.65725527  1
  O2-  O168  1  0.37455619  -0.00225749  0.16266651  1
  O2-  O169  1  0.37474475  0.00065819  0.66690038  1
  O2-  O170  1  0.37436276  0.25124188  0.16463952  1
  O2-  O171  1  0.37528367  0.24853197  0.67129146  1
  O2-  O172  1  0.37492941  0.50008047  0.16642383  1
  O2-  O173  1  0.37500264  0.49879280  0.66534924  1
  O2-  O174  1  0.37506956  0.75132632  0.16636237  1
  O2-  O175  1  0.37491325  0.75162053  0.66023504  1
  O2-  O176  1  0.62542446  0.00332717  0.16376778  1
  O2-  O177  1  0.62498886  0.00103392  0.66660541  1
  O2-  O178  1  0.62689666  0.24829097  0.16030827  1
  O2-  O179  1  0.62582241  0.25043231  0.66835919  1
  O2-  O180  1  0.62649896  0.49969317  0.16439627  1
  O2-  O181  1  0.62664371  0.50073573  0.66123515  1
  O2-  O182  1  0.62515551  0.74947947  0.16739440  1
  O2-  O183  1  0.62538430  0.74742961  0.65979826  1
  O2-  O184  1  0.87535339  0.00049725  0.16616809  1
  O2-  O185  1  0.87615940  -0.00266005  0.66336137  1
  O2-  O186  1  0.87533663  0.25102636  0.16510782  1
  O2-  O187  1  0.87465310  0.25269451  0.66833055  1
  O2-  O188  1  0.87492209  0.50031662  0.16110955  1
  O2-  O189  1  0.87502005  0.49786003  0.66512670  1
  O2-  O190  1  0.87495625  0.74895091  0.16417278  1
  O2-  O191  1  0.87571985  0.75142216  0.65901250  1
  O2-  O192  1  0.00057860  0.12448037  0.16619671  1
  O2-  O193  1  0.00208241  0.12601106  0.66564092  1
  O2-  O194  1  -0.00168186  0.37533544  0.16763385  1
  O2-  O195  1  -0.00090550  0.37467419  0.66676807  1
  O2-  O196  1  -0.00217781  0.62547574  0.16296518  1
  O2-  O197  1  -0.00001985  0.62403468  0.66355777  1
  O2-  O198  1  0.00020286  0.87505141  0.16686180  1
  O2-  O199  1  0.00071215  0.87435565  0.65835147  1
  O2-  O200  1  0.24710062  0.12479751  0.16344822  1
  O2-  O201  1  0.25104020  0.12463349  0.66949362  1
  O2-  O202  1  0.24778687  0.37534900  0.16812374  1
  O2-  O203  1  0.24912442  0.37413269  0.66962804  1
  O2-  O204  1  0.24856417  0.62522934  0.16619212  1
  O2-  O205  1  0.25010856  0.62424649  0.66408032  1
  O2-  O206  1  0.25094968  0.87488956  0.16496022  1
  O2-  O207  1  0.24804251  0.87570728  0.66036623  1
  O2-  O208  1  0.50212016  0.12571990  0.16193796  1
  O2-  O209  1  0.49947335  0.12501854  0.66863258  1
  O2-  O210  1  0.50097457  0.37532480  0.16414673  1
  O2-  O211  1  0.50094842  0.37426525  0.66439641  1
  O2-  O212  1  0.50134223  0.62504252  0.16677131  1
  O2-  O213  1  0.50250792  0.62422257  0.66308310  1
  O2-  O214  1  0.49777425  0.87482518  0.16459650  1
  O2-  O215  1  0.49839217  0.87566273  0.66408097  1
  O2-  O216  1  0.74984742  0.12555291  0.16336618  1
  O2-  O217  1  0.74740925  0.12499803  0.66627777  1
  O2-  O218  1  0.75250482  0.37545126  0.16267916  1
  O2-  O219  1  0.75171503  0.37516876  0.66340652  1
  O2-  O220  1  0.75170686  0.62500634  0.16302801  1
  O2-  O221  1  0.74796289  0.62434069  0.66379222  1
  O2-  O222  1  0.75044314  0.87521047  0.16671234  1
  O2-  O223  1  0.75298745  0.87487693  0.66287218  1
  O2-  O224  1  0.12480424  -0.00160290  0.34651592  1
  O2-  O225  1  0.12417826  0.00038646  0.84645482  1
  O2-  O226  1  0.12486633  0.25012398  0.34798414  1
  O2-  O227  1  0.12366884  0.24883872  0.85578475  1
  O2-  O228  1  0.12388103  0.50007656  0.34878804  1
  O2-  O229  1  0.12341275  0.50104425  0.84922330  1
  O2-  O230  1  0.12388959  0.75147796  0.34917383  1
  O2-  O231  1  0.12408793  0.74960107  0.83853420  1
  O2-  O232  1  0.37431895  -0.00027287  0.34564868  1
  O2-  O233  1  0.37445343  -0.00272745  0.84831207  1
  O2-  O234  1  0.37501871  0.24866287  0.34832973  1
  O2-  O235  1  0.37550850  0.25043283  0.85345022  1
  O2-  O236  1  0.37532709  0.50018441  0.34952860  1
  O2-  O237  1  0.37514498  0.50054845  0.84887827  1
  O2-  O238  1  0.37463838  0.75195522  0.34876141  1
  O2-  O239  1  0.37464751  0.75110993  0.84216911  1
  O2-  O240  1  0.62477896  0.00159768  0.34583999  1
  O2-  O241  1  0.62613598  0.00147420  0.85083018  1
  O2-  O242  1  0.62504940  0.25061445  0.34177154  1
  O2-  O243  1  0.62653713  0.24928307  0.85207875  1
  O2-  O244  1  0.62650930  0.50081092  0.34831669  1
  O2-  O245  1  0.62652935  0.50073428  0.84339749  1
  O2-  O246  1  0.62591050  0.74762173  0.35160403  1
  O2-  O247  1  0.62590713  0.74794484  0.84202414  1
  O2-  O248  1  0.87568808  -0.00281183  0.34970743  1
  O2-  O249  1  0.87556199  -0.00138983  0.84679939  1
  O2-  O250  1  0.87504333  0.25326869  0.34822877  1
  O2-  O251  1  0.87482331  0.25190179  0.85384285  1
  O2-  O252  1  0.87444455  0.49887831  0.34563728  1
  O2-  O253  1  0.87486745  0.50112315  0.85049009  1
  O2-  O254  1  0.87533127  0.75074146  0.34897298  1
  O2-  O255  1  0.87543226  0.74795730  0.84160955  1
  O2-  O256  1  0.00208275  0.12524551  0.34803502  1
  O2-  O257  1  0.00174047  0.12499343  0.85018499  1
  O2-  O258  1  -0.00177007  0.37540213  0.35107649  1
  O2-  O259  1  -0.00260050  0.37572878  0.85078250  1
  O2-  O260  1  -0.00030344  0.62475101  0.34516709  1
  O2-  O261  1  -0.00167107  0.62478039  0.84724296  1
  O2-  O262  1  0.00041802  0.87489238  0.35134420  1
  O2-  O263  1  0.00043950  0.87458100  0.83986269  1
  O2-  O264  1  0.25044976  0.12485264  0.34675776  1
  O2-  O265  1  0.24751424  0.12457970  0.85234639  1
  O2-  O266  1  0.24971733  0.37471196  0.35057230  1
  O2-  O267  1  0.24923626  0.37533743  0.85167703  1
  O2-  O268  1  0.24891615  0.62537134  0.34848984  1
  O2-  O269  1  0.24905911  0.62516060  0.84687448  1
  O2-  O270  1  0.24831576  0.87539168  0.34791957  1
  O2-  O271  1  0.24912655  0.87458528  0.84184143  1
  O2-  O272  1  0.49980225  0.12516267  0.34446321  1
  O2-  O273  1  0.50282408  0.12456468  0.85098612  1
  O2-  O274  1  0.50176051  0.37524581  0.34697584  1
  O2-  O275  1  0.50204975  0.37543557  0.84661055  1
  O2-  O276  1  0.50270067  0.62489398  0.35007916  1
  O2-  O277  1  0.50103610  0.62513709  0.84525786  1
  O2-  O278  1  0.49812743  0.87546978  0.34710378  1
  O2-  O279  1  0.49853127  0.87417226  0.84688058  1
  O2-  O280  1  0.74742665  0.12536778  0.34507585  1
  O2-  O281  1  0.74819067  0.12492914  0.85091926  1
  O2-  O282  1  0.75096647  0.37538770  0.34596219  1
  O2-  O283  1  0.75127014  0.37558628  0.84721770  1
  O2-  O284  1  0.74891193  0.62486791  0.34668332  1
  O2-  O285  1  0.75164247  0.62494269  0.84734147  1
  O2-  O286  1  0.75255362  0.87476297  0.35067729  1
  O2-  O287  1  0.75212493  0.87395895  0.84601452  1
