# generated using pymatgen
data_BaYFeCuO5
_symmetry_space_group_name_H-M   'P 1'
_cell_length_a   15.68559624
_cell_length_b   15.68827369
_cell_length_c   15.54730283
_cell_angle_alpha   89.99280282
_cell_angle_beta   89.99385885
_cell_angle_gamma   89.98447310
_symmetry_Int_Tables_number   1
_chemical_formula_structural   BaYFeCuO5
_chemical_formula_sum   'Ba32 Y32 Fe32 Cu32 O160'
_cell_volume   3825.87894829
_cell_formula_units_Z   32
loop_
 _symmetry_equiv_pos_site_id
 _symmetry_equiv_pos_as_xyz
  1  'x, y, z'
loop_
 _atom_type_symbol
 _atom_type_oxidation_number
  Ba2+  2.0
  Y3+  3.0
  Fe3+  3.0
  Cu2+  2.0
  O2-  -2.0
loop_
 _atom_site_type_symbol
 _atom_site_label
 _atom_site_symmetry_multiplicity
 _atom_site_fract_x
 _atom_site_fract_y
 _atom_site_fract_z
 _atom_site_occupancy
  Ba2+  Ba0  1  0.00409520  0.00541039  0.01246714  1
  Ba2+  Ba1  1  0.00294405  0.00057406  0.52081150  1
  Ba2+  Ba2  1  0.00037494  0.25012037  0.00667232  1
  Ba2+  Ba3  1  0.00353486  0.24813695  0.50136805  1
  Ba2+  Ba4  1  -0.00691144  0.49649043  0.00668151  1
  Ba2+  Ba5  1  -0.00141871  0.50057338  0.49219305  1
  Ba2+  Ba6  1  -0.00317116  0.74807609  0.01095920  1
  Ba2+  Ba7  1  0.00136193  0.75018802  0.52103943  1
  Ba2+  Ba8  1  0.25374899  0.00016698  0.01254335  1
  Ba2+  Ba9  1  0.24783561  0.00043683  0.52062279  1
  Ba2+  Ba10  1  0.25077837  0.24798018  0.01980918  1
  Ba2+  Ba11  1  0.24730845  0.24790167  0.51055980  1
  Ba2+  Ba12  1  0.24939674  0.48959893  0.01714673  1
  Ba2+  Ba13  1  0.25055618  0.50170204  0.51819786  1
  Ba2+  Ba14  1  0.25207967  0.76171340  0.00994937  1
  Ba2+  Ba15  1  0.25028647  0.74993664  0.52792111  1
  Ba2+  Ba16  1  0.49912815  0.00104423  0.00652320  1
  Ba2+  Ba17  1  0.49474407  -0.00655377  0.51292699  1
  Ba2+  Ba18  1  0.49725072  0.24274977  0.01740955  1
  Ba2+  Ba19  1  0.49417671  0.25564824  0.52167295  1
  Ba2+  Ba20  1  0.50360202  0.50191448  0.00971434  1
  Ba2+  Ba21  1  0.50009845  0.50202520  0.52830413  1
  Ba2+  Ba22  1  0.50416235  0.75594329  0.00228383  1
  Ba2+  Ba23  1  0.49910317  0.74744012  0.52075480  1
  Ba2+  Ba24  1  0.74301811  0.00652132  0.00690636  1
  Ba2+  Ba25  1  0.75497132  -0.00650633  0.51283665  1
  Ba2+  Ba26  1  0.75216539  0.24362091  0.00770395  1
  Ba2+  Ba27  1  0.75466055  0.25564221  0.51105654  1
  Ba2+  Ba28  1  0.75422175  0.50629494  0.00391083  1
  Ba2+  Ba29  1  0.74939161  0.50165196  0.50670035  1
  Ba2+  Ba30  1  0.74609561  0.74320751  0.00377259  1
  Ba2+  Ba31  1  0.74968615  0.74811894  0.50356370  1
  Y3+  Y32  1  0.00193259  0.00119629  0.25816246  1
  Y3+  Y33  1  0.00088456  0.00150493  0.75473646  1
  Y3+  Y34  1  0.00176600  0.25058506  0.26127999  1
  Y3+  Y35  1  0.00019568  0.24740799  0.75508021  1
  Y3+  Y36  1  -0.00131802  0.49920730  0.25519563  1
  Y3+  Y37  1  -0.00191768  0.50087501  0.76194961  1
  Y3+  Y38  1  -0.00148540  0.74939550  0.25345316  1
  Y3+  Y39  1  -0.00089238  0.75011924  0.76082251  1
  Y3+  Y40  1  0.25031633  -0.00051376  0.25654959  1
  Y3+  Y41  1  0.25022752  0.00053266  0.75622523  1
  Y3+  Y42  1  0.24881714  0.25010407  0.26077667  1
  Y3+  Y43  1  0.24939492  0.24752627  0.75248673  1
  Y3+  Y44  1  0.24887406  0.49749155  0.25578091  1
  Y3+  Y45  1  0.25061046  0.50053626  0.75700189  1
  Y3+  Y46  1  0.25070601  0.75305315  0.25114342  1
  Y3+  Y47  1  0.25100514  0.75204639  0.75989144  1
  Y3+  Y48  1  0.49945679  -0.00075369  0.25455210  1
  Y3+  Y49  1  0.49949492  -0.00047595  0.76032105  1
  Y3+  Y50  1  0.49957865  0.24812018  0.25524017  1
  Y3+  Y51  1  0.50064494  0.24928092  0.75706896  1
  Y3+  Y52  1  0.50065092  0.50076956  0.25141927  1
  Y3+  Y53  1  0.50202952  0.50099672  0.76032114  1
  Y3+  Y54  1  0.50121842  0.75117371  0.25261598  1
  Y3+  Y55  1  0.50071630  0.75064546  0.76307465  1
  Y3+  Y56  1  0.74833478  0.00086995  0.25696981  1
  Y3+  Y57  1  0.74910415  0.00113179  0.75854112  1
  Y3+  Y58  1  0.74947649  0.24842065  0.25748623  1
  Y3+  Y59  1  0.75023411  0.24937479  0.75769578  1
  Y3+  Y60  1  0.75151331  0.50238094  0.25510628  1
  Y3+  Y61  1  0.74963058  0.50137330  0.76239061  1
  Y3+  Y62  1  0.74982304  0.74788534  0.25379564  1
  Y3+  Y63  1  0.74923666  0.74821873  0.76226553  1
  Fe3+  Fe64  1  0.12563240  0.87385963  0.37554476  1
  Fe3+  Fe65  1  0.87492670  0.12393544  0.37785001  1
  Fe3+  Fe66  1  0.37387950  0.62476799  0.88005255  1
  Fe3+  Fe67  1  0.62348723  0.37584787  0.37592320  1
  Fe3+  Fe68  1  0.12560647  0.37285126  0.87710596  1
  Fe3+  Fe69  1  0.62552292  0.37301789  0.87997986  1
  Fe3+  Fe70  1  0.37363844  0.12579566  0.87402144  1
  Fe3+  Fe71  1  0.87586817  0.87395477  0.37500195  1
  Fe3+  Fe72  1  0.62282269  0.62519538  0.37434355  1
  Fe3+  Fe73  1  0.37519842  0.12415852  0.37740137  1
  Fe3+  Fe74  1  0.37512186  0.87276370  0.37551862  1
  Fe3+  Fe75  1  0.12663424  0.62728334  0.37363360  1
  Fe3+  Fe76  1  0.12583931  0.62455955  0.88091094  1
  Fe3+  Fe77  1  0.12451299  0.87728529  0.87705530  1
  Fe3+  Fe78  1  0.87444058  0.87654564  0.88023049  1
  Fe3+  Fe79  1  0.37446761  0.37337043  0.87618804  1
  Fe3+  Fe80  1  0.37626969  0.37706281  0.37516513  1
  Fe3+  Fe81  1  0.37483665  0.62554033  0.37355927  1
  Fe3+  Fe82  1  0.87616429  0.12484893  0.87515986  1
  Fe3+  Fe83  1  0.62373240  0.12408751  0.38144874  1
  Fe3+  Fe84  1  0.12314452  0.37683893  0.63755989  1
  Fe3+  Fe85  1  0.12496620  0.62450834  0.13247935  1
  Fe3+  Fe86  1  0.62598670  0.37430409  0.13367148  1
  Fe3+  Fe87  1  0.87464385  0.62460472  0.64113492  1
  Fe3+  Fe88  1  0.37499780  0.62548632  0.13138881  1
  Fe3+  Fe89  1  0.62517201  0.12495410  0.63446704  1
  Fe3+  Fe90  1  0.87441187  0.87691587  0.13332788  1
  Fe3+  Fe91  1  0.62586679  0.87359325  0.64101879  1
  Fe3+  Fe92  1  0.12488124  0.12569868  0.13995008  1
  Fe3+  Fe93  1  0.87564419  0.37629212  0.64004126  1
  Fe3+  Fe94  1  0.62582027  0.87560197  0.13737892  1
  Fe3+  Fe95  1  0.87466231  0.37292722  0.13930042  1
  Cu2+  Cu96  1  0.87593482  0.62554359  0.87489350  1
  Cu2+  Cu97  1  0.87378994  0.37502773  0.36147021  1
  Cu2+  Cu98  1  0.62453756  0.87441721  0.36264343  1
  Cu2+  Cu99  1  0.62392364  0.12606384  0.87170344  1
  Cu2+  Cu100  1  0.87502863  0.37362035  0.86424506  1
  Cu2+  Cu101  1  0.12616959  0.12315113  0.37400259  1
  Cu2+  Cu102  1  0.62580624  0.87634112  0.86494645  1
  Cu2+  Cu103  1  0.87524862  0.62565033  0.35927563  1
  Cu2+  Cu104  1  0.37455368  0.87641591  0.87259548  1
  Cu2+  Cu105  1  0.12566814  0.37618105  0.36371388  1
  Cu2+  Cu106  1  0.12561861  0.12533572  0.86121266  1
  Cu2+  Cu107  1  0.62417518  0.62443998  0.87439793  1
  Cu2+  Cu108  1  0.62607225  0.62530667  0.65805907  1
  Cu2+  Cu109  1  0.62511341  0.12490696  0.14219619  1
  Cu2+  Cu110  1  0.37588260  0.87477895  0.65692415  1
  Cu2+  Cu111  1  0.37422724  0.12483876  0.15428344  1
  Cu2+  Cu112  1  0.37614101  0.87589740  0.13911308  1
  Cu2+  Cu113  1  0.12384096  0.62449614  0.65707917  1
  Cu2+  Cu114  1  0.12402581  0.37411264  0.15241544  1
  Cu2+  Cu115  1  0.62611726  0.37560275  0.65503126  1
  Cu2+  Cu116  1  0.37616350  0.12447713  0.64977064  1
  Cu2+  Cu117  1  0.12409817  0.87576143  0.14694252  1
  Cu2+  Cu118  1  0.37462546  0.37561336  0.65445282  1
  Cu2+  Cu119  1  0.62530711  0.62506469  0.13938170  1
  Cu2+  Cu120  1  0.87505764  0.62481610  0.14118184  1
  Cu2+  Cu121  1  0.87408438  0.12520984  0.64864472  1
  Cu2+  Cu122  1  0.12483422  0.12568970  0.64140067  1
  Cu2+  Cu123  1  0.37538824  0.62547791  0.65867043  1
  Cu2+  Cu124  1  0.37565193  0.37453753  0.14921239  1
  Cu2+  Cu125  1  0.12474992  0.87425467  0.65595907  1
  Cu2+  Cu126  1  0.87552865  0.12500350  0.15363185  1
  Cu2+  Cu127  1  0.87416296  0.87405870  0.65634287  1
  O2-  O128  1  0.12491648  0.12698035  0.01950173  1
  O2-  O129  1  0.12575125  0.12411952  0.50749441  1
  O2-  O130  1  0.12695435  0.37129731  -0.00307265  1
  O2-  O131  1  0.12256825  0.37913430  0.51779988  1
  O2-  O132  1  0.12597743  0.62351487  0.00604352  1
  O2-  O133  1  0.12698823  0.62779218  0.49315760  1
  O2-  O134  1  0.12451422  0.87890005  -0.00322922  1
  O2-  O135  1  0.12564143  0.87118772  0.49505074  1
  O2-  O136  1  0.37332925  0.12662861  -0.00589264  1
  O2-  O137  1  0.37642215  0.12401062  0.49697593  1
  O2-  O138  1  0.37339989  0.37112646  -0.00462254  1
  O2-  O139  1  0.37718138  0.38015697  0.49438791  1
  O2-  O140  1  0.37345655  0.62425974  0.00515624  1
  O2-  O141  1  0.37461639  0.62551375  0.49289317  1
  O2-  O142  1  0.37571790  0.87736999  0.00580354  1
  O2-  O143  1  0.37442454  0.87052154  0.49511569  1
  O2-  O144  1  0.62403797  0.12615173  0.00702761  1
  O2-  O145  1  0.62434512  0.12467946  0.50718440  1
  O2-  O146  1  0.62625770  0.37191355  0.00660532  1
  O2-  O147  1  0.62185076  0.37784598  0.49532485  1
  O2-  O148  1  0.62411323  0.62390073  0.00646778  1
  O2-  O149  1  0.62222180  0.62455669  0.49407685  1
  O2-  O150  1  0.62662677  0.87773668  0.01730749  1
  O2-  O151  1  0.62525721  0.87158274  0.52105985  1
  O2-  O152  1  0.87666818  0.12503672  -0.00481527  1
  O2-  O153  1  0.87371671  0.12285099  0.49763897  1
  O2-  O154  1  0.87422945  0.37179751  0.01946984  1
  O2-  O155  1  0.87543159  0.37893747  0.52030878  1
  O2-  O156  1  0.87678143  0.62487581  0.00785808  1
  O2-  O157  1  0.87514498  0.62472126  0.52125983  1
  O2-  O158  1  0.87405570  0.87785822  0.00633421  1
  O2-  O159  1  0.87721797  0.87240887  0.49485366  1
  O2-  O160  1  0.12450115  0.00088899  0.16566455  1
  O2-  O161  1  0.12452083  -0.00165400  0.66324676  1
  O2-  O162  1  0.12545740  0.24945689  0.17077434  1
  O2-  O163  1  0.12506027  0.25254914  0.66373619  1
  O2-  O164  1  0.12508625  0.50050176  0.16049663  1
  O2-  O165  1  0.12515171  0.49999707  0.67161386  1
  O2-  O166  1  0.12521897  0.74896043  0.15600826  1
  O2-  O167  1  0.12458624  0.74958398  0.66919834  1
  O2-  O168  1  0.37499775  0.00176272  0.16485804  1
  O2-  O169  1  0.37609805  -0.00074663  0.66326869  1
  O2-  O170  1  0.37519685  0.24934366  0.16559463  1
  O2-  O171  1  0.37556588  0.25050538  0.66021440  1
  O2-  O172  1  0.37465752  0.50141809  0.15802797  1
  O2-  O173  1  0.37543176  0.50090521  0.66862692  1
  O2-  O174  1  0.37404006  0.74734445  0.15860120  1
  O2-  O175  1  0.37541273  0.74968555  0.67016413  1
  O2-  O176  1  0.62553205  -0.00112981  0.16932455  1
  O2-  O177  1  0.62493912  0.00095618  0.66445224  1
  O2-  O178  1  0.62458757  0.25244416  0.16583007  1
  O2-  O179  1  0.62545086  0.24875548  0.66119016  1
  O2-  O180  1  0.62521949  0.49678535  0.15952425  1
  O2-  O181  1  0.62506849  0.50077124  0.66897660  1
  O2-  O182  1  0.62602787  0.75163308  0.16356598  1
  O2-  O183  1  0.62501190  0.74967514  0.67131379  1
  O2-  O184  1  0.87515021  -0.00024650  0.16187115  1
  O2-  O185  1  0.87448093  -0.00072623  0.66292893  1
  O2-  O186  1  0.87469103  0.24920465  0.16987690  1
  O2-  O187  1  0.87382578  0.25086532  0.66436562  1
  O2-  O188  1  0.87533153  0.49751992  0.16610875  1
  O2-  O189  1  0.87436345  0.50052164  0.67431347  1
  O2-  O190  1  0.87492787  0.75351261  0.15943953  1
  O2-  O191  1  0.87485336  0.74918929  0.67153104  1
  O2-  O192  1  0.00058742  0.12538012  0.16713623  1
  O2-  O193  1  -0.00187627  0.12480733  0.66532777  1
  O2-  O194  1  -0.00078119  0.37365080  0.16772502  1
  O2-  O195  1  -0.00042803  0.37568915  0.67269068  1
  O2-  O196  1  0.00328964  0.62494238  0.16185272  1
  O2-  O197  1  -0.00111072  0.62612317  0.67156090  1
  O2-  O198  1  -0.00209460  0.87586903  0.16005346  1
  O2-  O199  1  -0.00069316  0.87383810  0.66652835  1
  O2-  O200  1  0.25016420  0.12547746  0.16580680  1
  O2-  O201  1  0.25214809  0.12450699  0.66258117  1
  O2-  O202  1  0.25021087  0.37449278  0.16266827  1
  O2-  O203  1  0.24947797  0.37687752  0.66299123  1
  O2-  O204  1  0.24962753  0.62405727  0.15759097  1
  O2-  O205  1  0.24963801  0.62526812  0.66577672  1
  O2-  O206  1  0.24879724  0.87595546  0.16035356  1
  O2-  O207  1  0.25066206  0.87404454  0.66492683  1
  O2-  O208  1  0.49725828  0.12512135  0.16402941  1
  O2-  O209  1  0.50223201  0.12550278  0.66330953  1
  O2-  O210  1  0.50155014  0.37470236  0.15800371  1
  O2-  O211  1  0.50024104  0.37583502  0.66660490  1
  O2-  O212  1  0.49710969  0.62463015  0.15876868  1
  O2-  O213  1  0.50083475  0.62502316  0.66759449  1
  O2-  O214  1  0.50189902  0.87531245  0.16505802  1
  O2-  O215  1  0.50098180  0.87400742  0.66886251  1
  O2-  O216  1  0.75170069  0.12525695  0.16705444  1
  O2-  O217  1  0.74759124  0.12477917  0.66428796  1
  O2-  O218  1  0.74880314  0.37373739  0.16717644  1
  O2-  O219  1  0.75068329  0.37547699  0.66932973  1
  O2-  O220  1  0.75031026  0.62457883  0.16535639  1
  O2-  O221  1  0.75056916  0.62480322  0.66999663  1
  O2-  O222  1  0.75159572  0.87638780  0.16714020  1
  O2-  O223  1  0.74935518  0.87526473  0.67043513  1
  O2-  O224  1  0.12529318  -0.00295632  0.34563375  1
  O2-  O225  1  0.12461443  0.00070037  0.84581403  1
  O2-  O226  1  0.12549185  0.25167070  0.35363931  1
  O2-  O227  1  0.12454920  0.24988286  0.84466338  1
  O2-  O228  1  0.12464507  0.50153029  0.34401430  1
  O2-  O229  1  0.12553342  0.50037583  0.85243753  1
  O2-  O230  1  0.12481168  0.75026154  0.33636722  1
  O2-  O231  1  0.12509477  0.74925580  0.85254587  1
  O2-  O232  1  0.37614069  -0.00127358  0.34601457  1
  O2-  O233  1  0.37459576  0.00205081  0.84568420  1
  O2-  O234  1  0.37604731  0.25042884  0.34743874  1
  O2-  O235  1  0.37487381  0.25042235  0.84070203  1
  O2-  O236  1  0.37517371  0.50081054  0.33842475  1
  O2-  O237  1  0.37433106  0.50021077  0.85092111  1
  O2-  O238  1  0.37536412  0.74968984  0.33805109  1
  O2-  O239  1  0.37435512  0.74783028  0.85379477  1
  O2-  O240  1  0.62488561  0.00119280  0.35265111  1
  O2-  O241  1  0.62523733  -0.00074605  0.84724169  1
  O2-  O242  1  0.62474848  0.24839273  0.34884005  1
  O2-  O243  1  0.62508079  0.25306929  0.84496077  1
  O2-  O244  1  0.62498994  0.50065146  0.34010101  1
  O2-  O245  1  0.62495155  0.49587635  0.85252008  1
  O2-  O246  1  0.62531883  0.74906408  0.34429394  1
  O2-  O247  1  0.62500255  0.75215154  0.85375062  1
  O2-  O248  1  0.87418946  -0.00054683  0.34342356  1
  O2-  O249  1  0.87493058  -0.00080658  0.84611539  1
  O2-  O250  1  0.87349087  0.24937531  0.35146923  1
  O2-  O251  1  0.87564473  0.24898282  0.84561142  1
  O2-  O252  1  0.87498030  0.49993706  0.34880708  1
  O2-  O253  1  0.87531674  0.49821863  0.85459039  1
  O2-  O254  1  0.87468665  0.75065546  0.34133395  1
  O2-  O255  1  0.87516635  0.75365109  0.85385490  1
  O2-  O256  1  -0.00166319  0.12502586  0.34841072  1
  O2-  O257  1  0.00045780  0.12463816  0.84754025  1
  O2-  O258  1  -0.00072074  0.37559020  0.35083138  1
  O2-  O259  1  0.00043835  0.37491799  0.85220893  1
  O2-  O260  1  0.00030651  0.62492659  0.34459459  1
  O2-  O261  1  0.00354593  0.62499969  0.85298942  1
  O2-  O262  1  0.00028540  0.87417655  0.34126459  1
  O2-  O263  1  -0.00129773  0.87580405  0.84969220  1
  O2-  O264  1  0.25260865  0.12480327  0.34666591  1
  O2-  O265  1  0.24978629  0.12563694  0.84437935  1
  O2-  O266  1  0.25155858  0.37610111  0.34578612  1
  O2-  O267  1  0.24986201  0.37488058  0.84297457  1
  O2-  O268  1  0.25073152  0.62518740  0.33765156  1
  O2-  O269  1  0.24972406  0.62494398  0.84945078  1
  O2-  O270  1  0.25062228  0.87394131  0.34093276  1
  O2-  O271  1  0.24760910  0.87535042  0.84717219  1
  O2-  O272  1  0.50128090  0.12448648  0.34595461  1
  O2-  O273  1  0.49794277  0.12555858  0.84574604  1
  O2-  O274  1  0.50027763  0.37530637  0.33822751  1
  O2-  O275  1  0.50048966  0.37487326  0.84970390  1
  O2-  O276  1  0.49927018  0.62517441  0.33842725  1
  O2-  O277  1  0.49655458  0.62439025  0.85145782  1
  O2-  O278  1  0.49980017  0.87420948  0.34587430  1
  O2-  O279  1  0.50217320  0.87571893  0.85143024  1
  O2-  O280  1  0.74793287  0.12454082  0.34932097  1
  O2-  O281  1  0.75167600  0.12534739  0.84754229  1
  O2-  O282  1  0.74831390  0.37514555  0.34870652  1
  O2-  O283  1  0.74938090  0.37360247  0.85280697  1
  O2-  O284  1  0.74978263  0.62516764  0.34853329  1
  O2-  O285  1  0.75023188  0.62502016  0.85202251  1
  O2-  O286  1  0.74999941  0.87444936  0.34945446  1
  O2-  O287  1  0.75104260  0.87627212  0.85273133  1
