# generated using pymatgen
data_BaYFeCuO5
_symmetry_space_group_name_H-M   'P 1'
_cell_length_a   15.68494943
_cell_length_b   15.68292410
_cell_length_c   15.52218784
_cell_angle_alpha   90.00328888
_cell_angle_beta   90.00508678
_cell_angle_gamma   89.99664844
_symmetry_Int_Tables_number   1
_chemical_formula_structural   BaYFeCuO5
_chemical_formula_sum   'Ba32 Y32 Fe32 Cu32 O160'
_cell_volume   3818.23887535
_cell_formula_units_Z   32
loop_
 _symmetry_equiv_pos_site_id
 _symmetry_equiv_pos_as_xyz
  1  'x, y, z'
loop_
 _atom_type_symbol
 _atom_type_oxidation_number
  Ba2+  2.0
  Y3+  3.0
  Fe3+  3.0
  Cu2+  2.0
  O2-  -2.0
loop_
 _atom_site_type_symbol
 _atom_site_label
 _atom_site_symmetry_multiplicity
 _atom_site_fract_x
 _atom_site_fract_y
 _atom_site_fract_z
 _atom_site_occupancy
  Ba2+  Ba0  1  -0.00266993  -0.00160337  0.01269393  1
  Ba2+  Ba1  1  -0.00402332  -0.00431550  0.51240662  1
  Ba2+  Ba2  1  0.00082601  0.24825204  -0.00528357  1
  Ba2+  Ba3  1  -0.00173249  0.26186303  0.51186397  1
  Ba2+  Ba4  1  -0.00430231  0.49467038  0.00104602  1
  Ba2+  Ba5  1  -0.00233578  0.49947684  0.52377352  1
  Ba2+  Ba6  1  -0.00694761  0.75659332  0.01383343  1
  Ba2+  Ba7  1  -0.00411364  0.74352115  0.52397752  1
  Ba2+  Ba8  1  0.25324860  0.00375818  0.01307831  1
  Ba2+  Ba9  1  0.25954115  0.00277667  0.50211236  1
  Ba2+  Ba10  1  0.25245074  0.24577527  -0.00131848  1
  Ba2+  Ba11  1  0.25874423  0.25386495  0.51064933  1
  Ba2+  Ba12  1  0.25595837  0.49484948  0.01262081  1
  Ba2+  Ba13  1  0.24726637  0.49377297  0.51795018  1
  Ba2+  Ba14  1  0.25556204  0.75567249  0.02321523  1
  Ba2+  Ba15  1  0.24841624  0.74845253  0.50634258  1
  Ba2+  Ba16  1  0.49788579  0.00252899  0.01345548  1
  Ba2+  Ba17  1  0.49802298  0.00989740  0.50289495  1
  Ba2+  Ba18  1  0.49769449  0.24812860  0.01441396  1
  Ba2+  Ba19  1  0.49859360  0.24862662  0.51195304  1
  Ba2+  Ba20  1  0.50111267  0.49969255  0.02677395  1
  Ba2+  Ba21  1  0.50184553  0.49190258  0.50615229  1
  Ba2+  Ba22  1  0.50162421  0.75060055  0.02722725  1
  Ba2+  Ba23  1  0.50043626  0.74987407  0.49732658  1
  Ba2+  Ba24  1  0.75081627  -0.00250610  0.01290281  1
  Ba2+  Ba25  1  0.74592753  0.00367975  0.51100406  1
  Ba2+  Ba26  1  0.74818815  0.24956722  0.00548036  1
  Ba2+  Ba27  1  0.74516572  0.25482161  0.51204002  1
  Ba2+  Ba28  1  0.74692302  0.50046764  0.01856214  1
  Ba2+  Ba29  1  0.75361381  0.49676990  0.51080656  1
  Ba2+  Ba30  1  0.74956221  0.75209500  0.02113315  1
  Ba2+  Ba31  1  0.75517828  0.74510889  0.51189150  1
  Y3+  Y32  1  -0.00134374  -0.00049533  0.25550295  1
  Y3+  Y33  1  -0.00154315  -0.00139877  0.75902219  1
  Y3+  Y34  1  -0.00175577  0.25067006  0.26004469  1
  Y3+  Y35  1  0.00069642  0.25315636  0.75758337  1
  Y3+  Y36  1  -0.00253306  0.49923005  0.25562905  1
  Y3+  Y37  1  -0.00002426  0.49770796  0.75830197  1
  Y3+  Y38  1  -0.00166816  0.75132351  0.25192872  1
  Y3+  Y39  1  -0.00224553  0.75012782  0.75958705  1
  Y3+  Y40  1  0.25374308  0.00118348  0.25815306  1
  Y3+  Y41  1  0.25286368  0.00398962  0.75811836  1
  Y3+  Y42  1  0.25478106  0.24939512  0.25901091  1
  Y3+  Y43  1  0.25239495  0.24961973  0.75622177  1
  Y3+  Y44  1  0.25246823  0.49822039  0.25718943  1
  Y3+  Y45  1  0.24877693  0.49687922  0.75689370  1
  Y3+  Y46  1  0.25112506  0.75196931  0.25806164  1
  Y3+  Y47  1  0.24917373  0.74917042  0.75521501  1
  Y3+  Y48  1  0.49812740  0.00263348  0.26072920  1
  Y3+  Y49  1  0.50019950  0.00536188  0.75560327  1
  Y3+  Y50  1  0.49777762  0.24886690  0.26184550  1
  Y3+  Y51  1  0.49905671  0.24715483  0.75418916  1
  Y3+  Y52  1  0.50033451  0.49853203  0.25907024  1
  Y3+  Y53  1  0.49985996  0.49695490  0.75279211  1
  Y3+  Y54  1  0.50046018  0.75042407  0.25912985  1
  Y3+  Y55  1  0.50104904  0.75002907  0.75430876  1
  Y3+  Y56  1  0.75003273  0.00075107  0.25803919  1
  Y3+  Y57  1  0.74868458  0.00017216  0.75672741  1
  Y3+  Y58  1  0.74957473  0.25032484  0.26096891  1
  Y3+  Y59  1  0.74795660  0.25063042  0.75480083  1
  Y3+  Y60  1  0.74939169  0.50039666  0.25818498  1
  Y3+  Y61  1  0.75117457  0.49727748  0.75546011  1
  Y3+  Y62  1  0.74969893  0.74901504  0.25546894  1
  Y3+  Y63  1  0.75208982  0.75123468  0.75721950  1
  Fe3+  Fe64  1  0.37650725  0.62542106  0.87616520  1
  Fe3+  Fe65  1  0.37706992  0.37529283  0.87516722  1
  Fe3+  Fe66  1  0.12327258  0.62430607  0.37607420  1
  Fe3+  Fe67  1  0.37438334  0.62356303  0.37847896  1
  Fe3+  Fe68  1  0.62576579  0.87525187  0.37885106  1
  Fe3+  Fe69  1  0.12459839  0.37641060  0.37736872  1
  Fe3+  Fe70  1  0.12441755  0.12564382  0.38228447  1
  Fe3+  Fe71  1  0.37636374  0.87448511  0.87497450  1
  Fe3+  Fe72  1  0.62378176  0.62469866  0.87607274  1
  Fe3+  Fe73  1  0.87599732  0.62456625  0.37421067  1
  Fe3+  Fe74  1  0.12390271  0.87462114  0.37949740  1
  Fe3+  Fe75  1  0.87523802  0.12593848  0.38141595  1
  Fe3+  Fe76  1  0.87301362  0.62480930  0.87788848  1
  Fe3+  Fe77  1  0.62385265  0.37526383  0.87594815  1
  Fe3+  Fe78  1  0.62544663  0.37496092  0.37572357  1
  Fe3+  Fe79  1  0.87554761  0.87382578  0.37694541  1
  Fe3+  Fe80  1  0.87365395  0.12429291  0.87487306  1
  Fe3+  Fe81  1  0.62386632  0.87477766  0.87603491  1
  Fe3+  Fe82  1  0.12639947  0.87532190  0.87667563  1
  Fe3+  Fe83  1  0.12635492  0.62555060  0.88018239  1
  Fe3+  Fe84  1  0.62478903  0.87493644  0.63282635  1
  Fe3+  Fe85  1  0.37501594  0.62437362  0.63273502  1
  Fe3+  Fe86  1  0.12564217  0.87540833  0.63422410  1
  Fe3+  Fe87  1  0.87525611  0.12565416  0.63558236  1
  Fe3+  Fe88  1  0.62528155  0.12571726  0.14077657  1
  Fe3+  Fe89  1  0.12516585  0.12522490  0.63445713  1
  Fe3+  Fe90  1  0.12497256  0.12640486  0.14018818  1
  Fe3+  Fe91  1  0.87463699  0.37298480  0.13781917  1
  Fe3+  Fe92  1  0.62539316  0.62445736  0.63364800  1
  Fe3+  Fe93  1  0.37570979  0.87497697  0.63386028  1
  Fe3+  Fe94  1  0.12550782  0.37295390  0.13635851  1
  Fe3+  Fe95  1  0.12477924  0.62447883  0.13300862  1
  Cu2+  Cu96  1  0.87541825  0.37634485  0.37328809  1
  Cu2+  Cu97  1  0.87361237  0.37479959  0.86206814  1
  Cu2+  Cu98  1  0.37467454  0.12627540  0.37265131  1
  Cu2+  Cu99  1  0.62487366  0.12523290  0.86201657  1
  Cu2+  Cu100  1  0.37448302  0.37565478  0.37275221  1
  Cu2+  Cu101  1  0.62577222  0.12568144  0.37379189  1
  Cu2+  Cu102  1  0.37489312  0.87474831  0.36601288  1
  Cu2+  Cu103  1  0.12620024  0.37494046  0.86515129  1
  Cu2+  Cu104  1  0.37642089  0.12492468  0.87270951  1
  Cu2+  Cu105  1  0.87342981  0.87509283  0.87200512  1
  Cu2+  Cu106  1  0.12482307  0.12423239  0.85896170  1
  Cu2+  Cu107  1  0.62575067  0.62492163  0.36662935  1
  Cu2+  Cu108  1  0.87383735  0.87630534  0.14294588  1
  Cu2+  Cu109  1  0.37550345  0.37479752  0.64119738  1
  Cu2+  Cu110  1  0.37447703  0.62482434  0.15563406  1
  Cu2+  Cu111  1  0.37529400  0.37384534  0.15315109  1
  Cu2+  Cu112  1  0.12508834  0.62472848  0.65331733  1
  Cu2+  Cu113  1  0.37591759  0.87640485  0.15702822  1
  Cu2+  Cu114  1  0.37457072  0.12484712  0.64198023  1
  Cu2+  Cu115  1  0.12530499  0.37396832  0.65369266  1
  Cu2+  Cu116  1  0.62494784  0.12523746  0.64021918  1
  Cu2+  Cu117  1  0.62467237  0.37509523  0.64985470  1
  Cu2+  Cu118  1  0.87436287  0.37429121  0.64286184  1
  Cu2+  Cu119  1  0.87483391  0.12627471  0.15418638  1
  Cu2+  Cu120  1  0.87521394  0.62392582  0.14696808  1
  Cu2+  Cu121  1  0.12573018  0.87636834  0.15301280  1
  Cu2+  Cu122  1  0.62472242  0.62495963  0.15620706  1
  Cu2+  Cu123  1  0.87447669  0.87547738  0.65000412  1
  Cu2+  Cu124  1  0.62427674  0.87667876  0.15671370  1
  Cu2+  Cu125  1  0.37511137  0.12585322  0.14467500  1
  Cu2+  Cu126  1  0.62480732  0.37363358  0.15470418  1
  Cu2+  Cu127  1  0.87435904  0.62422506  0.65612291  1
  O2-  O128  1  0.12489185  0.12534708  0.02035997  1
  O2-  O129  1  0.12448441  0.12545825  0.50818116  1
  O2-  O130  1  0.12516933  0.37189394  0.01672273  1
  O2-  O131  1  0.12343739  0.37901449  0.49757257  1
  O2-  O132  1  0.12739042  0.62652939  0.00586580  1
  O2-  O133  1  0.12217671  0.62391865  0.49534924  1
  O2-  O134  1  0.12763335  0.87534461  -0.00346327  1
  O2-  O135  1  0.12353016  0.87315571  0.50666757  1
  O2-  O136  1  0.37563555  0.12486416  0.00721098  1
  O2-  O137  1  0.37371655  0.12591395  0.50731576  1
  O2-  O138  1  0.37789369  0.37637830  -0.00463433  1
  O2-  O139  1  0.37450440  0.37704058  0.50711659  1
  O2-  O140  1  0.37654960  0.62645908  -0.00444693  1
  O2-  O141  1  0.37353553  0.62411729  0.50598831  1
  O2-  O142  1  0.37676617  0.87319901  -0.00501973  1
  O2-  O143  1  0.37420532  0.87326221  0.51416936  1
  O2-  O144  1  0.62539385  0.12421920  0.02032552  1
  O2-  O145  1  0.62622048  0.12511539  0.50768034  1
  O2-  O146  1  0.62336438  0.37651672  -0.00441908  1
  O2-  O147  1  0.62627733  0.37607301  0.49653067  1
  O2-  O148  1  0.62288726  0.62555116  -0.00441748  1
  O2-  O149  1  0.62569122  0.62585207  0.51393102  1
  O2-  O150  1  0.62322494  0.87380896  -0.00421412  1
  O2-  O151  1  0.62594944  0.87386710  0.50632347  1
  O2-  O152  1  0.87415255  0.12399464  -0.00481491  1
  O2-  O153  1  0.87628190  0.12536054  0.50795018  1
  O2-  O154  1  0.87481310  0.37215861  0.01763155  1
  O2-  O155  1  0.87561124  0.37678907  0.50845132  1
  O2-  O156  1  0.87237157  0.62463817  -0.00210406  1
  O2-  O157  1  0.87758675  0.62486737  0.49431493  1
  O2-  O158  1  0.87341544  0.87588931  0.00686909  1
  O2-  O159  1  0.87743981  0.87171712  0.49656145  1
  O2-  O160  1  0.12507636  0.00103655  0.17212587  1
  O2-  O161  1  0.12446027  -0.00042823  0.65982201  1
  O2-  O162  1  0.12514259  0.25037247  0.17429048  1
  O2-  O163  1  0.12409027  0.24795839  0.66319727  1
  O2-  O164  1  0.12578200  0.50030275  0.16051799  1
  O2-  O165  1  0.12507326  0.49987512  0.66681772  1
  O2-  O166  1  0.12569532  0.74926404  0.16264009  1
  O2-  O167  1  0.12467143  0.75170177  0.66216517  1
  O2-  O168  1  0.37519350  -0.00022267  0.16757533  1
  O2-  O169  1  0.37475590  -0.00258575  0.66526683  1
  O2-  O170  1  0.37553310  0.25086934  0.16848932  1
  O2-  O171  1  0.37463932  0.24990040  0.66472128  1
  O2-  O172  1  0.37453362  0.49961558  0.16427234  1
  O2-  O173  1  0.37456063  0.50314359  0.66199880  1
  O2-  O174  1  0.37462589  0.75061588  0.16727905  1
  O2-  O175  1  0.37391044  0.74854902  0.66101989  1
  O2-  O176  1  0.62514636  0.00110280  0.17106784  1
  O2-  O177  1  0.62493737  -0.00383830  0.66274189  1
  O2-  O178  1  0.62504524  0.24947058  0.16866233  1
  O2-  O179  1  0.62502631  0.25210553  0.66454123  1
  O2-  O180  1  0.62465452  0.49929253  0.16387072  1
  O2-  O181  1  0.62496542  0.50017025  0.66250228  1
  O2-  O182  1  0.62423476  0.75105593  0.16613862  1
  O2-  O183  1  0.62578060  0.75064105  0.66205884  1
  O2-  O184  1  0.87473648  0.00219127  0.16856650  1
  O2-  O185  1  0.87553597  0.00184605  0.66106364  1
  O2-  O186  1  0.87488396  0.25078993  0.17212727  1
  O2-  O187  1  0.87619746  0.24705170  0.66417219  1
  O2-  O188  1  0.87482017  0.49852942  0.16398348  1
  O2-  O189  1  0.87535976  0.50053686  0.66587669  1
  O2-  O190  1  0.87507837  0.74870482  0.16244223  1
  O2-  O191  1  0.87572109  0.74964921  0.66391256  1
  O2-  O192  1  0.00003282  0.12494923  0.16948088  1
  O2-  O193  1  0.00057286  0.12376112  0.66191158  1
  O2-  O194  1  0.00041852  0.37454510  0.16754315  1
  O2-  O195  1  0.00145339  0.37536944  0.66749453  1
  O2-  O196  1  0.00245624  0.62529003  0.15914564  1
  O2-  O197  1  -0.00047942  0.62496379  0.66791841  1
  O2-  O198  1  0.00079290  0.87627081  0.16399856  1
  O2-  O199  1  0.00151355  0.87491114  0.66347185  1
  O2-  O200  1  0.24926509  0.12463181  0.16902196  1
  O2-  O201  1  0.24693336  0.12455060  0.66421684  1
  O2-  O202  1  0.24997462  0.37514983  0.16597125  1
  O2-  O203  1  0.24875225  0.37502919  0.66561311  1
  O2-  O204  1  0.24803936  0.62575390  0.16501530  1
  O2-  O205  1  0.25137608  0.62530591  0.66216404  1
  O2-  O206  1  0.25112873  0.87541807  0.16750129  1
  O2-  O207  1  0.24904704  0.87396353  0.66182258  1
  O2-  O208  1  0.50107777  0.12494646  0.16854850  1
  O2-  O209  1  0.49981268  0.12481821  0.66292397  1
  O2-  O210  1  0.49987135  0.37525153  0.16611078  1
  O2-  O211  1  0.50188046  0.37558155  0.66060035  1
  O2-  O212  1  0.49944519  0.62534805  0.16893296  1
  O2-  O213  1  0.49926224  0.62587522  0.66029548  1
  O2-  O214  1  0.49986473  0.87508918  0.16885746  1
  O2-  O215  1  0.50090320  0.87264367  0.66027709  1
  O2-  O216  1  0.74999165  0.12516131  0.16916344  1
  O2-  O217  1  0.75271573  0.12491872  0.66172871  1
  O2-  O218  1  0.74998473  0.37462166  0.16642044  1
  O2-  O219  1  0.74784333  0.37466057  0.66343556  1
  O2-  O220  1  0.74944275  0.62525080  0.16442925  1
  O2-  O221  1  0.74950142  0.62519323  0.66339398  1
  O2-  O222  1  0.74831027  0.87565925  0.16739371  1
  O2-  O223  1  0.74881079  0.87449454  0.66014186  1
  O2-  O224  1  0.12341812  -0.00041918  0.35688979  1
  O2-  O225  1  0.12519411  -0.00091348  0.84286136  1
  O2-  O226  1  0.12341411  0.24917792  0.35436825  1
  O2-  O227  1  0.12483345  0.24922130  0.84842468  1
  O2-  O228  1  0.12506504  0.50093525  0.34082413  1
  O2-  O229  1  0.12545733  0.50226107  0.85170829  1
  O2-  O230  1  0.12537790  0.75100717  0.34699017  1
  O2-  O231  1  0.12577032  0.74878301  0.84470507  1
  O2-  O232  1  0.37445078  -0.00061787  0.35127845  1
  O2-  O233  1  0.37542440  -0.00149743  0.84645144  1
  O2-  O234  1  0.37424274  0.25054195  0.35097985  1
  O2-  O235  1  0.37477065  0.25157515  0.84723895  1
  O2-  O236  1  0.37443216  0.50284323  0.34776866  1
  O2-  O237  1  0.37460389  0.50048522  0.84250745  1
  O2-  O238  1  0.37407930  0.74785602  0.35160331  1
  O2-  O239  1  0.37489729  0.74946345  0.83962251  1
  O2-  O240  1  0.62567397  -0.00243814  0.35354614  1
  O2-  O241  1  0.62474759  0.00019742  0.84580495  1
  O2-  O242  1  0.62592239  0.25129584  0.34916451  1
  O2-  O243  1  0.62561741  0.25002266  0.84808496  1
  O2-  O244  1  0.62498544  0.49978552  0.34686143  1
  O2-  O245  1  0.62446585  0.50023205  0.84232135  1
  O2-  O246  1  0.62520490  0.75191261  0.35030296  1
  O2-  O247  1  0.62428148  0.74929319  0.84115584  1
  O2-  O248  1  0.87636846  0.00024894  0.35191973  1
  O2-  O249  1  0.87457980  0.00123334  0.84355790  1
  O2-  O250  1  0.87617691  0.24790629  0.35403628  1
  O2-  O251  1  0.87526061  0.24988046  0.84683694  1
  O2-  O252  1  0.87540625  0.50202228  0.34436534  1
  O2-  O253  1  0.87567014  0.50018304  0.84820258  1
  O2-  O254  1  0.87531019  0.75039305  0.34286889  1
  O2-  O255  1  0.87502381  0.74776543  0.84633554  1
  O2-  O256  1  -0.00006203  0.12433383  0.35210511  1
  O2-  O257  1  -0.00069666  0.12484752  0.84526925  1
  O2-  O258  1  0.00181081  0.37573633  0.34616055  1
  O2-  O259  1  0.00021590  0.37472643  0.85166491  1
  O2-  O260  1  0.00031567  0.62616760  0.33927079  1
  O2-  O261  1  0.00146458  0.62521567  0.85223061  1
  O2-  O262  1  0.00083565  0.87471174  0.34589001  1
  O2-  O263  1  0.00220269  0.87474931  0.84701921  1
  O2-  O264  1  0.24599381  0.12447221  0.35135501  1
  O2-  O265  1  0.24867171  0.12488354  0.84785267  1
  O2-  O266  1  0.24773897  0.37540679  0.34715947  1
  O2-  O267  1  0.25143277  0.37517004  0.84810754  1
  O2-  O268  1  0.24991543  0.62583442  0.34852744  1
  O2-  O269  1  0.24948901  0.62522155  0.84604492  1
  O2-  O270  1  0.24745041  0.87499619  0.35211488  1
  O2-  O271  1  0.25092857  0.87473006  0.84194015  1
  O2-  O272  1  0.50008526  0.12491632  0.35094254  1
  O2-  O273  1  0.50192046  0.12504339  0.84598526  1
  O2-  O274  1  0.50116859  0.37590000  0.34938119  1
  O2-  O275  1  0.50014084  0.37486673  0.84039396  1
  O2-  O276  1  0.49831546  0.62563750  0.35362781  1
  O2-  O277  1  0.49972521  0.62498613  0.83938244  1
  O2-  O278  1  0.50161226  0.87442506  0.35315083  1
  O2-  O279  1  0.50002922  0.87478047  0.83961089  1
  O2-  O280  1  0.75381823  0.12422378  0.35183847  1
  O2-  O281  1  0.74988697  0.12502981  0.84450971  1
  O2-  O282  1  0.74914290  0.37578444  0.34799736  1
  O2-  O283  1  0.74859332  0.37457834  0.84556691  1
  O2-  O284  1  0.75125130  0.62589031  0.34746897  1
  O2-  O285  1  0.74896917  0.62466669  0.84393208  1
  O2-  O286  1  0.75029949  0.87502172  0.34978119  1
  O2-  O287  1  0.74684112  0.87514065  0.84288870  1
