# generated using pymatgen
data_BaYFeCuO5
_symmetry_space_group_name_H-M   'P 1'
_cell_length_a   15.67879410
_cell_length_b   15.68069348
_cell_length_c   15.51147230
_cell_angle_alpha   90.00736328
_cell_angle_beta   90.00165561
_cell_angle_gamma   90.00835783
_symmetry_Int_Tables_number   1
_chemical_formula_structural   BaYFeCuO5
_chemical_formula_sum   'Ba32 Y32 Fe32 Cu32 O160'
_cell_volume   3813.56308978
_cell_formula_units_Z   32
loop_
 _symmetry_equiv_pos_site_id
 _symmetry_equiv_pos_as_xyz
  1  'x, y, z'
loop_
 _atom_type_symbol
 _atom_type_oxidation_number
  Ba2+  2.0
  Y3+  3.0
  Fe3+  3.0
  Cu2+  2.0
  O2-  -2.0
loop_
 _atom_site_type_symbol
 _atom_site_label
 _atom_site_symmetry_multiplicity
 _atom_site_fract_x
 _atom_site_fract_y
 _atom_site_fract_z
 _atom_site_occupancy
  Ba2+  Ba0  1  0.00199132  0.00531110  0.00737430  1
  Ba2+  Ba1  1  -0.00713609  0.00310810  0.50616440  1
  Ba2+  Ba2  1  -0.00603488  0.24425263  0.01501056  1
  Ba2+  Ba3  1  -0.00211662  0.25135485  0.51921386  1
  Ba2+  Ba4  1  -0.00369010  0.50807361  0.01104421  1
  Ba2+  Ba5  1  0.00450600  0.49451855  0.52547124  1
  Ba2+  Ba6  1  0.00460723  0.74328902  0.00206481  1
  Ba2+  Ba7  1  -0.00199298  0.75196370  0.51209157  1
  Ba2+  Ba8  1  0.25193383  -0.00075894  0.02041688  1
  Ba2+  Ba9  1  0.25219101  -0.00252994  0.50229708  1
  Ba2+  Ba10  1  0.25531652  0.24498880  0.02245666  1
  Ba2+  Ba11  1  0.24459815  0.25476880  0.49959656  1
  Ba2+  Ba12  1  0.25266007  0.50704462  0.01646688  1
  Ba2+  Ba13  1  0.24818251  0.50010946  0.51839794  1
  Ba2+  Ba14  1  0.24959551  0.74912675  0.01277631  1
  Ba2+  Ba15  1  0.25477134  0.74643753  0.51691599  1
  Ba2+  Ba16  1  0.49875868  0.00039157  0.02088746  1
  Ba2+  Ba17  1  0.50538539  -0.00264341  0.51150573  1
  Ba2+  Ba18  1  0.49999563  0.24844242  0.01899648  1
  Ba2+  Ba19  1  0.50822960  0.25021190  0.50660834  1
  Ba2+  Ba20  1  0.50052785  0.50046481  0.00626313  1
  Ba2+  Ba21  1  0.49541036  0.49565496  0.51023115  1
  Ba2+  Ba22  1  0.49897015  0.75177146  0.00611098  1
  Ba2+  Ba23  1  0.49421750  0.75513239  0.51453179  1
  Ba2+  Ba24  1  0.74717947  0.00616609  0.00700417  1
  Ba2+  Ba25  1  0.75055269  0.00209957  0.51743660  1
  Ba2+  Ba26  1  0.75105991  0.24728404  0.01122291  1
  Ba2+  Ba27  1  0.75010692  0.24741123  0.52208796  1
  Ba2+  Ba28  1  0.75073960  0.50211985  0.00118446  1
  Ba2+  Ba29  1  0.75136038  0.48990698  0.51886924  1
  Ba2+  Ba30  1  0.74635578  0.74492888  -0.00483650  1
  Ba2+  Ba31  1  0.75250699  0.76051654  0.51202955  1
  Y3+  Y32  1  -0.00156613  0.00110319  0.25771404  1
  Y3+  Y33  1  -0.00261773  -0.00038822  0.75835694  1
  Y3+  Y34  1  -0.00146131  0.24756747  0.25302574  1
  Y3+  Y35  1  -0.00204366  0.24923523  0.75980238  1
  Y3+  Y36  1  -0.00163715  0.50246403  0.24999618  1
  Y3+  Y37  1  0.00133981  0.50193334  0.76261156  1
  Y3+  Y38  1  -0.00125763  0.74892562  0.25633632  1
  Y3+  Y39  1  0.00069046  0.74913893  0.76032260  1
  Y3+  Y40  1  0.25072153  0.00004409  0.26095786  1
  Y3+  Y41  1  0.25002341  -0.00258668  0.75465153  1
  Y3+  Y42  1  0.25045379  0.24972688  0.25757515  1
  Y3+  Y43  1  0.24947881  0.25046513  0.75576635  1
  Y3+  Y44  1  0.25106538  0.50067785  0.25407100  1
  Y3+  Y45  1  0.24846717  0.50221544  0.75801946  1
  Y3+  Y46  1  0.25138764  0.74980259  0.25741726  1
  Y3+  Y47  1  0.24901033  0.74947600  0.75692524  1
  Y3+  Y48  1  0.49995985  0.00063771  0.26249421  1
  Y3+  Y49  1  0.50245539  -0.00165630  0.75239693  1
  Y3+  Y50  1  0.50017238  0.24913739  0.25942898  1
  Y3+  Y51  1  0.50344731  0.24991851  0.75482058  1
  Y3+  Y52  1  0.49789237  0.49894930  0.25653235  1
  Y3+  Y53  1  0.50131462  0.49929033  0.75712558  1
  Y3+  Y54  1  0.49747264  0.75135098  0.25924149  1
  Y3+  Y55  1  0.49977135  0.75239134  0.75437592  1
  Y3+  Y56  1  0.75061584  0.00154960  0.25906319  1
  Y3+  Y57  1  0.75013296  0.00059431  0.75633213  1
  Y3+  Y58  1  0.75065632  0.24738248  0.25439883  1
  Y3+  Y59  1  0.74926617  0.24849809  0.75860772  1
  Y3+  Y60  1  0.75299404  0.50012125  0.25340117  1
  Y3+  Y61  1  0.74889249  0.49923403  0.76076147  1
  Y3+  Y62  1  0.75271226  0.75052114  0.25919543  1
  Y3+  Y63  1  0.75002359  0.75192721  0.75775656  1
  Fe3+  Fe64  1  0.62695091  0.37530988  0.37604719  1
  Fe3+  Fe65  1  0.12694840  0.12446412  0.87712393  1
  Fe3+  Fe66  1  0.87610261  0.37520331  0.37436276  1
  Fe3+  Fe67  1  0.37440534  0.62386995  0.37702581  1
  Fe3+  Fe68  1  0.12400059  0.62356431  0.37717911  1
  Fe3+  Fe69  1  0.12262840  0.37645961  0.37218867  1
  Fe3+  Fe70  1  0.62298447  0.12453493  0.87553471  1
  Fe3+  Fe71  1  0.12402804  0.87432874  0.38011790  1
  Fe3+  Fe72  1  0.87543281  0.62337392  0.38187617  1
  Fe3+  Fe73  1  0.87488892  0.37419952  0.87769376  1
  Fe3+  Fe74  1  0.62598496  0.87497852  0.37812476  1
  Fe3+  Fe75  1  0.87499560  0.87564116  0.87990146  1
  Fe3+  Fe76  1  0.37498046  0.87679751  0.87484394  1
  Fe3+  Fe77  1  0.37545072  0.12612798  0.37946494  1
  Fe3+  Fe78  1  0.37551587  0.12427708  0.87421252  1
  Fe3+  Fe79  1  0.37526509  0.37354115  0.87788718  1
  Fe3+  Fe80  1  0.62590979  0.62420019  0.38212963  1
  Fe3+  Fe81  1  0.37554494  0.62570174  0.87457325  1
  Fe3+  Fe82  1  0.87449521  0.12657948  0.37592134  1
  Fe3+  Fe83  1  0.12639584  0.37442379  0.88135814  1
  Fe3+  Fe84  1  0.62547453  0.37520931  0.13690135  1
  Fe3+  Fe85  1  0.62465555  0.62626379  0.13965486  1
  Fe3+  Fe86  1  0.87428183  0.87459423  0.13417376  1
  Fe3+  Fe87  1  0.12388929  0.87505546  0.63554070  1
  Fe3+  Fe88  1  0.12490621  0.12495041  0.63581730  1
  Fe3+  Fe89  1  0.12453442  0.37483097  0.13309847  1
  Fe3+  Fe90  1  0.37459831  0.37382573  0.63686119  1
  Fe3+  Fe91  1  0.62544666  0.87476132  0.13858704  1
  Fe3+  Fe92  1  0.12442961  0.87499838  0.13936657  1
  Fe3+  Fe93  1  0.37486953  0.12552496  0.63254580  1
  Fe3+  Fe94  1  0.62489864  0.62494705  0.63460171  1
  Fe3+  Fe95  1  0.87497199  0.62462487  0.63693021  1
  Cu2+  Cu96  1  0.12374811  0.12585133  0.36451011  1
  Cu2+  Cu97  1  0.12696183  0.62514439  0.87276640  1
  Cu2+  Cu98  1  0.62401752  0.37390268  0.86568153  1
  Cu2+  Cu99  1  0.87451615  0.62529282  0.87115943  1
  Cu2+  Cu100  1  0.37465547  0.87408661  0.37471196  1
  Cu2+  Cu101  1  0.62327571  0.62559905  0.85840825  1
  Cu2+  Cu102  1  0.62403820  0.87617748  0.86298366  1
  Cu2+  Cu103  1  0.87453114  0.12474993  0.87252045  1
  Cu2+  Cu104  1  0.62683026  0.12570724  0.37377492  1
  Cu2+  Cu105  1  0.37434216  0.37569296  0.36325295  1
  Cu2+  Cu106  1  0.12579579  0.87578839  0.86360721  1
  Cu2+  Cu107  1  0.87535564  0.87525581  0.37331477  1
  Cu2+  Cu108  1  0.62503290  0.37550484  0.65302997  1
  Cu2+  Cu109  1  0.62442898  0.12416267  0.15377861  1
  Cu2+  Cu110  1  0.37555976  0.37502766  0.15061505  1
  Cu2+  Cu111  1  0.62606840  0.87432523  0.65074715  1
  Cu2+  Cu112  1  0.37669510  0.62601301  0.15174276  1
  Cu2+  Cu113  1  0.87622884  0.87509588  0.64371692  1
  Cu2+  Cu114  1  0.87437785  0.37489494  0.14405462  1
  Cu2+  Cu115  1  0.37550051  0.12414811  0.15818628  1
  Cu2+  Cu116  1  0.37543147  0.62420368  0.65149496  1
  Cu2+  Cu117  1  0.87562079  0.12525253  0.65486557  1
  Cu2+  Cu118  1  0.87401093  0.12255797  0.14102189  1
  Cu2+  Cu119  1  0.87319422  0.62760834  0.14048733  1
  Cu2+  Cu120  1  0.12536742  0.12404593  0.15327420  1
  Cu2+  Cu121  1  0.37403264  0.87564324  0.64012217  1
  Cu2+  Cu122  1  0.12529559  0.62651467  0.14195511  1
  Cu2+  Cu123  1  0.12440133  0.62531219  0.65163561  1
  Cu2+  Cu124  1  0.62533277  0.12483632  0.64098189  1
  Cu2+  Cu125  1  0.87524870  0.37542708  0.65734164  1
  Cu2+  Cu126  1  0.12501920  0.37439718  0.65720611  1
  Cu2+  Cu127  1  0.37537776  0.87512849  0.15557387  1
  O2-  O128  1  0.12943156  0.12399334  -0.00280242  1
  O2-  O129  1  0.12326220  0.12727353  0.51612453  1
  O2-  O130  1  0.12715571  0.37369445  0.00603479  1
  O2-  O131  1  0.12228383  0.37631000  0.49238615  1
  O2-  O132  1  0.12761326  0.62612677  0.00670261  1
  O2-  O133  1  0.12340414  0.62119519  0.49687617  1
  O2-  O134  1  0.12616594  0.87604546  0.01940655  1
  O2-  O135  1  0.12371605  0.87438776  0.50779795  1
  O2-  O136  1  0.37578030  0.12309310  -0.00581308  1
  O2-  O137  1  0.37426711  0.12765511  0.50642328  1
  O2-  O138  1  0.37564875  0.37274979  -0.00243431  1
  O2-  O139  1  0.37298978  0.37466411  0.51672873  1
  O2-  O140  1  0.37692660  0.62670657  -0.00515261  1
  O2-  O141  1  0.37349150  0.62207144  0.49710999  1
  O2-  O142  1  0.37530577  0.87752662  -0.00519499  1
  O2-  O143  1  0.37332050  0.87416798  0.50677311  1
  O2-  O144  1  0.62055747  0.12419959  -0.00421393  1
  O2-  O145  1  0.62700719  0.12619570  0.50722455  1
  O2-  O146  1  0.62322898  0.37535417  0.01672951  1
  O2-  O147  1  0.62750432  0.37555901  0.49640061  1
  O2-  O148  1  0.62328793  0.62639873  0.01953594  1
  O2-  O149  1  0.62587452  0.62330506  0.50759686  1
  O2-  O150  1  0.62394582  0.87439848  0.01874101  1
  O2-  O151  1  0.62637613  0.87473600  0.49871764  1
  O2-  O152  1  0.87430041  0.12333219  0.00665387  1
  O2-  O153  1  0.87516963  0.12820152  0.49626192  1
  O2-  O154  1  0.87415400  0.37458079  -0.00209644  1
  O2-  O155  1  0.87749654  0.37538062  0.49408594  1
  O2-  O156  1  0.87263445  0.62701489  0.00610606  1
  O2-  O157  1  0.87654368  0.62201143  0.50806855  1
  O2-  O158  1  0.87455827  0.87446461  0.00779598  1
  O2-  O159  1  0.87624337  0.87541794  0.50846127  1
  O2-  O160  1  0.12592793  -0.00075364  0.17068759  1
  O2-  O161  1  0.12475036  -0.00044870  0.66311713  1
  O2-  O162  1  0.12542153  0.25049084  0.16085880  1
  O2-  O163  1  0.12418578  0.24929746  0.66670039  1
  O2-  O164  1  0.12494379  0.49784225  0.15903611  1
  O2-  O165  1  0.12506629  0.49964635  0.66650975  1
  O2-  O166  1  0.12557061  0.75224328  0.17028915  1
  O2-  O167  1  0.12414024  0.75091860  0.66247246  1
  O2-  O168  1  0.37486223  0.00000273  0.16907391  1
  O2-  O169  1  0.37378288  0.00331309  0.65938905  1
  O2-  O170  1  0.37497809  0.24885603  0.16534280  1
  O2-  O171  1  0.37476594  0.24881356  0.66479216  1
  O2-  O172  1  0.37602113  0.50093246  0.16170620  1
  O2-  O173  1  0.37463080  0.49897874  0.66628073  1
  O2-  O174  1  0.37542649  0.75051335  0.16538839  1
  O2-  O175  1  0.37498622  0.74844374  0.66292382  1
  O2-  O176  1  0.62394364  -0.00048476  0.16742291  1
  O2-  O177  1  0.62626919  -0.00169904  0.66266706  1
  O2-  O178  1  0.62443268  0.24935059  0.16396147  1
  O2-  O179  1  0.62550527  0.25167395  0.66424411  1
  O2-  O180  1  0.62447886  0.50016473  0.16787384  1
  O2-  O181  1  0.62548806  0.50163006  0.66447417  1
  O2-  O182  1  0.62431502  0.75121349  0.17242890  1
  O2-  O183  1  0.62568323  0.74791750  0.66261123  1
  O2-  O184  1  0.87473667  -0.00385033  0.16540742  1
  O2-  O185  1  0.87545139  0.00119303  0.66595733  1
  O2-  O186  1  0.87465395  0.24965413  0.16093835  1
  O2-  O187  1  0.87590733  0.25090842  0.66490333  1
  O2-  O188  1  0.87448920  0.49994579  0.16222943  1
  O2-  O189  1  0.87471135  0.50138551  0.66462791  1
  O2-  O190  1  0.87460350  0.75418564  0.16961886  1
  O2-  O191  1  0.87529569  0.74642324  0.66407316  1
  O2-  O192  1  0.00094937  0.12325035  0.16249021  1
  O2-  O193  1  0.00047781  0.12511164  0.66777570  1
  O2-  O194  1  0.00105062  0.37472257  0.15714610  1
  O2-  O195  1  0.00041810  0.37567557  0.66789097  1
  O2-  O196  1  -0.00040707  0.62673129  0.16322450  1
  O2-  O197  1  -0.00170656  0.62403044  0.66583672  1
  O2-  O198  1  -0.00137708  0.87541561  0.16612392  1
  O2-  O199  1  0.00310163  0.87467580  0.66808525  1
  O2-  O200  1  0.25089893  0.12432680  0.16751854  1
  O2-  O201  1  0.25055757  0.12598965  0.66220743  1
  O2-  O202  1  0.24895046  0.37468785  0.16232182  1
  O2-  O203  1  0.25014286  0.37494994  0.66612151  1
  O2-  O204  1  0.25241969  0.62564200  0.16308174  1
  O2-  O205  1  0.24955478  0.62448545  0.66257839  1
  O2-  O206  1  0.25073801  0.87573095  0.16783346  1
  O2-  O207  1  0.24629176  0.87441102  0.66245655  1
  O2-  O208  1  0.49951168  0.12464657  0.16854225  1
  O2-  O209  1  0.49740223  0.12516715  0.65930397  1
  O2-  O210  1  0.50065292  0.37433502  0.16791809  1
  O2-  O211  1  0.49941486  0.37530279  0.66369189  1
  O2-  O212  1  0.50095052  0.62566743  0.17025839  1
  O2-  O213  1  0.50210473  0.62442274  0.66012324  1
  O2-  O214  1  0.49982217  0.87547473  0.16750248  1
  O2-  O215  1  0.50123591  0.87487635  0.66156685  1
  O2-  O216  1  0.74829742  0.12361786  0.16321559  1
  O2-  O217  1  0.75201490  0.12521036  0.66612237  1
  O2-  O218  1  0.74945690  0.37517495  0.16414890  1
  O2-  O219  1  0.75007905  0.37553969  0.66503634  1
  O2-  O220  1  0.74737522  0.62623066  0.17141769  1
  O2-  O221  1  0.74989520  0.62443403  0.66199115  1
  O2-  O222  1  0.75060358  0.87515704  0.16598215  1
  O2-  O223  1  0.74980322  0.87429274  0.66786753  1
  O2-  O224  1  0.12463415  -0.00111731  0.35460085  1
  O2-  O225  1  0.12533946  0.00066335  0.84456364  1
  O2-  O226  1  0.12480045  0.25146528  0.34413925  1
  O2-  O227  1  0.12614327  0.25080358  0.84783814  1
  O2-  O228  1  0.12436022  0.50067394  0.33907337  1
  O2-  O229  1  0.12572549  0.49666285  0.85036949  1
  O2-  O230  1  0.12388764  0.74943438  0.35110738  1
  O2-  O231  1  0.12529783  0.75187810  0.84712916  1
  O2-  O232  1  0.37429507  0.00303257  0.35307716  1
  O2-  O233  1  0.37490854  0.00018932  0.83971123  1
  O2-  O234  1  0.37426883  0.24912093  0.34995355  1
  O2-  O235  1  0.37469612  0.24952084  0.84365382  1
  O2-  O236  1  0.37466729  0.50094456  0.34430511  1
  O2-  O237  1  0.37573598  0.49924301  0.84748108  1
  O2-  O238  1  0.37473412  0.74704947  0.34782955  1
  O2-  O239  1  0.37561992  0.75124532  0.84463704  1
  O2-  O240  1  0.62541598  -0.00145567  0.34922002  1
  O2-  O241  1  0.62438370  0.00090872  0.84472763  1
  O2-  O242  1  0.62515540  0.25268706  0.34564524  1
  O2-  O243  1  0.62426560  0.24847661  0.84639320  1
  O2-  O244  1  0.62582867  0.50140256  0.34797660  1
  O2-  O245  1  0.62399452  0.50026631  0.84943905  1
  O2-  O246  1  0.62593243  0.74756582  0.35204310  1
  O2-  O247  1  0.62463556  0.75060651  0.84742147  1
  O2-  O248  1  0.87577447  0.00196157  0.34777733  1
  O2-  O249  1  0.87520236  -0.00305829  0.84941754  1
  O2-  O250  1  0.87574656  0.25073944  0.34185685  1
  O2-  O251  1  0.87474997  0.25142428  0.84730879  1
  O2-  O252  1  0.87519260  0.50158038  0.34443956  1
  O2-  O253  1  0.87467834  0.49811806  0.84745329  1
  O2-  O254  1  0.87544189  0.74604401  0.35303841  1
  O2-  O255  1  0.87445877  0.75332484  0.84805900  1
  O2-  O256  1  -0.00103437  0.12534426  0.34500832  1
  O2-  O257  1  0.00230016  0.12481524  0.84986390  1
  O2-  O258  1  -0.00092385  0.37581277  0.33736531  1
  O2-  O259  1  0.00196286  0.37455130  0.85114628  1
  O2-  O260  1  -0.00154191  0.62461503  0.34576619  1
  O2-  O261  1  0.00071041  0.62559552  0.84983298  1
  O2-  O262  1  0.00280685  0.87474166  0.34919998  1
  O2-  O263  1  -0.00084857  0.87488195  0.85267251  1
  O2-  O264  1  0.25077182  0.12619413  0.35251090  1
  O2-  O265  1  0.25063649  0.12460609  0.84106320  1
  O2-  O266  1  0.24878229  0.37515506  0.34583806  1
  O2-  O267  1  0.24957505  0.37454077  0.84711982  1
  O2-  O268  1  0.24912161  0.62433303  0.34504404  1
  O2-  O269  1  0.25282147  0.62536645  0.84492779  1
  O2-  O270  1  0.24605404  0.87481381  0.35092729  1
  O2-  O271  1  0.25080903  0.87526988  0.84433367  1
  O2-  O272  1  0.49802108  0.12602998  0.35261927  1
  O2-  O273  1  0.49930567  0.12476826  0.83967519  1
  O2-  O274  1  0.50057304  0.37611816  0.35055061  1
  O2-  O275  1  0.49916960  0.37471966  0.84561479  1
  O2-  O276  1  0.50154556  0.62387211  0.35184853  1
  O2-  O277  1  0.49888409  0.62542125  0.84308950  1
  O2-  O278  1  0.50218053  0.87420868  0.34931622  1
  O2-  O279  1  0.49938017  0.87524960  0.84427239  1
  O2-  O280  1  0.75224255  0.12568655  0.34472419  1
  O2-  O281  1  0.74763172  0.12445499  0.84901921  1
  O2-  O282  1  0.75147406  0.37619932  0.34339554  1
  O2-  O283  1  0.74946329  0.37537795  0.84923159  1
  O2-  O284  1  0.75080442  0.62448301  0.35377912  1
  O2-  O285  1  0.74740998  0.62535156  0.84697552  1
  O2-  O286  1  0.74895203  0.87392077  0.34691745  1
  O2-  O287  1  0.75050269  0.87471935  0.85269373  1
