# generated using pymatgen
data_BaYFeCuO5
_symmetry_space_group_name_H-M   'P 1'
_cell_length_a   15.66380805
_cell_length_b   15.66283636
_cell_length_c   15.47337756
_cell_angle_alpha   89.99452283
_cell_angle_beta   89.99948685
_cell_angle_gamma   89.99813581
_symmetry_Int_Tables_number   1
_chemical_formula_structural   BaYFeCuO5
_chemical_formula_sum   'Ba32 Y32 Fe32 Cu32 O160'
_cell_volume   3796.23320553
_cell_formula_units_Z   32
loop_
 _symmetry_equiv_pos_site_id
 _symmetry_equiv_pos_as_xyz
  1  'x, y, z'
loop_
 _atom_type_symbol
 _atom_type_oxidation_number
  Ba2+  2.0
  Y3+  3.0
  Fe3+  3.0
  Cu2+  2.0
  O2-  -2.0
loop_
 _atom_site_type_symbol
 _atom_site_label
 _atom_site_symmetry_multiplicity
 _atom_site_fract_x
 _atom_site_fract_y
 _atom_site_fract_z
 _atom_site_occupancy
  Ba2+  Ba0  1  0.00166541  -0.00811074  0.00534569  1
  Ba2+  Ba1  1  0.00474060  -0.00276735  0.52295609  1
  Ba2+  Ba2  1  0.00048047  0.25039406  0.01532436  1
  Ba2+  Ba3  1  0.00280531  0.25543450  0.51621425  1
  Ba2+  Ba4  1  0.00023989  0.50797355  0.01664583  1
  Ba2+  Ba5  1  0.00180349  0.49417075  0.51650552  1
  Ba2+  Ba6  1  0.00124048  0.74927764  0.00669742  1
  Ba2+  Ba7  1  0.00302729  0.75393227  0.52254377  1
  Ba2+  Ba8  1  0.25370500  -0.00270514  0.01189527  1
  Ba2+  Ba9  1  0.24551368  0.00626610  0.52196999  1
  Ba2+  Ba10  1  0.25650482  0.24847404  0.01515529  1
  Ba2+  Ba11  1  0.25206469  0.25131102  0.52101554  1
  Ba2+  Ba12  1  0.25277617  0.50518812  0.00136486  1
  Ba2+  Ba13  1  0.24872986  0.49262882  0.51715266  1
  Ba2+  Ba14  1  0.24969480  0.74992853  -0.00349417  1
  Ba2+  Ba15  1  0.24109257  0.74957831  0.51778870  1
  Ba2+  Ba16  1  0.49747624  -0.00168987  0.01353098  1
  Ba2+  Ba17  1  0.50283615  0.00676301  0.51325110  1
  Ba2+  Ba18  1  0.49435972  0.24693992  0.01772522  1
  Ba2+  Ba19  1  0.49926295  0.25405022  0.51580367  1
  Ba2+  Ba20  1  0.48972369  0.49829655  0.00169653  1
  Ba2+  Ba21  1  0.50486434  0.49279726  0.50651325  1
  Ba2+  Ba22  1  0.49401079  0.75628786  -0.00266423  1
  Ba2+  Ba23  1  0.50884841  0.74720994  0.50285120  1
  Ba2+  Ba24  1  0.74753066  -0.00706143  0.00570089  1
  Ba2+  Ba25  1  0.74674102  -0.00356467  0.51133350  1
  Ba2+  Ba26  1  0.74828592  0.24886003  0.01715019  1
  Ba2+  Ba27  1  0.74590519  0.25781474  0.51020913  1
  Ba2+  Ba28  1  0.75822114  0.50074130  0.01974254  1
  Ba2+  Ba29  1  0.74409535  0.49434639  0.50640150  1
  Ba2+  Ba30  1  0.75675393  0.75569132  0.00759928  1
  Ba2+  Ba31  1  0.74466823  0.74971532  0.50629735  1
  Y3+  Y32  1  0.00023447  -0.00033029  0.25219036  1
  Y3+  Y33  1  -0.00039830  -0.00282884  0.75931922  1
  Y3+  Y34  1  -0.00067448  0.25098209  0.25580742  1
  Y3+  Y35  1  -0.00018980  0.25151396  0.75471451  1
  Y3+  Y36  1  -0.00148439  0.50054751  0.25563636  1
  Y3+  Y37  1  0.00160606  0.50048973  0.75645342  1
  Y3+  Y38  1  -0.00099694  0.74876883  0.25253853  1
  Y3+  Y39  1  0.00152459  0.75092676  0.76075095  1
  Y3+  Y40  1  0.25162674  0.00051303  0.25287349  1
  Y3+  Y41  1  0.24933215  -0.00051745  0.75930176  1
  Y3+  Y42  1  0.25260706  0.25052210  0.25426471  1
  Y3+  Y43  1  0.25240923  0.25186999  0.75678213  1
  Y3+  Y44  1  0.25159900  0.49920476  0.25533268  1
  Y3+  Y45  1  0.25120649  0.49955086  0.75961616  1
  Y3+  Y46  1  0.25012205  0.74960027  0.25536822  1
  Y3+  Y47  1  0.24849401  0.74946735  0.76102927  1
  Y3+  Y48  1  0.49944194  0.00018163  0.25619737  1
  Y3+  Y49  1  0.49985566  -0.00013260  0.75910334  1
  Y3+  Y50  1  0.49837669  0.25183206  0.25850750  1
  Y3+  Y51  1  0.49890407  0.25181081  0.75485436  1
  Y3+  Y52  1  0.49957468  0.49797408  0.26203432  1
  Y3+  Y53  1  0.49906448  0.49840557  0.75533679  1
  Y3+  Y54  1  0.50152964  0.75016878  0.26098546  1
  Y3+  Y55  1  0.49993983  0.74988380  0.75888014  1
  Y3+  Y56  1  0.74957962  -0.00071605  0.25535094  1
  Y3+  Y57  1  0.75046239  -0.00223081  0.75878379  1
  Y3+  Y58  1  0.75056393  0.25201028  0.25939213  1
  Y3+  Y59  1  0.74820108  0.25170012  0.75304049  1
  Y3+  Y60  1  0.75035601  0.49885704  0.26287052  1
  Y3+  Y61  1  0.74788204  0.49954023  0.75214732  1
  Y3+  Y62  1  0.74998854  0.74956674  0.25915886  1
  Y3+  Y63  1  0.74986786  0.75124898  0.75748789  1
  Fe3+  Fe64  1  0.87637578  0.12469556  0.37979057  1
  Fe3+  Fe65  1  0.37540053  0.12531372  0.87490944  1
  Fe3+  Fe66  1  0.87646955  0.62490139  0.38025881  1
  Fe3+  Fe67  1  0.62562533  0.62446496  0.88100916  1
  Fe3+  Fe68  1  0.87424197  0.62398943  0.87452360  1
  Fe3+  Fe69  1  0.12588323  0.37444403  0.37358193  1
  Fe3+  Fe70  1  0.62517695  0.12528963  0.37610484  1
  Fe3+  Fe71  1  0.62482060  0.37503937  0.88066137  1
  Fe3+  Fe72  1  0.37401799  0.87569628  0.38217800  1
  Fe3+  Fe73  1  0.87451217  0.12574272  0.87816932  1
  Fe3+  Fe74  1  0.37366434  0.12535966  0.37690094  1
  Fe3+  Fe75  1  0.12503322  0.12486328  0.37484819  1
  Fe3+  Fe76  1  0.12450688  0.62491717  0.37743363  1
  Fe3+  Fe77  1  0.12494870  0.87576087  0.37553371  1
  Fe3+  Fe78  1  0.12486219  0.12591347  0.87740820  1
  Fe3+  Fe79  1  0.87679867  0.87564302  0.37744344  1
  Fe3+  Fe80  1  0.87419039  0.37535156  0.87664739  1
  Fe3+  Fe81  1  0.37372001  0.62434974  0.38261875  1
  Fe3+  Fe82  1  0.12489287  0.37488186  0.87900781  1
  Fe3+  Fe83  1  0.62477282  0.12576845  0.87752156  1
  Fe3+  Fe84  1  0.37482270  0.87505080  0.63544782  1
  Fe3+  Fe85  1  0.62434141  0.62503051  0.13538355  1
  Fe3+  Fe86  1  0.87410318  0.12481221  0.63477942  1
  Fe3+  Fe87  1  0.37532265  0.62508954  0.63620769  1
  Fe3+  Fe88  1  0.12603162  0.37606307  0.13364165  1
  Fe3+  Fe89  1  0.87439774  0.62514965  0.63482461  1
  Fe3+  Fe90  1  0.12616032  0.87378734  0.13594698  1
  Fe3+  Fe91  1  0.62431392  0.87480772  0.63992084  1
  Fe3+  Fe92  1  0.37627654  0.62609178  0.13940021  1
  Fe3+  Fe93  1  0.87462165  0.12372137  0.13404901  1
  Fe3+  Fe94  1  0.62448006  0.87381166  0.13905456  1
  Fe3+  Fe95  1  0.62416444  0.37579897  0.13594798  1
  Cu2+  Cu96  1  0.62463262  0.87499579  0.86514908  1
  Cu2+  Cu97  1  0.37468317  0.87671575  0.87095941  1
  Cu2+  Cu98  1  0.37592778  0.62500634  0.86039226  1
  Cu2+  Cu99  1  0.37344942  0.37411075  0.37327196  1
  Cu2+  Cu100  1  0.37529189  0.37345646  0.87308822  1
  Cu2+  Cu101  1  0.87688992  0.37453743  0.37332891  1
  Cu2+  Cu102  1  0.87499924  0.87452500  0.87208550  1
  Cu2+  Cu103  1  0.62501403  0.87655983  0.36393653  1
  Cu2+  Cu104  1  0.62550669  0.62412253  0.37379590  1
  Cu2+  Cu105  1  0.12521372  0.87548982  0.86454779  1
  Cu2+  Cu106  1  0.12407031  0.62398377  0.87266663  1
  Cu2+  Cu107  1  0.62433881  0.37334592  0.36917459  1
  Cu2+  Cu108  1  0.62522325  0.12515422  0.14917514  1
  Cu2+  Cu109  1  0.87491607  0.37486979  0.15088123  1
  Cu2+  Cu110  1  0.37529072  0.37566538  0.64278724  1
  Cu2+  Cu111  1  0.12552771  0.37515518  0.65597516  1
  Cu2+  Cu112  1  0.12421480  0.12588351  0.65481528  1
  Cu2+  Cu113  1  0.12576363  0.87513038  0.65661534  1
  Cu2+  Cu114  1  0.62406114  0.62540402  0.64290097  1
  Cu2+  Cu115  1  0.37575662  0.37685798  0.14132162  1
  Cu2+  Cu116  1  0.62517691  0.12452509  0.65170516  1
  Cu2+  Cu117  1  0.87469428  0.87448952  0.65115808  1
  Cu2+  Cu118  1  0.87453620  0.87460903  0.14170917  1
  Cu2+  Cu119  1  0.37527594  0.12451146  0.65145450  1
  Cu2+  Cu120  1  0.12525581  0.62425484  0.65268858  1
  Cu2+  Cu121  1  0.87350647  0.62547933  0.15309713  1
  Cu2+  Cu122  1  0.12523752  0.12496696  0.14382896  1
  Cu2+  Cu123  1  0.37573786  0.12460331  0.15155758  1
  Cu2+  Cu124  1  0.87430455  0.37568519  0.64038886  1
  Cu2+  Cu125  1  0.62407080  0.37525252  0.64474804  1
  Cu2+  Cu126  1  0.37585534  0.87268971  0.14310588  1
  Cu2+  Cu127  1  0.12638520  0.62554330  0.14044469  1
  O2-  O128  1  0.12436259  0.12617486  -0.00258074  1
  O2-  O129  1  0.12404509  0.12548161  0.49464441  1
  O2-  O130  1  0.12487365  0.37558172  0.00554163  1
  O2-  O131  1  0.12573229  0.37342402  0.49428663  1
  O2-  O132  1  0.12506093  0.62506895  0.00616835  1
  O2-  O133  1  0.12327819  0.62472393  0.49748528  1
  O2-  O134  1  0.12681601  0.87357168  0.01491031  1
  O2-  O135  1  0.12450882  0.87663330  0.49596257  1
  O2-  O136  1  0.37606796  0.12398719  -0.00440970  1
  O2-  O137  1  0.37248549  0.12427708  0.49699837  1
  O2-  O138  1  0.37522370  0.37485052  0.00715613  1
  O2-  O139  1  0.37323948  0.37435380  0.50773600  1
  O2-  O140  1  0.37661752  0.62718171  0.01864262  1
  O2-  O141  1  0.37347294  0.62470606  0.50927714  1
  O2-  O142  1  0.37502042  0.87525262  0.00765257  1
  O2-  O143  1  0.37348906  0.87648073  0.50847459  1
  O2-  O144  1  0.62494124  0.12588244  -0.00262399  1
  O2-  O145  1  0.62642719  0.12496667  0.49632483  1
  O2-  O146  1  0.62547159  0.37570064  0.00717641  1
  O2-  O147  1  0.62397576  0.37323587  0.50717614  1
  O2-  O148  1  0.62533767  0.62492674  0.00856240  1
  O2-  O149  1  0.62579579  0.62518699  0.50793285  1
  O2-  O150  1  0.62415029  0.87286307  0.01819090  1
  O2-  O151  1  0.62418601  0.87595623  0.51879051  1
  O2-  O152  1  0.87417894  0.12508636  0.00525285  1
  O2-  O153  1  0.87633501  0.12385074  0.50583169  1
  O2-  O154  1  0.87369036  0.37443057  -0.00339671  1
  O2-  O155  1  0.87696498  0.37427527  0.50630535  1
  O2-  O156  1  0.87376196  0.62410872  -0.00490083  1
  O2-  O157  1  0.87667836  0.62566707  0.50664014  1
  O2-  O158  1  0.87501229  0.87537062  0.00625015  1
  O2-  O159  1  0.87840776  0.87724429  0.49745112  1
  O2-  O160  1  0.12543107  -0.00055021  0.16243314  1
  O2-  O161  1  0.12408261  0.00047280  0.66479328  1
  O2-  O162  1  0.12483927  0.25174138  0.15871140  1
  O2-  O163  1  0.12444344  0.25058513  0.66501280  1
  O2-  O164  1  0.12461056  0.49768537  0.16244529  1
  O2-  O165  1  0.12521605  0.49933506  0.66563785  1
  O2-  O166  1  0.12491088  0.75113307  0.16755333  1
  O2-  O167  1  0.12537712  0.75008828  0.66492334  1
  O2-  O168  1  0.37584326  0.00143289  0.16382640  1
  O2-  O169  1  0.37505462  -0.00155143  0.66213233  1
  O2-  O170  1  0.37574437  0.24842962  0.16178112  1
  O2-  O171  1  0.37485849  0.24845410  0.66394564  1
  O2-  O172  1  0.37676009  0.50257836  0.16962153  1
  O2-  O173  1  0.37475787  0.50287123  0.66551273  1
  O2-  O174  1  0.37725461  0.74751659  0.17506509  1
  O2-  O175  1  0.37364870  0.75067186  0.66256636  1
  O2-  O176  1  0.62531193  -0.00004409  0.16397227  1
  O2-  O177  1  0.62487086  -0.00094349  0.66704824  1
  O2-  O178  1  0.62533586  0.25150590  0.16003155  1
  O2-  O179  1  0.62530491  0.24827007  0.66555845  1
  O2-  O180  1  0.62611289  0.50016882  0.16309723  1
  O2-  O181  1  0.62378650  0.50035225  0.66793673  1
  O2-  O182  1  0.62532701  0.74791999  0.16900224  1
  O2-  O183  1  0.62460459  0.75232180  0.66966041  1
  O2-  O184  1  0.87445931  0.00223905  0.16292076  1
  O2-  O185  1  0.87531539  0.00107626  0.66421397  1
  O2-  O186  1  0.87487906  0.24817989  0.16181036  1
  O2-  O187  1  0.87447230  0.24756437  0.66276099  1
  O2-  O188  1  0.87401247  0.50007820  0.16493802  1
  O2-  O189  1  0.87510257  0.50279901  0.66245469  1
  O2-  O190  1  0.87368599  0.74901018  0.16705853  1
  O2-  O191  1  0.87525113  0.74861265  0.66289025  1
  O2-  O192  1  -0.00216352  0.12525702  0.16146721  1
  O2-  O193  1  -0.00204937  0.12529905  0.66415488  1
  O2-  O194  1  0.00109081  0.37482961  0.15979971  1
  O2-  O195  1  0.00136825  0.37496097  0.66515172  1
  O2-  O196  1  -0.00210449  0.62478939  0.16191946  1
  O2-  O197  1  -0.00081740  0.62484052  0.66242783  1
  O2-  O198  1  0.00163108  0.87517293  0.16188238  1
  O2-  O199  1  0.00060716  0.87509142  0.66512862  1
  O2-  O200  1  0.25162214  0.12472026  0.16109159  1
  O2-  O201  1  0.24903737  0.12492332  0.66393713  1
  O2-  O202  1  0.24838578  0.37545756  0.16129994  1
  O2-  O203  1  0.24911797  0.37517249  0.66705664  1
  O2-  O204  1  0.25229537  0.62511872  0.16812815  1
  O2-  O205  1  0.25106526  0.62502250  0.66430349  1
  O2-  O206  1  0.24906044  0.87453194  0.16689508  1
  O2-  O207  1  0.25162287  0.87568916  0.66364984  1
  O2-  O208  1  0.49946606  0.12473255  0.16509200  1
  O2-  O209  1  0.50047840  0.12462860  0.66296413  1
  O2-  O210  1  0.50287606  0.37536177  0.16554843  1
  O2-  O211  1  0.49978921  0.37497128  0.66703702  1
  O2-  O212  1  0.50283979  0.62457552  0.16963796  1
  O2-  O213  1  0.49673850  0.62649518  0.66709147  1
  O2-  O214  1  0.50229819  0.87478950  0.17102556  1
  O2-  O215  1  0.49789425  0.87484739  0.66599536  1
  O2-  O216  1  0.75215407  0.12577240  0.16465655  1
  O2-  O217  1  0.75165191  0.12393542  0.66373725  1
  O2-  O218  1  0.74841143  0.37473645  0.16440708  1
  O2-  O219  1  0.74897561  0.37525306  0.66514223  1
  O2-  O220  1  0.74766379  0.62466015  0.16530934  1
  O2-  O221  1  0.75219913  0.62559214  0.66380329  1
  O2-  O222  1  0.74805827  0.87460766  0.16743362  1
  O2-  O223  1  0.74933354  0.87544379  0.66650378  1
  O2-  O224  1  0.12475513  -0.00010804  0.34222404  1
  O2-  O225  1  0.12399191  0.00143581  0.84832362  1
  O2-  O226  1  0.12467004  0.24886611  0.34036699  1
  O2-  O227  1  0.12342192  0.25132780  0.84779994  1
  O2-  O228  1  0.12505396  0.50093024  0.34385991  1
  O2-  O229  1  0.12505924  0.49669808  0.84941338  1
  O2-  O230  1  0.12526790  0.75018903  0.34736343  1
  O2-  O231  1  0.12489440  0.75095977  0.85000441  1
  O2-  O232  1  0.37475177  -0.00125074  0.34709159  1
  O2-  O233  1  0.37461081  0.00254532  0.84447170  1
  O2-  O234  1  0.37426524  0.24795480  0.34480073  1
  O2-  O235  1  0.37575359  0.24797106  0.84571751  1
  O2-  O236  1  0.37424867  0.50250162  0.35217781  1
  O2-  O237  1  0.37528176  0.50075170  0.84988404  1
  O2-  O238  1  0.37490781  0.75058466  0.35705420  1
  O2-  O239  1  0.37549783  0.74936449  0.84736790  1
  O2-  O240  1  0.62563141  0.00124331  0.34597676  1
  O2-  O241  1  0.62610488  0.00069399  0.84934094  1
  O2-  O242  1  0.62568385  0.24746088  0.34281881  1
  O2-  O243  1  0.62572869  0.25146450  0.84846432  1
  O2-  O244  1  0.62504269  0.49905537  0.34775159  1
  O2-  O245  1  0.62510294  0.49990636  0.85256723  1
  O2-  O246  1  0.62572333  0.75216538  0.35214602  1
  O2-  O247  1  0.62447081  0.74823444  0.85301729  1
  O2-  O248  1  0.87567474  0.00117081  0.34541617  1
  O2-  O249  1  0.87462439  0.00319453  0.84937026  1
  O2-  O250  1  0.87596335  0.24623108  0.34685715  1
  O2-  O251  1  0.87435479  0.24987544  0.84597269  1
  O2-  O252  1  0.87604149  0.50280740  0.34999832  1
  O2-  O253  1  0.87355034  0.49907143  0.84305412  1
  O2-  O254  1  0.87511964  0.74944904  0.35020316  1
  O2-  O255  1  0.87419338  0.74772813  0.84620401  1
  O2-  O256  1  -0.00075301  0.12448742  0.34413449  1
  O2-  O257  1  -0.00162099  0.12586180  0.84806312  1
  O2-  O258  1  0.00292492  0.37467522  0.34233264  1
  O2-  O259  1  0.00003555  0.37480120  0.84811200  1
  O2-  O260  1  -0.00062127  0.62555573  0.34475280  1
  O2-  O261  1  -0.00236580  0.62397651  0.84554086  1
  O2-  O262  1  0.00028814  0.87516093  0.34156740  1
  O2-  O263  1  0.00104524  0.87524072  0.84953049  1
  O2-  O264  1  0.24963590  0.12420725  0.34253397  1
  O2-  O265  1  0.24941632  0.12582530  0.84625174  1
  O2-  O266  1  0.24791462  0.37487785  0.34240172  1
  O2-  O267  1  0.24774759  0.37432322  0.85105031  1
  O2-  O268  1  0.25067139  0.62588629  0.34933297  1
  O2-  O269  1  0.25173806  0.62500284  0.84926183  1
  O2-  O270  1  0.25098585  0.87485985  0.34799994  1
  O2-  O271  1  0.24897095  0.87512727  0.84789534  1
  O2-  O272  1  0.49932581  0.12430310  0.34758388  1
  O2-  O273  1  0.50091266  0.12495659  0.84499424  1
  O2-  O274  1  0.49932469  0.37441012  0.34902574  1
  O2-  O275  1  0.50327273  0.37562121  0.85034767  1
  O2-  O276  1  0.49679511  0.62570717  0.35279639  1
  O2-  O277  1  0.50224849  0.62479642  0.85161627  1
  O2-  O278  1  0.49800138  0.87515230  0.35444886  1
  O2-  O279  1  0.50100635  0.87537220  0.84851859  1
  O2-  O280  1  0.75212646  0.12437547  0.34821524  1
  O2-  O281  1  0.75069024  0.12577267  0.84741074  1
  O2-  O282  1  0.75021281  0.37416769  0.34932661  1
  O2-  O283  1  0.74829471  0.37479280  0.84721136  1
  O2-  O284  1  0.75336393  0.62508427  0.35045099  1
  O2-  O285  1  0.74795745  0.62479275  0.84676245  1
  O2-  O286  1  0.75153659  0.87596886  0.34973604  1
  O2-  O287  1  0.74856802  0.87486186  0.84956442  1
