# generated using pymatgen
data_BaYFeCuO5
_symmetry_space_group_name_H-M   'P 1'
_cell_length_a   15.66000668
_cell_length_b   15.66174089
_cell_length_c   15.45744140
_cell_angle_alpha   90.00017789
_cell_angle_beta   89.99794836
_cell_angle_gamma   90.00463421
_symmetry_Int_Tables_number   1
_chemical_formula_structural   BaYFeCuO5
_chemical_formula_sum   'Ba32 Y32 Fe32 Cu32 O160'
_cell_volume   3791.13792400
_cell_formula_units_Z   32
loop_
 _symmetry_equiv_pos_site_id
 _symmetry_equiv_pos_as_xyz
  1  'x, y, z'
loop_
 _atom_type_symbol
 _atom_type_oxidation_number
  Ba2+  2.0
  Y3+  3.0
  Fe3+  3.0
  Cu2+  2.0
  O2-  -2.0
loop_
 _atom_site_type_symbol
 _atom_site_label
 _atom_site_symmetry_multiplicity
 _atom_site_fract_x
 _atom_site_fract_y
 _atom_site_fract_z
 _atom_site_occupancy
  Ba2+  Ba0  1  0.00137728  -0.00344406  0.01124086  1
  Ba2+  Ba1  1  0.00341451  -0.00186323  0.51298174  1
  Ba2+  Ba2  1  0.00155806  0.25255350  0.00988892  1
  Ba2+  Ba3  1  -0.00130876  0.25212177  0.52335531  1
  Ba2+  Ba4  1  0.00673615  0.50283136  0.00701280  1
  Ba2+  Ba5  1  -0.00545983  0.50058659  0.51707694  1
  Ba2+  Ba6  1  0.00654794  0.74855714  0.00692337  1
  Ba2+  Ba7  1  -0.00093102  0.74895536  0.50649846  1
  Ba2+  Ba8  1  0.24886559  -0.01238879  0.01178031  1
  Ba2+  Ba9  1  0.24794105  -0.00052225  0.50610440  1
  Ba2+  Ba10  1  0.24404283  0.25667806  0.00635101  1
  Ba2+  Ba11  1  0.24550435  0.24319394  0.51834451  1
  Ba2+  Ba12  1  0.24734839  0.50706253  0.01180859  1
  Ba2+  Ba13  1  0.23893990  0.49961509  0.51826482  1
  Ba2+  Ba14  1  0.25163782  0.74921037  0.01774312  1
  Ba2+  Ba15  1  0.24232284  0.75623144  0.50683963  1
  Ba2+  Ba16  1  0.50402794  -0.00742784  0.02392304  1
  Ba2+  Ba17  1  0.49243711  -0.00162404  0.50471360  1
  Ba2+  Ba18  1  0.50480286  0.24500969  0.01160840  1
  Ba2+  Ba19  1  0.49685876  0.24728956  0.51061603  1
  Ba2+  Ba20  1  0.49925324  0.51461531  0.00606156  1
  Ba2+  Ba21  1  0.51168402  0.50185801  0.51184721  1
  Ba2+  Ba22  1  0.49927217  0.74747772  0.01918534  1
  Ba2+  Ba23  1  0.50744268  0.75119378  0.50781686  1
  Ba2+  Ba24  1  0.74506402  0.00121522  0.02253930  1
  Ba2+  Ba25  1  0.75578742  -0.00378154  0.51050960  1
  Ba2+  Ba26  1  0.75038268  0.24134492  0.01674783  1
  Ba2+  Ba27  1  0.75812293  0.25697715  0.51557405  1
  Ba2+  Ba28  1  0.74800378  0.51149278  0.00122158  1
  Ba2+  Ba29  1  0.75559927  0.50280030  0.51175894  1
  Ba2+  Ba30  1  0.74247583  0.74600835  0.00736399  1
  Ba2+  Ba31  1  0.75243833  0.74333730  0.50689506  1
  Y3+  Y32  1  0.00088948  -0.00334256  0.25724924  1
  Y3+  Y33  1  0.00252754  -0.00160354  0.75750907  1
  Y3+  Y34  1  -0.00088353  0.25198132  0.25387402  1
  Y3+  Y35  1  0.00057696  0.25194865  0.75883491  1
  Y3+  Y36  1  -0.00112610  0.49980455  0.25818455  1
  Y3+  Y37  1  -0.00096211  0.50090357  0.75758547  1
  Y3+  Y38  1  0.00075884  0.75110816  0.25956178  1
  Y3+  Y39  1  0.00108728  0.74918166  0.75639588  1
  Y3+  Y40  1  0.25010803  -0.00429817  0.26006071  1
  Y3+  Y41  1  0.24831779  -0.00149356  0.75449470  1
  Y3+  Y42  1  0.24969940  0.25015671  0.25599628  1
  Y3+  Y43  1  0.24863615  0.24962994  0.75763528  1
  Y3+  Y44  1  0.24871974  0.50130125  0.25342792  1
  Y3+  Y45  1  0.24857990  0.50047398  0.76066616  1
  Y3+  Y46  1  0.24947123  0.75188706  0.25734756  1
  Y3+  Y47  1  0.24820313  0.75125086  0.75815525  1
  Y3+  Y48  1  0.49781722  -0.00154984  0.26081416  1
  Y3+  Y49  1  0.49934135  -0.00071152  0.75130871  1
  Y3+  Y50  1  0.49868715  0.24884690  0.25890313  1
  Y3+  Y51  1  0.49955173  0.25006792  0.75419501  1
  Y3+  Y52  1  0.50103608  0.50415566  0.25719540  1
  Y3+  Y53  1  0.50213253  0.50349587  0.75783370  1
  Y3+  Y54  1  0.50015941  0.74833736  0.25859511  1
  Y3+  Y55  1  0.50196189  0.74742296  0.75673920  1
  Y3+  Y56  1  0.75079645  -0.00026200  0.25770541  1
  Y3+  Y57  1  0.75058528  -0.00157264  0.75428381  1
  Y3+  Y58  1  0.75203453  0.25045235  0.25709571  1
  Y3+  Y59  1  0.75141205  0.25239373  0.75492175  1
  Y3+  Y60  1  0.75122804  0.50280000  0.26197894  1
  Y3+  Y61  1  0.75030427  0.50344364  0.75442772  1
  Y3+  Y62  1  0.74970881  0.74709065  0.26100936  1
  Y3+  Y63  1  0.74879811  0.74638837  0.75517745  1
  Fe3+  Fe64  1  0.37606101  0.37585792  0.87959236  1
  Fe3+  Fe65  1  0.37575814  0.12325108  0.87986522  1
  Fe3+  Fe66  1  0.12388523  0.12575120  0.37436628  1
  Fe3+  Fe67  1  0.62605273  0.87505419  0.37749873  1
  Fe3+  Fe68  1  0.37629924  0.87417252  0.87641498  1
  Fe3+  Fe69  1  0.37358351  0.37604941  0.38005281  1
  Fe3+  Fe70  1  0.62595718  0.12562253  0.37852062  1
  Fe3+  Fe71  1  0.87394207  0.12376470  0.87684617  1
  Fe3+  Fe72  1  0.87404069  0.87413640  0.88036731  1
  Fe3+  Fe73  1  0.12393450  0.37430236  0.37628248  1
  Fe3+  Fe74  1  0.62434766  0.87529986  0.87478646  1
  Fe3+  Fe75  1  0.62514399  0.37521279  0.87929438  1
  Fe3+  Fe76  1  0.12548424  0.12400867  0.87928761  1
  Fe3+  Fe77  1  0.87694281  0.12562950  0.37588785  1
  Fe3+  Fe78  1  0.62588347  0.37467395  0.37697325  1
  Fe3+  Fe79  1  0.87404064  0.37603384  0.87987004  1
  Fe3+  Fe80  1  0.12448855  0.62417784  0.37620599  1
  Fe3+  Fe81  1  0.12568729  0.62627846  0.87492518  1
  Fe3+  Fe82  1  0.62475347  0.12333641  0.87391411  1
  Fe3+  Fe83  1  0.37406890  0.62457863  0.38097294  1
  Fe3+  Fe84  1  0.37474337  0.37610716  0.63558039  1
  Fe3+  Fe85  1  0.12525997  0.12411917  0.13427206  1
  Fe3+  Fe86  1  0.87412837  0.87345931  0.13597469  1
  Fe3+  Fe87  1  0.37607932  0.37616345  0.13388916  1
  Fe3+  Fe88  1  0.62510758  0.37669024  0.13384692  1
  Fe3+  Fe89  1  0.87541982  0.87367270  0.63871277  1
  Fe3+  Fe90  1  0.62601512  0.12479046  0.63260300  1
  Fe3+  Fe91  1  0.87405161  0.37663161  0.13361661  1
  Fe3+  Fe92  1  0.37480178  0.87388861  0.63587798  1
  Fe3+  Fe93  1  0.87537613  0.62549130  0.13756641  1
  Fe3+  Fe94  1  0.37388398  0.62541510  0.63434326  1
  Fe3+  Fe95  1  0.37413642  0.12413869  0.13437484  1
  Cu2+  Cu96  1  0.62522946  0.62438225  0.37317893  1
  Cu2+  Cu97  1  0.37468236  0.62673747  0.87124029  1
  Cu2+  Cu98  1  0.87524642  0.62607867  0.86542848  1
  Cu2+  Cu99  1  0.12487647  0.37553835  0.87338043  1
  Cu2+  Cu100  1  0.12409254  0.87516146  0.37213339  1
  Cu2+  Cu101  1  0.37494834  0.87334848  0.36734913  1
  Cu2+  Cu102  1  0.87646071  0.62449270  0.37265554  1
  Cu2+  Cu103  1  0.87628595  0.37473075  0.37183799  1
  Cu2+  Cu104  1  0.37284238  0.12578119  0.37277778  1
  Cu2+  Cu105  1  0.12532756  0.87499323  0.87335902  1
  Cu2+  Cu106  1  0.62452786  0.62637768  0.87008606  1
  Cu2+  Cu107  1  0.87501719  0.87502682  0.36419551  1
  Cu2+  Cu108  1  0.87546420  0.37631474  0.64600615  1
  Cu2+  Cu109  1  0.12517607  0.37545048  0.65475612  1
  Cu2+  Cu110  1  0.62388762  0.12546378  0.15596845  1
  Cu2+  Cu111  1  0.12377983  0.62550639  0.15281763  1
  Cu2+  Cu112  1  0.87588457  0.12440224  0.14917837  1
  Cu2+  Cu113  1  0.62613316  0.62455814  0.14612300  1
  Cu2+  Cu114  1  0.62504822  0.37519803  0.65057553  1
  Cu2+  Cu115  1  0.12428181  0.12473789  0.65489909  1
  Cu2+  Cu116  1  0.62561215  0.87371468  0.15658587  1
  Cu2+  Cu117  1  0.87596448  0.62586397  0.64425612  1
  Cu2+  Cu118  1  0.12488796  0.37585926  0.13954960  1
  Cu2+  Cu119  1  0.37407552  0.12446755  0.64093810  1
  Cu2+  Cu120  1  0.62527326  0.62529766  0.64178074  1
  Cu2+  Cu121  1  0.62536400  0.87484192  0.64488681  1
  Cu2+  Cu122  1  0.12536747  0.62530148  0.65178690  1
  Cu2+  Cu123  1  0.12432333  0.87417665  0.14245705  1
  Cu2+  Cu124  1  0.87567954  0.12464610  0.65233372  1
  Cu2+  Cu125  1  0.37548108  0.87438682  0.15475482  1
  Cu2+  Cu126  1  0.12458491  0.87441876  0.64214441  1
  Cu2+  Cu127  1  0.37469835  0.62530284  0.14385424  1
  O2-  O128  1  0.12653843  0.12348252  0.00589860  1
  O2-  O129  1  0.12274643  0.12710057  0.49474823  1
  O2-  O130  1  0.12481492  0.37514181  0.00625219  1
  O2-  O131  1  0.12485345  0.37255501  0.49660475  1
  O2-  O132  1  0.12682964  0.62670221  -0.00331514  1
  O2-  O133  1  0.12441897  0.62308791  0.49679650  1
  O2-  O134  1  0.12457611  0.87485541  0.00816721  1
  O2-  O135  1  0.12367949  0.87611367  0.50789911  1
  O2-  O136  1  0.37684198  0.12343082  0.00616045  1
  O2-  O137  1  0.37315268  0.12642114  0.50629317  1
  O2-  O138  1  0.37744698  0.37510882  0.00668380  1
  O2-  O139  1  0.37344312  0.37548620  0.50678890  1
  O2-  O140  1  0.37412110  0.62684105  0.00801793  1
  O2-  O141  1  0.37365572  0.62314901  0.50748045  1
  O2-  O142  1  0.37845222  0.87494010  -0.00299654  1
  O2-  O143  1  0.37341632  0.87456956  0.51486149  1
  O2-  O144  1  0.62396544  0.12219913  -0.00580469  1
  O2-  O145  1  0.62607817  0.12657170  0.50479293  1
  O2-  O146  1  0.62429499  0.37535408  0.00633137  1
  O2-  O147  1  0.62552567  0.37209774  0.49726543  1
  O2-  O148  1  0.62435888  0.62649786  0.00736313  1
  O2-  O149  1  0.62548785  0.62420969  0.50763278  1
  O2-  O150  1  0.62392261  0.87634005  -0.00468707  1
  O2-  O151  1  0.62666460  0.87724164  0.49822468  1
  O2-  O152  1  0.87097406  0.12272322  -0.00310906  1
  O2-  O153  1  0.87771651  0.12638980  0.49607213  1
  O2-  O154  1  0.87270035  0.37580597  0.00676846  1
  O2-  O155  1  0.87674101  0.37453118  0.50760626  1
  O2-  O156  1  0.87464516  0.62635505  0.01718505  1
  O2-  O157  1  0.87671833  0.62465805  0.50849398  1
  O2-  O158  1  0.87268178  0.87483141  0.00784822  1
  O2-  O159  1  0.87632452  0.87487221  0.51776072  1
  O2-  O160  1  0.12584375  0.00263574  0.16376433  1
  O2-  O161  1  0.12465743  0.00122678  0.66552290  1
  O2-  O162  1  0.12551781  0.24705628  0.16005796  1
  O2-  O163  1  0.12516446  0.24997561  0.66742599  1
  O2-  O164  1  0.12528024  0.50176670  0.16325783  1
  O2-  O165  1  0.12607841  0.50028205  0.66493536  1
  O2-  O166  1  0.12446913  0.74850720  0.16659682  1
  O2-  O167  1  0.12526074  0.74843690  0.66447982  1
  O2-  O168  1  0.37506453  0.00125160  0.16376026  1
  O2-  O169  1  0.37501438  -0.00211447  0.66516688  1
  O2-  O170  1  0.37603790  0.24982093  0.16028984  1
  O2-  O171  1  0.37469464  0.25323467  0.66634992  1
  O2-  O172  1  0.37578638  0.49729122  0.16497664  1
  O2-  O173  1  0.37407509  0.50000152  0.66422015  1
  O2-  O174  1  0.37540962  0.75106852  0.16825291  1
  O2-  O175  1  0.37510533  0.74841385  0.66325882  1
  O2-  O176  1  0.62480548  -0.00001026  0.16557134  1
  O2-  O177  1  0.62551166  0.00212031  0.65956132  1
  O2-  O178  1  0.62372776  0.25229080  0.16019669  1
  O2-  O179  1  0.62492825  0.24836244  0.66467824  1
  O2-  O180  1  0.62487675  0.49677773  0.16513441  1
  O2-  O181  1  0.62438618  0.49880576  0.66684200  1
  O2-  O182  1  0.62511805  0.75033239  0.16784552  1
  O2-  O183  1  0.62470510  0.75085673  0.66349678  1
  O2-  O184  1  0.87400289  -0.00171573  0.16274916  1
  O2-  O185  1  0.87522446  -0.00048050  0.66544670  1
  O2-  O186  1  0.87448347  0.25149658  0.15928953  1
  O2-  O187  1  0.87545893  0.24924529  0.66754037  1
  O2-  O188  1  0.87412918  0.49927423  0.16578864  1
  O2-  O189  1  0.87541614  0.50071187  0.66768527  1
  O2-  O190  1  0.87467317  0.75065513  0.16751816  1
  O2-  O191  1  0.87513377  0.75127635  0.66869768  1
  O2-  O192  1  0.00182122  0.12484858  0.15743492  1
  O2-  O193  1  0.00003413  0.12553258  0.66902021  1
  O2-  O194  1  -0.00366548  0.37527588  0.15989998  1
  O2-  O195  1  0.00182198  0.37503390  0.66949375  1
  O2-  O196  1  -0.00050266  0.62468334  0.16395843  1
  O2-  O197  1  0.00232424  0.62468808  0.66737721  1
  O2-  O198  1  -0.00337551  0.87517157  0.16285726  1
  O2-  O199  1  -0.00129795  0.87538902  0.67056246  1
  O2-  O200  1  0.25102502  0.12596733  0.15984400  1
  O2-  O201  1  0.24830787  0.12575174  0.66833056  1
  O2-  O202  1  0.25366627  0.37445422  0.16233396  1
  O2-  O203  1  0.25125924  0.37482359  0.66479400  1
  O2-  O204  1  0.24745450  0.62491090  0.16498596  1
  O2-  O205  1  0.25124955  0.62422350  0.66295569  1
  O2-  O206  1  0.25103219  0.87440087  0.16501901  1
  O2-  O207  1  0.25158239  0.87470713  0.66639441  1
  O2-  O208  1  0.49734826  0.12528352  0.16544949  1
  O2-  O209  1  0.50303713  0.12618420  0.66144281  1
  O2-  O210  1  0.50013045  0.37390786  0.16359120  1
  O2-  O211  1  0.49796677  0.37518049  0.66330134  1
  O2-  O212  1  0.50088906  0.62483477  0.16789371  1
  O2-  O213  1  0.49663397  0.62356447  0.66281494  1
  O2-  O214  1  0.50088677  0.87524615  0.16652639  1
  O2-  O215  1  0.49968589  0.87513938  0.66112788  1
  O2-  O216  1  0.74932502  0.12576815  0.16401095  1
  O2-  O217  1  0.74899488  0.12569597  0.66007353  1
  O2-  O218  1  0.74972910  0.37342892  0.16126923  1
  O2-  O219  1  0.74903751  0.37507948  0.66749680  1
  O2-  O220  1  0.75194098  0.62475841  0.16803559  1
  O2-  O221  1  0.75010046  0.62478346  0.66553975  1
  O2-  O222  1  0.75111841  0.87522839  0.16368344  1
  O2-  O223  1  0.75038071  0.87562541  0.66611067  1
  O2-  O224  1  0.12463856  0.00096528  0.34683949  1
  O2-  O225  1  0.12570005  0.00306334  0.84915070  1
  O2-  O226  1  0.12539868  0.25055016  0.34028274  1
  O2-  O227  1  0.12562092  0.24665633  0.85146364  1
  O2-  O228  1  0.12575864  0.49917219  0.34451863  1
  O2-  O229  1  0.12525390  0.50181736  0.84809891  1
  O2-  O230  1  0.12538038  0.74869178  0.34976245  1
  O2-  O231  1  0.12468326  0.74932030  0.84660020  1
  O2-  O232  1  0.37475680  -0.00165016  0.34895580  1
  O2-  O233  1  0.37543259  0.00163218  0.84680387  1
  O2-  O234  1  0.37467647  0.25448351  0.34525453  1
  O2-  O235  1  0.37642701  0.24925463  0.85233383  1
  O2-  O236  1  0.37497905  0.49962715  0.34919404  1
  O2-  O237  1  0.37616417  0.49760133  0.84991388  1
  O2-  O238  1  0.37458773  0.74718450  0.35251600  1
  O2-  O239  1  0.37550033  0.75221845  0.84443294  1
  O2-  O240  1  0.62504392  0.00191228  0.34927257  1
  O2-  O241  1  0.62469399  0.00039447  0.83997752  1
  O2-  O242  1  0.62459880  0.24861322  0.34380750  1
  O2-  O243  1  0.62410657  0.25081988  0.84872405  1
  O2-  O244  1  0.62398004  0.49829411  0.34724006  1
  O2-  O245  1  0.62462896  0.49742638  0.85136792  1
  O2-  O246  1  0.62517103  0.75099536  0.35101300  1
  O2-  O247  1  0.62534694  0.75224500  0.84566651  1
  O2-  O248  1  0.87521914  0.00102214  0.34631026  1
  O2-  O249  1  0.87438163  -0.00099822  0.84711924  1
  O2-  O250  1  0.87509102  0.24798981  0.34194296  1
  O2-  O251  1  0.87416854  0.25069259  0.85040610  1
  O2-  O252  1  0.87554512  0.49980327  0.34831885  1
  O2-  O253  1  0.87373916  0.49899369  0.85200454  1
  O2-  O254  1  0.87493335  0.75121193  0.35087763  1
  O2-  O255  1  0.87453934  0.75195028  0.85164585  1
  O2-  O256  1  0.00045230  0.12511554  0.33908359  1
  O2-  O257  1  0.00030272  0.12495059  0.85289041  1
  O2-  O258  1  0.00221955  0.37432499  0.34230284  1
  O2-  O259  1  -0.00369185  0.37475339  0.85339800  1
  O2-  O260  1  0.00196302  0.62482979  0.34550443  1
  O2-  O261  1  0.00027034  0.62518788  0.85035598  1
  O2-  O262  1  -0.00151976  0.87532383  0.34662771  1
  O2-  O263  1  -0.00282897  0.87615229  0.85447842  1
  O2-  O264  1  0.24722406  0.12554669  0.34256702  1
  O2-  O265  1  0.25137159  0.12586538  0.85266092  1
  O2-  O266  1  0.25049155  0.37526384  0.34589201  1
  O2-  O267  1  0.25378993  0.37378313  0.84977787  1
  O2-  O268  1  0.25097432  0.62378035  0.34777179  1
  O2-  O269  1  0.24889395  0.62495947  0.84527885  1
  O2-  O270  1  0.25077038  0.87482643  0.34965667  1
  O2-  O271  1  0.25184922  0.87632214  0.84830248  1
  O2-  O272  1  0.50252790  0.12594520  0.35103717  1
  O2-  O273  1  0.49882179  0.12589378  0.84428436  1
  O2-  O274  1  0.49860271  0.37443656  0.34845357  1
  O2-  O275  1  0.50060514  0.37393613  0.84873484  1
  O2-  O276  1  0.49694048  0.62386331  0.35166423  1
  O2-  O277  1  0.50018909  0.62487129  0.84627003  1
  O2-  O278  1  0.50094298  0.87543432  0.35013452  1
  O2-  O279  1  0.50029059  0.87626277  0.84111124  1
  O2-  O280  1  0.74926823  0.12520673  0.34804614  1
  O2-  O281  1  0.74950244  0.12561970  0.84205767  1
  O2-  O282  1  0.74850519  0.37418688  0.34493530  1
  O2-  O283  1  0.74942441  0.37434513  0.85165312  1
  O2-  O284  1  0.75059898  0.62429753  0.35076632  1
  O2-  O285  1  0.75094559  0.62521313  0.84970524  1
  O2-  O286  1  0.74959393  0.87628269  0.34688552  1
  O2-  O287  1  0.75057883  0.87600106  0.84820383  1
