# generated using pymatgen
data_BaYFeCuO5
_symmetry_space_group_name_H-M   'P 1'
_cell_length_a   15.67285707
_cell_length_b   15.67087917
_cell_length_c   15.49405796
_cell_angle_alpha   90.00193484
_cell_angle_beta   89.99833567
_cell_angle_gamma   90.00590680
_symmetry_Int_Tables_number   1
_chemical_formula_structural   BaYFeCuO5
_chemical_formula_sum   'Ba32 Y32 Fe32 Cu32 O160'
_cell_volume   3805.45603432
_cell_formula_units_Z   32
loop_
 _symmetry_equiv_pos_site_id
 _symmetry_equiv_pos_as_xyz
  1  'x, y, z'
loop_
 _atom_type_symbol
 _atom_type_oxidation_number
  Ba2+  2.0
  Y3+  3.0
  Fe3+  3.0
  Cu2+  2.0
  O2-  -2.0
loop_
 _atom_site_type_symbol
 _atom_site_label
 _atom_site_symmetry_multiplicity
 _atom_site_fract_x
 _atom_site_fract_y
 _atom_site_fract_z
 _atom_site_occupancy
  Ba2+  Ba0  1  0.00567170  -0.00726997  0.01679458  1
  Ba2+  Ba1  1  -0.00014233  0.00489903  0.51597886  1
  Ba2+  Ba2  1  0.00249863  0.25492987  0.01302835  1
  Ba2+  Ba3  1  0.00280611  0.24827905  0.50111947  1
  Ba2+  Ba4  1  0.00168445  0.50430460  0.01340817  1
  Ba2+  Ba5  1  0.00545628  0.49880439  0.50636356  1
  Ba2+  Ba6  1  0.00497427  0.74918068  0.01539620  1
  Ba2+  Ba7  1  0.00112431  0.74790119  0.52091169  1
  Ba2+  Ba8  1  0.24324883  -0.00754205  0.01530744  1
  Ba2+  Ba9  1  0.24291738  0.00640833  0.51514174  1
  Ba2+  Ba10  1  0.24092250  0.25018355  0.00672122  1
  Ba2+  Ba11  1  0.24520067  0.25153876  0.51741208  1
  Ba2+  Ba12  1  0.24313438  0.50742111  0.00631208  1
  Ba2+  Ba13  1  0.24560404  0.49877155  0.51654639  1
  Ba2+  Ba14  1  0.24406839  0.74941969  0.01597221  1
  Ba2+  Ba15  1  0.24362073  0.74298978  0.51486375  1
  Ba2+  Ba16  1  0.49867914  -0.00093428  0.00637396  1
  Ba2+  Ba17  1  0.49997955  0.00958957  0.50688723  1
  Ba2+  Ba18  1  0.50787474  0.25119934  0.00685686  1
  Ba2+  Ba19  1  0.49910279  0.25236468  0.50700119  1
  Ba2+  Ba20  1  0.50324391  0.50447978  0.01034245  1
  Ba2+  Ba21  1  0.49834186  0.49874540  0.51838681  1
  Ba2+  Ba22  1  0.49359391  0.74605848  0.01269188  1
  Ba2+  Ba23  1  0.49937635  0.74021737  0.51728600  1
  Ba2+  Ba24  1  0.75156830  -0.00007876  0.00629849  1
  Ba2+  Ba25  1  0.75816460  0.00685159  0.50709481  1
  Ba2+  Ba26  1  0.74868483  0.25598152  0.01367891  1
  Ba2+  Ba27  1  0.75255584  0.24898807  0.49204462  1
  Ba2+  Ba28  1  0.75312935  0.49959489  0.01843904  1
  Ba2+  Ba29  1  0.75177340  0.49884689  0.50671169  1
  Ba2+  Ba30  1  0.75701370  0.74525430  0.01144764  1
  Ba2+  Ba31  1  0.75578893  0.74513517  0.52165390  1
  Y3+  Y32  1  0.00184615  0.00074008  0.25903225  1
  Y3+  Y33  1  0.00089821  -0.00078915  0.75364241  1
  Y3+  Y34  1  0.00095331  0.25015522  0.26229367  1
  Y3+  Y35  1  0.00210963  0.24971220  0.75342394  1
  Y3+  Y36  1  0.00145837  0.50007449  0.26016912  1
  Y3+  Y37  1  0.00390389  0.50108521  0.75556721  1
  Y3+  Y38  1  0.00254502  0.74894845  0.25462180  1
  Y3+  Y39  1  0.00326880  0.74967733  0.75757650  1
  Y3+  Y40  1  0.24697691  -0.00117533  0.25625659  1
  Y3+  Y41  1  0.24617002  -0.00004255  0.75538565  1
  Y3+  Y42  1  0.24601407  0.24998063  0.25975988  1
  Y3+  Y43  1  0.24769361  0.25078152  0.75480794  1
  Y3+  Y44  1  0.24628264  0.50242798  0.25902792  1
  Y3+  Y45  1  0.24614443  0.50044372  0.75565553  1
  Y3+  Y46  1  0.24748190  0.74870862  0.25478022  1
  Y3+  Y47  1  0.24446168  0.74879985  0.75754013  1
  Y3+  Y48  1  0.49921863  -0.00027908  0.25720020  1
  Y3+  Y49  1  0.49991724  0.00140154  0.75758457  1
  Y3+  Y50  1  0.50226496  0.25127919  0.25735920  1
  Y3+  Y51  1  0.49862584  0.24982049  0.75832128  1
  Y3+  Y52  1  0.50058014  0.49877500  0.25601779  1
  Y3+  Y53  1  0.49903433  0.50164865  0.75679364  1
  Y3+  Y54  1  0.49750068  0.75001898  0.25599655  1
  Y3+  Y55  1  0.50048145  0.74743449  0.75684020  1
  Y3+  Y56  1  0.75225193  0.00154992  0.25900102  1
  Y3+  Y57  1  0.75248292  0.00084917  0.75625489  1
  Y3+  Y58  1  0.75165884  0.25175005  0.25931460  1
  Y3+  Y59  1  0.75128485  0.24831332  0.75922033  1
  Y3+  Y60  1  0.75230861  0.49670686  0.25793461  1
  Y3+  Y61  1  0.75014806  0.50243026  0.75645021  1
  Y3+  Y62  1  0.75291678  0.75028589  0.25528623  1
  Y3+  Y63  1  0.75144624  0.74813445  0.75679374  1
  Fe3+  Fe64  1  0.62594870  0.37653487  0.87707952  1
  Fe3+  Fe65  1  0.12346024  0.12422996  0.87707678  1
  Fe3+  Fe66  1  0.37301835  0.87431664  0.87531035  1
  Fe3+  Fe67  1  0.37342251  0.62533995  0.87532240  1
  Fe3+  Fe68  1  0.37340510  0.37553006  0.87973489  1
  Fe3+  Fe69  1  0.87625699  0.62432378  0.87569879  1
  Fe3+  Fe70  1  0.62530094  0.62505165  0.37652740  1
  Fe3+  Fe71  1  0.37353770  0.12476270  0.87974573  1
  Fe3+  Fe72  1  0.62560384  0.87410289  0.38084630  1
  Fe3+  Fe73  1  0.37387006  0.37582407  0.37584574  1
  Fe3+  Fe74  1  0.37413907  0.87445211  0.38054394  1
  Fe3+  Fe75  1  0.87621380  0.12523889  0.88111427  1
  Fe3+  Fe76  1  0.37363339  0.12569739  0.37541674  1
  Fe3+  Fe77  1  0.12471154  0.87412596  0.37877126  1
  Fe3+  Fe78  1  0.87626408  0.87401295  0.37730630  1
  Fe3+  Fe79  1  0.87676065  0.87473515  0.87647500  1
  Fe3+  Fe80  1  0.37429068  0.62432147  0.37615836  1
  Fe3+  Fe81  1  0.87619971  0.62576251  0.37608962  1
  Fe3+  Fe82  1  0.87669163  0.37582385  0.87755261  1
  Fe3+  Fe83  1  0.62515139  0.87362222  0.87874896  1
  Fe3+  Fe84  1  0.62572132  0.62496258  0.13768434  1
  Fe3+  Fe85  1  0.37444102  0.87516411  0.63363629  1
  Fe3+  Fe86  1  0.62553930  0.87491863  0.13481911  1
  Fe3+  Fe87  1  0.37360864  0.12575618  0.13378425  1
  Fe3+  Fe88  1  0.62597708  0.12657566  0.63890692  1
  Fe3+  Fe89  1  0.87510790  0.37430794  0.63663561  1
  Fe3+  Fe90  1  0.12494603  0.37550828  0.13996091  1
  Fe3+  Fe91  1  0.37417309  0.37555771  0.13313941  1
  Fe3+  Fe92  1  0.62614193  0.37426258  0.63813344  1
  Fe3+  Fe93  1  0.87650913  0.12525196  0.13598988  1
  Fe3+  Fe94  1  0.62546743  0.87566541  0.63439387  1
  Fe3+  Fe95  1  0.62537893  0.12486691  0.13838590  1
  Cu2+  Cu96  1  0.12434600  0.37482550  0.86341309  1
  Cu2+  Cu97  1  0.87605747  0.37574679  0.36521224  1
  Cu2+  Cu98  1  0.87643631  0.12440460  0.37055944  1
  Cu2+  Cu99  1  0.62450136  0.12454880  0.36219545  1
  Cu2+  Cu100  1  0.62552457  0.12467161  0.86633637  1
  Cu2+  Cu101  1  0.12612269  0.37563069  0.37323596  1
  Cu2+  Cu102  1  0.62420793  0.37598957  0.36425204  1
  Cu2+  Cu103  1  0.12485143  0.62612661  0.37227894  1
  Cu2+  Cu104  1  0.12416097  0.62529058  0.87158521  1
  Cu2+  Cu105  1  0.12565265  0.12399184  0.37194753  1
  Cu2+  Cu106  1  0.62549443  0.62526035  0.86468122  1
  Cu2+  Cu107  1  0.12455610  0.87522704  0.87040793  1
  Cu2+  Cu108  1  0.12408930  0.37475255  0.64279788  1
  Cu2+  Cu109  1  0.12488743  0.87514389  0.64624886  1
  Cu2+  Cu110  1  0.62522587  0.37491939  0.15197037  1
  Cu2+  Cu111  1  0.37374323  0.62512041  0.65230170  1
  Cu2+  Cu112  1  0.87587142  0.62341787  0.65140548  1
  Cu2+  Cu113  1  0.12417118  0.62438385  0.64264888  1
  Cu2+  Cu114  1  0.12453064  0.62401267  0.14352587  1
  Cu2+  Cu115  1  0.87543519  0.62445896  0.15242041  1
  Cu2+  Cu116  1  0.12468519  0.87445242  0.14531764  1
  Cu2+  Cu117  1  0.87501245  0.87556857  0.14935048  1
  Cu2+  Cu118  1  0.37502599  0.37495797  0.65386424  1
  Cu2+  Cu119  1  0.12474982  0.12537549  0.15085534  1
  Cu2+  Cu120  1  0.62546221  0.62440705  0.65133781  1
  Cu2+  Cu121  1  0.87649223  0.37446514  0.15305456  1
  Cu2+  Cu122  1  0.12413860  0.12581252  0.64331843  1
  Cu2+  Cu123  1  0.87494109  0.87498557  0.65007713  1
  Cu2+  Cu124  1  0.87480831  0.12720601  0.64269174  1
  Cu2+  Cu125  1  0.37501414  0.87519172  0.15065756  1
  Cu2+  Cu126  1  0.37517648  0.12511271  0.65272257  1
  Cu2+  Cu127  1  0.37467211  0.62392540  0.15085278  1
  O2-  O128  1  0.12341949  0.12429128  -0.00253748  1
  O2-  O129  1  0.12558293  0.12506121  0.50684942  1
  O2-  O130  1  0.12473328  0.37566468  0.01900130  1
  O2-  O131  1  0.12609997  0.37474596  0.50791821  1
  O2-  O132  1  0.12419922  0.62520774  0.00799464  1
  O2-  O133  1  0.12434813  0.62510312  0.50741959  1
  O2-  O134  1  0.12509902  0.87426775  0.00680790  1
  O2-  O135  1  0.12519590  0.87423205  0.49915084  1
  O2-  O136  1  0.37452755  0.12427854  0.00633545  1
  O2-  O137  1  0.37524771  0.12621085  0.49584751  1
  O2-  O138  1  0.37454129  0.37538848  0.00606813  1
  O2-  O139  1  0.37585864  0.37517526  0.49606877  1
  O2-  O140  1  0.37479640  0.62569457  -0.00440783  1
  O2-  O141  1  0.37642111  0.62343923  0.49628965  1
  O2-  O142  1  0.37509628  0.87468898  -0.00458238  1
  O2-  O143  1  0.37585823  0.87539441  0.50586655  1
  O2-  O144  1  0.62523941  0.12355945  0.01825924  1
  O2-  O145  1  0.62492341  0.12648311  0.51858732  1
  O2-  O146  1  0.62580636  0.37732235  -0.00221144  1
  O2-  O147  1  0.62512339  0.37361961  0.51794590  1
  O2-  O148  1  0.62554562  0.62662994  0.01710027  1
  O2-  O149  1  0.62482708  0.62482267  0.49656608  1
  O2-  O150  1  0.62468660  0.87393080  0.00695581  1
  O2-  O151  1  0.62536670  0.87511743  0.50682738  1
  O2-  O152  1  0.87584025  0.12501865  0.00758916  1
  O2-  O153  1  0.87464026  0.12622827  0.50702070  1
  O2-  O154  1  0.87520593  0.37619090  -0.00236445  1
  O2-  O155  1  0.87309546  0.37327067  0.51633963  1
  O2-  O156  1  0.87494920  0.62393891  -0.00390077  1
  O2-  O157  1  0.87434739  0.62593944  0.49629385  1
  O2-  O158  1  0.87465917  0.87515087  -0.00346832  1
  O2-  O159  1  0.87349375  0.87369647  0.49721295  1
  O2-  O160  1  0.12524582  0.00100498  0.16493706  1
  O2-  O161  1  0.12501110  -0.00066027  0.66378084  1
  O2-  O162  1  0.12538749  0.25060366  0.16661654  1
  O2-  O163  1  0.12557412  0.24999053  0.66683366  1
  O2-  O164  1  0.12473795  0.49833242  0.16849422  1
  O2-  O165  1  0.12550072  0.49977426  0.66503363  1
  O2-  O166  1  0.12538914  0.74953803  0.16401721  1
  O2-  O167  1  0.12478996  0.75085671  0.66454513  1
  O2-  O168  1  0.37591653  0.00242388  0.16326916  1
  O2-  O169  1  0.37660730  -0.00219296  0.66348132  1
  O2-  O170  1  0.37536179  0.25001412  0.15917679  1
  O2-  O171  1  0.37562832  0.24972285  0.66909628  1
  O2-  O172  1  0.37623308  0.49788396  0.16034692  1
  O2-  O173  1  0.37536305  0.50046885  0.66538775  1
  O2-  O174  1  0.37601810  0.74974534  0.16415498  1
  O2-  O175  1  0.37648691  0.75208221  0.65982580  1
  O2-  O176  1  0.62433155  -0.00085440  0.16637501  1
  O2-  O177  1  0.62453086  -0.00088269  0.66655601  1
  O2-  O178  1  0.62524712  0.24928837  0.16511982  1
  O2-  O179  1  0.62393507  0.25021881  0.67214493  1
  O2-  O180  1  0.62499431  0.50006419  0.16407362  1
  O2-  O181  1  0.62425903  0.49956263  0.66474704  1
  O2-  O182  1  0.62512426  0.75149453  0.16546532  1
  O2-  O183  1  0.62450803  0.75133278  0.66186004  1
  O2-  O184  1  0.87444862  0.00218500  0.16287288  1
  O2-  O185  1  0.87378530  -0.00071231  0.66542789  1
  O2-  O186  1  0.87481562  0.24778115  0.16321726  1
  O2-  O187  1  0.87413867  0.25226308  0.67241737  1
  O2-  O188  1  0.87495441  0.49926795  0.16514532  1
  O2-  O189  1  0.87355754  0.49925593  0.66427095  1
  O2-  O190  1  0.87346536  0.75036225  0.16127005  1
  O2-  O191  1  0.87400043  0.74905341  0.66277312  1
  O2-  O192  1  -0.00106724  0.12502070  0.16321934  1
  O2-  O193  1  -0.00030723  0.12489651  0.66561686  1
  O2-  O194  1  0.00081553  0.37402020  0.16773253  1
  O2-  O195  1  -0.00179151  0.37520289  0.66655227  1
  O2-  O196  1  -0.00180033  0.62490848  0.16505446  1
  O2-  O197  1  -0.00102208  0.62476404  0.66564884  1
  O2-  O198  1  -0.00136352  0.87526190  0.16489406  1
  O2-  O199  1  -0.00046762  0.87529121  0.66301810  1
  O2-  O200  1  0.25129597  0.12504368  0.16031295  1
  O2-  O201  1  0.25135640  0.12486373  0.66596447  1
  O2-  O202  1  0.25129884  0.37456040  0.16460857  1
  O2-  O203  1  0.25142926  0.37445651  0.66645573  1
  O2-  O204  1  0.25145759  0.62462815  0.16502561  1
  O2-  O205  1  0.25046075  0.62527135  0.66509634  1
  O2-  O206  1  0.25135465  0.87525378  0.16603303  1
  O2-  O207  1  0.25186301  0.87552750  0.66122633  1
  O2-  O208  1  0.49886590  0.12494904  0.16374109  1
  O2-  O209  1  0.50109431  0.12459969  0.66890468  1
  O2-  O210  1  0.49791593  0.37402580  0.16165351  1
  O2-  O211  1  0.50065662  0.37488933  0.66774500  1
  O2-  O212  1  0.50073309  0.62584206  0.16436900  1
  O2-  O213  1  0.49937150  0.62529281  0.66475559  1
  O2-  O214  1  0.50203776  0.87532718  0.16418897  1
  O2-  O215  1  0.50072126  0.87521144  0.66246737  1
  O2-  O216  1  0.75103242  0.12449812  0.16482856  1
  O2-  O217  1  0.74786062  0.12458513  0.67088524  1
  O2-  O218  1  0.75125371  0.37438942  0.16485372  1
  O2-  O219  1  0.74932393  0.37515680  0.66968457  1
  O2-  O220  1  0.74998270  0.62508539  0.16490285  1
  O2-  O221  1  0.75045592  0.62545203  0.66456782  1
  O2-  O222  1  0.74796974  0.87598133  0.16306517  1
  O2-  O223  1  0.74757554  0.87489174  0.66496081  1
  O2-  O224  1  0.12615109  -0.00280783  0.34703770  1
  O2-  O225  1  0.12491596  0.00220027  0.84553753  1
  O2-  O226  1  0.12556557  0.24975864  0.34949488  1
  O2-  O227  1  0.12541886  0.24884876  0.84934416  1
  O2-  O228  1  0.12553023  0.50082814  0.35029218  1
  O2-  O229  1  0.12505456  0.49838875  0.84866431  1
  O2-  O230  1  0.12572655  0.75217414  0.34554689  1
  O2-  O231  1  0.12498479  0.75019468  0.84770420  1
  O2-  O232  1  0.37649255  -0.00210685  0.34770917  1
  O2-  O233  1  0.37601480  0.00146294  0.84737296  1
  O2-  O234  1  0.37592348  0.25025310  0.34210757  1
  O2-  O235  1  0.37502292  0.24973198  0.85411677  1
  O2-  O236  1  0.37552144  0.50040955  0.34229492  1
  O2-  O237  1  0.37499183  0.49879639  0.84918760  1
  O2-  O238  1  0.37644509  0.75148326  0.34802572  1
  O2-  O239  1  0.37540979  0.75000541  0.84212688  1
  O2-  O240  1  0.62412645  -0.00292773  0.35028612  1
  O2-  O241  1  0.62418090  -0.00216645  0.85106757  1
  O2-  O242  1  0.62431811  0.24993590  0.34901450  1
  O2-  O243  1  0.62467470  0.25085893  0.85208818  1
  O2-  O244  1  0.62490940  0.50158289  0.34606726  1
  O2-  O245  1  0.62407364  0.49929766  0.84636460  1
  O2-  O246  1  0.62409745  0.75162373  0.34698445  1
  O2-  O247  1  0.62474480  0.75209198  0.84686423  1
  O2-  O248  1  0.87399659  -0.00253771  0.34580010  1
  O2-  O249  1  0.87395411  0.00128855  0.84898900  1
  O2-  O250  1  0.87483980  0.25142416  0.34799997  1
  O2-  O251  1  0.87409086  0.24873324  0.85295732  1
  O2-  O252  1  0.87422109  0.50068680  0.34879346  1
  O2-  O253  1  0.87517573  0.49982174  0.84452149  1
  O2-  O254  1  0.87449408  0.75054323  0.34258278  1
  O2-  O255  1  0.87415518  0.75006193  0.84506189  1
  O2-  O256  1  0.00047068  0.12446456  0.34724526  1
  O2-  O257  1  -0.00178219  0.12522928  0.84773723  1
  O2-  O258  1  -0.00005651  0.37508989  0.35101220  1
  O2-  O259  1  -0.00039052  0.37371507  0.84798386  1
  O2-  O260  1  -0.00129012  0.62530178  0.34699835  1
  O2-  O261  1  -0.00112056  0.62502271  0.84703426  1
  O2-  O262  1  0.00022664  0.87513891  0.34624627  1
  O2-  O263  1  -0.00166543  0.87584676  0.84560764  1
  O2-  O264  1  0.25240051  0.12380837  0.34265852  1
  O2-  O265  1  0.25080106  0.12505291  0.84938064  1
  O2-  O266  1  0.25177912  0.37497255  0.34497739  1
  O2-  O267  1  0.25106729  0.37421926  0.85164419  1
  O2-  O268  1  0.25168870  0.62623239  0.34718616  1
  O2-  O269  1  0.25049012  0.62466729  0.84723860  1
  O2-  O270  1  0.25181620  0.87486142  0.34907476  1
  O2-  O271  1  0.25117057  0.87609197  0.84393695  1
  O2-  O272  1  0.49884622  0.12397424  0.34574604  1
  O2-  O273  1  0.49785815  0.12469065  0.85254116  1
  O2-  O274  1  0.49886492  0.37495052  0.34476564  1
  O2-  O275  1  0.49825587  0.37443982  0.85070593  1
  O2-  O276  1  0.49988271  0.62577032  0.34416687  1
  O2-  O277  1  0.49920060  0.62554026  0.84793873  1
  O2-  O278  1  0.49986132  0.87539803  0.34969154  1
  O2-  O279  1  0.50065045  0.87522887  0.84687056  1
  O2-  O280  1  0.74868736  0.12452266  0.34821599  1
  O2-  O281  1  0.75219459  0.12382388  0.85304650  1
  O2-  O282  1  0.74974059  0.37465769  0.35000159  1
  O2-  O283  1  0.75072067  0.37502796  0.84788530  1
  O2-  O284  1  0.75015529  0.62596393  0.34507562  1
  O2-  O285  1  0.75088764  0.62560217  0.84742187  1
  O2-  O286  1  0.74868713  0.87505614  0.34666242  1
  O2-  O287  1  0.74926371  0.87536379  0.84894145  1
