# generated using pymatgen
data_BaYFeCuO5
_symmetry_space_group_name_H-M   'P 1'
_cell_length_a   15.66309271
_cell_length_b   15.66472128
_cell_length_c   15.47130948
_cell_angle_alpha   89.99915423
_cell_angle_beta   89.99876654
_cell_angle_gamma   89.99979993
_symmetry_Int_Tables_number   1
_chemical_formula_structural   BaYFeCuO5
_chemical_formula_sum   'Ba32 Y32 Fe32 Cu32 O160'
_cell_volume   3796.00926900
_cell_formula_units_Z   32
loop_
 _symmetry_equiv_pos_site_id
 _symmetry_equiv_pos_as_xyz
  1  'x, y, z'
loop_
 _atom_type_symbol
 _atom_type_oxidation_number
  Ba2+  2.0
  Y3+  3.0
  Fe3+  3.0
  Cu2+  2.0
  O2-  -2.0
loop_
 _atom_site_type_symbol
 _atom_site_label
 _atom_site_symmetry_multiplicity
 _atom_site_fract_x
 _atom_site_fract_y
 _atom_site_fract_z
 _atom_site_occupancy
  Ba2+  Ba0  1  0.00256334  0.00606051  0.02364688  1
  Ba2+  Ba1  1  -0.00152082  -0.00626517  0.50668885  1
  Ba2+  Ba2  1  0.00144082  0.25282635  0.02341769  1
  Ba2+  Ba3  1  -0.00121748  0.25541062  0.49744206  1
  Ba2+  Ba4  1  0.00419349  0.49839666  0.01714458  1
  Ba2+  Ba5  1  0.00717336  0.49498395  0.50702619  1
  Ba2+  Ba6  1  0.00471184  0.74245260  0.01620080  1
  Ba2+  Ba7  1  0.00615790  0.75512040  0.51525730  1
  Ba2+  Ba8  1  0.24018099  0.00158079  0.01874900  1
  Ba2+  Ba9  1  0.25080664  0.00063165  0.50665256  1
  Ba2+  Ba10  1  0.24280002  0.25639674  0.01728631  1
  Ba2+  Ba11  1  0.25653073  0.25698463  0.50605390  1
  Ba2+  Ba12  1  0.23982508  0.49628078  0.01052288  1
  Ba2+  Ba13  1  0.25392756  0.49755280  0.51158348  1
  Ba2+  Ba14  1  0.23875063  0.74679660  0.01129641  1
  Ba2+  Ba15  1  0.24754321  0.74398880  0.51269395  1
  Ba2+  Ba16  1  0.50817704  0.00244822  -0.00489370  1
  Ba2+  Ba17  1  0.50407935  0.00426847  0.51267426  1
  Ba2+  Ba18  1  0.50443871  0.25371168  0.01228981  1
  Ba2+  Ba19  1  0.49634297  0.25149705  0.51623247  1
  Ba2+  Ba20  1  0.49953773  0.49027905  0.01687595  1
  Ba2+  Ba21  1  0.49462698  0.49937108  0.51583317  1
  Ba2+  Ba22  1  0.50366989  0.75349780  0.00232191  1
  Ba2+  Ba23  1  0.50281335  0.74474874  0.51357071  1
  Ba2+  Ba24  1  0.74813861  0.00589127  -0.00021503  1
  Ba2+  Ba25  1  0.74676781  -0.00256785  0.51231189  1
  Ba2+  Ba26  1  0.75257061  0.25052688  0.01834716  1
  Ba2+  Ba27  1  0.74861078  0.24952258  0.50657985  1
  Ba2+  Ba28  1  0.75662385  0.49445343  0.02164711  1
  Ba2+  Ba29  1  0.74454083  0.49666840  0.51196659  1
  Ba2+  Ba30  1  0.75220830  0.74958785  0.00611559  1
  Ba2+  Ba31  1  0.74383865  0.75565280  0.51685150  1
  Y3+  Y32  1  0.00103125  0.00055516  0.26112516  1
  Y3+  Y33  1  0.00047862  -0.00171427  0.75226987  1
  Y3+  Y34  1  -0.00011532  0.25199022  0.25978021  1
  Y3+  Y35  1  0.00271222  0.25297912  0.75503051  1
  Y3+  Y36  1  0.00163939  0.49814971  0.25712580  1
  Y3+  Y37  1  0.00550483  0.49966852  0.75738372  1
  Y3+  Y38  1  0.00265664  0.74935572  0.25674124  1
  Y3+  Y39  1  0.00273586  0.74955003  0.75524578  1
  Y3+  Y40  1  0.24930566  -0.00006843  0.26169303  1
  Y3+  Y41  1  0.25017358  0.00098914  0.75339909  1
  Y3+  Y42  1  0.25035041  0.25328286  0.26120412  1
  Y3+  Y43  1  0.25007661  0.25309083  0.75309713  1
  Y3+  Y44  1  0.25004362  0.49765604  0.25958912  1
  Y3+  Y45  1  0.24747241  0.49938972  0.75525265  1
  Y3+  Y46  1  0.24842744  0.74874878  0.25904089  1
  Y3+  Y47  1  0.24761966  0.74708600  0.75600066  1
  Y3+  Y48  1  0.49924908  -0.00001126  0.26215925  1
  Y3+  Y49  1  0.50193591  0.00169847  0.75500784  1
  Y3+  Y50  1  0.49659563  0.25140592  0.25960301  1
  Y3+  Y51  1  0.49934827  0.24956072  0.75384869  1
  Y3+  Y52  1  0.49623317  0.49862238  0.25925316  1
  Y3+  Y53  1  0.49808544  0.49932681  0.75362209  1
  Y3+  Y54  1  0.49892885  0.74984949  0.26008616  1
  Y3+  Y55  1  0.50075777  0.74968542  0.75615530  1
  Y3+  Y56  1  0.75105591  0.00081092  0.26070615  1
  Y3+  Y57  1  0.74720529  -0.00067313  0.75569481  1
  Y3+  Y58  1  0.75340584  0.25041634  0.25909962  1
  Y3+  Y59  1  0.74764385  0.24903806  0.75532158  1
  Y3+  Y60  1  0.75234367  0.49833060  0.25754190  1
  Y3+  Y61  1  0.74905745  0.50009690  0.75461588  1
  Y3+  Y62  1  0.75005052  0.75021095  0.25754917  1
  Y3+  Y63  1  0.74871017  0.75222274  0.75627824  1
  Fe3+  Fe64  1  0.62484404  0.62454608  0.37576706  1
  Fe3+  Fe65  1  0.87459571  0.87333552  0.37671224  1
  Fe3+  Fe66  1  0.87512823  0.62490179  0.37981861  1
  Fe3+  Fe67  1  0.12538549  0.62439475  0.37701232  1
  Fe3+  Fe68  1  0.37402427  0.62406183  0.88068178  1
  Fe3+  Fe69  1  0.37386749  0.37463289  0.87715846  1
  Fe3+  Fe70  1  0.87611049  0.62369472  0.87587994  1
  Fe3+  Fe71  1  0.87624988  0.37466885  0.87570533  1
  Fe3+  Fe72  1  0.37544328  0.87353636  0.38067577  1
  Fe3+  Fe73  1  0.62534311  0.62288434  0.87920804  1
  Fe3+  Fe74  1  0.62480727  0.12548783  0.37726786  1
  Fe3+  Fe75  1  0.37330548  0.87561991  0.87998549  1
  Fe3+  Fe76  1  0.12391517  0.87625971  0.87608734  1
  Fe3+  Fe77  1  0.87680468  0.12645744  0.87608500  1
  Fe3+  Fe78  1  0.62407503  0.37521225  0.37592648  1
  Fe3+  Fe79  1  0.62597004  0.37487552  0.87538240  1
  Fe3+  Fe80  1  0.12524727  0.12558346  0.37882554  1
  Fe3+  Fe81  1  0.12423925  0.12608927  0.87489239  1
  Fe3+  Fe82  1  0.37346067  0.12602275  0.88019219  1
  Fe3+  Fe83  1  0.87659918  0.87566499  0.87904645  1
  Fe3+  Fe84  1  0.62484299  0.62426315  0.13438606  1
  Fe3+  Fe85  1  0.87523168  0.87542186  0.13477502  1
  Fe3+  Fe86  1  0.37506088  0.87444204  0.63665264  1
  Fe3+  Fe87  1  0.12494024  0.12629473  0.63236684  1
  Fe3+  Fe88  1  0.87516994  0.12504466  0.63466418  1
  Fe3+  Fe89  1  0.87505646  0.37516288  0.63525713  1
  Fe3+  Fe90  1  0.62488803  0.12480514  0.13972544  1
  Fe3+  Fe91  1  0.87552258  0.62523405  0.63335134  1
  Fe3+  Fe92  1  0.37484783  0.12495818  0.13521175  1
  Fe3+  Fe93  1  0.37428281  0.62473010  0.13407746  1
  Fe3+  Fe94  1  0.62484348  0.87625183  0.13747861  1
  Fe3+  Fe95  1  0.37490609  0.87548665  0.13444459  1
  Cu2+  Cu96  1  0.87496716  0.12473558  0.36837623  1
  Cu2+  Cu97  1  0.62517501  0.87465796  0.86316054  1
  Cu2+  Cu98  1  0.62503706  0.12694915  0.86143331  1
  Cu2+  Cu99  1  0.37583884  0.37583997  0.37150526  1
  Cu2+  Cu100  1  0.37539792  0.12545021  0.37433051  1
  Cu2+  Cu101  1  0.87438152  0.37636152  0.36663379  1
  Cu2+  Cu102  1  0.12460025  0.62448406  0.87089422  1
  Cu2+  Cu103  1  0.12546190  0.87380324  0.37359526  1
  Cu2+  Cu104  1  0.37489893  0.62491178  0.37262936  1
  Cu2+  Cu105  1  0.12478453  0.37408824  0.87110132  1
  Cu2+  Cu106  1  0.62484293  0.87420666  0.37359188  1
  Cu2+  Cu107  1  0.12570734  0.37575253  0.37258647  1
  Cu2+  Cu108  1  0.62337152  0.87528308  0.64334183  1
  Cu2+  Cu109  1  0.62523147  0.62470309  0.65198932  1
  Cu2+  Cu110  1  0.37437610  0.62515723  0.64333583  1
  Cu2+  Cu111  1  0.37477303  0.37546594  0.64407191  1
  Cu2+  Cu112  1  0.37436116  0.12505314  0.64035710  1
  Cu2+  Cu113  1  0.62517758  0.37487137  0.64941169  1
  Cu2+  Cu114  1  0.87566386  0.37464583  0.15563905  1
  Cu2+  Cu115  1  0.87475326  0.87475991  0.65105009  1
  Cu2+  Cu116  1  0.12523721  0.37513021  0.14716173  1
  Cu2+  Cu117  1  0.12526597  0.87491092  0.15372991  1
  Cu2+  Cu118  1  0.12456788  0.62413170  0.64868051  1
  Cu2+  Cu119  1  0.12495424  0.37456992  0.63980433  1
  Cu2+  Cu120  1  0.37436402  0.37469607  0.14968548  1
  Cu2+  Cu121  1  0.62510619  0.37452456  0.15396168  1
  Cu2+  Cu122  1  0.12587501  0.12570691  0.15854426  1
  Cu2+  Cu123  1  0.12572030  0.62396832  0.14569192  1
  Cu2+  Cu124  1  0.12662962  0.87566843  0.64051837  1
  Cu2+  Cu125  1  0.87501422  0.12419043  0.15431139  1
  Cu2+  Cu126  1  0.87502750  0.62546824  0.15175188  1
  Cu2+  Cu127  1  0.62545800  0.12570324  0.64986282  1
  O2-  O128  1  0.12335630  0.12516702  -0.00470630  1
  O2-  O129  1  0.12499790  0.12542541  0.50605980  1
  O2-  O130  1  0.12326601  0.37365920  0.00830432  1
  O2-  O131  1  0.12528372  0.37452357  0.50655395  1
  O2-  O132  1  0.12411731  0.62431017  0.00704986  1
  O2-  O133  1  0.12447063  0.62509191  0.49782807  1
  O2-  O134  1  0.12234229  0.87776550  -0.00356173  1
  O2-  O135  1  0.12649583  0.87500671  0.50646849  1
  O2-  O136  1  0.37392254  0.12495958  0.00699224  1
  O2-  O137  1  0.37583317  0.12429871  0.50731564  1
  O2-  O138  1  0.37477313  0.37329120  -0.00225734  1
  O2-  O139  1  0.37710919  0.37605077  0.50768458  1
  O2-  O140  1  0.37476216  0.62445961  0.00712728  1
  O2-  O141  1  0.37568720  0.62610839  0.50797206  1
  O2-  O142  1  0.37403658  0.87655067  0.00750229  1
  O2-  O143  1  0.37603144  0.87330450  0.50836427  1
  O2-  O144  1  0.62557785  0.12476833  0.01873053  1
  O2-  O145  1  0.62539909  0.12576077  0.49801330  1
  O2-  O146  1  0.62758037  0.37468310  -0.00421261  1
  O2-  O147  1  0.62402951  0.37580839  0.49620605  1
  O2-  O148  1  0.62623677  0.62334805  0.00632620  1
  O2-  O149  1  0.62577473  0.62473441  0.49619337  1
  O2-  O150  1  0.62546596  0.87736883  0.01703908  1
  O2-  O151  1  0.62366966  0.87410796  0.50774627  1
  O2-  O152  1  0.87714641  0.12656884  -0.00359282  1
  O2-  O153  1  0.87371571  0.12391830  0.51450141  1
  O2-  O154  1  0.87548576  0.37391861  -0.00384855  1
  O2-  O155  1  0.87347311  0.37567132  0.51467620  1
  O2-  O156  1  0.87449661  0.62372342  -0.00388506  1
  O2-  O157  1  0.87441298  0.62634218  0.50593906  1
  O2-  O158  1  0.87643710  0.87642323  0.00616299  1
  O2-  O159  1  0.87340107  0.87256229  0.49718172  1
  O2-  O160  1  0.12661037  0.00019701  0.16718678  1
  O2-  O161  1  0.12548653  0.00303244  0.66142880  1
  O2-  O162  1  0.12482749  0.24919214  0.16821913  1
  O2-  O163  1  0.12419477  0.24764042  0.66254983  1
  O2-  O164  1  0.12556360  0.49972399  0.16628420  1
  O2-  O165  1  0.12504304  0.50063347  0.66426587  1
  O2-  O166  1  0.12496701  0.75059487  0.16408153  1
  O2-  O167  1  0.12503279  0.74881510  0.66491671  1
  O2-  O168  1  0.37363565  -0.00039608  0.16511691  1
  O2-  O169  1  0.37523127  -0.00263382  0.66608303  1
  O2-  O170  1  0.37546671  0.24805492  0.16342055  1
  O2-  O171  1  0.37554898  0.25050320  0.66495160  1
  O2-  O172  1  0.37520432  0.50157377  0.16253590  1
  O2-  O173  1  0.37496433  0.50019985  0.66614368  1
  O2-  O174  1  0.37661991  0.75047362  0.16117355  1
  O2-  O175  1  0.37541459  0.75204407  0.66843311  1
  O2-  O176  1  0.62505776  -0.00020984  0.17085867  1
  O2-  O177  1  0.62471640  0.00132191  0.66574589  1
  O2-  O178  1  0.62436796  0.24938856  0.16558026  1
  O2-  O179  1  0.62466854  0.25040872  0.66261434  1
  O2-  O180  1  0.62568570  0.50100437  0.16039286  1
  O2-  O181  1  0.62566982  0.50014244  0.66362183  1
  O2-  O182  1  0.62357644  0.74938258  0.16137740  1
  O2-  O183  1  0.62432407  0.74872690  0.66830912  1
  O2-  O184  1  0.87467309  -0.00241500  0.16452872  1
  O2-  O185  1  0.87415637  0.00021548  0.66602016  1
  O2-  O186  1  0.87568888  0.24930802  0.16582488  1
  O2-  O187  1  0.87473483  0.24985578  0.66414008  1
  O2-  O188  1  0.87406391  0.50026813  0.16467614  1
  O2-  O189  1  0.87293433  0.50169653  0.66171561  1
  O2-  O190  1  0.87527091  0.75220081  0.16094722  1
  O2-  O191  1  0.87496515  0.74851726  0.66469632  1
  O2-  O192  1  0.00040056  0.12360138  0.16707438  1
  O2-  O193  1  0.00054042  0.12379863  0.66115225  1
  O2-  O194  1  -0.00099928  0.37511652  0.16749048  1
  O2-  O195  1  -0.00231132  0.37611014  0.66420577  1
  O2-  O196  1  -0.00109068  0.62490196  0.16656381  1
  O2-  O197  1  -0.00169106  0.62503421  0.66073920  1
  O2-  O198  1  -0.00103620  0.87558678  0.16343091  1
  O2-  O199  1  -0.00047551  0.87519159  0.66164975  1
  O2-  O200  1  0.25205301  0.12478491  0.16407567  1
  O2-  O201  1  0.24690112  0.12476016  0.66424975  1
  O2-  O202  1  0.25110839  0.37420272  0.16715048  1
  O2-  O203  1  0.24968319  0.37510603  0.66472955  1
  O2-  O204  1  0.25349516  0.62644336  0.16394743  1
  O2-  O205  1  0.24791120  0.62547394  0.66636896  1
  O2-  O206  1  0.25198014  0.87424380  0.16333959  1
  O2-  O207  1  0.25289031  0.87468436  0.66559632  1
  O2-  O208  1  0.49828481  0.12375008  0.16427059  1
  O2-  O209  1  0.50166279  0.12460465  0.66686212  1
  O2-  O210  1  0.49979229  0.37537565  0.16195799  1
  O2-  O211  1  0.50167818  0.37562919  0.66577706  1
  O2-  O212  1  0.49990553  0.62461392  0.16012539  1
  O2-  O213  1  0.50165727  0.62525002  0.66849931  1
  O2-  O214  1  0.49874694  0.87567204  0.16527830  1
  O2-  O215  1  0.49711690  0.87485215  0.66787425  1
  O2-  O216  1  0.74964428  0.12494693  0.16614847  1
  O2-  O217  1  0.75056076  0.12462601  0.66547510  1
  O2-  O218  1  0.75074133  0.37447183  0.16480017  1
  O2-  O219  1  0.75047514  0.37499936  0.66394394  1
  O2-  O220  1  0.74793831  0.62613934  0.16315777  1
  O2-  O221  1  0.75147160  0.62664767  0.66256614  1
  O2-  O222  1  0.75047270  0.87383042  0.16383390  1
  O2-  O223  1  0.75026807  0.87442947  0.66681606  1
  O2-  O224  1  0.12455893  0.00221204  0.35149309  1
  O2-  O225  1  0.12506785  0.00008524  0.84180640  1
  O2-  O226  1  0.12520935  0.24832438  0.35177406  1
  O2-  O227  1  0.12585044  0.24808245  0.84343384  1
  O2-  O228  1  0.12415609  0.50155660  0.34765389  1
  O2-  O229  1  0.12519853  0.49977657  0.84831763  1
  O2-  O230  1  0.12521383  0.74752796  0.34617314  1
  O2-  O231  1  0.12531798  0.75261401  0.84767406  1
  O2-  O232  1  0.37546599  -0.00322766  0.35043817  1
  O2-  O233  1  0.37586822  0.00025643  0.85143017  1
  O2-  O234  1  0.37468843  0.25059766  0.34828761  1
  O2-  O235  1  0.37444505  0.24865661  0.84759532  1
  O2-  O236  1  0.37551781  0.50019662  0.34721695  1
  O2-  O237  1  0.37585518  0.50109976  0.84908985  1
  O2-  O238  1  0.37490375  0.75221761  0.34641669  1
  O2-  O239  1  0.37516681  0.75037748  0.85401831  1
  O2-  O240  1  0.62469074  0.00137202  0.35017594  1
  O2-  O241  1  0.62420746  0.00080694  0.85082698  1
  O2-  O242  1  0.62577170  0.25038310  0.34652769  1
  O2-  O243  1  0.62473218  0.25140187  0.84536929  1
  O2-  O244  1  0.62529093  0.50029438  0.34279342  1
  O2-  O245  1  0.62425635  0.50093749  0.84616593  1
  O2-  O246  1  0.62545232  0.74767357  0.34315250  1
  O2-  O247  1  0.62547691  0.74745638  0.85310124  1
  O2-  O248  1  0.87559493  -0.00137749  0.34812537  1
  O2-  O249  1  0.87496579  -0.00093799  0.84894629  1
  O2-  O250  1  0.87466220  0.25058884  0.35111513  1
  O2-  O251  1  0.87471856  0.25020881  0.84264191  1
  O2-  O252  1  0.87474633  0.50259379  0.34957599  1
  O2-  O253  1  0.87485660  0.49971131  0.84247044  1
  O2-  O254  1  0.87433061  0.74779019  0.34431222  1
  O2-  O255  1  0.87398835  0.75153635  0.84941395  1
  O2-  O256  1  0.00129259  0.12526180  0.35209916  1
  O2-  O257  1  0.00000547  0.12469780  0.84012382  1
  O2-  O258  1  -0.00139539  0.37524238  0.35122247  1
  O2-  O259  1  -0.00105490  0.37475628  0.84456527  1
  O2-  O260  1  -0.00127160  0.62543621  0.34971599  1
  O2-  O261  1  -0.00161373  0.62609685  0.84339047  1
  O2-  O262  1  -0.00195841  0.87380742  0.34746445  1
  O2-  O263  1  -0.00109639  0.87507394  0.84377867  1
  O2-  O264  1  0.24758189  0.12388452  0.34921676  1
  O2-  O265  1  0.25127528  0.12343620  0.84696971  1
  O2-  O266  1  0.25066266  0.37561215  0.35025884  1
  O2-  O267  1  0.25161747  0.37506765  0.84700470  1
  O2-  O268  1  0.24846341  0.62504767  0.34699385  1
  O2-  O269  1  0.25274277  0.62569118  0.85047737  1
  O2-  O270  1  0.25302462  0.87517786  0.34879965  1
  O2-  O271  1  0.25083960  0.87610936  0.84849413  1
  O2-  O272  1  0.50190417  0.12521220  0.34550256  1
  O2-  O273  1  0.49775505  0.12510665  0.85237538  1
  O2-  O274  1  0.50153999  0.37530978  0.34464209  1
  O2-  O275  1  0.49958147  0.37484591  0.84774854  1
  O2-  O276  1  0.50149862  0.62547187  0.34391716  1
  O2-  O277  1  0.49994030  0.62621405  0.85351277  1
  O2-  O278  1  0.49738726  0.87384335  0.34817005  1
  O2-  O279  1  0.49791767  0.87448913  0.85290108  1
  O2-  O280  1  0.74947663  0.12479577  0.34813108  1
  O2-  O281  1  0.75093244  0.12449651  0.84815156  1
  O2-  O282  1  0.74914887  0.37594026  0.34792109  1
  O2-  O283  1  0.75022101  0.37578535  0.84358995  1
  O2-  O284  1  0.75139546  0.62471466  0.34690783  1
  O2-  O285  1  0.74879240  0.62488233  0.84637822  1
  O2-  O286  1  0.75185331  0.87433058  0.34512899  1
  O2-  O287  1  0.75178088  0.87541562  0.85191181  1
