# generated using pymatgen
data_BaYFeCuO5
_symmetry_space_group_name_H-M   'P 1'
_cell_length_a   15.68570793
_cell_length_b   15.68116683
_cell_length_c   15.53927731
_cell_angle_alpha   90.01006648
_cell_angle_beta   90.00924926
_cell_angle_gamma   89.99779730
_symmetry_Int_Tables_number   1
_chemical_formula_structural   BaYFeCuO5
_chemical_formula_sum   'Ba32 Y32 Fe32 Cu32 O160'
_cell_volume   3822.19907982
_cell_formula_units_Z   32
loop_
 _symmetry_equiv_pos_site_id
 _symmetry_equiv_pos_as_xyz
  1  'x, y, z'
loop_
 _atom_type_symbol
 _atom_type_oxidation_number
  Ba2+  2.0
  Y3+  3.0
  Fe3+  3.0
  Cu2+  2.0
  O2-  -2.0
loop_
 _atom_site_type_symbol
 _atom_site_label
 _atom_site_symmetry_multiplicity
 _atom_site_fract_x
 _atom_site_fract_y
 _atom_site_fract_z
 _atom_site_occupancy
  Ba2+  Ba0  1  -0.00525049  -0.00466679  0.01155269  1
  Ba2+  Ba1  1  0.00290593  -0.00296041  0.51305066  1
  Ba2+  Ba2  1  -0.00524950  0.25470203  0.02198041  1
  Ba2+  Ba3  1  0.00025405  0.25000584  0.50626710  1
  Ba2+  Ba4  1  -0.00135057  0.49991121  0.01881428  1
  Ba2+  Ba5  1  0.00406189  0.50267927  0.50109153  1
  Ba2+  Ba6  1  -0.00182841  0.74869309  0.00521923  1
  Ba2+  Ba7  1  0.00582058  0.75018761  0.50634528  1
  Ba2+  Ba8  1  0.25764613  -0.00035152  0.00449703  1
  Ba2+  Ba9  1  0.24349414  0.00268405  0.51861450  1
  Ba2+  Ba10  1  0.25682211  0.25119502  0.01605088  1
  Ba2+  Ba11  1  0.25037076  0.25066208  0.50540347  1
  Ba2+  Ba12  1  0.24516820  0.49494426  0.02238108  1
  Ba2+  Ba13  1  0.24624299  0.50131636  0.50071150  1
  Ba2+  Ba14  1  0.24375715  0.75364711  0.01428522  1
  Ba2+  Ba15  1  0.24122800  0.74625436  0.51199430  1
  Ba2+  Ba16  1  0.49996158  0.00420244  0.01197936  1
  Ba2+  Ba17  1  0.50505881  0.00655453  0.51694034  1
  Ba2+  Ba18  1  0.49999304  0.24791865  0.02162293  1
  Ba2+  Ba19  1  0.50246710  0.24696063  0.51197696  1
  Ba2+  Ba20  1  0.50525057  0.49460216  0.01295496  1
  Ba2+  Ba21  1  0.49479073  0.49436229  0.51214474  1
  Ba2+  Ba22  1  0.50488382  0.75450322  0.00055069  1
  Ba2+  Ba23  1  0.49923750  0.75052230  0.51664031  1
  Ba2+  Ba24  1  0.74811991  0.00063306  0.01968586  1
  Ba2+  Ba25  1  0.74812753  0.00302683  0.51142488  1
  Ba2+  Ba26  1  0.74921396  0.25106051  0.02746374  1
  Ba2+  Ba27  1  0.74744096  0.24701183  0.51036235  1
  Ba2+  Ba28  1  0.75155823  0.50037002  0.00544126  1
  Ba2+  Ba29  1  0.75455783  0.49404284  0.51283239  1
  Ba2+  Ba30  1  0.75221099  0.74917924  -0.00807573  1
  Ba2+  Ba31  1  0.75545035  0.75554101  0.51227940  1
  Y3+  Y32  1  -0.00003209  -0.00086821  0.25813320  1
  Y3+  Y33  1  0.00047752  -0.00189993  0.75577292  1
  Y3+  Y34  1  -0.00108903  0.25002899  0.25746106  1
  Y3+  Y35  1  -0.00033951  0.24998446  0.75525224  1
  Y3+  Y36  1  0.00223283  0.50114363  0.25976941  1
  Y3+  Y37  1  -0.00040696  0.50087825  0.75511001  1
  Y3+  Y38  1  0.00341276  0.74918104  0.26136481  1
  Y3+  Y39  1  0.00061222  0.75107458  0.75396769  1
  Y3+  Y40  1  0.24940487  -0.00087734  0.25525118  1
  Y3+  Y41  1  0.25122000  0.00138312  0.75842632  1
  Y3+  Y42  1  0.25178035  0.25145585  0.25538244  1
  Y3+  Y43  1  0.25157096  0.24695532  0.75842981  1
  Y3+  Y44  1  0.24762014  0.49863650  0.25922320  1
  Y3+  Y45  1  0.24944216  0.50225901  0.75461346  1
  Y3+  Y46  1  0.24571950  0.75028810  0.26039832  1
  Y3+  Y47  1  0.24892679  0.74987931  0.75473670  1
  Y3+  Y48  1  0.50129035  0.00260982  0.25592049  1
  Y3+  Y49  1  0.49896702  0.00271657  0.75763524  1
  Y3+  Y50  1  0.49983262  0.24870217  0.25727391  1
  Y3+  Y51  1  0.49989906  0.24748428  0.75519980  1
  Y3+  Y52  1  0.49888584  0.49763218  0.25714763  1
  Y3+  Y53  1  0.50046876  0.50058328  0.75724721  1
  Y3+  Y54  1  0.50006067  0.75099918  0.25785160  1
  Y3+  Y55  1  0.49942889  0.75011022  0.75719278  1
  Y3+  Y56  1  0.74902379  0.00294301  0.26009586  1
  Y3+  Y57  1  0.74965582  -0.00068988  0.75366255  1
  Y3+  Y58  1  0.74933223  0.24706291  0.26074320  1
  Y3+  Y59  1  0.74880851  0.25065025  0.75092296  1
  Y3+  Y60  1  0.75130189  0.49907575  0.25874630  1
  Y3+  Y61  1  0.75043093  0.49991792  0.75633964  1
  Y3+  Y62  1  0.75066740  0.75018302  0.26105843  1
  Y3+  Y63  1  0.75150100  0.75114863  0.75549209  1
  Fe3+  Fe64  1  0.12477757  0.37490389  0.87780930  1
  Fe3+  Fe65  1  0.37512805  0.37521488  0.87754211  1
  Fe3+  Fe66  1  0.37558301  0.62526513  0.37740920  1
  Fe3+  Fe67  1  0.62553878  0.87722864  0.87412501  1
  Fe3+  Fe68  1  0.37413028  0.62480772  0.88077308  1
  Fe3+  Fe69  1  0.62522504  0.62431800  0.38178011  1
  Fe3+  Fe70  1  0.62657477  0.12671586  0.87604402  1
  Fe3+  Fe71  1  0.87543071  0.37428348  0.37652973  1
  Fe3+  Fe72  1  0.62366095  0.87583015  0.37874592  1
  Fe3+  Fe73  1  0.37396910  0.87626589  0.38161176  1
  Fe3+  Fe74  1  0.62407066  0.37441129  0.37698668  1
  Fe3+  Fe75  1  0.62552571  0.37355473  0.87502765  1
  Fe3+  Fe76  1  0.12380839  0.12608278  0.88064398  1
  Fe3+  Fe77  1  0.87577447  0.87589592  0.37846428  1
  Fe3+  Fe78  1  0.12515329  0.12467476  0.37415073  1
  Fe3+  Fe79  1  0.87358946  0.12571681  0.87725176  1
  Fe3+  Fe80  1  0.12454534  0.62379206  0.87721234  1
  Fe3+  Fe81  1  0.12486400  0.87526450  0.87598572  1
  Fe3+  Fe82  1  0.37477593  0.12444289  0.37671348  1
  Fe3+  Fe83  1  0.87497133  0.37410902  0.87490299  1
  Fe3+  Fe84  1  0.62501006  0.62462548  0.63528551  1
  Fe3+  Fe85  1  0.12501831  0.37474795  0.63693129  1
  Fe3+  Fe86  1  0.87407003  0.87305694  0.14007931  1
  Fe3+  Fe87  1  0.62588398  0.62623847  0.13843414  1
  Fe3+  Fe88  1  0.37375044  0.37458250  0.63784836  1
  Fe3+  Fe89  1  0.87632679  0.62483593  0.63649379  1
  Fe3+  Fe90  1  0.37445537  0.87554981  0.63574193  1
  Fe3+  Fe91  1  0.87474324  0.62601097  0.14114623  1
  Fe3+  Fe92  1  0.12486375  0.12400109  0.13384480  1
  Fe3+  Fe93  1  0.37459152  0.62555657  0.13496156  1
  Fe3+  Fe94  1  0.37558530  0.87411392  0.13818333  1
  Fe3+  Fe95  1  0.87633822  0.12489109  0.63569976  1
  Cu2+  Cu96  1  0.62421656  0.12489449  0.37211735  1
  Cu2+  Cu97  1  0.87566420  0.12428049  0.36582414  1
  Cu2+  Cu98  1  0.12598172  0.87658126  0.37288512  1
  Cu2+  Cu99  1  0.87508233  0.87590142  0.86009636  1
  Cu2+  Cu100  1  0.87607038  0.62454492  0.85973558  1
  Cu2+  Cu101  1  0.87461278  0.62512532  0.36895293  1
  Cu2+  Cu102  1  0.12534409  0.62495315  0.37168031  1
  Cu2+  Cu103  1  0.62511372  0.62447757  0.86076231  1
  Cu2+  Cu104  1  0.37493185  0.87449160  0.86159124  1
  Cu2+  Cu105  1  0.37629002  0.12613076  0.87363443  1
  Cu2+  Cu106  1  0.12520417  0.37345441  0.36098742  1
  Cu2+  Cu107  1  0.37503355  0.37439153  0.36216948  1
  Cu2+  Cu108  1  0.87551064  0.87515786  0.64875291  1
  Cu2+  Cu109  1  0.12483819  0.62536215  0.15252758  1
  Cu2+  Cu110  1  0.87532316  0.12438306  0.15283693  1
  Cu2+  Cu111  1  0.12489816  0.12579416  0.65378691  1
  Cu2+  Cu112  1  0.62442731  0.37546750  0.64838093  1
  Cu2+  Cu113  1  0.37553583  0.37584077  0.15256123  1
  Cu2+  Cu114  1  0.12406280  0.87510526  0.15175717  1
  Cu2+  Cu115  1  0.62520589  0.12486014  0.15383424  1
  Cu2+  Cu116  1  0.62560779  0.37586254  0.15492671  1
  Cu2+  Cu117  1  0.62552616  0.12512843  0.64172416  1
  Cu2+  Cu118  1  0.12436454  0.37391078  0.15361889  1
  Cu2+  Cu119  1  0.12468040  0.62410562  0.64288768  1
  Cu2+  Cu120  1  0.12538014  0.87484579  0.64264785  1
  Cu2+  Cu121  1  0.37424561  0.12519466  0.64918412  1
  Cu2+  Cu122  1  0.87592990  0.37509360  0.64732222  1
  Cu2+  Cu123  1  0.37463788  0.62469885  0.64941016  1
  Cu2+  Cu124  1  0.62574396  0.87394218  0.15352043  1
  Cu2+  Cu125  1  0.62443819  0.87476582  0.64994729  1
  Cu2+  Cu126  1  0.37468180  0.12409806  0.14206111  1
  Cu2+  Cu127  1  0.87434924  0.37601123  0.15678549  1
  O2-  O128  1  0.12374722  0.12516023  0.00608363  1
  O2-  O129  1  0.12545371  0.12569949  0.49413397  1
  O2-  O130  1  0.12271154  0.37588407  -0.00276920  1
  O2-  O131  1  0.12612291  0.37383277  0.51694018  1
  O2-  O132  1  0.12465162  0.62342657  -0.00304472  1
  O2-  O133  1  0.12498675  0.62398183  0.50621923  1
  O2-  O134  1  0.12360294  0.87455732  -0.00419675  1
  O2-  O135  1  0.12643633  0.87606131  0.50744589  1
  O2-  O136  1  0.37601783  0.12556260  0.00729593  1
  O2-  O137  1  0.37359754  0.12418500  0.49665621  1
  O2-  O138  1  0.37641351  0.37613545  -0.00242952  1
  O2-  O139  1  0.37275753  0.37545851  0.51792960  1
  O2-  O140  1  0.37472156  0.62520194  0.00734302  1
  O2-  O141  1  0.37634134  0.62474940  0.49717984  1
  O2-  O142  1  0.37601470  0.87275801  0.01815488  1
  O2-  O143  1  0.37420950  0.87601000  0.50722998  1
  O2-  O144  1  0.62739028  0.12682519  -0.00428702  1
  O2-  O145  1  0.62424466  0.12531005  0.50651679  1
  O2-  O146  1  0.62680087  0.37398244  -0.00523332  1
  O2-  O147  1  0.62360946  0.37555464  0.49678193  1
  O2-  O148  1  0.62701470  0.62669465  0.01862899  1
  O2-  O149  1  0.62397544  0.62423609  0.50767309  1
  O2-  O150  1  0.62624246  0.87567911  -0.00576734  1
  O2-  O151  1  0.62315697  0.87530741  0.49825959  1
  O2-  O152  1  0.87236776  0.12674018  -0.00302766  1
  O2-  O153  1  0.87741834  0.12404521  0.51552813  1
  O2-  O154  1  0.87364686  0.37456498  -0.00558155  1
  O2-  O155  1  0.87581443  0.37408963  0.49655733  1
  O2-  O156  1  0.87317001  0.62637007  0.02138502  1
  O2-  O157  1  0.87513006  0.62461256  0.51647431  1
  O2-  O158  1  0.87324758  0.87183971  0.01996041  1
  O2-  O159  1  0.87560553  0.87724844  0.49869472  1
  O2-  O160  1  0.12424321  0.00122852  0.16143558  1
  O2-  O161  1  0.12546309  0.00178385  0.66582855  1
  O2-  O162  1  0.12464822  0.24814358  0.16120262  1
  O2-  O163  1  0.12518364  0.25046873  0.66676877  1
  O2-  O164  1  0.12503860  0.49902475  0.16592563  1
  O2-  O165  1  0.12578208  0.49837919  0.66545933  1
  O2-  O166  1  0.12527845  0.75045691  0.16688934  1
  O2-  O167  1  0.12548595  0.74925257  0.66492792  1
  O2-  O168  1  0.37534898  -0.00257125  0.16675779  1
  O2-  O169  1  0.37454203  -0.00047035  0.66338746  1
  O2-  O170  1  0.37539242  0.25153611  0.16453961  1
  O2-  O171  1  0.37451322  0.24971680  0.66465416  1
  O2-  O172  1  0.37503499  0.50205419  0.16343223  1
  O2-  O173  1  0.37532940  0.49961371  0.66741023  1
  O2-  O174  1  0.37450290  0.74842840  0.16837709  1
  O2-  O175  1  0.37553344  0.75112488  0.66356651  1
  O2-  O176  1  0.62481166  -0.00048795  0.16303999  1
  O2-  O177  1  0.62490890  -0.00142761  0.66425797  1
  O2-  O178  1  0.62529250  0.25069620  0.16477973  1
  O2-  O179  1  0.62457452  0.25149784  0.66117731  1
  O2-  O180  1  0.62437239  0.50148774  0.16713261  1
  O2-  O181  1  0.62476520  0.50196385  0.66340096  1
  O2-  O182  1  0.62473786  0.74875266  0.17238364  1
  O2-  O183  1  0.62395378  0.74809066  0.66259149  1
  O2-  O184  1  0.87476710  -0.00121475  0.16482347  1
  O2-  O185  1  0.87559558  0.00015037  0.66556207  1
  O2-  O186  1  0.87443633  0.25052641  0.16438960  1
  O2-  O187  1  0.87612403  0.24997690  0.66205164  1
  O2-  O188  1  0.87538920  0.50095758  0.16747098  1
  O2-  O189  1  0.87410261  0.50020465  0.66549391  1
  O2-  O190  1  0.87534691  0.74952257  0.17419236  1
  O2-  O191  1  0.87476287  0.74985206  0.66546497  1
  O2-  O192  1  0.00131997  0.12495848  0.16169506  1
  O2-  O193  1  -0.00014302  0.12476503  0.66728717  1
  O2-  O194  1  -0.00088253  0.37485246  0.16460323  1
  O2-  O195  1  0.00107856  0.37495105  0.66563474  1
  O2-  O196  1  0.00027527  0.62488550  0.16694379  1
  O2-  O197  1  -0.00140712  0.62467561  0.66673469  1
  O2-  O198  1  -0.00048114  0.87473184  0.16626678  1
  O2-  O199  1  -0.00005240  0.87532249  0.66534091  1
  O2-  O200  1  0.24702065  0.12453831  0.16123103  1
  O2-  O201  1  0.24908424  0.12476825  0.66722199  1
  O2-  O202  1  0.25001698  0.37517303  0.16378984  1
  O2-  O203  1  0.24990760  0.37438038  0.67026339  1
  O2-  O204  1  0.25076862  0.62514570  0.16173974  1
  O2-  O205  1  0.25084168  0.62544779  0.66610644  1
  O2-  O206  1  0.24961480  0.87413191  0.16595431  1
  O2-  O207  1  0.25299313  0.87517868  0.66485964  1
  O2-  O208  1  0.50138629  0.12479581  0.16427447  1
  O2-  O209  1  0.49920490  0.12477010  0.66409926  1
  O2-  O210  1  0.50078780  0.37617377  0.16379860  1
  O2-  O211  1  0.49893459  0.37585939  0.66507544  1
  O2-  O212  1  0.49855101  0.62541025  0.16501088  1
  O2-  O213  1  0.50160619  0.62496774  0.66400133  1
  O2-  O214  1  0.50037845  0.87341198  0.16718889  1
  O2-  O215  1  0.49769932  0.87460792  0.66251291  1
  O2-  O216  1  0.74993838  0.12452584  0.16736376  1
  O2-  O217  1  0.75226582  0.12506179  0.66201169  1
  O2-  O218  1  0.74992609  0.37623629  0.16767505  1
  O2-  O219  1  0.74961645  0.37536177  0.65953751  1
  O2-  O220  1  0.75017982  0.62464630  0.17363540  1
  O2-  O221  1  0.74910734  0.62541651  0.66339951  1
  O2-  O222  1  0.75013205  0.87473077  0.17006763  1
  O2-  O223  1  0.74934023  0.87419433  0.66175332  1
  O2-  O224  1  0.12591814  0.00197933  0.34322110  1
  O2-  O225  1  0.12466390  0.00139309  0.84881500  1
  O2-  O226  1  0.12539050  0.24886975  0.34420977  1
  O2-  O227  1  0.12489780  0.24912838  0.84764716  1
  O2-  O228  1  0.12557451  0.49800783  0.35044226  1
  O2-  O229  1  0.12494652  0.50001189  0.84411678  1
  O2-  O230  1  0.12573074  0.75040756  0.35074920  1
  O2-  O231  1  0.12528277  0.74950264  0.84605325  1
  O2-  O232  1  0.37499665  -0.00128025  0.34725667  1
  O2-  O233  1  0.37516827  -0.00132691  0.84825497  1
  O2-  O234  1  0.37433300  0.24977028  0.34767343  1
  O2-  O235  1  0.37507953  0.25274769  0.84543107  1
  O2-  O236  1  0.37531517  0.50001676  0.34743350  1
  O2-  O237  1  0.37517026  0.50165069  0.84820386  1
  O2-  O238  1  0.37585961  0.75145329  0.35003202  1
  O2-  O239  1  0.37530783  0.74782941  0.84882629  1
  O2-  O240  1  0.62421316  -0.00168050  0.34629075  1
  O2-  O241  1  0.62502933  0.00110140  0.84446889  1
  O2-  O242  1  0.62454113  0.25133879  0.34763891  1
  O2-  O243  1  0.62540930  0.25049130  0.84086311  1
  O2-  O244  1  0.62452333  0.50100998  0.34894599  1
  O2-  O245  1  0.62531709  0.49950722  0.84667850  1
  O2-  O246  1  0.62356742  0.74886260  0.35230128  1
  O2-  O247  1  0.62522464  0.75034277  0.84655167  1
  O2-  O248  1  0.87476367  -0.00081975  0.34624683  1
  O2-  O249  1  0.87568629  0.00126956  0.84740442  1
  O2-  O250  1  0.87546883  0.24994997  0.34752499  1
  O2-  O251  1  0.87495280  0.25007586  0.84131175  1
  O2-  O252  1  0.87481928  0.49957620  0.34900942  1
  O2-  O253  1  0.87484285  0.49923262  0.84688014  1
  O2-  O254  1  0.87452723  0.75062761  0.35303828  1
  O2-  O255  1  0.87432969  0.74983931  0.84927450  1
  O2-  O256  1  0.00070904  0.12488157  0.34506089  1
  O2-  O257  1  0.00048162  0.12541388  0.84888882  1
  O2-  O258  1  -0.00026682  0.37435861  0.34771149  1
  O2-  O259  1  0.00030627  0.37467361  0.84466867  1
  O2-  O260  1  -0.00091605  0.62474515  0.34980130  1
  O2-  O261  1  0.00070229  0.62547263  0.84777986  1
  O2-  O262  1  -0.00102873  0.87556060  0.34815278  1
  O2-  O263  1  0.00024921  0.87477335  0.84770199  1
  O2-  O264  1  0.25092657  0.12525858  0.34214783  1
  O2-  O265  1  0.24705548  0.12459365  0.85164642  1
  O2-  O266  1  0.24988306  0.37463593  0.34834576  1
  O2-  O267  1  0.24965565  0.37537046  0.84849066  1
  O2-  O268  1  0.25250507  0.62472047  0.34549247  1
  O2-  O269  1  0.25071879  0.62524188  0.84813924  1
  O2-  O270  1  0.25333749  0.87503425  0.34850728  1
  O2-  O271  1  0.24936491  0.87529671  0.84736036  1
  O2-  O272  1  0.49748040  0.12493927  0.34605294  1
  O2-  O273  1  0.50264942  0.12525149  0.84604730  1
  O2-  O274  1  0.50048323  0.37546934  0.34635660  1
  O2-  O275  1  0.50026745  0.37654301  0.84515030  1
  O2-  O276  1  0.50130342  0.62479514  0.34713489  1
  O2-  O277  1  0.49768671  0.62559662  0.84942547  1
  O2-  O278  1  0.49824558  0.87442300  0.34876593  1
  O2-  O279  1  0.50049567  0.87397868  0.84563714  1
  O2-  O280  1  0.75094029  0.12469617  0.35163667  1
  O2-  O281  1  0.75004444  0.12501579  0.84078118  1
  O2-  O282  1  0.74970132  0.37497080  0.34855529  1
  O2-  O283  1  0.75013659  0.37578482  0.84125913  1
  O2-  O284  1  0.74733941  0.62530538  0.35423588  1
  O2-  O285  1  0.75115060  0.62484606  0.84737422  1
  O2-  O286  1  0.74928731  0.87435473  0.35018573  1
  O2-  O287  1  0.75016887  0.87467855  0.84454369  1
