# generated using pymatgen
data_BaYFeCuO5
_symmetry_space_group_name_H-M   'P 1'
_cell_length_a   15.67357234
_cell_length_b   15.68171647
_cell_length_c   15.49878316
_cell_angle_alpha   89.99957118
_cell_angle_beta   89.99947028
_cell_angle_gamma   89.99878943
_symmetry_Int_Tables_number   1
_chemical_formula_structural   BaYFeCuO5
_chemical_formula_sum   'Ba32 Y32 Fe32 Cu32 O160'
_cell_volume   3809.42293388
_cell_formula_units_Z   32
loop_
 _symmetry_equiv_pos_site_id
 _symmetry_equiv_pos_as_xyz
  1  'x, y, z'
loop_
 _atom_type_symbol
 _atom_type_oxidation_number
  Ba2+  2.0
  Y3+  3.0
  Fe3+  3.0
  Cu2+  2.0
  O2-  -2.0
loop_
 _atom_site_type_symbol
 _atom_site_label
 _atom_site_symmetry_multiplicity
 _atom_site_fract_x
 _atom_site_fract_y
 _atom_site_fract_z
 _atom_site_occupancy
  Ba2+  Ba0  1  -0.01090814  -0.00083456  0.01164734  1
  Ba2+  Ba1  1  0.00003439  0.00997104  0.50617854  1
  Ba2+  Ba2  1  -0.00338245  0.25743000  0.01868359  1
  Ba2+  Ba3  1  -0.00045370  0.25617129  0.50635450  1
  Ba2+  Ba4  1  0.00156052  0.49797321  0.02510713  1
  Ba2+  Ba5  1  -0.00560086  0.49332704  0.50648982  1
  Ba2+  Ba6  1  -0.00450633  0.74504040  0.01928467  1
  Ba2+  Ba7  1  -0.00723686  0.74299417  0.50634642  1
  Ba2+  Ba8  1  0.25740188  0.00173636  0.00608599  1
  Ba2+  Ba9  1  0.25741956  0.00491693  0.51354868  1
  Ba2+  Ba10  1  0.25158328  0.25745674  0.01746990  1
  Ba2+  Ba11  1  0.24903766  0.25217648  0.51117872  1
  Ba2+  Ba12  1  0.24496038  0.49574306  0.01148501  1
  Ba2+  Ba13  1  0.25263938  0.49276438  0.51610149  1
  Ba2+  Ba14  1  0.25167317  0.74303638  0.00034424  1
  Ba2+  Ba15  1  0.26146367  0.74993806  0.51839031  1
  Ba2+  Ba16  1  0.50099819  0.00839970  0.00706971  1
  Ba2+  Ba17  1  0.50167704  0.00206926  0.52392860  1
  Ba2+  Ba18  1  0.50251083  0.24887450  0.01220910  1
  Ba2+  Ba19  1  0.50181952  0.24703827  0.51252458  1
  Ba2+  Ba20  1  0.49611899  0.49437285  0.00201037  1
  Ba2+  Ba21  1  0.50042089  0.50055062  0.51844268  1
  Ba2+  Ba22  1  0.49225158  0.74959331  -0.00286146  1
  Ba2+  Ba23  1  0.50175039  0.75114021  0.52854594  1
  Ba2+  Ba24  1  0.75319832  0.00596643  0.01196200  1
  Ba2+  Ba25  1  0.74174865  0.00667697  0.51647010  1
  Ba2+  Ba26  1  0.74820571  0.24835002  0.01199934  1
  Ba2+  Ba27  1  0.74902161  0.25069967  0.50617908  1
  Ba2+  Ba28  1  0.75602078  0.49510820  0.01370637  1
  Ba2+  Ba29  1  0.75369393  0.49811376  0.50597083  1
  Ba2+  Ba30  1  0.76101023  0.75161678  0.01076261  1
  Ba2+  Ba31  1  0.74492799  0.74365227  0.51803288  1
  Y3+  Y32  1  -0.00150557  0.00033313  0.25607371  1
  Y3+  Y33  1  -0.00257173  0.00059854  0.75818093  1
  Y3+  Y34  1  0.00080143  0.25349752  0.26109288  1
  Y3+  Y35  1  -0.00086471  0.25362751  0.75311642  1
  Y3+  Y36  1  -0.00071536  0.49773685  0.26316231  1
  Y3+  Y37  1  -0.00017358  0.49633775  0.75107332  1
  Y3+  Y38  1  -0.00223082  0.74778656  0.25861941  1
  Y3+  Y39  1  -0.00250142  0.74982812  0.75581159  1
  Y3+  Y40  1  0.25013535  0.00205903  0.25652639  1
  Y3+  Y41  1  0.25166203  0.00012244  0.75862356  1
  Y3+  Y42  1  0.24891389  0.25199625  0.25780818  1
  Y3+  Y43  1  0.24856122  0.25346031  0.75604869  1
  Y3+  Y44  1  0.24728928  0.49685584  0.25716994  1
  Y3+  Y45  1  0.24910417  0.49714164  0.75679737  1
  Y3+  Y46  1  0.24881073  0.74883029  0.25642231  1
  Y3+  Y47  1  0.25210007  0.74943215  0.75890357  1
  Y3+  Y48  1  0.50228156  0.00417471  0.25421105  1
  Y3+  Y49  1  0.50179154  0.00201720  0.75991245  1
  Y3+  Y50  1  0.50192292  0.24800373  0.25658270  1
  Y3+  Y51  1  0.50279120  0.24881439  0.75806944  1
  Y3+  Y52  1  0.50067037  0.49751741  0.25695917  1
  Y3+  Y53  1  0.49941592  0.49962233  0.75773430  1
  Y3+  Y54  1  0.50086420  0.75015562  0.25360583  1
  Y3+  Y55  1  0.49887069  0.75015863  0.76010880  1
  Y3+  Y56  1  0.74900163  0.00238006  0.25465320  1
  Y3+  Y57  1  0.74870778  0.00248155  0.75937271  1
  Y3+  Y58  1  0.74868775  0.24930440  0.25956375  1
  Y3+  Y59  1  0.74918082  0.24898609  0.75543860  1
  Y3+  Y60  1  0.75271623  0.49823420  0.26205992  1
  Y3+  Y61  1  0.75161131  0.49919610  0.75289758  1
  Y3+  Y62  1  0.75297239  0.74964478  0.25693826  1
  Y3+  Y63  1  0.75122916  0.74999724  0.75724121  1
  Fe3+  Fe64  1  0.37743207  0.87502928  0.37578685  1
  Fe3+  Fe65  1  0.37655716  0.37489576  0.37641439  1
  Fe3+  Fe66  1  0.37430748  0.12719003  0.87627195  1
  Fe3+  Fe67  1  0.12377088  0.12727682  0.88128019  1
  Fe3+  Fe68  1  0.62356098  0.62561157  0.37564124  1
  Fe3+  Fe69  1  0.87547467  0.12694512  0.87579464  1
  Fe3+  Fe70  1  0.12263812  0.62249021  0.87499063  1
  Fe3+  Fe71  1  0.62646814  0.62341847  0.87972641  1
  Fe3+  Fe72  1  0.12669182  0.62470438  0.38067587  1
  Fe3+  Fe73  1  0.37651679  0.62551747  0.37679459  1
  Fe3+  Fe74  1  0.87662680  0.62300242  0.87436463  1
  Fe3+  Fe75  1  0.87306327  0.87571102  0.38028055  1
  Fe3+  Fe76  1  0.62393920  0.87537241  0.37609793  1
  Fe3+  Fe77  1  0.37585688  0.12472873  0.37498980  1
  Fe3+  Fe78  1  0.37461098  0.37427328  0.87513233  1
  Fe3+  Fe79  1  0.87428138  0.12479873  0.37614707  1
  Fe3+  Fe80  1  0.12334891  0.87482728  0.88003962  1
  Fe3+  Fe81  1  0.12601063  0.87530642  0.38104402  1
  Fe3+  Fe82  1  0.87525928  0.37549307  0.87476070  1
  Fe3+  Fe83  1  0.62631535  0.87530374  0.87955997  1
  Fe3+  Fe84  1  0.12431334  0.12518208  0.13493202  1
  Fe3+  Fe85  1  0.62547371  0.37565426  0.13889698  1
  Fe3+  Fe86  1  0.62564800  0.87446072  0.13210984  1
  Fe3+  Fe87  1  0.62513420  0.37498074  0.63836364  1
  Fe3+  Fe88  1  0.12509914  0.62485272  0.63380763  1
  Fe3+  Fe89  1  0.12490431  0.12524247  0.63855593  1
  Fe3+  Fe90  1  0.12500458  0.87428690  0.13467470  1
  Fe3+  Fe91  1  0.12491081  0.87521048  0.63450684  1
  Fe3+  Fe92  1  0.37488047  0.87486113  0.13496471  1
  Fe3+  Fe93  1  0.62578075  0.62463696  0.13256586  1
  Fe3+  Fe94  1  0.87399001  0.87653109  0.63413374  1
  Fe3+  Fe95  1  0.37466828  0.62326755  0.13614959  1
  Cu2+  Cu96  1  0.87540527  0.87466929  0.87172479  1
  Cu2+  Cu97  1  0.87400743  0.37369903  0.37245266  1
  Cu2+  Cu98  1  0.37474985  0.87592319  0.86402359  1
  Cu2+  Cu99  1  0.12566800  0.12449576  0.36222730  1
  Cu2+  Cu100  1  0.62421670  0.12407830  0.37230900  1
  Cu2+  Cu101  1  0.12661842  0.37486362  0.37397466  1
  Cu2+  Cu102  1  0.37417997  0.62307796  0.86184561  1
  Cu2+  Cu103  1  0.62386154  0.37471425  0.36519710  1
  Cu2+  Cu104  1  0.12301901  0.37488667  0.87221358  1
  Cu2+  Cu105  1  0.87381780  0.62535959  0.37353814  1
  Cu2+  Cu106  1  0.62637145  0.37538117  0.86339569  1
  Cu2+  Cu107  1  0.62598711  0.12649658  0.87342954  1
  Cu2+  Cu108  1  0.87367769  0.37385289  0.64028329  1
  Cu2+  Cu109  1  0.87497626  0.12513146  0.64927244  1
  Cu2+  Cu110  1  0.62482227  0.62465651  0.65648241  1
  Cu2+  Cu111  1  0.37573170  0.37507648  0.15222780  1
  Cu2+  Cu112  1  0.87420476  0.37455881  0.15744455  1
  Cu2+  Cu113  1  0.87514228  0.87522845  0.14258683  1
  Cu2+  Cu114  1  0.12490943  0.62450182  0.15431463  1
  Cu2+  Cu115  1  0.37612658  0.37408627  0.65195673  1
  Cu2+  Cu116  1  0.62543685  0.87540802  0.65699681  1
  Cu2+  Cu117  1  0.87472439  0.62329813  0.15612831  1
  Cu2+  Cu118  1  0.37527725  0.87610973  0.65710275  1
  Cu2+  Cu119  1  0.12446025  0.37483772  0.14446100  1
  Cu2+  Cu120  1  0.87586064  0.12650316  0.15317415  1
  Cu2+  Cu121  1  0.62569072  0.12573052  0.14082960  1
  Cu2+  Cu122  1  0.12507119  0.37480269  0.64019947  1
  Cu2+  Cu123  1  0.87480441  0.62454040  0.64008939  1
  Cu2+  Cu124  1  0.62485818  0.12602760  0.64439787  1
  Cu2+  Cu125  1  0.37421029  0.12576047  0.14968737  1
  Cu2+  Cu126  1  0.37453653  0.62408217  0.65543274  1
  Cu2+  Cu127  1  0.37457529  0.12601027  0.65519592  1
  O2-  O128  1  0.12367621  0.12598633  0.00763420  1
  O2-  O129  1  0.12764889  0.12277574  0.51823606  1
  O2-  O130  1  0.12318701  0.37537378  0.00847861  1
  O2-  O131  1  0.12744193  0.37478723  0.50692137  1
  O2-  O132  1  0.12180185  0.62379676  -0.00474413  1
  O2-  O133  1  0.12792991  0.62657644  0.50681520  1
  O2-  O134  1  0.12391236  0.87360210  0.00739244  1
  O2-  O135  1  0.12672941  0.87541387  0.50773320  1
  O2-  O136  1  0.37362165  0.12767806  -0.00338383  1
  O2-  O137  1  0.37619182  0.12341203  0.49513125  1
  O2-  O138  1  0.37380362  0.37524231  -0.00423322  1
  O2-  O139  1  0.37708328  0.37484142  0.49657098  1
  O2-  O140  1  0.37336718  0.62349726  0.01593421  1
  O2-  O141  1  0.37899505  0.62793049  0.49632804  1
  O2-  O142  1  0.37176824  0.87325374  0.01508669  1
  O2-  O143  1  0.37849663  0.87493545  0.49572043  1
  O2-  O144  1  0.62572597  0.12585781  0.00739292  1
  O2-  O145  1  0.62295914  0.12400570  0.50757927  1
  O2-  O146  1  0.62645327  0.37647952  0.01853538  1
  O2-  O147  1  0.62319562  0.37577528  0.51789067  1
  O2-  O148  1  0.62651173  0.62358998  0.00625382  1
  O2-  O149  1  0.62109892  0.62771815  0.49557865  1
  O2-  O150  1  0.62649695  0.87441619  0.00600870  1
  O2-  O151  1  0.62226039  0.87458972  0.49575159  1
  O2-  O152  1  0.87641202  0.12756463  -0.00378914  1
  O2-  O153  1  0.87405275  0.12302619  0.49656592  1
  O2-  O154  1  0.87636573  0.37653187  -0.00490772  1
  O2-  O155  1  0.87323079  0.37338174  0.50597759  1
  O2-  O156  1  0.87824377  0.62225212  -0.00539478  1
  O2-  O157  1  0.87242588  0.62675440  0.50644862  1
  O2-  O158  1  0.87669312  0.87395937  0.00727809  1
  O2-  O159  1  0.87281705  0.87648715  0.50663871  1
  O2-  O160  1  0.12483212  -0.00048532  0.16141463  1
  O2-  O161  1  0.12493850  -0.00212400  0.66899288  1
  O2-  O162  1  0.12480125  0.24718861  0.16436741  1
  O2-  O163  1  0.12553579  0.24854745  0.66663697  1
  O2-  O164  1  0.12447124  0.50078088  0.16778337  1
  O2-  O165  1  0.12572541  0.50259889  0.66087983  1
  O2-  O166  1  0.12473774  0.75127927  0.16456013  1
  O2-  O167  1  0.12587077  0.75127458  0.66307118  1
  O2-  O168  1  0.37442912  -0.00103913  0.16269450  1
  O2-  O169  1  0.37450664  0.00062812  0.66656784  1
  O2-  O170  1  0.37406300  0.25035653  0.16341344  1
  O2-  O171  1  0.37437301  0.24990087  0.66334580  1
  O2-  O172  1  0.37539144  0.50054581  0.16666335  1
  O2-  O173  1  0.37533459  0.49944262  0.66280322  1
  O2-  O174  1  0.37386243  0.74971536  0.16514455  1
  O2-  O175  1  0.37468051  0.75053225  0.66712362  1
  O2-  O176  1  0.62469324  -0.00258519  0.16002960  1
  O2-  O177  1  0.62456490  -0.00029158  0.66828471  1
  O2-  O178  1  0.62561983  0.25173812  0.16720941  1
  O2-  O179  1  0.62453501  0.25123082  0.66659546  1
  O2-  O180  1  0.62521106  0.50196041  0.16626613  1
  O2-  O181  1  0.62377594  0.50024506  0.66654635  1
  O2-  O182  1  0.62567539  0.74929593  0.15915238  1
  O2-  O183  1  0.62488253  0.74967130  0.66836868  1
  O2-  O184  1  0.87616126  0.00208225  0.16388357  1
  O2-  O185  1  0.87555119  -0.00178293  0.66441916  1
  O2-  O186  1  0.87568035  0.25025221  0.16506248  1
  O2-  O187  1  0.87503711  0.24827890  0.66323525  1
  O2-  O188  1  0.87519662  0.49949781  0.16789332  1
  O2-  O189  1  0.87506628  0.49964517  0.66129833  1
  O2-  O190  1  0.87586221  0.74777199  0.16633273  1
  O2-  O191  1  0.87472201  0.75394323  0.66317064  1
  O2-  O192  1  0.00173733  0.12388670  0.16431795  1
  O2-  O193  1  0.00065270  0.12332231  0.66571301  1
  O2-  O194  1  -0.00200167  0.37522719  0.16909592  1
  O2-  O195  1  -0.00048978  0.37429170  0.66055526  1
  O2-  O196  1  -0.00014474  0.62520071  0.16858483  1
  O2-  O197  1  0.00310372  0.62733028  0.65854712  1
  O2-  O198  1  0.00353019  0.87445372  0.16852150  1
  O2-  O199  1  0.00017547  0.87514993  0.65991633  1
  O2-  O200  1  0.24775675  0.12370832  0.16183616  1
  O2-  O201  1  0.24938928  0.12369476  0.66846855  1
  O2-  O202  1  0.25148034  0.37555500  0.16466316  1
  O2-  O203  1  0.25192751  0.37500246  0.66420290  1
  O2-  O204  1  0.25038693  0.62497223  0.16686143  1
  O2-  O205  1  0.24860981  0.62644898  0.66279110  1
  O2-  O206  1  0.24846244  0.87494444  0.16625229  1
  O2-  O207  1  0.24835137  0.87551544  0.66387935  1
  O2-  O208  1  0.49835643  0.12539059  0.16170070  1
  O2-  O209  1  0.49817904  0.12460851  0.66781779  1
  O2-  O210  1  0.50059068  0.37520629  0.16387129  1
  O2-  O211  1  0.50045064  0.37540140  0.66829300  1
  O2-  O212  1  0.50130602  0.62594267  0.16014815  1
  O2-  O213  1  0.49916561  0.62582077  0.66935219  1
  O2-  O214  1  0.50101499  0.87337880  0.15898306  1
  O2-  O215  1  0.50034414  0.87499523  0.66899125  1
  O2-  O216  1  0.75221201  0.12479185  0.16448911  1
  O2-  O217  1  0.75129690  0.12378794  0.66567383  1
  O2-  O218  1  0.74988648  0.37583049  0.16749405  1
  O2-  O219  1  0.74819606  0.37525019  0.66631514  1
  O2-  O220  1  0.74880360  0.62529689  0.16115876  1
  O2-  O221  1  0.74904043  0.62606480  0.66628506  1
  O2-  O222  1  0.74714989  0.87433556  0.16379832  1
  O2-  O223  1  0.75121112  0.87547357  0.66347838  1
  O2-  O224  1  0.12550601  -0.00323622  0.34678506  1
  O2-  O225  1  0.12500991  0.00030483  0.85402776  1
  O2-  O226  1  0.12567270  0.24854143  0.34862063  1
  O2-  O227  1  0.12414264  0.24750447  0.84938635  1
  O2-  O228  1  0.12640602  0.50322062  0.35138887  1
  O2-  O229  1  0.12476826  0.50054267  0.84342044  1
  O2-  O230  1  0.12524948  0.75083943  0.34975512  1
  O2-  O231  1  0.12471267  0.75069086  0.84775759  1
  O2-  O232  1  0.37416744  -0.00072026  0.34267869  1
  O2-  O233  1  0.37378159  0.00171599  0.84970993  1
  O2-  O234  1  0.37501017  0.24959365  0.34576173  1
  O2-  O235  1  0.37459366  0.25022864  0.84384584  1
  O2-  O236  1  0.37522606  0.50081085  0.34684838  1
  O2-  O237  1  0.37493494  0.49835516  0.84559686  1
  O2-  O238  1  0.37513092  0.75039494  0.34237979  1
  O2-  O239  1  0.37408098  0.74958711  0.85200656  1
  O2-  O240  1  0.62517758  -0.00228450  0.34211557  1
  O2-  O241  1  0.62554556  -0.00213132  0.85196895  1
  O2-  O242  1  0.62431498  0.25088726  0.35037616  1
  O2-  O243  1  0.62576334  0.25176593  0.84876225  1
  O2-  O244  1  0.62419924  0.50063138  0.34839650  1
  O2-  O245  1  0.62511514  0.50191842  0.84979969  1
  O2-  O246  1  0.62462549  0.75081687  0.33988643  1
  O2-  O247  1  0.62435155  0.74905092  0.85320098  1
  O2-  O248  1  0.87552097  -0.00195948  0.34599239  1
  O2-  O249  1  0.87557356  0.00213268  0.84765393  1
  O2-  O250  1  0.87536314  0.24773035  0.34767149  1
  O2-  O251  1  0.87531032  0.25056221  0.84379649  1
  O2-  O252  1  0.87453651  0.49964132  0.35187976  1
  O2-  O253  1  0.87440914  0.50001960  0.84121020  1
  O2-  O254  1  0.87558880  0.75402370  0.34958166  1
  O2-  O255  1  0.87581618  0.74737655  0.84545954  1
  O2-  O256  1  0.00019143  0.12268447  0.34844123  1
  O2-  O257  1  0.00119583  0.12397650  0.84715078  1
  O2-  O258  1  0.00073391  0.37478470  0.35246372  1
  O2-  O259  1  -0.00233181  0.37528348  0.84203084  1
  O2-  O260  1  0.00319069  0.62661062  0.35350296  1
  O2-  O261  1  -0.00028889  0.62488046  0.83823494  1
  O2-  O262  1  0.00023610  0.87526126  0.35488502  1
  O2-  O263  1  0.00324194  0.87530283  0.84394775  1
  O2-  O264  1  0.25075358  0.12391352  0.34508331  1
  O2-  O265  1  0.24801064  0.12436872  0.85010956  1
  O2-  O266  1  0.25270647  0.37478129  0.34677799  1
  O2-  O267  1  0.25056865  0.37492732  0.84711425  1
  O2-  O268  1  0.25015686  0.62703643  0.34866554  1
  O2-  O269  1  0.24845059  0.62539613  0.84624770  1
  O2-  O270  1  0.24962350  0.87436429  0.34882281  1
  O2-  O271  1  0.24711049  0.87475828  0.84957677  1
  O2-  O272  1  0.49840291  0.12421122  0.34355907  1
  O2-  O273  1  0.49881635  0.12521909  0.85065929  1
  O2-  O274  1  0.49930232  0.37501780  0.34473069  1
  O2-  O275  1  0.50055590  0.37541732  0.85061895  1
  O2-  O276  1  0.49965167  0.62552030  0.33886804  1
  O2-  O277  1  0.50141277  0.62482967  0.85432557  1
  O2-  O278  1  0.49978554  0.87516862  0.33836393  1
  O2-  O279  1  0.50185017  0.87463514  0.85355530  1
  O2-  O280  1  0.75103695  0.12380911  0.34702580  1
  O2-  O281  1  0.75176134  0.12541353  0.84802298  1
  O2-  O282  1  0.74758846  0.37471929  0.35037953  1
  O2-  O283  1  0.75075838  0.37574113  0.84747921  1
  O2-  O284  1  0.74731245  0.62602826  0.34471396  1
  O2-  O285  1  0.74969037  0.62569647  0.84894595  1
  O2-  O286  1  0.75076032  0.87489108  0.34693913  1
  O2-  O287  1  0.74751201  0.87361830  0.84785897  1
