# generated using pymatgen
data_BaYFeCuO5
_symmetry_space_group_name_H-M   'P 1'
_cell_length_a   15.67420292
_cell_length_b   15.67216500
_cell_length_c   15.49047463
_cell_angle_alpha   90.00061547
_cell_angle_beta   90.00648251
_cell_angle_gamma   89.99434099
_symmetry_Int_Tables_number   1
_chemical_formula_structural   BaYFeCuO5
_chemical_formula_sum   'Ba32 Y32 Fe32 Cu32 O160'
_cell_volume   3805.21482752
_cell_formula_units_Z   32
loop_
 _symmetry_equiv_pos_site_id
 _symmetry_equiv_pos_as_xyz
  1  'x, y, z'
loop_
 _atom_type_symbol
 _atom_type_oxidation_number
  Ba2+  2.0
  Y3+  3.0
  Fe3+  3.0
  Cu2+  2.0
  O2-  -2.0
loop_
 _atom_site_type_symbol
 _atom_site_label
 _atom_site_symmetry_multiplicity
 _atom_site_fract_x
 _atom_site_fract_y
 _atom_site_fract_z
 _atom_site_occupancy
  Ba2+  Ba0  1  0.01002901  -0.00285324  0.00432807  1
  Ba2+  Ba1  1  0.00722652  0.00394213  0.50064670  1
  Ba2+  Ba2  1  0.00797846  0.25099183  0.00777916  1
  Ba2+  Ba3  1  0.00460163  0.25226239  0.51984186  1
  Ba2+  Ba4  1  -0.00415873  0.49668265  0.01144727  1
  Ba2+  Ba5  1  0.00248420  0.50369727  0.51649320  1
  Ba2+  Ba6  1  -0.00075006  0.75694359  0.00628076  1
  Ba2+  Ba7  1  0.00584623  0.74148160  0.50115017  1
  Ba2+  Ba8  1  0.25027818  0.00038500  0.00684725  1
  Ba2+  Ba9  1  0.25079576  0.00269197  0.51391564  1
  Ba2+  Ba10  1  0.25005777  0.24460172  0.01417107  1
  Ba2+  Ba11  1  0.24971312  0.24905345  0.52270742  1
  Ba2+  Ba12  1  0.25474215  0.49513915  0.02018221  1
  Ba2+  Ba13  1  0.24671656  0.50150635  0.51970178  1
  Ba2+  Ba14  1  0.25355381  0.75877823  0.01095673  1
  Ba2+  Ba15  1  0.24694590  0.74756533  0.51232858  1
  Ba2+  Ba16  1  0.49024939  -0.00382541  0.01095494  1
  Ba2+  Ba17  1  0.48700794  0.00184444  0.51140088  1
  Ba2+  Ba18  1  0.49243478  0.25215638  0.01719685  1
  Ba2+  Ba19  1  0.48706607  0.24852013  0.51041741  1
  Ba2+  Ba20  1  0.50035786  0.50051858  0.01698757  1
  Ba2+  Ba21  1  0.49322621  0.50347765  0.51970157  1
  Ba2+  Ba22  1  0.49677991  0.75226863  0.01187298  1
  Ba2+  Ba23  1  0.49301727  0.74598856  0.52133842  1
  Ba2+  Ba24  1  0.74967015  -0.00947105  0.00725717  1
  Ba2+  Ba25  1  0.75515202  0.00332531  0.50233556  1
  Ba2+  Ba26  1  0.74956088  0.25930855  0.00675234  1
  Ba2+  Ba27  1  0.76022084  0.25156483  0.50659788  1
  Ba2+  Ba28  1  0.74898203  0.50189645  0.00529063  1
  Ba2+  Ba29  1  0.75765432  0.50463956  0.51528275  1
  Ba2+  Ba30  1  0.74944596  0.74805091  0.00638181  1
  Ba2+  Ba31  1  0.75291373  0.73983754  0.51141532  1
  Y3+  Y32  1  0.00430416  -0.00022351  0.25563464  1
  Y3+  Y33  1  0.00376947  -0.00107249  0.76362859  1
  Y3+  Y34  1  0.00294673  0.24901212  0.25463968  1
  Y3+  Y35  1  0.00185250  0.25078501  0.76079697  1
  Y3+  Y36  1  0.00104911  0.50295729  0.25874585  1
  Y3+  Y37  1  -0.00049358  0.50037489  0.75425830  1
  Y3+  Y38  1  0.00257726  0.74828024  0.25904383  1
  Y3+  Y39  1  0.00123593  0.74971463  0.75756433  1
  Y3+  Y40  1  0.24998867  0.00030763  0.25264431  1
  Y3+  Y41  1  0.25099702  0.00084747  0.76324343  1
  Y3+  Y42  1  0.25091557  0.24771291  0.25212617  1
  Y3+  Y43  1  0.24994278  0.24643940  0.75928035  1
  Y3+  Y44  1  0.24921749  0.50037798  0.25503759  1
  Y3+  Y45  1  0.24873139  0.50055539  0.75348355  1
  Y3+  Y46  1  0.24841754  0.75167666  0.25485604  1
  Y3+  Y47  1  0.25002025  0.75210014  0.75901581  1
  Y3+  Y48  1  0.49596749  0.00005730  0.25558136  1
  Y3+  Y49  1  0.49412903  0.00036041  0.75880618  1
  Y3+  Y50  1  0.49708029  0.24884954  0.25637075  1
  Y3+  Y51  1  0.49579994  0.24806176  0.75620567  1
  Y3+  Y52  1  0.49880510  0.49905486  0.25452801  1
  Y3+  Y53  1  0.50002490  0.50220789  0.75514049  1
  Y3+  Y54  1  0.49773605  0.75179193  0.25366391  1
  Y3+  Y55  1  0.49820860  0.74947938  0.75814319  1
  Y3+  Y56  1  0.75008153  -0.00021371  0.25923602  1
  Y3+  Y57  1  0.75011781  -0.00114725  0.75806288  1
  Y3+  Y58  1  0.74987842  0.24999158  0.25799965  1
  Y3+  Y59  1  0.75129908  0.25180380  0.75763554  1
  Y3+  Y60  1  0.75137871  0.50174212  0.25802606  1
  Y3+  Y61  1  0.75135145  0.50191006  0.75483833  1
  Y3+  Y62  1  0.75176780  0.74818704  0.25965091  1
  Y3+  Y63  1  0.75000258  0.74728547  0.75580971  1
  Fe3+  Fe64  1  0.87458349  0.12486370  0.88178146  1
  Fe3+  Fe65  1  0.62348335  0.12541605  0.38057955  1
  Fe3+  Fe66  1  0.12740488  0.12656263  0.37493698  1
  Fe3+  Fe67  1  0.12636632  0.37496911  0.37569547  1
  Fe3+  Fe68  1  0.37310506  0.87480979  0.37632819  1
  Fe3+  Fe69  1  0.87752449  0.37517197  0.37668021  1
  Fe3+  Fe70  1  0.62345585  0.37581035  0.87435572  1
  Fe3+  Fe71  1  0.87690213  0.87456562  0.38089823  1
  Fe3+  Fe72  1  0.12613226  0.37663977  0.87649300  1
  Fe3+  Fe73  1  0.62410031  0.37556784  0.38043386  1
  Fe3+  Fe74  1  0.37297123  0.37498690  0.37546895  1
  Fe3+  Fe75  1  0.12587647  0.62459134  0.88039667  1
  Fe3+  Fe76  1  0.62380219  0.87400467  0.87526413  1
  Fe3+  Fe77  1  0.37405464  0.62495598  0.37396204  1
  Fe3+  Fe78  1  0.62337329  0.87420937  0.38142320  1
  Fe3+  Fe79  1  0.37476539  0.37569651  0.87456253  1
  Fe3+  Fe80  1  0.37479519  0.62399478  0.87714798  1
  Fe3+  Fe81  1  0.87549067  0.62492724  0.87628649  1
  Fe3+  Fe82  1  0.62369336  0.12523196  0.88031253  1
  Fe3+  Fe83  1  0.62289055  0.62454440  0.37857911  1
  Fe3+  Fe84  1  0.62488028  0.12500130  0.63457267  1
  Fe3+  Fe85  1  0.87518776  0.12427848  0.13503851  1
  Fe3+  Fe86  1  0.62538367  0.12424528  0.13489441  1
  Fe3+  Fe87  1  0.87494368  0.37561912  0.13820923  1
  Fe3+  Fe88  1  0.87532522  0.87422198  0.14069367  1
  Fe3+  Fe89  1  0.62558469  0.62589837  0.13804860  1
  Fe3+  Fe90  1  0.12469177  0.62546667  0.13360463  1
  Fe3+  Fe91  1  0.87671990  0.87507091  0.63534715  1
  Fe3+  Fe92  1  0.62465170  0.37426297  0.63313502  1
  Fe3+  Fe93  1  0.87670969  0.12371919  0.64068303  1
  Fe3+  Fe94  1  0.62443270  0.87570196  0.63370049  1
  Fe3+  Fe95  1  0.12495103  0.87585411  0.63929500  1
  Cu2+  Cu96  1  0.37536852  0.12584086  0.87375522  1
  Cu2+  Cu97  1  0.12641926  0.87523183  0.36364806  1
  Cu2+  Cu98  1  0.12725930  0.62397361  0.37027926  1
  Cu2+  Cu99  1  0.12613347  0.87359083  0.87365568  1
  Cu2+  Cu100  1  0.37330281  0.12520752  0.37009386  1
  Cu2+  Cu101  1  0.87581806  0.62410731  0.37289625  1
  Cu2+  Cu102  1  0.62432101  0.62475509  0.86178012  1
  Cu2+  Cu103  1  0.87681010  0.12559996  0.36184472  1
  Cu2+  Cu104  1  0.87433087  0.87446993  0.86221713  1
  Cu2+  Cu105  1  0.87504276  0.37565345  0.86257691  1
  Cu2+  Cu106  1  0.37528124  0.87423180  0.87114820  1
  Cu2+  Cu107  1  0.12577948  0.12565111  0.87401998  1
  Cu2+  Cu108  1  0.87550759  0.37453671  0.65265820  1
  Cu2+  Cu109  1  0.12431131  0.12386981  0.65681531  1
  Cu2+  Cu110  1  0.37380382  0.87520605  0.65257590  1
  Cu2+  Cu111  1  0.37487588  0.12401606  0.14130853  1
  Cu2+  Cu112  1  0.12482598  0.62659119  0.64428158  1
  Cu2+  Cu113  1  0.12462756  0.37551636  0.14854519  1
  Cu2+  Cu114  1  0.37361933  0.62578427  0.65414432  1
  Cu2+  Cu115  1  0.37443880  0.87526224  0.14291374  1
  Cu2+  Cu116  1  0.62467615  0.62523207  0.64821441  1
  Cu2+  Cu117  1  0.12507483  0.37434816  0.65292560  1
  Cu2+  Cu118  1  0.12465600  0.12428144  0.14044086  1
  Cu2+  Cu119  1  0.37351821  0.12427472  0.64424849  1
  Cu2+  Cu120  1  0.37464453  0.62553498  0.14700717  1
  Cu2+  Cu121  1  0.62578839  0.87525260  0.15340569  1
  Cu2+  Cu122  1  0.87677242  0.62636056  0.64348565  1
  Cu2+  Cu123  1  0.62581139  0.37471596  0.15279288  1
  Cu2+  Cu124  1  0.37515279  0.37474325  0.15150912  1
  Cu2+  Cu125  1  0.37448234  0.37495882  0.65112140  1
  Cu2+  Cu126  1  0.87538512  0.62556287  0.15053330  1
  Cu2+  Cu127  1  0.12462962  0.87461536  0.14294946  1
  O2-  O128  1  0.12453173  0.12578165  0.00709306  1
  O2-  O129  1  0.12585703  0.12739547  0.49561857  1
  O2-  O130  1  0.12583998  0.37751488  -0.00342321  1
  O2-  O131  1  0.12593345  0.37391196  0.49588890  1
  O2-  O132  1  0.12448424  0.62409205  0.00598847  1
  O2-  O133  1  0.12686026  0.62433129  0.50673700  1
  O2-  O134  1  0.12468998  0.87332619  0.00808819  1
  O2-  O135  1  0.12419311  0.87602001  0.51911747  1
  O2-  O136  1  0.37703571  0.12582585  0.00729594  1
  O2-  O137  1  0.37278371  0.12543288  0.50833857  1
  O2-  O138  1  0.37742070  0.37697608  -0.00540033  1
  O2-  O139  1  0.37265745  0.37583088  0.49568741  1
  O2-  O140  1  0.37630131  0.62262099  -0.00289009  1
  O2-  O141  1  0.37363458  0.62483933  0.49420626  1
  O2-  O142  1  0.37633661  0.87444771  0.00673783  1
  O2-  O143  1  0.37371496  0.87399458  0.49674821  1
  O2-  O144  1  0.62523163  0.12486398  0.00708475  1
  O2-  O145  1  0.62541583  0.12559937  0.50792560  1
  O2-  O146  1  0.62382140  0.37576668  -0.00525297  1
  O2-  O147  1  0.62474773  0.37426129  0.50586920  1
  O2-  O148  1  0.62631244  0.62550322  0.01757577  1
  O2-  O149  1  0.62197709  0.62396572  0.49872065  1
  O2-  O150  1  0.62560119  0.87360486  -0.00430533  1
  O2-  O151  1  0.62346580  0.87524289  0.50683960  1
  O2-  O152  1  0.87267740  0.12417532  0.00875377  1
  O2-  O153  1  0.87678063  0.12429405  0.52006181  1
  O2-  O154  1  0.87223664  0.37586335  0.01756551  1
  O2-  O155  1  0.87815115  0.37416881  0.49718005  1
  O2-  O156  1  0.87414198  0.62463970  -0.00339980  1
  O2-  O157  1  0.87624345  0.62462298  0.50746516  1
  O2-  O158  1  0.87262889  0.87439088  0.02011260  1
  O2-  O159  1  0.87728990  0.87587245  0.50917841  1
  O2-  O160  1  0.12422208  -0.00041629  0.16574300  1
  O2-  O161  1  0.12409596  -0.00055009  0.66985798  1
  O2-  O162  1  0.12404349  0.25159861  0.16127556  1
  O2-  O163  1  0.12385370  0.24902452  0.66511454  1
  O2-  O164  1  0.12464347  0.50173419  0.16144428  1
  O2-  O165  1  0.12439100  0.49889256  0.66331741  1
  O2-  O166  1  0.12407530  0.74688703  0.16477140  1
  O2-  O167  1  0.12496446  0.75276292  0.66936676  1
  O2-  O168  1  0.37563226  -0.00038728  0.16602655  1
  O2-  O169  1  0.37491308  -0.00099364  0.66729579  1
  O2-  O170  1  0.37662813  0.25105884  0.16316727  1
  O2-  O171  1  0.37482588  0.25066043  0.66508650  1
  O2-  O172  1  0.37612747  0.49935788  0.16195688  1
  O2-  O173  1  0.37517580  0.50029552  0.66113243  1
  O2-  O174  1  0.37589412  0.74953977  0.16351939  1
  O2-  O175  1  0.37488438  0.75028316  0.66482045  1
  O2-  O176  1  0.62709482  0.00154231  0.16690568  1
  O2-  O177  1  0.62603675  0.00029993  0.66291675  1
  O2-  O178  1  0.62637865  0.24800657  0.16407576  1
  O2-  O179  1  0.62593104  0.24945460  0.66259325  1
  O2-  O180  1  0.62552017  0.50045548  0.16589559  1
  O2-  O181  1  0.62477168  0.49785011  0.66025627  1
  O2-  O182  1  0.62580247  0.74995378  0.16854763  1
  O2-  O183  1  0.62524479  0.75252982  0.66143478  1
  O2-  O184  1  0.87347275  0.00130914  0.16861208  1
  O2-  O185  1  0.87365352  -0.00153297  0.66880988  1
  O2-  O186  1  0.87350004  0.24844724  0.16331161  1
  O2-  O187  1  0.87453355  0.24872547  0.66834393  1
  O2-  O188  1  0.87418299  0.50041077  0.16407087  1
  O2-  O189  1  0.87516905  0.49875858  0.66266388  1
  O2-  O190  1  0.87466928  0.74978645  0.16925205  1
  O2-  O191  1  0.87435497  0.75392523  0.66437176  1
  O2-  O192  1  -0.00327244  0.12453571  0.16280392  1
  O2-  O193  1  -0.00072933  0.12457511  0.67171509  1
  O2-  O194  1  -0.00130677  0.37506179  0.16409391  1
  O2-  O195  1  0.00038606  0.37385515  0.66664389  1
  O2-  O196  1  0.00155469  0.62474873  0.16326894  1
  O2-  O197  1  0.00054887  0.62595055  0.66824070  1
  O2-  O198  1  -0.00203613  0.87486945  0.16965594  1
  O2-  O199  1  -0.00111319  0.87616021  0.66966029  1
  O2-  O200  1  0.24985072  0.12510840  0.16090586  1
  O2-  O201  1  0.24770458  0.12443097  0.66700755  1
  O2-  O202  1  0.25001004  0.37517580  0.15949133  1
  O2-  O203  1  0.24989630  0.37499462  0.66345677  1
  O2-  O204  1  0.24873598  0.62470092  0.15897803  1
  O2-  O205  1  0.25051794  0.62539892  0.66616992  1
  O2-  O206  1  0.24960897  0.87436683  0.16310998  1
  O2-  O207  1  0.24975662  0.87566345  0.66724287  1
  O2-  O208  1  0.50347988  0.12465178  0.16505450  1
  O2-  O209  1  0.50308819  0.12469116  0.66325209  1
  O2-  O210  1  0.50078772  0.37417381  0.16501202  1
  O2-  O211  1  0.50140487  0.37366486  0.65897694  1
  O2-  O212  1  0.50029008  0.62504810  0.16387989  1
  O2-  O213  1  0.49878073  0.62562616  0.66258684  1
  O2-  O214  1  0.50170151  0.87599680  0.16500173  1
  O2-  O215  1  0.50079870  0.87603303  0.66067818  1
  O2-  O216  1  0.75015510  0.12453989  0.16664665  1
  O2-  O217  1  0.74902202  0.12474869  0.66740871  1
  O2-  O218  1  0.75120335  0.37431908  0.17061811  1
  O2-  O219  1  0.74802003  0.37403063  0.66209968  1
  O2-  O220  1  0.74967578  0.62559872  0.16864454  1
  O2-  O221  1  0.74965104  0.62523844  0.66420362  1
  O2-  O222  1  0.75133900  0.87531501  0.17277378  1
  O2-  O223  1  0.74975856  0.87619338  0.66009219  1
  O2-  O224  1  0.12468995  0.00072468  0.34870810  1
  O2-  O225  1  0.12499544  -0.00053146  0.85265359  1
  O2-  O226  1  0.12544328  0.25044225  0.34179813  1
  O2-  O227  1  0.12454129  0.25259201  0.84825906  1
  O2-  O228  1  0.12559362  0.49790646  0.34375570  1
  O2-  O229  1  0.12459577  0.50170898  0.84546870  1
  O2-  O230  1  0.12571660  0.75134839  0.34884203  1
  O2-  O231  1  0.12442467  0.74649264  0.85101483  1
  O2-  O232  1  0.37572680  -0.00149822  0.34803461  1
  O2-  O233  1  0.37588644  0.00003438  0.85101105  1
  O2-  O234  1  0.37598551  0.25141034  0.34540009  1
  O2-  O235  1  0.37581130  0.25211500  0.84673384  1
  O2-  O236  1  0.37588745  0.49947857  0.34293754  1
  O2-  O237  1  0.37553279  0.50015168  0.84209421  1
  O2-  O238  1  0.37525200  0.75068301  0.34424933  1
  O2-  O239  1  0.37567214  0.74750240  0.84768601  1
  O2-  O240  1  0.62609182  -0.00015999  0.35289956  1
  O2-  O241  1  0.62600410  0.00159343  0.84765400  1
  O2-  O242  1  0.62539531  0.25004463  0.35021173  1
  O2-  O243  1  0.62594230  0.24875876  0.84667353  1
  O2-  O244  1  0.62443034  0.49842403  0.34814251  1
  O2-  O245  1  0.62540198  0.49931102  0.84398121  1
  O2-  O246  1  0.62541107  0.75146419  0.35067738  1
  O2-  O247  1  0.62530543  0.75005841  0.84511872  1
  O2-  O248  1  0.87455004  -0.00154136  0.35307700  1
  O2-  O249  1  0.87271127  0.00130538  0.85221811  1
  O2-  O250  1  0.87394810  0.25090351  0.34513899  1
  O2-  O251  1  0.87325395  0.24832279  0.85221797  1
  O2-  O252  1  0.87477863  0.49737648  0.34506537  1
  O2-  O253  1  0.87422289  0.50110253  0.84573099  1
  O2-  O254  1  0.87463980  0.75315046  0.35220006  1
  O2-  O255  1  0.87422278  0.74917214  0.84679972  1
  O2-  O256  1  0.00166635  0.12488663  0.34535567  1
  O2-  O257  1  -0.00334551  0.12479272  0.85468763  1
  O2-  O258  1  0.00109780  0.37426972  0.34399652  1
  O2-  O259  1  0.00020057  0.37573297  0.85011177  1
  O2-  O260  1  0.00107355  0.62537395  0.34758532  1
  O2-  O261  1  0.00121823  0.62482757  0.85009120  1
  O2-  O262  1  -0.00024344  0.87541647  0.35304851  1
  O2-  O263  1  -0.00161859  0.87473011  0.85231167  1
  O2-  O264  1  0.24888614  0.12489073  0.34225728  1
  O2-  O265  1  0.25045925  0.12556937  0.85075883  1
  O2-  O266  1  0.25015236  0.37501899  0.34096660  1
  O2-  O267  1  0.25025769  0.37618777  0.84475720  1
  O2-  O268  1  0.25253363  0.62496308  0.34120981  1
  O2-  O269  1  0.24882978  0.62450086  0.84865602  1
  O2-  O270  1  0.25026992  0.87506770  0.34533094  1
  O2-  O271  1  0.25056654  0.87393885  0.84998044  1
  O2-  O272  1  0.50240580  0.12496404  0.34983727  1
  O2-  O273  1  0.50320395  0.12528433  0.84726119  1
  O2-  O274  1  0.50103766  0.37400750  0.34827954  1
  O2-  O275  1  0.49996574  0.37490029  0.84009424  1
  O2-  O276  1  0.49973445  0.62525251  0.34320263  1
  O2-  O277  1  0.49958772  0.62447768  0.84584171  1
  O2-  O278  1  0.50101122  0.87569222  0.34750650  1
  O2-  O279  1  0.50169803  0.87528477  0.84376462  1
  O2-  O280  1  0.74845101  0.12507664  0.35231066  1
  O2-  O281  1  0.74936465  0.12502078  0.85134010  1
  O2-  O282  1  0.74849530  0.37390037  0.35242053  1
  O2-  O283  1  0.74911921  0.37470245  0.84603368  1
  O2-  O284  1  0.74716329  0.62469459  0.35018017  1
  O2-  O285  1  0.75013112  0.62499184  0.84751282  1
  O2-  O286  1  0.74944279  0.87629962  0.35615720  1
  O2-  O287  1  0.74856129  0.87504563  0.84389738  1
