# generated using pymatgen
data_BaYFeCuO5
_symmetry_space_group_name_H-M   'P 1'
_cell_length_a   15.66030936
_cell_length_b   15.65936862
_cell_length_c   15.46095486
_cell_angle_alpha   89.99964671
_cell_angle_beta   90.00538177
_cell_angle_gamma   90.00156693
_symmetry_Int_Tables_number   1
_chemical_formula_structural   BaYFeCuO5
_chemical_formula_sum   'Ba32 Y32 Fe32 Cu32 O160'
_cell_volume   3791.49855330
_cell_formula_units_Z   32
loop_
 _symmetry_equiv_pos_site_id
 _symmetry_equiv_pos_as_xyz
  1  'x, y, z'
loop_
 _atom_type_symbol
 _atom_type_oxidation_number
  Ba2+  2.0
  Y3+  3.0
  Fe3+  3.0
  Cu2+  2.0
  O2-  -2.0
loop_
 _atom_site_type_symbol
 _atom_site_label
 _atom_site_symmetry_multiplicity
 _atom_site_fract_x
 _atom_site_fract_y
 _atom_site_fract_z
 _atom_site_occupancy
  Ba2+  Ba0  1  -0.00175048  -0.00055036  0.00149857  1
  Ba2+  Ba1  1  -0.00821923  0.00073723  0.50605685  1
  Ba2+  Ba2  1  0.00464324  0.25662942  0.00226519  1
  Ba2+  Ba3  1  -0.00450444  0.25665879  0.52275952  1
  Ba2+  Ba4  1  -0.00292849  0.49114355  0.00972870  1
  Ba2+  Ba5  1  -0.00008349  0.50022603  0.52751521  1
  Ba2+  Ba6  1  -0.00915069  0.75176644  0.01198723  1
  Ba2+  Ba7  1  -0.00404972  0.74267815  0.51266726  1
  Ba2+  Ba8  1  0.25685909  0.00914816  0.00710071  1
  Ba2+  Ba9  1  0.25990973  0.00254841  0.51121179  1
  Ba2+  Ba10  1  0.25279946  0.25102527  0.00116738  1
  Ba2+  Ba11  1  0.25820213  0.25544334  0.51054929  1
  Ba2+  Ba12  1  0.24972466  0.48679732  0.00712519  1
  Ba2+  Ba13  1  0.25162558  0.49735974  0.52217191  1
  Ba2+  Ba14  1  0.25398845  0.75523554  0.01129463  1
  Ba2+  Ba15  1  0.25326371  0.74293651  0.52206588  1
  Ba2+  Ba16  1  0.49480358  0.00833577  0.01918256  1
  Ba2+  Ba17  1  0.49804273  0.00998325  0.50976896  1
  Ba2+  Ba18  1  0.49435903  0.24861849  0.00796052  1
  Ba2+  Ba19  1  0.49867026  0.25006036  0.51134629  1
  Ba2+  Ba20  1  0.49821202  0.48795314  0.00217976  1
  Ba2+  Ba21  1  0.50020933  0.49812183  0.51633747  1
  Ba2+  Ba22  1  0.49695404  0.75511182  0.01187531  1
  Ba2+  Ba23  1  0.49859367  0.74183734  0.51600848  1
  Ba2+  Ba24  1  0.75075680  -0.00041090  0.01284164  1
  Ba2+  Ba25  1  0.74936291  0.00818290  0.50714212  1
  Ba2+  Ba26  1  0.74689293  0.25497554  0.00587968  1
  Ba2+  Ba27  1  0.74718856  0.25050210  0.52160958  1
  Ba2+  Ba28  1  0.75583484  0.49327849  0.00694069  1
  Ba2+  Ba29  1  0.74873931  0.50060078  0.52238101  1
  Ba2+  Ba30  1  0.75847517  0.75224611  0.01197829  1
  Ba2+  Ba31  1  0.75079818  0.74108191  0.50566479  1
  Y3+  Y32  1  -0.00250060  -0.00121190  0.25726856  1
  Y3+  Y33  1  -0.00080192  0.00083723  0.75838622  1
  Y3+  Y34  1  0.00076050  0.25307010  0.25322788  1
  Y3+  Y35  1  0.00086475  0.25220846  0.76089171  1
  Y3+  Y36  1  -0.00073809  0.49755418  0.24945717  1
  Y3+  Y37  1  0.00067342  0.49696021  0.76132448  1
  Y3+  Y38  1  -0.00347117  0.75091402  0.25556947  1
  Y3+  Y39  1  -0.00109022  0.74968296  0.75914350  1
  Y3+  Y40  1  0.25325115  0.00291049  0.25842853  1
  Y3+  Y41  1  0.25271398  0.00360821  0.75651161  1
  Y3+  Y42  1  0.25363012  0.25158119  0.25663251  1
  Y3+  Y43  1  0.25249777  0.25093526  0.75887633  1
  Y3+  Y44  1  0.25059277  0.49460732  0.25432914  1
  Y3+  Y45  1  0.25064736  0.49544407  0.75874014  1
  Y3+  Y46  1  0.24990847  0.75042397  0.25525570  1
  Y3+  Y47  1  0.25130618  0.74954329  0.75692856  1
  Y3+  Y48  1  0.49917757  0.00540748  0.26101326  1
  Y3+  Y49  1  0.49844301  0.00406068  0.75316269  1
  Y3+  Y50  1  0.49705463  0.24867100  0.26097480  1
  Y3+  Y51  1  0.49842957  0.25061022  0.75594185  1
  Y3+  Y52  1  0.49936423  0.49708542  0.25912045  1
  Y3+  Y53  1  0.50034167  0.49628034  0.75591611  1
  Y3+  Y54  1  0.50179033  0.74898765  0.25847061  1
  Y3+  Y55  1  0.50037877  0.74895432  0.75495080  1
  Y3+  Y56  1  0.74931971  0.00033543  0.25905576  1
  Y3+  Y57  1  0.74985446  0.00143376  0.75659727  1
  Y3+  Y58  1  0.74788057  0.24980944  0.25655025  1
  Y3+  Y59  1  0.74888866  0.25159263  0.75752564  1
  Y3+  Y60  1  0.75028402  0.50020564  0.25486142  1
  Y3+  Y61  1  0.74887904  0.49761235  0.75861415  1
  Y3+  Y62  1  0.75194626  0.74982438  0.25755590  1
  Y3+  Y63  1  0.74939452  0.74881741  0.75721269  1
  Fe3+  Fe64  1  0.62459089  0.87617677  0.87949387  1
  Fe3+  Fe65  1  0.12494823  0.62325648  0.37429294  1
  Fe3+  Fe66  1  0.12501713  0.87411361  0.38075338  1
  Fe3+  Fe67  1  0.87534573  0.37604893  0.37644986  1
  Fe3+  Fe68  1  0.62586833  0.37562475  0.37818569  1
  Fe3+  Fe69  1  0.62451655  0.62452508  0.88042296  1
  Fe3+  Fe70  1  0.37669569  0.87661947  0.87537416  1
  Fe3+  Fe71  1  0.87545188  0.12813385  0.37611368  1
  Fe3+  Fe72  1  0.12570941  0.62508888  0.88013262  1
  Fe3+  Fe73  1  0.87452742  0.12558878  0.87855944  1
  Fe3+  Fe74  1  0.62378604  0.12495555  0.87707019  1
  Fe3+  Fe75  1  0.12459092  0.12669321  0.38163087  1
  Fe3+  Fe76  1  0.87481769  0.62442130  0.87675270  1
  Fe3+  Fe77  1  0.37534879  0.62426105  0.87920775  1
  Fe3+  Fe78  1  0.37379805  0.62313821  0.37439683  1
  Fe3+  Fe79  1  0.12581884  0.87579180  0.87906937  1
  Fe3+  Fe80  1  0.62502761  0.87458667  0.37991358  1
  Fe3+  Fe81  1  0.37523186  0.87332632  0.37769380  1
  Fe3+  Fe82  1  0.87617764  0.62183965  0.37369981  1
  Fe3+  Fe83  1  0.12380045  0.37624599  0.37760561  1
  Fe3+  Fe84  1  0.12563326  0.87713698  0.13499511  1
  Fe3+  Fe85  1  0.12533901  0.12556334  0.13724052  1
  Fe3+  Fe86  1  0.62499372  0.62411576  0.13296003  1
  Fe3+  Fe87  1  0.87474663  0.12606215  0.13433803  1
  Fe3+  Fe88  1  0.12498295  0.62461205  0.13163884  1
  Fe3+  Fe89  1  0.37543117  0.62372382  0.13276582  1
  Fe3+  Fe90  1  0.62385321  0.37368504  0.13744138  1
  Fe3+  Fe91  1  0.62458667  0.87530294  0.63428592  1
  Fe3+  Fe92  1  0.87405152  0.87450788  0.63762163  1
  Fe3+  Fe93  1  0.12498091  0.87520964  0.63485589  1
  Fe3+  Fe94  1  0.62418673  0.87623710  0.13637413  1
  Fe3+  Fe95  1  0.12476637  0.12588393  0.63538210  1
  Cu2+  Cu96  1  0.87449864  0.37433593  0.87145559  1
  Cu2+  Cu97  1  0.87384533  0.87516379  0.87239323  1
  Cu2+  Cu98  1  0.37436840  0.37604901  0.37293988  1
  Cu2+  Cu99  1  0.37382974  0.12650943  0.37363722  1
  Cu2+  Cu100  1  0.12603625  0.37446551  0.87121620  1
  Cu2+  Cu101  1  0.87481108  0.87452950  0.36647712  1
  Cu2+  Cu102  1  0.62509017  0.62336821  0.37207457  1
  Cu2+  Cu103  1  0.62439668  0.37423746  0.86449904  1
  Cu2+  Cu104  1  0.37614912  0.12531412  0.87009146  1
  Cu2+  Cu105  1  0.12565810  0.12447768  0.86368592  1
  Cu2+  Cu106  1  0.62561222  0.12683371  0.37359274  1
  Cu2+  Cu107  1  0.37565301  0.37410896  0.87033610  1
  Cu2+  Cu108  1  0.37456510  0.12661165  0.64298197  1
  Cu2+  Cu109  1  0.87468365  0.37537381  0.65643625  1
  Cu2+  Cu110  1  0.37515843  0.62362326  0.65702159  1
  Cu2+  Cu111  1  0.12495419  0.62466658  0.65673558  1
  Cu2+  Cu112  1  0.87578041  0.12513027  0.65421946  1
  Cu2+  Cu113  1  0.87456516  0.87694505  0.14250537  1
  Cu2+  Cu114  1  0.87458155  0.62452109  0.14689255  1
  Cu2+  Cu115  1  0.62492945  0.37461270  0.65185407  1
  Cu2+  Cu116  1  0.37544173  0.87577064  0.15193051  1
  Cu2+  Cu117  1  0.62468108  0.12553336  0.15060852  1
  Cu2+  Cu118  1  0.62517597  0.12543231  0.64238869  1
  Cu2+  Cu119  1  0.87502644  0.62486433  0.65736211  1
  Cu2+  Cu120  1  0.37536843  0.87521176  0.64797240  1
  Cu2+  Cu121  1  0.12620445  0.37319516  0.14072870  1
  Cu2+  Cu122  1  0.37617215  0.37383934  0.14254585  1
  Cu2+  Cu123  1  0.37561936  0.37451693  0.64342131  1
  Cu2+  Cu124  1  0.87369417  0.37306567  0.14003306  1
  Cu2+  Cu125  1  0.37473022  0.12649196  0.14558956  1
  Cu2+  Cu126  1  0.62515220  0.62476184  0.64297680  1
  Cu2+  Cu127  1  0.12529487  0.37423749  0.65344589  1
  O2-  O128  1  0.12469988  0.12243202  0.01690938  1
  O2-  O129  1  0.12325130  0.12622321  0.50795889  1
  O2-  O130  1  0.12556108  0.37383303  0.00571704  1
  O2-  O131  1  0.12200767  0.37866663  0.49791854  1
  O2-  O132  1  0.12551394  0.62699880  0.00541977  1
  O2-  O133  1  0.12477934  0.62400886  0.49442196  1
  O2-  O134  1  0.12609164  0.87712447  0.00695435  1
  O2-  O135  1  0.12465263  0.87236751  0.50726034  1
  O2-  O136  1  0.37531612  0.12535887  0.00678048  1
  O2-  O137  1  0.37341121  0.12635280  0.50773639  1
  O2-  O138  1  0.37581685  0.37313253  0.00700237  1
  O2-  O139  1  0.37499755  0.37773732  0.50839071  1
  O2-  O140  1  0.37572432  0.62537579  0.00561840  1
  O2-  O141  1  0.37285696  0.62410368  0.49503982  1
  O2-  O142  1  0.37619712  0.87678729  -0.00396393  1
  O2-  O143  1  0.37390682  0.86996881  0.49777802  1
  O2-  O144  1  0.62441461  0.12242562  -0.00271861  1
  O2-  O145  1  0.62678225  0.12585199  0.50744221  1
  O2-  O146  1  0.62434020  0.37426049  0.01636681  1
  O2-  O147  1  0.62736415  0.37681625  0.49907194  1
  O2-  O148  1  0.62437094  0.62565391  0.00661744  1
  O2-  O149  1  0.62541980  0.62453863  0.50674373  1
  O2-  O150  1  0.62386116  0.87659245  0.00716444  1
  O2-  O151  1  0.62551706  0.87357041  0.50712282  1
  O2-  O152  1  0.87486352  0.12489293  0.00661936  1
  O2-  O153  1  0.87611653  0.12817485  0.49695212  1
  O2-  O154  1  0.87406296  0.37226753  0.00557936  1
  O2-  O155  1  0.87604515  0.37770232  0.49634964  1
  O2-  O156  1  0.87444660  0.62607496  -0.00258307  1
  O2-  O157  1  0.87673032  0.62150468  0.49431867  1
  O2-  O158  1  0.87480805  0.87645109  0.00746295  1
  O2-  O159  1  0.87555990  0.87363994  0.51721967  1
  O2-  O160  1  0.12507340  -0.00069173  0.17098664  1
  O2-  O161  1  0.12422842  -0.00042732  0.66132180  1
  O2-  O162  1  0.12506775  0.24778418  0.16853970  1
  O2-  O163  1  0.12357359  0.24854009  0.66318812  1
  O2-  O164  1  0.12560536  0.50248304  0.15781405  1
  O2-  O165  1  0.12509754  0.49976113  0.66742318  1
  O2-  O166  1  0.12591865  0.75074146  0.16023730  1
  O2-  O167  1  0.12534367  0.75169047  0.66534617  1
  O2-  O168  1  0.37551406  -0.00041835  0.16799188  1
  O2-  O169  1  0.37437910  -0.00020097  0.66264619  1
  O2-  O170  1  0.37559479  0.24986515  0.16825175  1
  O2-  O171  1  0.37463915  0.25027002  0.66577157  1
  O2-  O172  1  0.37547303  0.50298500  0.16057650  1
  O2-  O173  1  0.37488755  0.50041735  0.66802527  1
  O2-  O174  1  0.37436181  0.74833060  0.15894945  1
  O2-  O175  1  0.37482980  0.74911501  0.66660799  1
  O2-  O176  1  0.62383128  -0.00074774  0.16583803  1
  O2-  O177  1  0.62560499  -0.00292550  0.66296259  1
  O2-  O178  1  0.62508108  0.24945880  0.16565640  1
  O2-  O179  1  0.62622380  0.25106947  0.66574820  1
  O2-  O180  1  0.62419289  0.50161038  0.16186697  1
  O2-  O181  1  0.62533341  0.49855341  0.66806254  1
  O2-  O182  1  0.62485323  0.74976812  0.16118927  1
  O2-  O183  1  0.62466819  0.75317679  0.66648500  1
  O2-  O184  1  0.87482942  0.00352259  0.16623596  1
  O2-  O185  1  0.87585802  -0.00146751  0.66664931  1
  O2-  O186  1  0.87432365  0.24669399  0.16337571  1
  O2-  O187  1  0.87563272  0.25020167  0.66573593  1
  O2-  O188  1  0.87477817  0.50028027  0.15836312  1
  O2-  O189  1  0.87507310  0.50056252  0.66687041  1
  O2-  O190  1  0.87444720  0.74967480  0.16423798  1
  O2-  O191  1  0.87550330  0.75047471  0.66633859  1
  O2-  O192  1  -0.00104078  0.12399973  0.16499753  1
  O2-  O193  1  0.00174543  0.12400056  0.66616078  1
  O2-  O194  1  -0.00000455  0.37391895  0.16026502  1
  O2-  O195  1  -0.00003353  0.37535598  0.66709416  1
  O2-  O196  1  0.00183445  0.62687318  0.15896818  1
  O2-  O197  1  -0.00006919  0.62608675  0.66723296  1
  O2-  O198  1  0.00332575  0.87533945  0.16384027  1
  O2-  O199  1  0.00106436  0.87451405  0.66681869  1
  O2-  O200  1  0.24875711  0.12369184  0.16817787  1
  O2-  O201  1  0.24642138  0.12441428  0.66440808  1
  O2-  O202  1  0.25088482  0.37432939  0.16437776  1
  O2-  O203  1  0.24887724  0.37513034  0.66617665  1
  O2-  O204  1  0.25010560  0.62672346  0.15819809  1
  O2-  O205  1  0.25014175  0.62545099  0.66777763  1
  O2-  O206  1  0.24879630  0.87558115  0.16277969  1
  O2-  O207  1  0.24806661  0.87469990  0.66382899  1
  O2-  O208  1  0.50068082  0.12465634  0.16744714  1
  O2-  O209  1  0.49983688  0.12506870  0.66339461  1
  O2-  O210  1  0.50183229  0.37507782  0.16813470  1
  O2-  O211  1  0.50137208  0.37520715  0.66500003  1
  O2-  O212  1  0.50026847  0.62715737  0.16105709  1
  O2-  O213  1  0.49887326  0.62518819  0.66752506  1
  O2-  O214  1  0.50154337  0.87398227  0.16361034  1
  O2-  O215  1  0.50133001  0.87441496  0.66289145  1
  O2-  O216  1  0.75100704  0.12352340  0.16137421  1
  O2-  O217  1  0.75208191  0.12409241  0.66660973  1
  O2-  O218  1  0.74720891  0.37503133  0.16446498  1
  O2-  O219  1  0.75027375  0.37523271  0.66571144  1
  O2-  O220  1  0.74771882  0.62592010  0.16118047  1
  O2-  O221  1  0.75136100  0.62586861  0.66739148  1
  O2-  O222  1  0.74621475  0.87574743  0.16421753  1
  O2-  O223  1  0.74920902  0.87470095  0.66715367  1
  O2-  O224  1  0.12429934  -0.00077441  0.35592660  1
  O2-  O225  1  0.12539190  -0.00217162  0.84669528  1
  O2-  O226  1  0.12321728  0.24972763  0.35031036  1
  O2-  O227  1  0.12527439  0.24807860  0.84808539  1
  O2-  O228  1  0.12483570  0.49988079  0.33900611  1
  O2-  O229  1  0.12620044  0.50358481  0.85160877  1
  O2-  O230  1  0.12462678  0.75092009  0.34474662  1
  O2-  O231  1  0.12586697  0.75041649  0.85052172  1
  O2-  O232  1  0.37412193  -0.00215991  0.35090796  1
  O2-  O233  1  0.37521201  -0.00157561  0.84468195  1
  O2-  O234  1  0.37381737  0.25084975  0.35117642  1
  O2-  O235  1  0.37519897  0.24977606  0.84860008  1
  O2-  O236  1  0.37363746  0.50125765  0.34199947  1
  O2-  O237  1  0.37524618  0.50285147  0.85176264  1
  O2-  O238  1  0.37449518  0.74989022  0.34068463  1
  O2-  O239  1  0.37555237  0.74934271  0.84980495  1
  O2-  O240  1  0.62557340  -0.00240667  0.35143868  1
  O2-  O241  1  0.62487272  -0.00084308  0.84564353  1
  O2-  O242  1  0.62567114  0.25255490  0.34739101  1
  O2-  O243  1  0.62556430  0.24931713  0.84924741  1
  O2-  O244  1  0.62558063  0.49783094  0.34268268  1
  O2-  O245  1  0.62400990  0.50145781  0.85285536  1
  O2-  O246  1  0.62525262  0.75248095  0.34673117  1
  O2-  O247  1  0.62466775  0.74960435  0.85145404  1
  O2-  O248  1  0.87541654  0.00079874  0.34982525  1
  O2-  O249  1  0.87514887  0.00283587  0.84945315  1
  O2-  O250  1  0.87653699  0.25138122  0.34320320  1
  O2-  O251  1  0.87513905  0.24695730  0.85016836  1
  O2-  O252  1  0.87594927  0.49910567  0.33863909  1
  O2-  O253  1  0.87510540  0.50155817  0.84947336  1
  O2-  O254  1  0.87588476  0.74895865  0.34783840  1
  O2-  O255  1  0.87440341  0.74808191  0.84736385  1
  O2-  O256  1  0.00128665  0.12333754  0.34660074  1
  O2-  O257  1  -0.00111299  0.12351634  0.85138129  1
  O2-  O258  1  -0.00002208  0.37576804  0.34093269  1
  O2-  O259  1  0.00059936  0.37475188  0.85073119  1
  O2-  O260  1  0.00057973  0.62556954  0.34009216  1
  O2-  O261  1  0.00167609  0.62639754  0.85082000  1
  O2-  O262  1  0.00203933  0.87506394  0.34884389  1
  O2-  O263  1  0.00293614  0.87510903  0.85116020  1
  O2-  O264  1  0.24585945  0.12444505  0.35055633  1
  O2-  O265  1  0.24960595  0.12383314  0.84860329  1
  O2-  O266  1  0.24755487  0.37503656  0.34720892  1
  O2-  O267  1  0.25089300  0.37452290  0.84939288  1
  O2-  O268  1  0.24895661  0.62595731  0.33947556  1
  O2-  O269  1  0.25077779  0.62723535  0.85259181  1
  O2-  O270  1  0.24848564  0.87428980  0.34665146  1
  O2-  O271  1  0.24988902  0.87441619  0.84870649  1
  O2-  O272  1  0.49932816  0.12505888  0.35144219  1
  O2-  O273  1  0.50175175  0.12453455  0.84530753  1
  O2-  O274  1  0.50096841  0.37597984  0.35013849  1
  O2-  O275  1  0.50078365  0.37510407  0.84858395  1
  O2-  O276  1  0.49767538  0.62523289  0.34434679  1
  O2-  O277  1  0.50009928  0.62618081  0.85208577  1
  O2-  O278  1  0.50071272  0.87423824  0.34784798  1
  O2-  O279  1  0.50165256  0.87386560  0.84684366  1
  O2-  O280  1  0.75277619  0.12484614  0.34462756  1
  O2-  O281  1  0.75023581  0.12426390  0.84961651  1
  O2-  O282  1  0.75122501  0.37532613  0.34396891  1
  O2-  O283  1  0.74840142  0.37502652  0.84960003  1
  O2-  O284  1  0.75282381  0.62553372  0.34417014  1
  O2-  O285  1  0.74787361  0.62517824  0.85037251  1
  O2-  O286  1  0.74853050  0.87446598  0.34915782  1
  O2-  O287  1  0.74614786  0.87502910  0.85045663  1
