# generated using pymatgen
data_BaYFeCuO5
_symmetry_space_group_name_H-M   'P 1'
_cell_length_a   15.68421096
_cell_length_b   15.68535398
_cell_length_c   15.53429570
_cell_angle_alpha   89.99252314
_cell_angle_beta   90.00253320
_cell_angle_gamma   90.00659981
_symmetry_Int_Tables_number   1
_chemical_formula_structural   BaYFeCuO5
_chemical_formula_sum   'Ba32 Y32 Fe32 Cu32 O160'
_cell_volume   3821.62931888
_cell_formula_units_Z   32
loop_
 _symmetry_equiv_pos_site_id
 _symmetry_equiv_pos_as_xyz
  1  'x, y, z'
loop_
 _atom_type_symbol
 _atom_type_oxidation_number
  Ba2+  2.0
  Y3+  3.0
  Fe3+  3.0
  Cu2+  2.0
  O2-  -2.0
loop_
 _atom_site_type_symbol
 _atom_site_label
 _atom_site_symmetry_multiplicity
 _atom_site_fract_x
 _atom_site_fract_y
 _atom_site_fract_z
 _atom_site_occupancy
  Ba2+  Ba0  1  0.00339256  0.00188414  0.01252422  1
  Ba2+  Ba1  1  -0.00205686  0.00359328  0.51660991  1
  Ba2+  Ba2  1  0.00070137  0.25066113  -0.00233502  1
  Ba2+  Ba3  1  -0.00158018  0.24913185  0.52744658  1
  Ba2+  Ba4  1  -0.00166273  0.49820057  0.00177790  1
  Ba2+  Ba5  1  -0.00691528  0.49339148  0.52135368  1
  Ba2+  Ba6  1  0.00014931  0.75039279  0.02214446  1
  Ba2+  Ba7  1  -0.00719005  0.75433263  0.51058449  1
  Ba2+  Ba8  1  0.23824531  0.00089369  0.01312864  1
  Ba2+  Ba9  1  0.25406475  0.00689614  0.51131662  1
  Ba2+  Ba10  1  0.24515220  0.25529376  0.00218384  1
  Ba2+  Ba11  1  0.25253473  0.24637249  0.52196581  1
  Ba2+  Ba12  1  0.25113901  0.49935706  -0.00901078  1
  Ba2+  Ba13  1  0.25021803  0.48799952  0.51637075  1
  Ba2+  Ba14  1  0.24411403  0.74345488  -0.00074071  1
  Ba2+  Ba15  1  0.25055508  0.75978532  0.50597447  1
  Ba2+  Ba16  1  0.49896958  -0.00084973  0.00714246  1
  Ba2+  Ba17  1  0.50157465  0.00317677  0.51828186  1
  Ba2+  Ba18  1  0.49917713  0.26311662  0.00787472  1
  Ba2+  Ba19  1  0.49977600  0.24669753  0.52363742  1
  Ba2+  Ba20  1  0.50004125  0.49610421  -0.00180230  1
  Ba2+  Ba21  1  0.50669878  0.49320043  0.52261757  1
  Ba2+  Ba22  1  0.49861105  0.73849813  -0.00478444  1
  Ba2+  Ba23  1  0.50772412  0.75710369  0.51459227  1
  Ba2+  Ba24  1  0.76033762  -0.00053499  0.00651559  1
  Ba2+  Ba25  1  0.74754201  0.00077866  0.52195965  1
  Ba2+  Ba26  1  0.75441318  0.25924565  0.00357357  1
  Ba2+  Ba27  1  0.74897587  0.24937143  0.52912256  1
  Ba2+  Ba28  1  0.75060834  0.49574201  0.00673770  1
  Ba2+  Ba29  1  0.74990360  0.49819669  0.52733878  1
  Ba2+  Ba30  1  0.75614913  0.74426067  0.01310598  1
  Ba2+  Ba31  1  0.74804992  0.75224447  0.51987429  1
  Y3+  Y32  1  0.00193561  -0.00008734  0.25513766  1
  Y3+  Y33  1  -0.00031145  0.00392137  0.75892011  1
  Y3+  Y34  1  0.00033960  0.25020753  0.25180702  1
  Y3+  Y35  1  0.00053525  0.24926458  0.76232385  1
  Y3+  Y36  1  -0.00263364  0.49892116  0.25596461  1
  Y3+  Y37  1  -0.00071904  0.49722122  0.75838562  1
  Y3+  Y38  1  -0.00022225  0.75180946  0.25991975  1
  Y3+  Y39  1  -0.00152839  0.74928402  0.75342460  1
  Y3+  Y40  1  0.24756823  0.00205255  0.25842235  1
  Y3+  Y41  1  0.24945710  0.00320137  0.75682065  1
  Y3+  Y42  1  0.25124764  0.24853399  0.25511433  1
  Y3+  Y43  1  0.24928166  0.24998234  0.75929416  1
  Y3+  Y44  1  0.25117120  0.49756813  0.25907999  1
  Y3+  Y45  1  0.25017788  0.49732859  0.75769619  1
  Y3+  Y46  1  0.24842455  0.75177516  0.26016280  1
  Y3+  Y47  1  0.25064258  0.74917497  0.75525963  1
  Y3+  Y48  1  0.50004473  0.00124870  0.25877873  1
  Y3+  Y49  1  0.49935457  0.00010798  0.75609597  1
  Y3+  Y50  1  0.49857636  0.25197238  0.25355999  1
  Y3+  Y51  1  0.49893624  0.25234529  0.76075350  1
  Y3+  Y52  1  0.50097019  0.49692530  0.25359968  1
  Y3+  Y53  1  0.50143397  0.49857959  0.76122765  1
  Y3+  Y54  1  0.50181566  0.75032087  0.25982656  1
  Y3+  Y55  1  0.50184449  0.74890647  0.75473718  1
  Y3+  Y56  1  0.74973791  -0.00082564  0.25593005  1
  Y3+  Y57  1  0.75118223  0.00008142  0.75732300  1
  Y3+  Y58  1  0.74993679  0.25300812  0.25006716  1
  Y3+  Y59  1  0.75140113  0.25125639  0.76384380  1
  Y3+  Y60  1  0.75113998  0.49802810  0.25125070  1
  Y3+  Y61  1  0.74939579  0.49899025  0.76177210  1
  Y3+  Y62  1  0.75050414  0.75068537  0.25829944  1
  Y3+  Y63  1  0.74898347  0.74901857  0.75445505  1
  Fe3+  Fe64  1  0.87636749  0.87388952  0.87538806  1
  Fe3+  Fe65  1  0.87618096  0.62615811  0.87470810  1
  Fe3+  Fe66  1  0.62507719  0.12482037  0.88026013  1
  Fe3+  Fe67  1  0.87358081  0.37311460  0.37602102  1
  Fe3+  Fe68  1  0.87329344  0.62310359  0.37791101  1
  Fe3+  Fe69  1  0.12386282  0.12704252  0.37712570  1
  Fe3+  Fe70  1  0.62607609  0.62313311  0.37865320  1
  Fe3+  Fe71  1  0.62648371  0.37410834  0.37543027  1
  Fe3+  Fe72  1  0.37654820  0.62339776  0.38318363  1
  Fe3+  Fe73  1  0.37387402  0.87428443  0.87908753  1
  Fe3+  Fe74  1  0.37602877  0.87727519  0.37660022  1
  Fe3+  Fe75  1  0.62601150  0.12707906  0.37438835  1
  Fe3+  Fe76  1  0.37634518  0.37299698  0.37799530  1
  Fe3+  Fe77  1  0.87384105  0.12733228  0.37574398  1
  Fe3+  Fe78  1  0.62593225  0.87383210  0.87952610  1
  Fe3+  Fe79  1  0.12360241  0.87392581  0.87470409  1
  Fe3+  Fe80  1  0.87392819  0.87753613  0.37634648  1
  Fe3+  Fe81  1  0.12349263  0.37308756  0.37902965  1
  Fe3+  Fe82  1  0.37438249  0.12497180  0.88042986  1
  Fe3+  Fe83  1  0.12420703  0.62328641  0.38318878  1
  Fe3+  Fe84  1  0.37418718  0.87313833  0.13307480  1
  Fe3+  Fe85  1  0.62477014  0.62468757  0.13606537  1
  Fe3+  Fe86  1  0.12573700  0.37604864  0.13617144  1
  Fe3+  Fe87  1  0.62487910  0.12544176  0.13121059  1
  Fe3+  Fe88  1  0.12490584  0.87645544  0.63658819  1
  Fe3+  Fe89  1  0.12467313  0.62445185  0.63419535  1
  Fe3+  Fe90  1  0.37434102  0.12532289  0.13264380  1
  Fe3+  Fe91  1  0.12571716  0.62352592  0.14082271  1
  Fe3+  Fe92  1  0.37538587  0.62460995  0.63508322  1
  Fe3+  Fe93  1  0.37412692  0.62454516  0.13908702  1
  Fe3+  Fe94  1  0.87572953  0.12567842  0.13400820  1
  Fe3+  Fe95  1  0.62469349  0.87389793  0.13244014  1
  Cu2+  Cu96  1  0.62650574  0.62550402  0.86381901  1
  Cu2+  Cu97  1  0.62607431  0.87660653  0.37320384  1
  Cu2+  Cu98  1  0.12397460  0.87648238  0.36670292  1
  Cu2+  Cu99  1  0.37469096  0.62523341  0.85782431  1
  Cu2+  Cu100  1  0.12487277  0.37543766  0.86164348  1
  Cu2+  Cu101  1  0.37451525  0.37480281  0.87118826  1
  Cu2+  Cu102  1  0.12545952  0.12426173  0.87316147  1
  Cu2+  Cu103  1  0.37613456  0.12666255  0.37135591  1
  Cu2+  Cu104  1  0.12369218  0.62554480  0.85730843  1
  Cu2+  Cu105  1  0.87480372  0.12416271  0.86683045  1
  Cu2+  Cu106  1  0.87572797  0.37565552  0.87193566  1
  Cu2+  Cu107  1  0.62538659  0.37523242  0.87191774  1
  Cu2+  Cu108  1  0.37542466  0.37501004  0.65557845  1
  Cu2+  Cu109  1  0.37307482  0.37676506  0.13971754  1
  Cu2+  Cu110  1  0.87491224  0.62454612  0.65112540  1
  Cu2+  Cu111  1  0.62511339  0.12577092  0.66024898  1
  Cu2+  Cu112  1  0.87689946  0.37555118  0.13850099  1
  Cu2+  Cu113  1  0.87573462  0.62528236  0.15175098  1
  Cu2+  Cu114  1  0.12585498  0.87408981  0.15381418  1
  Cu2+  Cu115  1  0.87541001  0.87587789  0.65211671  1
  Cu2+  Cu116  1  0.37547519  0.12523980  0.64629161  1
  Cu2+  Cu117  1  0.12475727  0.37426464  0.65430273  1
  Cu2+  Cu118  1  0.62476070  0.62407017  0.65346804  1
  Cu2+  Cu119  1  0.62505603  0.87605911  0.64486596  1
  Cu2+  Cu120  1  0.12504555  0.12613263  0.14022533  1
  Cu2+  Cu121  1  0.37453571  0.87515063  0.65327977  1
  Cu2+  Cu122  1  0.62477560  0.37598348  0.13904274  1
  Cu2+  Cu123  1  0.62528698  0.37420870  0.65943288  1
  Cu2+  Cu124  1  0.87504474  0.87530256  0.15126442  1
  Cu2+  Cu125  1  0.12489255  0.12529343  0.65405213  1
  Cu2+  Cu126  1  0.87461312  0.12535332  0.65750354  1
  Cu2+  Cu127  1  0.87447175  0.37400890  0.65915937  1
  O2-  O128  1  0.12510587  0.12472768  0.00608984  1
  O2-  O129  1  0.12332405  0.12712170  0.49728654  1
  O2-  O130  1  0.12597483  0.37955055  0.01609538  1
  O2-  O131  1  0.12264628  0.37169952  0.49887275  1
  O2-  O132  1  0.12580102  0.62406868  0.02114102  1
  O2-  O133  1  0.12445714  0.62369128  0.50839099  1
  O2-  O134  1  0.12367449  0.87149729  -0.00539631  1
  O2-  O135  1  0.12477348  0.87730745  0.51640583  1
  O2-  O136  1  0.37373806  0.12425585  0.00613150  1
  O2-  O137  1  0.37691383  0.12579978  0.50727751  1
  O2-  O138  1  0.37240177  0.37773122  0.00586659  1
  O2-  O139  1  0.37806374  0.37189766  0.49797190  1
  O2-  O140  1  0.37197026  0.62571560  0.01925499  1
  O2-  O141  1  0.37689719  0.62405796  0.50840809  1
  O2-  O142  1  0.37264566  0.87090090  0.00620226  1
  O2-  O143  1  0.37717700  0.87828896  0.49684323  1
  O2-  O144  1  0.62487365  0.12392224  0.00573185  1
  O2-  O145  1  0.62654177  0.12703098  0.49436303  1
  O2-  O146  1  0.62530872  0.37712647  0.00532530  1
  O2-  O147  1  0.62714830  0.37257321  0.49523860  1
  O2-  O148  1  0.62384752  0.62626781  0.01599935  1
  O2-  O149  1  0.62656933  0.62244527  0.49846353  1
  O2-  O150  1  0.62517282  0.87194492  0.00574176  1
  O2-  O151  1  0.62565237  0.87761618  0.50693497  1
  O2-  O152  1  0.87676555  0.12403164  0.01387333  1
  O2-  O153  1  0.87257510  0.12722260  0.49525350  1
  O2-  O154  1  0.87737856  0.37681269  0.00544605  1
  O2-  O155  1  0.87200222  0.37204627  0.49580236  1
  O2-  O156  1  0.87899997  0.62809343  -0.00549507  1
  O2-  O157  1  0.87228457  0.62249000  0.49729987  1
  O2-  O158  1  0.87749812  0.87177058  -0.00488794  1
  O2-  O159  1  0.87243967  0.87850833  0.49652796  1
  O2-  O160  1  0.12527391  -0.00165880  0.16125254  1
  O2-  O161  1  0.12499598  0.00035883  0.66711932  1
  O2-  O162  1  0.12577063  0.25195622  0.16196759  1
  O2-  O163  1  0.12557104  0.24947720  0.66816331  1
  O2-  O164  1  0.12522532  0.50060280  0.17350901  1
  O2-  O165  1  0.12508339  0.50125806  0.66254710  1
  O2-  O166  1  0.12545670  0.74913340  0.17076310  1
  O2-  O167  1  0.12577080  0.74867715  0.66148712  1
  O2-  O168  1  0.37613039  -0.00127783  0.15636182  1
  O2-  O169  1  0.37517761  -0.00097473  0.66951518  1
  O2-  O170  1  0.37504277  0.24720517  0.15908796  1
  O2-  O171  1  0.37528086  0.25156810  0.66963776  1
  O2-  O172  1  0.37441449  0.50262419  0.17143486  1
  O2-  O173  1  0.37495034  0.50115831  0.66240709  1
  O2-  O174  1  0.37465655  0.75119896  0.16971558  1
  O2-  O175  1  0.37480583  0.74800019  0.66238878  1
  O2-  O176  1  0.62365029  -0.00084854  0.15767915  1
  O2-  O177  1  0.62444858  0.00177308  0.67013108  1
  O2-  O178  1  0.62410631  0.24712063  0.15805667  1
  O2-  O179  1  0.62456405  0.24988222  0.66959767  1
  O2-  O180  1  0.62495259  0.50233526  0.16558813  1
  O2-  O181  1  0.62468604  0.49918087  0.66568943  1
  O2-  O182  1  0.62519479  0.75119237  0.16703661  1
  O2-  O183  1  0.62432585  0.74892290  0.66461426  1
  O2-  O184  1  0.87484306  0.00016652  0.16218065  1
  O2-  O185  1  0.87474108  0.00090836  0.66627396  1
  O2-  O186  1  0.87486287  0.24834067  0.16124781  1
  O2-  O187  1  0.87413399  0.24969298  0.66941295  1
  O2-  O188  1  0.87601964  0.50150641  0.16360845  1
  O2-  O189  1  0.87513293  0.49900042  0.66482646  1
  O2-  O190  1  0.87536608  0.75121572  0.16628352  1
  O2-  O191  1  0.87472967  0.75020515  0.65985169  1
  O2-  O192  1  -0.00137299  0.12418059  0.16519945  1
  O2-  O193  1  -0.00032337  0.12519251  0.66494634  1
  O2-  O194  1  0.00249459  0.37616684  0.16608581  1
  O2-  O195  1  -0.00056143  0.37424508  0.66525916  1
  O2-  O196  1  0.00025593  0.62644678  0.16924098  1
  O2-  O197  1  0.00149598  0.62522519  0.65988855  1
  O2-  O198  1  0.00062872  0.87394237  0.16485537  1
  O2-  O199  1  0.00044167  0.87499128  0.66270698  1
  O2-  O200  1  0.25311886  0.12335905  0.16503927  1
  O2-  O201  1  0.24921387  0.12477861  0.66649469  1
  O2-  O202  1  0.24795739  0.37560349  0.17033881  1
  O2-  O203  1  0.25013594  0.37519414  0.66375210  1
  O2-  O204  1  0.25012451  0.62608355  0.17580455  1
  O2-  O205  1  0.25006425  0.62473930  0.66170917  1
  O2-  O206  1  0.25237688  0.87493517  0.16501915  1
  O2-  O207  1  0.24897897  0.87485027  0.66691194  1
  O2-  O208  1  0.49974184  0.12350260  0.15890932  1
  O2-  O209  1  0.50121453  0.12483389  0.67037987  1
  O2-  O210  1  0.49951036  0.37587264  0.16164803  1
  O2-  O211  1  0.50053216  0.37474751  0.66726698  1
  O2-  O212  1  0.49994451  0.62648191  0.16883729  1
  O2-  O213  1  0.49813828  0.62488698  0.66529099  1
  O2-  O214  1  0.49982177  0.87407951  0.15884307  1
  O2-  O215  1  0.49841657  0.87486730  0.67019449  1
  O2-  O216  1  0.74847833  0.12344905  0.15931554  1
  O2-  O217  1  0.74949078  0.12462834  0.66882722  1
  O2-  O218  1  0.75034873  0.37565890  0.15828970  1
  O2-  O219  1  0.74978108  0.37433288  0.66897517  1
  O2-  O220  1  0.75057237  0.62646271  0.16083029  1
  O2-  O221  1  0.74995111  0.62498689  0.66600225  1
  O2-  O222  1  0.74756590  0.87499016  0.15826184  1
  O2-  O223  1  0.75169079  0.87563528  0.66785023  1
  O2-  O224  1  0.12459958  0.00203705  0.34474111  1
  O2-  O225  1  0.12567129  -0.00275207  0.84802753  1
  O2-  O226  1  0.12484800  0.25077341  0.34085290  1
  O2-  O227  1  0.12531330  0.25097639  0.85229115  1
  O2-  O228  1  0.12543021  0.50021470  0.35217095  1
  O2-  O229  1  0.12529136  0.50080177  0.84735319  1
  O2-  O230  1  0.12515345  0.74782402  0.35423929  1
  O2-  O231  1  0.12584522  0.75073669  0.84228532  1
  O2-  O232  1  0.37460837  -0.00058064  0.34091725  1
  O2-  O233  1  0.37531944  -0.00112375  0.85329658  1
  O2-  O234  1  0.37525150  0.25259092  0.34051128  1
  O2-  O235  1  0.37555742  0.24693500  0.85274165  1
  O2-  O236  1  0.37484818  0.50037617  0.35138797  1
  O2-  O237  1  0.37421239  0.50172103  0.84684777  1
  O2-  O238  1  0.37470818  0.74824949  0.35164910  1
  O2-  O239  1  0.37521056  0.75130749  0.84708047  1
  O2-  O240  1  0.62519793  0.00292900  0.34062653  1
  O2-  O241  1  0.62392533  -0.00138133  0.85395837  1
  O2-  O242  1  0.62532970  0.25125715  0.33791157  1
  O2-  O243  1  0.62421304  0.24640147  0.85283401  1
  O2-  O244  1  0.62485822  0.49925468  0.34423376  1
  O2-  O245  1  0.62506897  0.50176488  0.84932733  1
  O2-  O246  1  0.62465663  0.74736130  0.34842098  1
  O2-  O247  1  0.62425849  0.75243797  0.84789599  1
  O2-  O248  1  0.87486223  0.00180740  0.34275488  1
  O2-  O249  1  0.87473618  -0.00151923  0.84897867  1
  O2-  O250  1  0.87457872  0.25054463  0.33905693  1
  O2-  O251  1  0.87508372  0.24861276  0.85289309  1
  O2-  O252  1  0.87465157  0.49900925  0.34436485  1
  O2-  O253  1  0.87591738  0.50226248  0.84745676  1
  O2-  O254  1  0.87539249  0.74960134  0.34903105  1
  O2-  O255  1  0.87470838  0.75073238  0.84045795  1
  O2-  O256  1  -0.00064319  0.12574064  0.34456793  1
  O2-  O257  1  -0.00080840  0.12444748  0.84921740  1
  O2-  O258  1  -0.00072432  0.37532280  0.34508626  1
  O2-  O259  1  0.00157231  0.37540769  0.84887086  1
  O2-  O260  1  0.00050990  0.62462152  0.35093002  1
  O2-  O261  1  -0.00048622  0.62561315  0.84188373  1
  O2-  O262  1  -0.00138296  0.87534554  0.34810725  1
  O2-  O263  1  -0.00022421  0.87433255  0.84208183  1
  O2-  O264  1  0.24791197  0.12542361  0.34767668  1
  O2-  O265  1  0.25326799  0.12417748  0.84950717  1
  O2-  O266  1  0.24980134  0.37537153  0.35026222  1
  O2-  O267  1  0.24865211  0.37547906  0.84759735  1
  O2-  O268  1  0.25039373  0.62516026  0.35679944  1
  O2-  O269  1  0.24887666  0.62596627  0.84663021  1
  O2-  O270  1  0.25028223  0.87487610  0.34875185  1
  O2-  O271  1  0.25124443  0.87325162  0.84876766  1
  O2-  O272  1  0.50223366  0.12586866  0.34131212  1
  O2-  O273  1  0.49952292  0.12260735  0.85376946  1
  O2-  O274  1  0.50072183  0.37506796  0.34280003  1
  O2-  O275  1  0.50001963  0.37574347  0.85052154  1
  O2-  O276  1  0.49888001  0.62496337  0.34899089  1
  O2-  O277  1  0.50054478  0.62582031  0.85045641  1
  O2-  O278  1  0.49793025  0.87515789  0.34175163  1
  O2-  O279  1  0.49950218  0.87435124  0.85540890  1
  O2-  O280  1  0.75036950  0.12577725  0.33843955  1
  O2-  O281  1  0.74779814  0.12321012  0.85268427  1
  O2-  O282  1  0.75005306  0.37491553  0.33866302  1
  O2-  O283  1  0.75017736  0.37516358  0.85147892  1
  O2-  O284  1  0.75017333  0.62479974  0.34146260  1
  O2-  O285  1  0.75128170  0.62636407  0.84892954  1
  O2-  O286  1  0.75269666  0.87540885  0.34043446  1
  O2-  O287  1  0.74905011  0.87508356  0.85060881  1
