# generated using pymatgen
data_BaYFeCuO5
_symmetry_space_group_name_H-M   'P 1'
_cell_length_a   15.67382859
_cell_length_b   15.67058605
_cell_length_c   15.49188537
_cell_angle_alpha   89.99330253
_cell_angle_beta   89.99738147
_cell_angle_gamma   89.99355418
_symmetry_Int_Tables_number   1
_chemical_formula_structural   BaYFeCuO5
_chemical_formula_sum   'Ba32 Y32 Fe32 Cu32 O160'
_cell_volume   3805.08708019
_cell_formula_units_Z   32
loop_
 _symmetry_equiv_pos_site_id
 _symmetry_equiv_pos_as_xyz
  1  'x, y, z'
loop_
 _atom_type_symbol
 _atom_type_oxidation_number
  Ba2+  2.0
  Y3+  3.0
  Fe3+  3.0
  Cu2+  2.0
  O2-  -2.0
loop_
 _atom_site_type_symbol
 _atom_site_label
 _atom_site_symmetry_multiplicity
 _atom_site_fract_x
 _atom_site_fract_y
 _atom_site_fract_z
 _atom_site_occupancy
  Ba2+  Ba0  1  -0.00143135  0.01062387  0.01917676  1
  Ba2+  Ba1  1  -0.00142854  0.00809756  0.50264465  1
  Ba2+  Ba2  1  -0.00335200  0.25388560  0.01226580  1
  Ba2+  Ba3  1  0.00505598  0.24310108  0.51148928  1
  Ba2+  Ba4  1  -0.00582270  0.49720392  0.00471170  1
  Ba2+  Ba5  1  0.00526482  0.50416783  0.52336457  1
  Ba2+  Ba6  1  -0.00330602  0.73894965  0.01146892  1
  Ba2+  Ba7  1  -0.00244893  0.74509838  0.51376878  1
  Ba2+  Ba8  1  0.25112717  0.00970956  0.00707293  1
  Ba2+  Ba9  1  0.25381490  0.00685881  0.50672362  1
  Ba2+  Ba10  1  0.25063602  0.25160422  0.00624411  1
  Ba2+  Ba11  1  0.24903545  0.24697698  0.51624439  1
  Ba2+  Ba12  1  0.25080398  0.49840634  0.01493851  1
  Ba2+  Ba13  1  0.25009571  0.49977171  0.52512588  1
  Ba2+  Ba14  1  0.25186148  0.74090534  0.01618769  1
  Ba2+  Ba15  1  0.25500494  0.74709295  0.51756706  1
  Ba2+  Ba16  1  0.50621130  0.00347457  -0.00553326  1
  Ba2+  Ba17  1  0.48782440  -0.00050226  0.50697647  1
  Ba2+  Ba18  1  0.50061231  0.25021872  0.00570558  1
  Ba2+  Ba19  1  0.49278544  0.25293318  0.51562310  1
  Ba2+  Ba20  1  0.50074185  0.49797007  0.02473984  1
  Ba2+  Ba21  1  0.49854932  0.49993146  0.51507642  1
  Ba2+  Ba22  1  0.50721387  0.74824581  0.01789666  1
  Ba2+  Ba23  1  0.49325725  0.74718145  0.50647151  1
  Ba2+  Ba24  1  0.74258627  0.00217341  0.00631465  1
  Ba2+  Ba25  1  0.76048497  0.00162335  0.50215604  1
  Ba2+  Ba26  1  0.75178329  0.25318820  0.01373503  1
  Ba2+  Ba27  1  0.75298872  0.24870998  0.51134422  1
  Ba2+  Ba28  1  0.75325692  0.49822170  0.01584820  1
  Ba2+  Ba29  1  0.74631879  0.50403724  0.51162007  1
  Ba2+  Ba30  1  0.74543912  0.74518276  0.01220322  1
  Ba2+  Ba31  1  0.75405224  0.74584242  0.49985435  1
  Y3+  Y32  1  -0.00012779  0.00340927  0.26175334  1
  Y3+  Y33  1  -0.00012594  0.00234014  0.75403008  1
  Y3+  Y34  1  -0.00052377  0.24793917  0.25853288  1
  Y3+  Y35  1  0.00064405  0.25137647  0.75557601  1
  Y3+  Y36  1  -0.00128975  0.50009440  0.25062255  1
  Y3+  Y37  1  -0.00090493  0.49904414  0.76125666  1
  Y3+  Y38  1  -0.00106290  0.74897666  0.25471499  1
  Y3+  Y39  1  -0.00144740  0.74750037  0.75991136  1
  Y3+  Y40  1  0.25043809  0.00225053  0.26269263  1
  Y3+  Y41  1  0.25187553  0.00202476  0.75377492  1
  Y3+  Y42  1  0.24924123  0.24785031  0.25944285  1
  Y3+  Y43  1  0.24911803  0.24935913  0.75439582  1
  Y3+  Y44  1  0.25051900  0.50022814  0.25203094  1
  Y3+  Y45  1  0.24847202  0.49784838  0.75707266  1
  Y3+  Y46  1  0.25134699  0.75020083  0.25629037  1
  Y3+  Y47  1  0.25142365  0.75042358  0.75603695  1
  Y3+  Y48  1  0.49843954  -0.00173797  0.26159587  1
  Y3+  Y49  1  0.49893126  0.00021606  0.75602946  1
  Y3+  Y50  1  0.49853222  0.25104143  0.25928890  1
  Y3+  Y51  1  0.49860854  0.24889661  0.75481397  1
  Y3+  Y52  1  0.50144390  0.50051404  0.25650029  1
  Y3+  Y53  1  0.49979587  0.49792969  0.75294493  1
  Y3+  Y54  1  0.50155196  0.75015387  0.25815185  1
  Y3+  Y55  1  0.49965559  0.75305074  0.75724598  1
  Y3+  Y56  1  0.75159595  -0.00017583  0.25883567  1
  Y3+  Y57  1  0.74853774  0.00009075  0.75822833  1
  Y3+  Y58  1  0.75304555  0.25054305  0.25828352  1
  Y3+  Y59  1  0.75091277  0.25081597  0.75603279  1
  Y3+  Y60  1  0.75000040  0.50013351  0.25376138  1
  Y3+  Y61  1  0.75237517  0.49953007  0.75903351  1
  Y3+  Y62  1  0.74876292  0.74924036  0.25446845  1
  Y3+  Y63  1  0.74982792  0.74973040  0.76174202  1
  Fe3+  Fe64  1  0.37452802  0.87503547  0.88060390  1
  Fe3+  Fe65  1  0.12497916  0.37681433  0.37752506  1
  Fe3+  Fe66  1  0.87438664  0.12600013  0.87599044  1
  Fe3+  Fe67  1  0.37682623  0.62386259  0.87614873  1
  Fe3+  Fe68  1  0.12551926  0.62362169  0.37473593  1
  Fe3+  Fe69  1  0.87690730  0.37647556  0.38021884  1
  Fe3+  Fe70  1  0.37416414  0.62335752  0.37420474  1
  Fe3+  Fe71  1  0.12441857  0.12602378  0.87552630  1
  Fe3+  Fe72  1  0.62542030  0.87434841  0.38092222  1
  Fe3+  Fe73  1  0.37313676  0.37630553  0.37635806  1
  Fe3+  Fe74  1  0.62492522  0.37497565  0.87525228  1
  Fe3+  Fe75  1  0.37521484  0.37513219  0.87510408  1
  Fe3+  Fe76  1  0.87541623  0.87567758  0.88189935  1
  Fe3+  Fe77  1  0.62521749  0.37580337  0.37828034  1
  Fe3+  Fe78  1  0.12487125  0.87353615  0.37948448  1
  Fe3+  Fe79  1  0.87608409  0.62325282  0.37416638  1
  Fe3+  Fe80  1  0.62361238  0.62325974  0.87644104  1
  Fe3+  Fe81  1  0.12460732  0.87570773  0.88108003  1
  Fe3+  Fe82  1  0.12615700  0.62411185  0.87642540  1
  Fe3+  Fe83  1  0.62427956  0.12562526  0.38179742  1
  Fe3+  Fe84  1  0.12512735  0.37370282  0.13618813  1
  Fe3+  Fe85  1  0.12531467  0.87601634  0.13421666  1
  Fe3+  Fe86  1  0.87461474  0.87431666  0.63845701  1
  Fe3+  Fe87  1  0.62537629  0.87471739  0.63423612  1
  Fe3+  Fe88  1  0.87435816  0.87603115  0.13565063  1
  Fe3+  Fe89  1  0.87536502  0.37568590  0.63480397  1
  Fe3+  Fe90  1  0.37583763  0.12493643  0.13927319  1
  Fe3+  Fe91  1  0.62430274  0.12491910  0.14210858  1
  Fe3+  Fe92  1  0.37603712  0.87664828  0.13497303  1
  Fe3+  Fe93  1  0.62532771  0.12451513  0.63472019  1
  Fe3+  Fe94  1  0.12470710  0.87522411  0.63481376  1
  Fe3+  Fe95  1  0.62531023  0.62635575  0.63707698  1
  Cu2+  Cu96  1  0.87444963  0.37382327  0.87055970  1
  Cu2+  Cu97  1  0.37528617  0.12671433  0.37313673  1
  Cu2+  Cu98  1  0.87377729  0.62431732  0.87354657  1
  Cu2+  Cu99  1  0.87469556  0.12671731  0.37245727  1
  Cu2+  Cu100  1  0.62520916  0.62433739  0.36348259  1
  Cu2+  Cu101  1  0.87617947  0.87356908  0.36230766  1
  Cu2+  Cu102  1  0.62514508  0.12646908  0.85817394  1
  Cu2+  Cu103  1  0.37475645  0.12553023  0.86157753  1
  Cu2+  Cu104  1  0.62492769  0.87429317  0.87424594  1
  Cu2+  Cu105  1  0.37343728  0.87330858  0.37325162  1
  Cu2+  Cu106  1  0.12571372  0.12640905  0.37319026  1
  Cu2+  Cu107  1  0.12522581  0.37433460  0.86522751  1
  Cu2+  Cu108  1  0.62499158  0.62433623  0.15275479  1
  Cu2+  Cu109  1  0.62489485  0.37321281  0.15324680  1
  Cu2+  Cu110  1  0.12465288  0.12391150  0.64258990  1
  Cu2+  Cu111  1  0.87468255  0.12449659  0.64241524  1
  Cu2+  Cu112  1  0.62448758  0.87745710  0.14335662  1
  Cu2+  Cu113  1  0.12486443  0.62490731  0.14746513  1
  Cu2+  Cu114  1  0.87453024  0.12476479  0.15350929  1
  Cu2+  Cu115  1  0.12493418  0.62616640  0.65497731  1
  Cu2+  Cu116  1  0.62578513  0.37481569  0.64678650  1
  Cu2+  Cu117  1  0.87431055  0.62482347  0.14097499  1
  Cu2+  Cu118  1  0.37519127  0.12496877  0.64329599  1
  Cu2+  Cu119  1  0.37427645  0.37505821  0.65084030  1
  Cu2+  Cu120  1  0.37605547  0.62544269  0.15029566  1
  Cu2+  Cu121  1  0.87395899  0.62541473  0.65502579  1
  Cu2+  Cu122  1  0.12558090  0.12491950  0.15302486  1
  Cu2+  Cu123  1  0.37494837  0.37349490  0.15109811  1
  Cu2+  Cu124  1  0.37577212  0.62489658  0.65356730  1
  Cu2+  Cu125  1  0.12417031  0.37497428  0.65073950  1
  Cu2+  Cu126  1  0.87539050  0.37409670  0.14300520  1
  Cu2+  Cu127  1  0.37501511  0.87505281  0.64213701  1
  O2-  O128  1  0.12455641  0.12540026  -0.00384094  1
  O2-  O129  1  0.12561659  0.12415457  0.50717517  1
  O2-  O130  1  0.12540979  0.37315903  0.01553573  1
  O2-  O131  1  0.12532682  0.37852603  0.49764452  1
  O2-  O132  1  0.12699750  0.62490690  -0.00320767  1
  O2-  O133  1  0.12579482  0.62474856  0.49462105  1
  O2-  O134  1  0.12487240  0.87603294  0.00688838  1
  O2-  O135  1  0.12461908  0.87292295  0.50713620  1
  O2-  O136  1  0.37744134  0.12423150  0.01882627  1
  O2-  O137  1  0.37524089  0.12688725  0.50860292  1
  O2-  O138  1  0.37649968  0.37508100  -0.00464674  1
  O2-  O139  1  0.37279729  0.37827239  0.49655036  1
  O2-  O140  1  0.37770205  0.62368818  -0.00389522  1
  O2-  O141  1  0.37260730  0.62285261  0.49454992  1
  O2-  O142  1  0.37604476  0.87649957  0.00767633  1
  O2-  O143  1  0.37304940  0.87260975  0.50739794  1
  O2-  O144  1  0.62375802  0.12547593  0.02158354  1
  O2-  O145  1  0.62479892  0.12474241  0.50819454  1
  O2-  O146  1  0.62413868  0.37432729  -0.00476094  1
  O2-  O147  1  0.62485423  0.37724343  0.49814463  1
  O2-  O148  1  0.62277554  0.62231716  -0.00320675  1
  O2-  O149  1  0.62580649  0.62776263  0.51662276  1
  O2-  O150  1  0.62439012  0.87626088  0.00840531  1
  O2-  O151  1  0.62610114  0.87303827  0.50827804  1
  O2-  O152  1  0.87409265  0.12616768  -0.00360047  1
  O2-  O153  1  0.87468471  0.12577505  0.50697494  1
  O2-  O154  1  0.87396184  0.37323709  0.00712440  1
  O2-  O155  1  0.87703100  0.37809723  0.50624489  1
  O2-  O156  1  0.87326690  0.62451507  0.00683034  1
  O2-  O157  1  0.87721395  0.62355662  0.49465040  1
  O2-  O158  1  0.87473138  0.87699009  0.00842812  1
  O2-  O159  1  0.87602629  0.87223537  0.51833066  1
  O2-  O160  1  0.12506583  -0.00179034  0.16641356  1
  O2-  O161  1  0.12425743  -0.00357929  0.66546446  1
  O2-  O162  1  0.12521539  0.24929975  0.16691153  1
  O2-  O163  1  0.12433805  0.25075137  0.66346090  1
  O2-  O164  1  0.12561989  0.49956391  0.16126931  1
  O2-  O165  1  0.12451179  0.50148600  0.66432621  1
  O2-  O166  1  0.12527002  0.75220245  0.16191549  1
  O2-  O167  1  0.12485724  0.75148549  0.66471062  1
  O2-  O168  1  0.37423497  -0.00101588  0.16948613  1
  O2-  O169  1  0.37537406  -0.00014546  0.66759182  1
  O2-  O170  1  0.37491373  0.24869918  0.16697230  1
  O2-  O171  1  0.37452765  0.25163132  0.66401183  1
  O2-  O172  1  0.37553208  0.49968866  0.15994258  1
  O2-  O173  1  0.37477884  0.49989587  0.66223978  1
  O2-  O174  1  0.37526094  0.75230288  0.16130249  1
  O2-  O175  1  0.37534341  0.74871466  0.66693688  1
  O2-  O176  1  0.62493261  0.00267275  0.17460925  1
  O2-  O177  1  0.62534983  -0.00081307  0.66387101  1
  O2-  O178  1  0.62524612  0.24883049  0.17038638  1
  O2-  O179  1  0.62574282  0.24890285  0.66020496  1
  O2-  O180  1  0.62491329  0.49841426  0.16236295  1
  O2-  O181  1  0.62508588  0.50057173  0.66208770  1
  O2-  O182  1  0.62487946  0.74935331  0.16477453  1
  O2-  O183  1  0.62530189  0.75167475  0.66752571  1
  O2-  O184  1  0.87589993  -0.00140084  0.16617516  1
  O2-  O185  1  0.87458541  -0.00252699  0.66830595  1
  O2-  O186  1  0.87516515  0.24808758  0.16767906  1
  O2-  O187  1  0.87508820  0.25285894  0.66099197  1
  O2-  O188  1  0.87452924  0.49973547  0.16298082  1
  O2-  O189  1  0.87506068  0.49982039  0.66320346  1
  O2-  O190  1  0.87484945  0.75321407  0.16207136  1
  O2-  O191  1  0.87454714  0.75028605  0.67022167  1
  O2-  O192  1  -0.00006712  0.12392631  0.16438770  1
  O2-  O193  1  -0.00043317  0.12402307  0.66389144  1
  O2-  O194  1  0.00205133  0.37404410  0.16595192  1
  O2-  O195  1  -0.00165215  0.37621634  0.66438319  1
  O2-  O196  1  0.00091143  0.62607942  0.16230630  1
  O2-  O197  1  -0.00079865  0.62660870  0.66525634  1
  O2-  O198  1  0.00038304  0.87530974  0.16112084  1
  O2-  O199  1  0.00080376  0.87333109  0.66754541  1
  O2-  O200  1  0.25103203  0.12364351  0.16597328  1
  O2-  O201  1  0.24964845  0.12427215  0.66533745  1
  O2-  O202  1  0.24981009  0.37448761  0.16250706  1
  O2-  O203  1  0.24889770  0.37536441  0.66445803  1
  O2-  O204  1  0.25071182  0.62606916  0.15954608  1
  O2-  O205  1  0.25079408  0.62631545  0.66453437  1
  O2-  O206  1  0.25036495  0.87494493  0.15987335  1
  O2-  O207  1  0.24695304  0.87416887  0.66684591  1
  O2-  O208  1  0.49905896  0.12480272  0.17339299  1
  O2-  O209  1  0.50330977  0.12472751  0.66406460  1
  O2-  O210  1  0.49949485  0.37362401  0.16560187  1
  O2-  O211  1  0.49968733  0.37464594  0.66106674  1
  O2-  O212  1  0.50060050  0.62559873  0.16629606  1
  O2-  O213  1  0.50077640  0.62556030  0.66246144  1
  O2-  O214  1  0.49673559  0.87538279  0.16780218  1
  O2-  O215  1  0.50339107  0.87520485  0.66416339  1
  O2-  O216  1  0.74999305  0.12469156  0.16944545  1
  O2-  O217  1  0.74723364  0.12436332  0.66326228  1
  O2-  O218  1  0.74901604  0.37359907  0.16747148  1
  O2-  O219  1  0.75254350  0.37565713  0.66171312  1
  O2-  O220  1  0.74828019  0.62526991  0.16575062  1
  O2-  O221  1  0.74902591  0.62562447  0.66613389  1
  O2-  O222  1  0.75255768  0.87623953  0.16652804  1
  O2-  O223  1  0.74857323  0.87462482  0.66718976  1
  O2-  O224  1  0.12457718  -0.00254663  0.35235564  1
  O2-  O225  1  0.12526650  -0.00121123  0.84790908  1
  O2-  O226  1  0.12472140  0.25288437  0.34864085  1
  O2-  O227  1  0.12472646  0.24916487  0.84619554  1
  O2-  O228  1  0.12457357  0.50042387  0.34073003  1
  O2-  O229  1  0.12548480  0.50009292  0.84774525  1
  O2-  O230  1  0.12436449  0.74989840  0.34558444  1
  O2-  O231  1  0.12546368  0.75195724  0.84851130  1
  O2-  O232  1  0.37440478  -0.00007714  0.35206842  1
  O2-  O233  1  0.37431718  -0.00084851  0.85191208  1
  O2-  O234  1  0.37529130  0.25291891  0.34792540  1
  O2-  O235  1  0.37527672  0.24991814  0.84716219  1
  O2-  O236  1  0.37489566  0.50018946  0.34077558  1
  O2-  O237  1  0.37482613  0.49979433  0.84321375  1
  O2-  O238  1  0.37512018  0.74708268  0.34423887  1
  O2-  O239  1  0.37451263  0.75130242  0.84956335  1
  O2-  O240  1  0.62567542  -0.00069411  0.35655993  1
  O2-  O241  1  0.62499103  0.00195549  0.84871281  1
  O2-  O242  1  0.62496613  0.24999808  0.35161217  1
  O2-  O243  1  0.62451232  0.25052851  0.84393903  1
  O2-  O244  1  0.62584350  0.49896156  0.34579983  1
  O2-  O245  1  0.62434843  0.49944924  0.84207023  1
  O2-  O246  1  0.62597720  0.75149764  0.34988499  1
  O2-  O247  1  0.62424276  0.74791780  0.84857793  1
  O2-  O248  1  0.87552366  -0.00140818  0.35074741  1
  O2-  O249  1  0.87502550  -0.00049537  0.84923161  1
  O2-  O250  1  0.87507953  0.25416433  0.35116365  1
  O2-  O251  1  0.87491431  0.24800001  0.84346173  1
  O2-  O252  1  0.87510034  0.49896472  0.34411507  1
  O2-  O253  1  0.87500907  0.49914667  0.84782243  1
  O2-  O254  1  0.87514733  0.74819077  0.34499517  1
  O2-  O255  1  0.87571073  0.75315980  0.85303972  1
  O2-  O256  1  -0.00030769  0.12541082  0.34912426  1
  O2-  O257  1  -0.00010336  0.12432403  0.84444340  1
  O2-  O258  1  -0.00085330  0.37597340  0.34734468  1
  O2-  O259  1  0.00097263  0.37458130  0.84862358  1
  O2-  O260  1  0.00031256  0.62512659  0.34254571  1
  O2-  O261  1  0.00208711  0.62530352  0.84893643  1
  O2-  O262  1  0.00208790  0.87418240  0.34679585  1
  O2-  O263  1  0.00062488  0.87542035  0.85152120  1
  O2-  O264  1  0.25071912  0.12515494  0.34860296  1
  O2-  O265  1  0.24900467  0.12450726  0.84812668  1
  O2-  O266  1  0.24945272  0.37614380  0.34266622  1
  O2-  O267  1  0.25079032  0.37409924  0.84753700  1
  O2-  O268  1  0.24938983  0.62529463  0.34062751  1
  O2-  O269  1  0.25105241  0.62577334  0.84615604  1
  O2-  O270  1  0.24609367  0.87378738  0.34486384  1
  O2-  O271  1  0.24981870  0.87547404  0.85232767  1
  O2-  O272  1  0.50308474  0.12427004  0.35300714  1
  O2-  O273  1  0.50016466  0.12456454  0.84836696  1
  O2-  O274  1  0.49975220  0.37614822  0.34779101  1
  O2-  O275  1  0.49975803  0.37398473  0.84242435  1
  O2-  O276  1  0.50002762  0.62491251  0.34947582  1
  O2-  O277  1  0.49938813  0.62524060  0.84149133  1
  O2-  O278  1  0.50305505  0.87439292  0.35183514  1
  O2-  O279  1  0.49621130  0.87618878  0.84846591  1
  O2-  O280  1  0.74658664  0.12486303  0.35244706  1
  O2-  O281  1  0.75030985  0.12473128  0.84571919  1
  O2-  O282  1  0.75181089  0.37557638  0.35113272  1
  O2-  O283  1  0.74803014  0.37437886  0.84427099  1
  O2-  O284  1  0.75071481  0.62502695  0.34869777  1
  O2-  O285  1  0.74739779  0.62490270  0.84727298  1
  O2-  O286  1  0.74906462  0.87444363  0.35178122  1
  O2-  O287  1  0.75315907  0.87577157  0.85031695  1
