# generated using pymatgen
data_BaYFeCuO5
_symmetry_space_group_name_H-M   'P 1'
_cell_length_a   15.67012195
_cell_length_b   15.66719881
_cell_length_c   15.47926873
_cell_angle_alpha   90.00137309
_cell_angle_beta   90.00643645
_cell_angle_gamma   90.00000651
_symmetry_Int_Tables_number   1
_chemical_formula_structural   BaYFeCuO5
_chemical_formula_sum   'Ba32 Y32 Fe32 Cu32 O160'
_cell_volume   3800.26750384
_cell_formula_units_Z   32
loop_
 _symmetry_equiv_pos_site_id
 _symmetry_equiv_pos_as_xyz
  1  'x, y, z'
loop_
 _atom_type_symbol
 _atom_type_oxidation_number
  Ba2+  2.0
  Y3+  3.0
  Fe3+  3.0
  Cu2+  2.0
  O2-  -2.0
loop_
 _atom_site_type_symbol
 _atom_site_label
 _atom_site_symmetry_multiplicity
 _atom_site_fract_x
 _atom_site_fract_y
 _atom_site_fract_z
 _atom_site_occupancy
  Ba2+  Ba0  1  -0.00002505  0.00053058  -0.00395753  1
  Ba2+  Ba1  1  0.01193237  0.00083302  0.51318593  1
  Ba2+  Ba2  1  -0.00024899  0.25984070  0.00652788  1
  Ba2+  Ba3  1  0.00633265  0.24381524  0.50818441  1
  Ba2+  Ba4  1  0.00198883  0.49858383  0.02264898  1
  Ba2+  Ba5  1  -0.00215668  0.51018243  0.50981645  1
  Ba2+  Ba6  1  0.00426316  0.74329104  0.01148869  1
  Ba2+  Ba7  1  0.00366290  0.74527612  0.51670790  1
  Ba2+  Ba8  1  0.25450244  -0.00456722  0.00019583  1
  Ba2+  Ba9  1  0.24897414  -0.00582759  0.51355087  1
  Ba2+  Ba10  1  0.25356415  0.26021540  0.00167783  1
  Ba2+  Ba11  1  0.24952605  0.24702277  0.50258224  1
  Ba2+  Ba12  1  0.25059875  0.49686958  0.01700454  1
  Ba2+  Ba13  1  0.25675958  0.50735916  0.50658863  1
  Ba2+  Ba14  1  0.25164467  0.74696288  0.01655555  1
  Ba2+  Ba15  1  0.25493612  0.74982858  0.51570986  1
  Ba2+  Ba16  1  0.49636633  -0.00544293  0.01329032  1
  Ba2+  Ba17  1  0.50155086  -0.00486125  0.51309178  1
  Ba2+  Ba18  1  0.49367536  0.25757771  0.00626791  1
  Ba2+  Ba19  1  0.50626576  0.25387554  0.50275198  1
  Ba2+  Ba20  1  0.49828977  0.49922321  0.02272326  1
  Ba2+  Ba21  1  0.49980640  0.50094879  0.50621709  1
  Ba2+  Ba22  1  0.49999995  0.74792354  0.02582723  1
  Ba2+  Ba23  1  0.49498367  0.74931133  0.51328331  1
  Ba2+  Ba24  1  0.74871464  -0.00019360  0.00593512  1
  Ba2+  Ba25  1  0.73871878  0.00186195  0.51225557  1
  Ba2+  Ba26  1  0.75338319  0.25660922  0.01332655  1
  Ba2+  Ba27  1  0.73787775  0.25081643  0.50747510  1
  Ba2+  Ba28  1  0.74953524  0.50033714  0.02769655  1
  Ba2+  Ba29  1  0.74468572  0.50345766  0.50948474  1
  Ba2+  Ba30  1  0.74461734  0.74379683  0.02170579  1
  Ba2+  Ba31  1  0.74681033  0.74395959  0.51435554  1
  Y3+  Y32  1  0.00127535  0.00106114  0.26015783  1
  Y3+  Y33  1  0.00239307  0.00053730  0.75709378  1
  Y3+  Y34  1  0.00241889  0.25092521  0.25875551  1
  Y3+  Y35  1  0.00162618  0.24999213  0.75859553  1
  Y3+  Y36  1  -0.00009042  0.50079309  0.25753245  1
  Y3+  Y37  1  0.00057893  0.50141954  0.75457544  1
  Y3+  Y38  1  -0.00095276  0.74667432  0.25734581  1
  Y3+  Y39  1  0.00151431  0.74871594  0.75534419  1
  Y3+  Y40  1  0.25136973  -0.00042895  0.26106807  1
  Y3+  Y41  1  0.24999090  -0.00110254  0.75606917  1
  Y3+  Y42  1  0.25027167  0.25212626  0.25754781  1
  Y3+  Y43  1  0.25081820  0.25174353  0.76100930  1
  Y3+  Y44  1  0.25268374  0.49920664  0.25631231  1
  Y3+  Y45  1  0.25152458  0.50024284  0.75779813  1
  Y3+  Y46  1  0.25398373  0.74878056  0.25871956  1
  Y3+  Y47  1  0.25025469  0.74965870  0.75369866  1
  Y3+  Y48  1  0.49934691  -0.00115770  0.26007796  1
  Y3+  Y49  1  0.49930603  0.00009601  0.75530172  1
  Y3+  Y50  1  0.50018437  0.25289233  0.26007201  1
  Y3+  Y51  1  0.50009370  0.25129468  0.75687143  1
  Y3+  Y52  1  0.49775909  0.49822221  0.25986039  1
  Y3+  Y53  1  0.49955453  0.50042069  0.75306135  1
  Y3+  Y54  1  0.49680087  0.74985749  0.25899567  1
  Y3+  Y55  1  0.49901596  0.74902843  0.75035464  1
  Y3+  Y56  1  0.74795080  0.00043034  0.25804973  1
  Y3+  Y57  1  0.74825754  0.00146592  0.75683467  1
  Y3+  Y58  1  0.74694504  0.25123797  0.26138626  1
  Y3+  Y59  1  0.74730529  0.24966983  0.75487669  1
  Y3+  Y60  1  0.74966566  0.49985205  0.26122340  1
  Y3+  Y61  1  0.74819082  0.50117239  0.74960498  1
  Y3+  Y62  1  0.75011918  0.74781295  0.25790573  1
  Y3+  Y63  1  0.74888918  0.74805059  0.75260529  1
  Fe3+  Fe64  1  0.62536525  0.37793917  0.87619687  1
  Fe3+  Fe65  1  0.12618028  0.62563197  0.37571174  1
  Fe3+  Fe66  1  0.12560629  0.37611475  0.38031484  1
  Fe3+  Fe67  1  0.37602430  0.87221810  0.87469794  1
  Fe3+  Fe68  1  0.12619019  0.12609489  0.87941050  1
  Fe3+  Fe69  1  0.12568036  0.62417517  0.87583355  1
  Fe3+  Fe70  1  0.62459621  0.62444607  0.87548207  1
  Fe3+  Fe71  1  0.87379045  0.37754275  0.87341253  1
  Fe3+  Fe72  1  0.87533468  0.37502813  0.38080100  1
  Fe3+  Fe73  1  0.62381694  0.62544782  0.37506254  1
  Fe3+  Fe74  1  0.37663286  0.62482363  0.87673761  1
  Fe3+  Fe75  1  0.87460595  0.12415203  0.38163497  1
  Fe3+  Fe76  1  0.62377809  0.12583713  0.88013910  1
  Fe3+  Fe77  1  0.87347994  0.62377510  0.87607804  1
  Fe3+  Fe78  1  0.37568812  0.12448588  0.38069548  1
  Fe3+  Fe79  1  0.87423154  0.87302548  0.87830099  1
  Fe3+  Fe80  1  0.62423664  0.87248261  0.87592899  1
  Fe3+  Fe81  1  0.87526529  0.87440378  0.38088920  1
  Fe3+  Fe82  1  0.12566088  0.87336906  0.37703431  1
  Fe3+  Fe83  1  0.62468066  0.87384963  0.37591847  1
  Fe3+  Fe84  1  0.87574761  0.12547219  0.13820977  1
  Fe3+  Fe85  1  0.37482220  0.37467019  0.63603013  1
  Fe3+  Fe86  1  0.87546717  0.87532638  0.13483907  1
  Fe3+  Fe87  1  0.37437576  0.12516353  0.13784520  1
  Fe3+  Fe88  1  0.37485078  0.12586297  0.63654076  1
  Fe3+  Fe89  1  0.87484013  0.12519918  0.63548582  1
  Fe3+  Fe90  1  0.87490130  0.37454482  0.63247556  1
  Fe3+  Fe91  1  0.62400520  0.12576089  0.13566954  1
  Fe3+  Fe92  1  0.12585713  0.12520309  0.13475195  1
  Fe3+  Fe93  1  0.87486613  0.87572168  0.63439002  1
  Fe3+  Fe94  1  0.12577542  0.37582578  0.63449465  1
  Fe3+  Fe95  1  0.12498952  0.87556805  0.13681900  1
  Cu2+  Cu96  1  0.87397845  0.12586675  0.86375097  1
  Cu2+  Cu97  1  0.12627984  0.12416253  0.37362202  1
  Cu2+  Cu98  1  0.37594308  0.12480328  0.86495904  1
  Cu2+  Cu99  1  0.12458241  0.37821357  0.87215356  1
  Cu2+  Cu100  1  0.37633847  0.37763754  0.87045384  1
  Cu2+  Cu101  1  0.62390864  0.12403616  0.37233350  1
  Cu2+  Cu102  1  0.12525932  0.87345175  0.86361593  1
  Cu2+  Cu103  1  0.37428627  0.37473873  0.36878444  1
  Cu2+  Cu104  1  0.62463848  0.37632088  0.37190112  1
  Cu2+  Cu105  1  0.87492148  0.62579559  0.37345557  1
  Cu2+  Cu106  1  0.37498106  0.87462816  0.37398575  1
  Cu2+  Cu107  1  0.37515757  0.62505001  0.37142734  1
  Cu2+  Cu108  1  0.37507934  0.37378382  0.14534045  1
  Cu2+  Cu109  1  0.87478402  0.62510939  0.63921851  1
  Cu2+  Cu110  1  0.62535859  0.87500377  0.64959699  1
  Cu2+  Cu111  1  0.37494976  0.62410946  0.64056338  1
  Cu2+  Cu112  1  0.62419995  0.62408503  0.15646873  1
  Cu2+  Cu113  1  0.62315378  0.12553869  0.64319584  1
  Cu2+  Cu114  1  0.62527772  0.87557455  0.15156397  1
  Cu2+  Cu115  1  0.37501521  0.62459247  0.15281858  1
  Cu2+  Cu116  1  0.12678501  0.12653653  0.64440591  1
  Cu2+  Cu117  1  0.12590926  0.62392259  0.64958342  1
  Cu2+  Cu118  1  0.62464937  0.37420595  0.15417258  1
  Cu2+  Cu119  1  0.87475636  0.37399217  0.15869789  1
  Cu2+  Cu120  1  0.12478970  0.87441239  0.65242617  1
  Cu2+  Cu121  1  0.37481637  0.87550495  0.64145482  1
  Cu2+  Cu122  1  0.12556642  0.37425357  0.14400970  1
  Cu2+  Cu123  1  0.12590463  0.62498460  0.15293618  1
  Cu2+  Cu124  1  0.37437751  0.87591044  0.15369250  1
  Cu2+  Cu125  1  0.87497074  0.62459915  0.15336774  1
  Cu2+  Cu126  1  0.62392021  0.62496999  0.64596846  1
  Cu2+  Cu127  1  0.62390715  0.37507325  0.64007335  1
  O2-  O128  1  0.12483374  0.12552635  0.00850935  1
  O2-  O129  1  0.12589934  0.12470524  0.50886965  1
  O2-  O130  1  0.12360210  0.37607201  0.00771450  1
  O2-  O131  1  0.12585370  0.37520167  0.50734460  1
  O2-  O132  1  0.12464877  0.62344114  -0.00377195  1
  O2-  O133  1  0.12619399  0.62676613  0.49618007  1
  O2-  O134  1  0.12331586  0.87639860  0.01673243  1
  O2-  O135  1  0.12472509  0.87305193  0.49738380  1
  O2-  O136  1  0.37493307  0.12403125  0.01792770  1
  O2-  O137  1  0.37528344  0.12481786  0.50891236  1
  O2-  O138  1  0.37607785  0.37703440  0.00893308  1
  O2-  O139  1  0.37342303  0.37294498  0.51569236  1
  O2-  O140  1  0.37658873  0.62582641  -0.00288300  1
  O2-  O141  1  0.37549930  0.62539541  0.50650462  1
  O2-  O142  1  0.37649588  0.87208983  -0.00457226  1
  O2-  O143  1  0.37456516  0.87611937  0.50735844  1
  O2-  O144  1  0.62528946  0.12611998  0.00785117  1
  O2-  O145  1  0.62360177  0.12386152  0.50732532  1
  O2-  O146  1  0.62739504  0.37756656  -0.00380824  1
  O2-  O147  1  0.62481368  0.37594540  0.50608491  1
  O2-  O148  1  0.62563059  0.62390089  -0.00503623  1
  O2-  O149  1  0.62332113  0.62680164  0.49598580  1
  O2-  O150  1  0.62531159  0.87230615  -0.00409951  1
  O2-  O151  1  0.62609827  0.87392092  0.49612429  1
  O2-  O152  1  0.87492399  0.12521091  0.01848960  1
  O2-  O153  1  0.87474128  0.12330935  0.50853185  1
  O2-  O154  1  0.87342656  0.37828720  -0.00616733  1
  O2-  O155  1  0.87585475  0.37393973  0.50641500  1
  O2-  O156  1  0.87342002  0.62332685  -0.00413988  1
  O2-  O157  1  0.87514798  0.62691732  0.50583876  1
  O2-  O158  1  0.87478800  0.87416671  0.00674470  1
  O2-  O159  1  0.87536803  0.87599780  0.50731655  1
  O2-  O160  1  0.12380989  0.00134496  0.16673942  1
  O2-  O161  1  0.12483848  -0.00057856  0.66784644  1
  O2-  O162  1  0.12441813  0.24642724  0.16807045  1
  O2-  O163  1  0.12439697  0.25413049  0.66697646  1
  O2-  O164  1  0.12462113  0.50132766  0.16692049  1
  O2-  O165  1  0.12454388  0.49803201  0.65902032  1
  O2-  O166  1  0.12410312  0.75031988  0.16253000  1
  O2-  O167  1  0.12372558  0.74922619  0.66219604  1
  O2-  O168  1  0.37493208  0.00094750  0.16946429  1
  O2-  O169  1  0.37440808  0.00241579  0.66434496  1
  O2-  O170  1  0.37491939  0.24716883  0.17095204  1
  O2-  O171  1  0.37435734  0.24977982  0.66773013  1
  O2-  O172  1  0.37495211  0.50058972  0.16623733  1
  O2-  O173  1  0.37443455  0.49802004  0.66291031  1
  O2-  O174  1  0.37491446  0.75067385  0.16368897  1
  O2-  O175  1  0.37473388  0.75001743  0.66066691  1
  O2-  O176  1  0.62607906  0.00212339  0.16225278  1
  O2-  O177  1  0.62535548  -0.00063361  0.66776169  1
  O2-  O178  1  0.62557930  0.24800099  0.16621478  1
  O2-  O179  1  0.62452878  0.24999638  0.66737741  1
  O2-  O180  1  0.62559559  0.49899890  0.16610446  1
  O2-  O181  1  0.62518254  0.50170202  0.65891472  1
  O2-  O182  1  0.62596714  0.75021227  0.16241643  1
  O2-  O183  1  0.62612595  0.74962642  0.66001472  1
  O2-  O184  1  0.87516745  -0.00044483  0.16754208  1
  O2-  O185  1  0.87514960  0.00027939  0.66589457  1
  O2-  O186  1  0.87517454  0.24853171  0.17099104  1
  O2-  O187  1  0.87597318  0.24972634  0.66241691  1
  O2-  O188  1  0.87502840  0.49922729  0.16689560  1
  O2-  O189  1  0.87496808  0.49723471  0.65769552  1
  O2-  O190  1  0.87499437  0.75161896  0.16208038  1
  O2-  O191  1  0.87511754  0.75327788  0.66257460  1
  O2-  O192  1  0.00135103  0.12475082  0.16832690  1
  O2-  O193  1  -0.00271409  0.12469794  0.66431574  1
  O2-  O194  1  -0.00120175  0.37390248  0.16858630  1
  O2-  O195  1  -0.00005532  0.37468659  0.66024957  1
  O2-  O196  1  -0.00021468  0.62455747  0.16467495  1
  O2-  O197  1  0.00160750  0.62502449  0.66371450  1
  O2-  O198  1  -0.00135974  0.87544809  0.16681272  1
  O2-  O199  1  -0.00164883  0.87637477  0.66387639  1
  O2-  O200  1  0.24843679  0.12409503  0.16727231  1
  O2-  O201  1  0.25302763  0.12589168  0.66723857  1
  O2-  O202  1  0.25035568  0.37409734  0.16769282  1
  O2-  O203  1  0.24907544  0.37472578  0.66669690  1
  O2-  O204  1  0.25077831  0.62506727  0.16416312  1
  O2-  O205  1  0.24880474  0.62464550  0.66520585  1
  O2-  O206  1  0.24895372  0.87576020  0.16566272  1
  O2-  O207  1  0.24801805  0.87536985  0.66539940  1
  O2-  O208  1  0.50127657  0.12401786  0.16524398  1
  O2-  O209  1  0.49649847  0.12499338  0.66569541  1
  O2-  O210  1  0.50119079  0.37376600  0.16596960  1
  O2-  O211  1  0.49800406  0.37448695  0.66520453  1
  O2-  O212  1  0.49977109  0.62506502  0.16450350  1
  O2-  O213  1  0.50153630  0.62505608  0.66177119  1
  O2-  O214  1  0.49989505  0.87632957  0.16356973  1
  O2-  O215  1  0.50191143  0.87586104  0.66247122  1
  O2-  O216  1  0.74894806  0.12492398  0.16607243  1
  O2-  O217  1  0.75283530  0.12478077  0.66381402  1
  O2-  O218  1  0.75005952  0.37336055  0.16696299  1
  O2-  O219  1  0.75244407  0.37355427  0.65919523  1
  O2-  O220  1  0.74968670  0.62480746  0.16570119  1
  O2-  O221  1  0.74765211  0.62559240  0.65995005  1
  O2-  O222  1  0.75244910  0.87606418  0.16312740  1
  O2-  O223  1  0.75164253  0.87657103  0.66232180  1
  O2-  O224  1  0.12439346  -0.00223257  0.34758677  1
  O2-  O225  1  0.12461620  0.00114446  0.85271975  1
  O2-  O226  1  0.12451699  0.25273439  0.35247886  1
  O2-  O227  1  0.12481296  0.24818032  0.85124950  1
  O2-  O228  1  0.12449791  0.49868739  0.35033217  1
  O2-  O229  1  0.12420886  0.50292050  0.84038875  1
  O2-  O230  1  0.12426468  0.75009795  0.34307709  1
  O2-  O231  1  0.12384261  0.74858125  0.84550519  1
  O2-  O232  1  0.37505012  0.00231460  0.35215049  1
  O2-  O233  1  0.37515118  -0.00145782  0.84805778  1
  O2-  O234  1  0.37449897  0.24850590  0.35370337  1
  O2-  O235  1  0.37514649  0.24962466  0.85106117  1
  O2-  O236  1  0.37436376  0.49843368  0.35031244  1
  O2-  O237  1  0.37598809  0.50256797  0.84331615  1
  O2-  O238  1  0.37492393  0.74997702  0.34814031  1
  O2-  O239  1  0.37533615  0.74932318  0.84100866  1
  O2-  O240  1  0.62594127  -0.00224741  0.34536407  1
  O2-  O241  1  0.62549103  0.00049442  0.85135770  1
  O2-  O242  1  0.62510944  0.25011939  0.35041675  1
  O2-  O243  1  0.62559762  0.24972660  0.85024620  1
  O2-  O244  1  0.62530332  0.50167172  0.34878689  1
  O2-  O245  1  0.62561314  0.50087698  0.83976055  1
  O2-  O246  1  0.62579897  0.75038545  0.34356278  1
  O2-  O247  1  0.62605988  0.74954266  0.84125751  1
  O2-  O248  1  0.87502783  -0.00055712  0.35102778  1
  O2-  O249  1  0.87464263  -0.00138933  0.85221875  1
  O2-  O250  1  0.87577703  0.24943847  0.35485929  1
  O2-  O251  1  0.87464636  0.25074547  0.84635446  1
  O2-  O252  1  0.87596573  0.49693636  0.35163255  1
  O2-  O253  1  0.87433714  0.50118181  0.83792292  1
  O2-  O254  1  0.87509535  0.75367005  0.34677714  1
  O2-  O255  1  0.87452391  0.75032076  0.84607597  1
  O2-  O256  1  -0.00310267  0.12439645  0.35153864  1
  O2-  O257  1  0.00206032  0.12459311  0.84918134  1
  O2-  O258  1  0.00049416  0.37411830  0.35267494  1
  O2-  O259  1  -0.00254580  0.37485679  0.84283094  1
  O2-  O260  1  0.00219311  0.62492525  0.34740320  1
  O2-  O261  1  -0.00115767  0.62574249  0.84518784  1
  O2-  O262  1  -0.00114848  0.87561854  0.34884982  1
  O2-  O263  1  -0.00229069  0.87566891  0.84929493  1
  O2-  O264  1  0.25309740  0.12540221  0.35002383  1
  O2-  O265  1  0.24892305  0.12481623  0.85178333  1
  O2-  O266  1  0.24777942  0.37443628  0.35116547  1
  O2-  O267  1  0.25079631  0.37564554  0.84960328  1
  O2-  O268  1  0.24873499  0.62440128  0.34669378  1
  O2-  O269  1  0.25082916  0.62546974  0.84694580  1
  O2-  O270  1  0.24839092  0.87500707  0.34772331  1
  O2-  O271  1  0.25090739  0.87504728  0.84833232  1
  O2-  O272  1  0.49701033  0.12500745  0.34852622  1
  O2-  O273  1  0.50222282  0.12511770  0.84942148  1
  O2-  O274  1  0.49846348  0.37456643  0.34961693  1
  O2-  O275  1  0.50247952  0.37472736  0.84631813  1
  O2-  O276  1  0.50093453  0.62512226  0.34679902  1
  O2-  O277  1  0.50085826  0.62564453  0.84242182  1
  O2-  O278  1  0.50149898  0.87516022  0.34738856  1
  O2-  O279  1  0.50057036  0.87528569  0.84327160  1
  O2-  O280  1  0.75321733  0.12434409  0.34981326  1
  O2-  O281  1  0.74681890  0.12441796  0.84804352  1
  O2-  O282  1  0.75315703  0.37408536  0.35097938  1
  O2-  O283  1  0.74931483  0.37485269  0.83954716  1
  O2-  O284  1  0.74825694  0.62541793  0.34811806  1
  O2-  O285  1  0.74974478  0.62553064  0.84071265  1
  O2-  O286  1  0.75167180  0.87567338  0.34726100  1
  O2-  O287  1  0.75072192  0.87579405  0.84592916  1
