# generated using pymatgen
data_BaYFeCuO5
_symmetry_space_group_name_H-M   'P 1'
_cell_length_a   15.68130785
_cell_length_b   15.67951194
_cell_length_c   15.50696845
_cell_angle_alpha   90.00266021
_cell_angle_beta   89.99890515
_cell_angle_gamma   89.99867459
_symmetry_Int_Tables_number   1
_chemical_formula_structural   BaYFeCuO5
_chemical_formula_sum   'Ba32 Y32 Fe32 Cu32 O160'
_cell_volume   3812.77979443
_cell_formula_units_Z   32
loop_
 _symmetry_equiv_pos_site_id
 _symmetry_equiv_pos_as_xyz
  1  'x, y, z'
loop_
 _atom_type_symbol
 _atom_type_oxidation_number
  Ba2+  2.0
  Y3+  3.0
  Fe3+  3.0
  Cu2+  2.0
  O2-  -2.0
loop_
 _atom_site_type_symbol
 _atom_site_label
 _atom_site_symmetry_multiplicity
 _atom_site_fract_x
 _atom_site_fract_y
 _atom_site_fract_z
 _atom_site_occupancy
  Ba2+  Ba0  1  0.00860101  0.00503203  0.00300611  1
  Ba2+  Ba1  1  -0.00303871  -0.00214402  0.53006216  1
  Ba2+  Ba2  1  0.00372978  0.24927778  0.01206337  1
  Ba2+  Ba3  1  -0.00746728  0.24662542  0.51690269  1
  Ba2+  Ba4  1  0.00245597  0.49726017  0.01747474  1
  Ba2+  Ba5  1  -0.00746748  0.50356507  0.51605209  1
  Ba2+  Ba6  1  0.00776511  0.74836546  0.00606485  1
  Ba2+  Ba7  1  -0.00282358  0.75182928  0.52935506  1
  Ba2+  Ba8  1  0.24689774  0.00078417  0.00639488  1
  Ba2+  Ba9  1  0.23873078  -0.00131468  0.51799589  1
  Ba2+  Ba10  1  0.24864488  0.24898047  0.01400963  1
  Ba2+  Ba11  1  0.24817741  0.24885678  0.50617305  1
  Ba2+  Ba12  1  0.25169792  0.50007438  0.02372839  1
  Ba2+  Ba13  1  0.24811027  0.50134692  0.50582554  1
  Ba2+  Ba14  1  0.25132770  0.74938544  0.01560473  1
  Ba2+  Ba15  1  0.23840554  0.75125523  0.51799027  1
  Ba2+  Ba16  1  0.50069853  -0.00037610  0.00090998  1
  Ba2+  Ba17  1  0.51234585  0.00040962  0.51120612  1
  Ba2+  Ba18  1  0.49849625  0.25035637  0.00685093  1
  Ba2+  Ba19  1  0.50486355  0.24621486  0.50289450  1
  Ba2+  Ba20  1  0.49280959  0.49624106  0.02027216  1
  Ba2+  Ba21  1  0.50476765  0.50377923  0.50205957  1
  Ba2+  Ba22  1  0.49463830  0.75356774  0.01235387  1
  Ba2+  Ba23  1  0.51238605  0.74953193  0.51175948  1
  Ba2+  Ba24  1  0.74329046  0.00363912  -0.00219911  1
  Ba2+  Ba25  1  0.75171965  -0.00048791  0.52416619  1
  Ba2+  Ba26  1  0.74912877  0.25070327  0.00725086  1
  Ba2+  Ba27  1  0.75554269  0.24469565  0.51147165  1
  Ba2+  Ba28  1  0.75267638  0.49331367  0.01437574  1
  Ba2+  Ba29  1  0.75549734  0.50529357  0.51142661  1
  Ba2+  Ba30  1  0.74621410  0.75241528  0.00279351  1
  Ba2+  Ba31  1  0.75185411  0.75045490  0.52535497  1
  Y3+  Y32  1  0.00208961  -0.00027599  0.24937457  1
  Y3+  Y33  1  0.00160743  0.00189922  0.76419468  1
  Y3+  Y34  1  -0.00065074  0.25129055  0.25594040  1
  Y3+  Y35  1  -0.00153003  0.24789920  0.75785864  1
  Y3+  Y36  1  -0.00111037  0.49770950  0.25714165  1
  Y3+  Y37  1  -0.00283337  0.50099929  0.75545788  1
  Y3+  Y38  1  0.00200137  0.75113082  0.24955161  1
  Y3+  Y39  1  0.00031657  0.74959313  0.76256401  1
  Y3+  Y40  1  0.24827815  -0.00149700  0.25354512  1
  Y3+  Y41  1  0.24700418  0.00135219  0.76114924  1
  Y3+  Y42  1  0.24962309  0.25047703  0.25877722  1
  Y3+  Y43  1  0.24896175  0.24742779  0.75710303  1
  Y3+  Y44  1  0.25148909  0.49998695  0.25868461  1
  Y3+  Y45  1  0.25089325  0.50216108  0.75507705  1
  Y3+  Y46  1  0.25022721  0.75059610  0.25273317  1
  Y3+  Y47  1  0.24917104  0.74960222  0.76044050  1
  Y3+  Y48  1  0.50201932  -0.00171476  0.25828122  1
  Y3+  Y49  1  0.50289614  0.00115882  0.75803994  1
  Y3+  Y50  1  0.50078945  0.25112882  0.26202089  1
  Y3+  Y51  1  0.50114677  0.24758729  0.75559832  1
  Y3+  Y52  1  0.49941138  0.50037209  0.26043158  1
  Y3+  Y53  1  0.49987793  0.50292949  0.75589714  1
  Y3+  Y54  1  0.50046157  0.74979178  0.25549119  1
  Y3+  Y55  1  0.50165635  0.74899285  0.75992547  1
  Y3+  Y56  1  0.74821835  -0.00021722  0.25519750  1
  Y3+  Y57  1  0.74815922  0.00165810  0.76020282  1
  Y3+  Y58  1  0.75095731  0.25107965  0.26059981  1
  Y3+  Y59  1  0.75100085  0.24805584  0.75548227  1
  Y3+  Y60  1  0.75064181  0.49828218  0.26038383  1
  Y3+  Y61  1  0.75131481  0.50146311  0.75514311  1
  Y3+  Y62  1  0.74773687  0.75046008  0.25372910  1
  Y3+  Y63  1  0.74833257  0.74927919  0.76102765  1
  Fe3+  Fe64  1  0.12252770  0.62706394  0.37584531  1
  Fe3+  Fe65  1  0.12235122  0.12297659  0.37699844  1
  Fe3+  Fe66  1  0.12317564  0.37491757  0.37947119  1
  Fe3+  Fe67  1  0.37457816  0.62773445  0.37962143  1
  Fe3+  Fe68  1  0.12220500  0.87478135  0.37467540  1
  Fe3+  Fe69  1  0.37445090  0.12240787  0.38118668  1
  Fe3+  Fe70  1  0.37456456  0.87504131  0.87461417  1
  Fe3+  Fe71  1  0.87659244  0.87481538  0.37444734  1
  Fe3+  Fe72  1  0.37392613  0.87487524  0.38140523  1
  Fe3+  Fe73  1  0.37411182  0.37536552  0.87401332  1
  Fe3+  Fe74  1  0.87607638  0.12159122  0.37531881  1
  Fe3+  Fe75  1  0.62691871  0.37526620  0.37975494  1
  Fe3+  Fe76  1  0.12606086  0.62238945  0.87602499  1
  Fe3+  Fe77  1  0.62394033  0.62269348  0.88060208  1
  Fe3+  Fe78  1  0.62811304  0.87432835  0.37625359  1
  Fe3+  Fe79  1  0.87508856  0.87551710  0.87884149  1
  Fe3+  Fe80  1  0.12590940  0.37577646  0.87405036  1
  Fe3+  Fe81  1  0.62409750  0.37558789  0.87516259  1
  Fe3+  Fe82  1  0.87549196  0.37519684  0.87544148  1
  Fe3+  Fe83  1  0.87565232  0.62858999  0.37401321  1
  Fe3+  Fe84  1  0.37594035  0.12452221  0.14009101  1
  Fe3+  Fe85  1  0.62423617  0.12628422  0.13980530  1
  Fe3+  Fe86  1  0.37538232  0.37486091  0.63286078  1
  Fe3+  Fe87  1  0.37535646  0.87517237  0.63433103  1
  Fe3+  Fe88  1  0.62587811  0.37533657  0.63412903  1
  Fe3+  Fe89  1  0.87433202  0.12562070  0.13441011  1
  Fe3+  Fe90  1  0.37465460  0.12383714  0.63470557  1
  Fe3+  Fe91  1  0.12417350  0.37510835  0.63373432  1
  Fe3+  Fe92  1  0.87415986  0.87605987  0.13023541  1
  Fe3+  Fe93  1  0.37502108  0.62654357  0.63337630  1
  Fe3+  Fe94  1  0.62464442  0.62359045  0.13538793  1
  Fe3+  Fe95  1  0.87490314  0.62454792  0.13364623  1
  Cu2+  Cu96  1  0.37484491  0.62382504  0.87380524  1
  Cu2+  Cu97  1  0.12574806  0.12777476  0.87196855  1
  Cu2+  Cu98  1  0.87469652  0.62375291  0.86888526  1
  Cu2+  Cu99  1  0.62729779  0.62711462  0.37233182  1
  Cu2+  Cu100  1  0.62370866  0.87484820  0.87283868  1
  Cu2+  Cu101  1  0.62736699  0.12314998  0.37454140  1
  Cu2+  Cu102  1  0.37467437  0.37496726  0.37017221  1
  Cu2+  Cu103  1  0.37514839  0.12569059  0.86095735  1
  Cu2+  Cu104  1  0.87468823  0.12636244  0.86812984  1
  Cu2+  Cu105  1  0.87625822  0.37470750  0.37496998  1
  Cu2+  Cu106  1  0.12611774  0.87441047  0.87280544  1
  Cu2+  Cu107  1  0.62453847  0.12708742  0.86189275  1
  Cu2+  Cu108  1  0.62477176  0.87474708  0.65709259  1
  Cu2+  Cu109  1  0.87427542  0.37482965  0.64099111  1
  Cu2+  Cu110  1  0.12571264  0.87550208  0.13671803  1
  Cu2+  Cu111  1  0.87465017  0.37411022  0.15186098  1
  Cu2+  Cu112  1  0.37535577  0.37340418  0.15870741  1
  Cu2+  Cu113  1  0.62473587  0.87591799  0.13857301  1
  Cu2+  Cu114  1  0.12577754  0.37478096  0.15558544  1
  Cu2+  Cu115  1  0.87470180  0.87521396  0.66176995  1
  Cu2+  Cu116  1  0.12500102  0.87505359  0.65901935  1
  Cu2+  Cu117  1  0.12604569  0.12598842  0.14236727  1
  Cu2+  Cu118  1  0.87520298  0.12396967  0.65781862  1
  Cu2+  Cu119  1  0.37598530  0.87629248  0.15282926  1
  Cu2+  Cu120  1  0.62514130  0.12570154  0.64205705  1
  Cu2+  Cu121  1  0.12494750  0.62429729  0.65127574  1
  Cu2+  Cu122  1  0.62466328  0.37436987  0.15553466  1
  Cu2+  Cu123  1  0.62485331  0.62450429  0.64234799  1
  Cu2+  Cu124  1  0.12526944  0.62380562  0.15126431  1
  Cu2+  Cu125  1  0.37554072  0.62488827  0.14275040  1
  Cu2+  Cu126  1  0.87495275  0.62623122  0.65775608  1
  Cu2+  Cu127  1  0.12473282  0.12589785  0.65231785  1
  O2-  O128  1  0.12733568  0.12850576  0.00678028  1
  O2-  O129  1  0.12040748  0.12086947  0.49673882  1
  O2-  O130  1  0.12778955  0.37628411  -0.00610991  1
  O2-  O131  1  0.12270854  0.37474833  0.50596670  1
  O2-  O132  1  0.12760943  0.61992441  -0.00384961  1
  O2-  O133  1  0.12038930  0.62919164  0.49550719  1
  O2-  O134  1  0.12703604  0.87433603  0.00528380  1
  O2-  O135  1  0.11978483  0.87482261  0.49458308  1
  O2-  O136  1  0.37701056  0.12616125  0.02024217  1
  O2-  O137  1  0.37347943  0.12203651  0.50820811  1
  O2-  O138  1  0.37364664  0.37495350  -0.00587372  1
  O2-  O139  1  0.37405862  0.37463517  0.51364342  1
  O2-  O140  1  0.37494138  0.62313975  0.00760568  1
  O2-  O141  1  0.37440468  0.62865245  0.50656363  1
  O2-  O142  1  0.37478731  0.87594339  -0.00467554  1
  O2-  O143  1  0.37413774  0.87457579  0.50698541  1
  O2-  O144  1  0.62201069  0.12862028  0.01949508  1
  O2-  O145  1  0.62770553  0.12357995  0.50846131  1
  O2-  O146  1  0.62241926  0.37565826  -0.00515779  1
  O2-  O147  1  0.62723865  0.37559517  0.50719748  1
  O2-  O148  1  0.62279558  0.62044403  0.00761202  1
  O2-  O149  1  0.62760742  0.62662466  0.50703390  1
  O2-  O150  1  0.62277063  0.87546955  0.00597548  1
  O2-  O151  1  0.63066040  0.87383426  0.49633254  1
  O2-  O152  1  0.87259488  0.12810789  0.01440692  1
  O2-  O153  1  0.87718606  0.11925872  0.49546001  1
  O2-  O154  1  0.87563055  0.37483187  -0.00423757  1
  O2-  O155  1  0.87577135  0.37507525  0.50733529  1
  O2-  O156  1  0.87438056  0.62086972  0.01407397  1
  O2-  O157  1  0.87630515  0.63117032  0.49423975  1
  O2-  O158  1  0.87427886  0.87605884  0.00526358  1
  O2-  O159  1  0.87620286  0.87436833  0.49390695  1
  O2-  O160  1  0.12635024  0.00044170  0.16143000  1
  O2-  O161  1  0.12498515  0.00063215  0.66785390  1
  O2-  O162  1  0.12605876  0.25159877  0.16942718  1
  O2-  O163  1  0.12571156  0.25174886  0.65979435  1
  O2-  O164  1  0.12621210  0.49905854  0.16834883  1
  O2-  O165  1  0.12536352  0.49876742  0.65727225  1
  O2-  O166  1  0.12612372  0.74835933  0.15940046  1
  O2-  O167  1  0.12545863  0.74935918  0.66613913  1
  O2-  O168  1  0.37595179  -0.00000368  0.16885343  1
  O2-  O169  1  0.37448194  -0.00068852  0.66224732  1
  O2-  O170  1  0.37552455  0.24928279  0.17103798  1
  O2-  O171  1  0.37420484  0.24904807  0.66175421  1
  O2-  O172  1  0.37508299  0.49735287  0.16945778  1
  O2-  O173  1  0.37483815  0.50135317  0.65932260  1
  O2-  O174  1  0.37568151  0.75262768  0.16408851  1
  O2-  O175  1  0.37420107  0.75077286  0.66216139  1
  O2-  O176  1  0.62426937  0.00247328  0.16596762  1
  O2-  O177  1  0.62472073  -0.00105823  0.66667031  1
  O2-  O178  1  0.62405682  0.25011946  0.17137396  1
  O2-  O179  1  0.62454157  0.25315888  0.66232618  1
  O2-  O180  1  0.62463284  0.50010590  0.16577623  1
  O2-  O181  1  0.62447514  0.49733189  0.66229775  1
  O2-  O182  1  0.62418586  0.74681043  0.15907630  1
  O2-  O183  1  0.62482443  0.75075564  0.66880628  1
  O2-  O184  1  0.87445751  0.00002527  0.16027926  1
  O2-  O185  1  0.87496847  -0.00052761  0.66952817  1
  O2-  O186  1  0.87471433  0.24999934  0.16781760  1
  O2-  O187  1  0.87496685  0.24787279  0.66288776  1
  O2-  O188  1  0.87457741  0.49967793  0.16690224  1
  O2-  O189  1  0.87469320  0.50230550  0.66143274  1
  O2-  O190  1  0.87489406  0.75028331  0.15738082  1
  O2-  O191  1  0.87462075  0.75067904  0.66996727  1
  O2-  O192  1  -0.00137972  0.12592312  0.16050140  1
  O2-  O193  1  0.00023149  0.12482783  0.66720671  1
  O2-  O194  1  0.00058742  0.37516467  0.16235329  1
  O2-  O195  1  0.00244571  0.37516116  0.66282381  1
  O2-  O196  1  -0.00014969  0.62368346  0.16026987  1
  O2-  O197  1  -0.00014912  0.62553792  0.66588425  1
  O2-  O198  1  -0.00355120  0.87499390  0.15783680  1
  O2-  O199  1  0.00035079  0.87482634  0.66983996  1
  O2-  O200  1  0.25226304  0.12559202  0.17010051  1
  O2-  O201  1  0.25145590  0.12451415  0.66173023  1
  O2-  O202  1  0.25065231  0.37466331  0.16856003  1
  O2-  O203  1  0.24935793  0.37550121  0.65935607  1
  O2-  O204  1  0.24878914  0.62423608  0.16825925  1
  O2-  O205  1  0.25197269  0.62520801  0.65962763  1
  O2-  O206  1  0.25260228  0.87506758  0.16655984  1
  O2-  O207  1  0.25106915  0.87510089  0.66030126  1
  O2-  O208  1  0.50001130  0.12573100  0.17546660  1
  O2-  O209  1  0.49639386  0.12485107  0.66321472  1
  O2-  O210  1  0.49985792  0.37503526  0.16998209  1
  O2-  O211  1  0.50021832  0.37509813  0.66162153  1
  O2-  O212  1  0.50285242  0.62354745  0.16850171  1
  O2-  O213  1  0.49603909  0.62579639  0.66398103  1
  O2-  O214  1  0.49887090  0.87493502  0.16944802  1
  O2-  O215  1  0.49845590  0.87470608  0.66073910  1
  O2-  O216  1  0.74970078  0.12644049  0.16660502  1
  O2-  O217  1  0.75134941  0.12442490  0.66679359  1
  O2-  O218  1  0.74932314  0.37478966  0.16522920  1
  O2-  O219  1  0.74772643  0.37535133  0.66456659  1
  O2-  O220  1  0.74877813  0.62373090  0.16206929  1
  O2-  O221  1  0.75118623  0.62578630  0.66896989  1
  O2-  O222  1  0.75298035  0.87478965  0.16079477  1
  O2-  O223  1  0.74940444  0.87469770  0.66878781  1
  O2-  O224  1  0.12506748  -0.00088203  0.34137379  1
  O2-  O225  1  0.12587918  0.00116267  0.85249046  1
  O2-  O226  1  0.12536965  0.24988372  0.35223627  1
  O2-  O227  1  0.12524216  0.25281084  0.84270375  1
  O2-  O228  1  0.12518804  0.50008435  0.35188679  1
  O2-  O229  1  0.12528473  0.49908728  0.83830400  1
  O2-  O230  1  0.12552211  0.75063443  0.34002607  1
  O2-  O231  1  0.12507368  0.74724047  0.84935122  1
  O2-  O232  1  0.37450298  -0.00152365  0.35103944  1
  O2-  O233  1  0.37531160  0.00097499  0.84666138  1
  O2-  O234  1  0.37442198  0.24675505  0.35482645  1
  O2-  O235  1  0.37532272  0.25039964  0.84430127  1
  O2-  O236  1  0.37491427  0.50320592  0.35378989  1
  O2-  O237  1  0.37535208  0.49765842  0.84028350  1
  O2-  O238  1  0.37444734  0.75127809  0.34783113  1
  O2-  O239  1  0.37552512  0.75103496  0.84558702  1
  O2-  O240  1  0.62511766  -0.00325730  0.34565223  1
  O2-  O241  1  0.62412749  0.00288269  0.85142340  1
  O2-  O242  1  0.62525419  0.25223374  0.35375347  1
  O2-  O243  1  0.62437528  0.25130449  0.84491542  1
  O2-  O244  1  0.62505115  0.49786770  0.35082565  1
  O2-  O245  1  0.62460623  0.50041843  0.84373838  1
  O2-  O246  1  0.62477504  0.75301339  0.34068525  1
  O2-  O247  1  0.62434815  0.74605749  0.85284056  1
  O2-  O248  1  0.87621442  -0.00154038  0.33860462  1
  O2-  O249  1  0.87444300  -0.00043311  0.85337237  1
  O2-  O250  1  0.87580976  0.24717653  0.35036735  1
  O2-  O251  1  0.87445395  0.25146085  0.84526368  1
  O2-  O252  1  0.87567637  0.50261975  0.34959251  1
  O2-  O253  1  0.87422772  0.49858287  0.84362103  1
  O2-  O254  1  0.87591378  0.75145093  0.33616653  1
  O2-  O255  1  0.87455093  0.75094228  0.85379771  1
  O2-  O256  1  0.00051887  0.12430761  0.33930909  1
  O2-  O257  1  -0.00086404  0.12627920  0.85110253  1
  O2-  O258  1  0.00333062  0.37489188  0.34585349  1
  O2-  O259  1  0.00004655  0.37551303  0.84444796  1
  O2-  O260  1  0.00033391  0.62569106  0.33935333  1
  O2-  O261  1  0.00047815  0.62374298  0.84914462  1
  O2-  O262  1  0.00054929  0.87467788  0.33679638  1
  O2-  O263  1  -0.00217900  0.87511883  0.85309289  1
  O2-  O264  1  0.24997249  0.12404743  0.35228109  1
  O2-  O265  1  0.25143350  0.12621848  0.84557687  1
  O2-  O266  1  0.24745443  0.37508137  0.35300765  1
  O2-  O267  1  0.25030896  0.37476364  0.83922428  1
  O2-  O268  1  0.25033526  0.62564397  0.35142190  1
  O2-  O269  1  0.24846975  0.62407730  0.84215428  1
  O2-  O270  1  0.25007428  0.87500406  0.35011987  1
  O2-  O271  1  0.25169350  0.87525240  0.84325245  1
  O2-  O272  1  0.49758016  0.12348812  0.35701085  1
  O2-  O273  1  0.50000727  0.12598361  0.84713050  1
  O2-  O274  1  0.50164205  0.37533910  0.35439391  1
  O2-  O275  1  0.49975063  0.37452811  0.84202433  1
  O2-  O276  1  0.49725030  0.62643847  0.35294394  1
  O2-  O277  1  0.50286468  0.62385015  0.84748607  1
  O2-  O278  1  0.49858270  0.87461741  0.35336000  1
  O2-  O279  1  0.49829492  0.87570875  0.84357413  1
  O2-  O280  1  0.75253739  0.12371853  0.34559422  1
  O2-  O281  1  0.74909587  0.12627570  0.85087825  1
  O2-  O282  1  0.74851559  0.37528479  0.34939084  1
  O2-  O283  1  0.74942329  0.37508109  0.84665222  1
  O2-  O284  1  0.75256610  0.62610067  0.34237256  1
  O2-  O285  1  0.74773487  0.62400023  0.85312494  1
  O2-  O286  1  0.75167640  0.87453018  0.34078704  1
  O2-  O287  1  0.75178368  0.87518487  0.85267847  1
