# generated using pymatgen
data_BaYFeCuO5
_symmetry_space_group_name_H-M   'P 1'
_cell_length_a   15.67957324
_cell_length_b   15.67460140
_cell_length_c   15.50038545
_cell_angle_alpha   89.99837443
_cell_angle_beta   89.98971003
_cell_angle_gamma   90.00666877
_symmetry_Int_Tables_number   1
_chemical_formula_structural   BaYFeCuO5
_chemical_formula_sum   'Ba32 Y32 Fe32 Cu32 O160'
_cell_volume   3809.54608150
_cell_formula_units_Z   32
loop_
 _symmetry_equiv_pos_site_id
 _symmetry_equiv_pos_as_xyz
  1  'x, y, z'
loop_
 _atom_type_symbol
 _atom_type_oxidation_number
  Ba2+  2.0
  Y3+  3.0
  Fe3+  3.0
  Cu2+  2.0
  O2-  -2.0
loop_
 _atom_site_type_symbol
 _atom_site_label
 _atom_site_symmetry_multiplicity
 _atom_site_fract_x
 _atom_site_fract_y
 _atom_site_fract_z
 _atom_site_occupancy
  Ba2+  Ba0  1  -0.00416876  0.00173804  0.01296403  1
  Ba2+  Ba1  1  -0.01080768  0.00161615  0.50719501  1
  Ba2+  Ba2  1  -0.00721189  0.24291102  0.01638070  1
  Ba2+  Ba3  1  -0.00864031  0.25266549  0.50262495  1
  Ba2+  Ba4  1  -0.00580414  0.50428505  0.01173560  1
  Ba2+  Ba5  1  -0.00183728  0.48906323  0.50167862  1
  Ba2+  Ba6  1  -0.00142466  0.75240304  0.00543973  1
  Ba2+  Ba7  1  -0.00569542  0.75543823  0.50708607  1
  Ba2+  Ba8  1  0.25193842  -0.00005877  0.01064036  1
  Ba2+  Ba9  1  0.25902518  0.00137052  0.51757316  1
  Ba2+  Ba10  1  0.25125036  0.23873262  0.01084598  1
  Ba2+  Ba11  1  0.25394351  0.25569816  0.49860724  1
  Ba2+  Ba12  1  0.24948818  0.51009566  0.01793859  1
  Ba2+  Ba13  1  0.25755609  0.49759682  0.49516352  1
  Ba2+  Ba14  1  0.25030328  0.75207380  0.01884274  1
  Ba2+  Ba15  1  0.26157860  0.74681125  0.51188974  1
  Ba2+  Ba16  1  0.49949771  -0.00027663  0.01853206  1
  Ba2+  Ba17  1  0.49791101  -0.00479795  0.52196690  1
  Ba2+  Ba18  1  0.50394486  0.24314223  0.01493597  1
  Ba2+  Ba19  1  0.49762472  0.25470009  0.51432003  1
  Ba2+  Ba20  1  0.50800376  0.50667935  0.01468807  1
  Ba2+  Ba21  1  0.49776684  0.50272839  0.50001856  1
  Ba2+  Ba22  1  0.50275985  0.75014170  0.02135736  1
  Ba2+  Ba23  1  0.49832925  0.74713039  0.51192933  1
  Ba2+  Ba24  1  0.75160325  0.00054941  0.02232327  1
  Ba2+  Ba25  1  0.75607946  -0.00297952  0.51083054  1
  Ba2+  Ba26  1  0.75170981  0.24807442  0.02161955  1
  Ba2+  Ba27  1  0.75650392  0.25314044  0.51127762  1
  Ba2+  Ba28  1  0.74784118  0.50277810  0.01180746  1
  Ba2+  Ba29  1  0.74611266  0.49277244  0.50869195  1
  Ba2+  Ba30  1  0.74735658  0.74896471  0.01204121  1
  Ba2+  Ba31  1  0.74556747  0.75609464  0.50820573  1
  Y3+  Y32  1  -0.00411791  0.00195170  0.26013267  1
  Y3+  Y33  1  -0.00331412  0.00070079  0.75548661  1
  Y3+  Y34  1  -0.00396778  0.24930967  0.25961403  1
  Y3+  Y35  1  -0.00388049  0.24844616  0.75535878  1
  Y3+  Y36  1  -0.00124744  0.49696672  0.25932190  1
  Y3+  Y37  1  -0.00181778  0.49913511  0.75717839  1
  Y3+  Y38  1  -0.00130180  0.75182463  0.26050766  1
  Y3+  Y39  1  -0.00129843  0.75145206  0.75539100  1
  Y3+  Y40  1  0.25077971  0.00170891  0.25402530  1
  Y3+  Y41  1  0.25182849  0.00090860  0.75885355  1
  Y3+  Y42  1  0.24984166  0.24924051  0.25462873  1
  Y3+  Y43  1  0.25151471  0.24757621  0.76005308  1
  Y3+  Y44  1  0.25116601  0.50097506  0.25842072  1
  Y3+  Y45  1  0.25107676  0.50134885  0.75772178  1
  Y3+  Y46  1  0.25212392  0.74802256  0.25822696  1
  Y3+  Y47  1  0.25165407  0.75030121  0.75506432  1
  Y3+  Y48  1  0.50052251  0.00001761  0.25195615  1
  Y3+  Y49  1  0.49892418  0.00021856  0.75747736  1
  Y3+  Y50  1  0.50135866  0.24921946  0.25312571  1
  Y3+  Y51  1  0.49972625  0.24876464  0.75954399  1
  Y3+  Y52  1  0.50156505  0.50326755  0.25600585  1
  Y3+  Y53  1  0.50199382  0.50156292  0.75829663  1
  Y3+  Y54  1  0.50078681  0.74719379  0.25711184  1
  Y3+  Y55  1  0.50098179  0.74928739  0.75550956  1
  Y3+  Y56  1  0.75239362  0.00030878  0.25929321  1
  Y3+  Y57  1  0.75258381  -0.00005199  0.75301858  1
  Y3+  Y58  1  0.75220366  0.24937464  0.25825839  1
  Y3+  Y59  1  0.75274057  0.24997827  0.75402814  1
  Y3+  Y60  1  0.74806805  0.49870834  0.25693766  1
  Y3+  Y61  1  0.74958516  0.50039861  0.75884737  1
  Y3+  Y62  1  0.74814939  0.75131000  0.25854106  1
  Y3+  Y63  1  0.74941610  0.74986524  0.75663703  1
  Fe3+  Fe64  1  0.62518056  0.87537784  0.87612390  1
  Fe3+  Fe65  1  0.62312171  0.87585289  0.37594461  1
  Fe3+  Fe66  1  0.37544695  0.87422699  0.87641715  1
  Fe3+  Fe67  1  0.62743606  0.12372428  0.87548861  1
  Fe3+  Fe68  1  0.37515008  0.37544848  0.88325800  1
  Fe3+  Fe69  1  0.62578807  0.37430660  0.87799415  1
  Fe3+  Fe70  1  0.87470784  0.37431469  0.87827516  1
  Fe3+  Fe71  1  0.37574189  0.87583759  0.37424520  1
  Fe3+  Fe72  1  0.12471955  0.37455293  0.88254475  1
  Fe3+  Fe73  1  0.37599178  0.62621170  0.87782850  1
  Fe3+  Fe74  1  0.12664577  0.87644287  0.38130343  1
  Fe3+  Fe75  1  0.62441385  0.12443966  0.37965210  1
  Fe3+  Fe76  1  0.37709673  0.12492892  0.37528589  1
  Fe3+  Fe77  1  0.12555057  0.12523353  0.37996221  1
  Fe3+  Fe78  1  0.62363356  0.37390027  0.37473008  1
  Fe3+  Fe79  1  0.12462185  0.62491756  0.38065286  1
  Fe3+  Fe80  1  0.12463575  0.62640850  0.87577732  1
  Fe3+  Fe81  1  0.87407721  0.87566584  0.87560301  1
  Fe3+  Fe82  1  0.87277984  0.62437719  0.38100830  1
  Fe3+  Fe83  1  0.12296974  0.12368548  0.87627827  1
  Fe3+  Fe84  1  0.12540559  0.12651045  0.63337651  1
  Fe3+  Fe85  1  0.37524365  0.37601951  0.64152446  1
  Fe3+  Fe86  1  0.12354875  0.87556094  0.14051981  1
  Fe3+  Fe87  1  0.87529287  0.62610952  0.14191453  1
  Fe3+  Fe88  1  0.62522488  0.12551954  0.63335229  1
  Fe3+  Fe89  1  0.87492736  0.62394178  0.63443401  1
  Fe3+  Fe90  1  0.62493641  0.62384984  0.63688997  1
  Fe3+  Fe91  1  0.12595941  0.37452626  0.63804538  1
  Fe3+  Fe92  1  0.12394908  0.37458689  0.13543475  1
  Fe3+  Fe93  1  0.12570235  0.87570708  0.63371173  1
  Fe3+  Fe94  1  0.37570613  0.37558278  0.13482400  1
  Fe3+  Fe95  1  0.12556941  0.62349996  0.63272014  1
  Cu2+  Cu96  1  0.37663170  0.37408104  0.35550853  1
  Cu2+  Cu97  1  0.37648071  0.12410773  0.87384471  1
  Cu2+  Cu98  1  0.87289215  0.37539983  0.37017384  1
  Cu2+  Cu99  1  0.37586822  0.62556304  0.37088155  1
  Cu2+  Cu100  1  0.62524485  0.62628921  0.87270636  1
  Cu2+  Cu101  1  0.12485492  0.87511979  0.85978780  1
  Cu2+  Cu102  1  0.62526370  0.62526845  0.36562907  1
  Cu2+  Cu103  1  0.87416904  0.87457808  0.37270747  1
  Cu2+  Cu104  1  0.12537452  0.37397861  0.36129093  1
  Cu2+  Cu105  1  0.87334622  0.12466010  0.87103804  1
  Cu2+  Cu106  1  0.87487875  0.62547803  0.86108743  1
  Cu2+  Cu107  1  0.87321838  0.12526642  0.37310602  1
  Cu2+  Cu108  1  0.37469781  0.87430118  0.15122681  1
  Cu2+  Cu109  1  0.62583556  0.87518073  0.15155513  1
  Cu2+  Cu110  1  0.12319937  0.62533733  0.15655087  1
  Cu2+  Cu111  1  0.62484225  0.87496190  0.64960191  1
  Cu2+  Cu112  1  0.62688072  0.62567577  0.14420937  1
  Cu2+  Cu113  1  0.37481571  0.87444316  0.65283493  1
  Cu2+  Cu114  1  0.62632958  0.12449926  0.15243456  1
  Cu2+  Cu115  1  0.62547925  0.37487203  0.14889792  1
  Cu2+  Cu116  1  0.87477084  0.12449268  0.14569561  1
  Cu2+  Cu117  1  0.87511163  0.87451518  0.15502008  1
  Cu2+  Cu118  1  0.87537056  0.12544815  0.64064568  1
  Cu2+  Cu119  1  0.62459839  0.37496258  0.65174716  1
  Cu2+  Cu120  1  0.37543671  0.62277327  0.64220254  1
  Cu2+  Cu121  1  0.37495736  0.12656734  0.65111494  1
  Cu2+  Cu122  1  0.87518118  0.87387982  0.64152374  1
  Cu2+  Cu123  1  0.87541923  0.37633984  0.64281647  1
  Cu2+  Cu124  1  0.12353653  0.12482841  0.15351115  1
  Cu2+  Cu125  1  0.87474375  0.37546529  0.15163888  1
  Cu2+  Cu126  1  0.37482609  0.12487996  0.14070584  1
  Cu2+  Cu127  1  0.37513451  0.62480795  0.15226813  1
  O2-  O128  1  0.12306114  0.12235815  -0.00326149  1
  O2-  O129  1  0.12737303  0.12774189  0.50655137  1
  O2-  O130  1  0.12374674  0.37527700  0.00812746  1
  O2-  O131  1  0.12840052  0.37490842  0.51798305  1
  O2-  O132  1  0.12392368  0.62789877  -0.00405580  1
  O2-  O133  1  0.12677723  0.62224328  0.50679827  1
  O2-  O134  1  0.12322758  0.87440160  0.02034622  1
  O2-  O135  1  0.12781975  0.87635626  0.50702765  1
  O2-  O136  1  0.37530599  0.12367143  0.00671193  1
  O2-  O137  1  0.37669613  0.12610764  0.49539423  1
  O2-  O138  1  0.37467419  0.37620391  0.00841940  1
  O2-  O139  1  0.37484249  0.37532881  0.52087827  1
  O2-  O140  1  0.37424667  0.62770707  -0.00201715  1
  O2-  O141  1  0.37507564  0.62304053  0.50630392  1
  O2-  O142  1  0.37493363  0.87338594  -0.00351650  1
  O2-  O143  1  0.37575336  0.87672597  0.49446841  1
  O2-  O144  1  0.62744908  0.12333566  -0.00413178  1
  O2-  O145  1  0.62259236  0.12531997  0.50518481  1
  O2-  O146  1  0.62665798  0.37354181  -0.00201253  1
  O2-  O147  1  0.62142840  0.37402282  0.49496447  1
  O2-  O148  1  0.62653113  0.62660041  0.00833673  1
  O2-  O149  1  0.62431623  0.62328075  0.51670552  1
  O2-  O150  1  0.62568903  0.87621931  -0.00409295  1
  O2-  O151  1  0.62122405  0.87585519  0.49592613  1
  O2-  O152  1  0.87394866  0.12398562  0.00725033  1
  O2-  O153  1  0.87440111  0.12622053  0.50648995  1
  O2-  O154  1  0.87527545  0.37464471  -0.00154880  1
  O2-  O155  1  0.87442068  0.37636670  0.50718930  1
  O2-  O156  1  0.87640212  0.62709886  0.02105332  1
  O2-  O157  1  0.87349614  0.62326416  0.50819735  1
  O2-  O158  1  0.87443770  0.87506994  -0.00423134  1
  O2-  O159  1  0.87484528  0.87371233  0.50691606  1
  O2-  O160  1  0.12407017  0.00007735  0.16984834  1
  O2-  O161  1  0.12682284  0.00081572  0.65740772  1
  O2-  O162  1  0.12507109  0.25122305  0.16260384  1
  O2-  O163  1  0.12597097  0.24901119  0.66778525  1
  O2-  O164  1  0.12440753  0.49849885  0.16391501  1
  O2-  O165  1  0.12506715  0.50065100  0.66836697  1
  O2-  O166  1  0.12467765  0.75045899  0.17208950  1
  O2-  O167  1  0.12555396  0.74957467  0.65681580  1
  O2-  O168  1  0.37437517  -0.00126367  0.16283877  1
  O2-  O169  1  0.37436955  0.00043403  0.66161344  1
  O2-  O170  1  0.37440857  0.25322838  0.16246522  1
  O2-  O171  1  0.37481335  0.25133628  0.67025585  1
  O2-  O172  1  0.37426894  0.49858564  0.16400691  1
  O2-  O173  1  0.37481430  0.49822378  0.67224548  1
  O2-  O174  1  0.37380298  0.74918474  0.16564199  1
  O2-  O175  1  0.37416851  0.75015625  0.66056047  1
  O2-  O176  1  0.62544832  -0.00030720  0.16464504  1
  O2-  O177  1  0.62407242  0.00116604  0.65902406  1
  O2-  O178  1  0.62544635  0.24950337  0.16399597  1
  O2-  O179  1  0.62425755  0.24907999  0.66113762  1
  O2-  O180  1  0.62563520  0.49913200  0.16506339  1
  O2-  O181  1  0.62528651  0.49980198  0.66814701  1
  O2-  O182  1  0.62573688  0.75171413  0.16680266  1
  O2-  O183  1  0.62511254  0.74959777  0.66325776  1
  O2-  O184  1  0.87563634  -0.00172928  0.16698067  1
  O2-  O185  1  0.87569417  -0.00038074  0.66158826  1
  O2-  O186  1  0.87503051  0.25137656  0.16626960  1
  O2-  O187  1  0.87570114  0.25044430  0.66382232  1
  O2-  O188  1  0.87593391  0.50021923  0.16745626  1
  O2-  O189  1  0.87582672  0.50321001  0.66693051  1
  O2-  O190  1  0.87590804  0.75024484  0.17052611  1
  O2-  O191  1  0.87597404  0.74626001  0.66250541  1
  O2-  O192  1  -0.00006137  0.12532403  0.16954052  1
  O2-  O193  1  0.00336647  0.12509198  0.66220352  1
  O2-  O194  1  0.00178245  0.37479819  0.16554608  1
  O2-  O195  1  0.00255628  0.37549391  0.66780826  1
  O2-  O196  1  -0.00124968  0.62487582  0.17441232  1
  O2-  O197  1  0.00101904  0.62477546  0.66057571  1
  O2-  O198  1  -0.00007508  0.87495638  0.17182779  1
  O2-  O199  1  0.00415189  0.87478186  0.66308378  1
  O2-  O200  1  0.24820016  0.12513391  0.16534097  1
  O2-  O201  1  0.24888138  0.12574044  0.66415039  1
  O2-  O202  1  0.24936213  0.37568053  0.16190505  1
  O2-  O203  1  0.24971579  0.37477723  0.67413380  1
  O2-  O204  1  0.24901399  0.62446841  0.16477714  1
  O2-  O205  1  0.24702571  0.62424551  0.66355941  1
  O2-  O206  1  0.24926211  0.87471055  0.16668180  1
  O2-  O207  1  0.24848884  0.87495098  0.66340681  1
  O2-  O208  1  0.50193288  0.12511990  0.16219561  1
  O2-  O209  1  0.50108628  0.12592699  0.66250013  1
  O2-  O210  1  0.49894795  0.37502208  0.15939560  1
  O2-  O211  1  0.49959716  0.37433404  0.66905152  1
  O2-  O212  1  0.49969169  0.62517799  0.16375772  1
  O2-  O213  1  0.50178152  0.62442602  0.66636858  1
  O2-  O214  1  0.49969585  0.87484306  0.16038425  1
  O2-  O215  1  0.49896693  0.87485091  0.66302516  1
  O2-  O216  1  0.74954794  0.12455920  0.16797802  1
  O2-  O217  1  0.74751951  0.12528377  0.65964495  1
  O2-  O218  1  0.74988203  0.37514840  0.16469035  1
  O2-  O219  1  0.74873338  0.37548036  0.66230716  1
  O2-  O220  1  0.75237224  0.62528871  0.17029315  1
  O2-  O221  1  0.75074034  0.62448743  0.66451716  1
  O2-  O222  1  0.75074192  0.87493712  0.16567168  1
  O2-  O223  1  0.74914851  0.87443810  0.66193163  1
  O2-  O224  1  0.12647823  0.00090921  0.35307251  1
  O2-  O225  1  0.12463496  0.00016235  0.84181557  1
  O2-  O226  1  0.12622486  0.24843528  0.34840808  1
  O2-  O227  1  0.12514514  0.25163913  0.84994423  1
  O2-  O228  1  0.12513631  0.50078233  0.34986734  1
  O2-  O229  1  0.12517323  0.49887358  0.85004640  1
  O2-  O230  1  0.12462837  0.75002375  0.35549552  1
  O2-  O231  1  0.12464052  0.74943935  0.84102139  1
  O2-  O232  1  0.37430761  0.00078213  0.34330325  1
  O2-  O233  1  0.37478770  -0.00235229  0.84493960  1
  O2-  O234  1  0.37494166  0.24887342  0.34486302  1
  O2-  O235  1  0.37464525  0.25329915  0.85256335  1
  O2-  O236  1  0.37482293  0.49846350  0.34836551  1
  O2-  O237  1  0.37381873  0.49923673  0.85190388  1
  O2-  O238  1  0.37456555  0.75197956  0.34810216  1
  O2-  O239  1  0.37446967  0.74989031  0.84185251  1
  O2-  O240  1  0.62396239  0.00132240  0.34730203  1
  O2-  O241  1  0.62539835  -0.00081864  0.84057164  1
  O2-  O242  1  0.62363066  0.24799594  0.34693555  1
  O2-  O243  1  0.62515053  0.25035976  0.84366962  1
  O2-  O244  1  0.62411410  0.50001793  0.34804644  1
  O2-  O245  1  0.62535813  0.49840810  0.84974562  1
  O2-  O246  1  0.62401649  0.75024622  0.34962953  1
  O2-  O247  1  0.62521093  0.75186946  0.84484562  1
  O2-  O248  1  0.87447730  -0.00025116  0.35044819  1
  O2-  O249  1  0.87522234  -0.00179533  0.84336174  1
  O2-  O250  1  0.87433410  0.25055371  0.34947481  1
  O2-  O251  1  0.87538371  0.25192191  0.84569513  1
  O2-  O252  1  0.87506831  0.50266204  0.35017366  1
  O2-  O253  1  0.87606393  0.49980015  0.84967229  1
  O2-  O254  1  0.87610863  0.74670837  0.35280337  1
  O2-  O255  1  0.87604987  0.75041521  0.84517627  1
  O2-  O256  1  0.00246214  0.12543072  0.35354808  1
  O2-  O257  1  0.00067355  0.12496574  0.84445862  1
  O2-  O258  1  0.00034966  0.37476370  0.35010162  1
  O2-  O259  1  0.00136928  0.37580001  0.84911132  1
  O2-  O260  1  0.00016123  0.62398921  0.35730464  1
  O2-  O261  1  0.00073715  0.62515537  0.84421428  1
  O2-  O262  1  0.00384104  0.87570720  0.35440040  1
  O2-  O263  1  -0.00046684  0.87429321  0.84592514  1
  O2-  O264  1  0.24987327  0.12619828  0.34821373  1
  O2-  O265  1  0.24770790  0.12480132  0.84763148  1
  O2-  O266  1  0.25152397  0.37454665  0.34711640  1
  O2-  O267  1  0.24955467  0.37511129  0.85510052  1
  O2-  O268  1  0.24671186  0.62429914  0.34930267  1
  O2-  O269  1  0.25021015  0.62518516  0.84452704  1
  O2-  O270  1  0.24903631  0.87499692  0.34759948  1
  O2-  O271  1  0.25023276  0.87472415  0.84648517  1
  O2-  O272  1  0.50107329  0.12498814  0.34429039  1
  O2-  O273  1  0.50310165  0.12490619  0.84548184  1
  O2-  O274  1  0.50072113  0.37486710  0.34199717  1
  O2-  O275  1  0.49890050  0.37517451  0.85058938  1
  O2-  O276  1  0.50137626  0.62458836  0.34750499  1
  O2-  O277  1  0.49801450  0.62463507  0.84686758  1
  O2-  O278  1  0.49944615  0.87558252  0.34164828  1
  O2-  O279  1  0.50001025  0.87505549  0.84434790  1
  O2-  O280  1  0.74636367  0.12500113  0.35114299  1
  O2-  O281  1  0.74865594  0.12493599  0.84081326  1
  O2-  O282  1  0.74693064  0.37507586  0.34699895  1
  O2-  O283  1  0.75058680  0.37541716  0.84417417  1
  O2-  O284  1  0.75096881  0.62520803  0.35265773  1
  O2-  O285  1  0.75169808  0.62527638  0.84739926  1
  O2-  O286  1  0.74722064  0.87459831  0.34870589  1
  O2-  O287  1  0.75011012  0.87444871  0.84277850  1
