# generated using pymatgen
data_BaYFeCuO5
_symmetry_space_group_name_H-M   'P 1'
_cell_length_a   15.66347102
_cell_length_b   15.67065552
_cell_length_c   15.48270148
_cell_angle_alpha   90.00097751
_cell_angle_beta   90.00946268
_cell_angle_gamma   89.99586490
_symmetry_Int_Tables_number   1
_chemical_formula_structural   BaYFeCuO5
_chemical_formula_sum   'Ba32 Y32 Fe32 Cu32 O160'
_cell_volume   3800.33520538
_cell_formula_units_Z   32
loop_
 _symmetry_equiv_pos_site_id
 _symmetry_equiv_pos_as_xyz
  1  'x, y, z'
loop_
 _atom_type_symbol
 _atom_type_oxidation_number
  Ba2+  2.0
  Y3+  3.0
  Fe3+  3.0
  Cu2+  2.0
  O2-  -2.0
loop_
 _atom_site_type_symbol
 _atom_site_label
 _atom_site_symmetry_multiplicity
 _atom_site_fract_x
 _atom_site_fract_y
 _atom_site_fract_z
 _atom_site_occupancy
  Ba2+  Ba0  1  0.00774650  -0.00049002  0.00735038  1
  Ba2+  Ba1  1  0.00235843  -0.00621992  0.50763597  1
  Ba2+  Ba2  1  0.00828717  0.25186321  0.00373111  1
  Ba2+  Ba3  1  0.00784891  0.25589598  0.49608147  1
  Ba2+  Ba4  1  0.00489199  0.49371278  0.00676436  1
  Ba2+  Ba5  1  0.00856640  0.49410192  0.50685740  1
  Ba2+  Ba6  1  0.00461486  0.75478253  0.01269353  1
  Ba2+  Ba7  1  0.00290392  0.75443659  0.51690607  1
  Ba2+  Ba8  1  0.25332786  0.00172589  0.01109477  1
  Ba2+  Ba9  1  0.24582767  0.00550010  0.51178803  1
  Ba2+  Ba10  1  0.24536692  0.24250167  0.00696691  1
  Ba2+  Ba11  1  0.24839064  0.25444751  0.51381969  1
  Ba2+  Ba12  1  0.24416607  0.50139509  0.00714304  1
  Ba2+  Ba13  1  0.24935623  0.49742314  0.52376813  1
  Ba2+  Ba14  1  0.25333446  0.75491809  0.01002799  1
  Ba2+  Ba15  1  0.24620231  0.74416343  0.52260230  1
  Ba2+  Ba16  1  0.49462971  -0.00114989  0.01626564  1
  Ba2+  Ba17  1  0.50155537  -0.00245773  0.51027557  1
  Ba2+  Ba18  1  0.50068782  0.24213088  0.01542306  1
  Ba2+  Ba19  1  0.49335336  0.25582290  0.52197850  1
  Ba2+  Ba20  1  0.50416352  0.50449850  0.01055893  1
  Ba2+  Ba21  1  0.49777811  0.50020964  0.52630018  1
  Ba2+  Ba22  1  0.49756706  0.75489051  0.01121614  1
  Ba2+  Ba23  1  0.50496842  0.74628483  0.51681005  1
  Ba2+  Ba24  1  0.74435569  -0.00326874  0.01529463  1
  Ba2+  Ba25  1  0.75053052  -0.01139968  0.50701705  1
  Ba2+  Ba26  1  0.74557345  0.25234308  0.01356796  1
  Ba2+  Ba27  1  0.74978944  0.25895905  0.50658288  1
  Ba2+  Ba28  1  0.74575447  0.49692200  0.01248856  1
  Ba2+  Ba29  1  0.74461540  0.49763456  0.51307273  1
  Ba2+  Ba30  1  0.74425568  0.75422280  0.01387234  1
  Ba2+  Ba31  1  0.74614979  0.75609457  0.51079378  1
  Y3+  Y32  1  0.00216257  0.00067994  0.25954434  1
  Y3+  Y33  1  -0.00068995  -0.00128879  0.75804314  1
  Y3+  Y34  1  0.00479486  0.25135077  0.25704132  1
  Y3+  Y35  1  0.00264460  0.25139804  0.76275950  1
  Y3+  Y36  1  0.00321940  0.49785584  0.25663547  1
  Y3+  Y37  1  0.00182427  0.49739209  0.75968108  1
  Y3+  Y38  1  0.00062166  0.75015905  0.25860719  1
  Y3+  Y39  1  -0.00122928  0.75239729  0.75609999  1
  Y3+  Y40  1  0.24994833  0.00154420  0.25290176  1
  Y3+  Y41  1  0.25145456  0.00227128  0.76106400  1
  Y3+  Y42  1  0.24716885  0.24877382  0.25395392  1
  Y3+  Y43  1  0.24889669  0.24920330  0.76156913  1
  Y3+  Y44  1  0.24704042  0.49859025  0.25344577  1
  Y3+  Y45  1  0.24879398  0.49914893  0.75941295  1
  Y3+  Y46  1  0.24985502  0.75091818  0.25225544  1
  Y3+  Y47  1  0.25176191  0.74929784  0.75929185  1
  Y3+  Y48  1  0.49934646  -0.00124987  0.25585112  1
  Y3+  Y49  1  0.49666648  -0.00013769  0.75689483  1
  Y3+  Y50  1  0.49913084  0.24755622  0.25332078  1
  Y3+  Y51  1  0.49643817  0.24866886  0.75799289  1
  Y3+  Y52  1  0.50077046  0.50074985  0.25216895  1
  Y3+  Y53  1  0.49820294  0.50154047  0.75809996  1
  Y3+  Y54  1  0.50096225  0.75274884  0.25587710  1
  Y3+  Y55  1  0.49841140  0.75002104  0.75688221  1
  Y3+  Y56  1  0.74913906  -0.00253468  0.26308280  1
  Y3+  Y57  1  0.75133707  -0.00311163  0.75371741  1
  Y3+  Y58  1  0.74984494  0.25035027  0.25818040  1
  Y3+  Y59  1  0.75139220  0.25069895  0.75814143  1
  Y3+  Y60  1  0.75001334  0.49999237  0.25666425  1
  Y3+  Y61  1  0.75024689  0.49954919  0.75804703  1
  Y3+  Y62  1  0.74887711  0.75192300  0.26128056  1
  Y3+  Y63  1  0.75045102  0.75271131  0.75332553  1
  Fe3+  Fe64  1  0.12722549  0.62463754  0.37575660  1
  Fe3+  Fe65  1  0.62184572  0.37566636  0.37458297  1
  Fe3+  Fe66  1  0.87600748  0.12573664  0.38102178  1
  Fe3+  Fe67  1  0.62525538  0.62654306  0.87502831  1
  Fe3+  Fe68  1  0.87578066  0.62396594  0.38031324  1
  Fe3+  Fe69  1  0.87411724  0.12395593  0.88131368  1
  Fe3+  Fe70  1  0.37428990  0.12599199  0.37731163  1
  Fe3+  Fe71  1  0.62442305  0.87589072  0.87365197  1
  Fe3+  Fe72  1  0.37522406  0.37494788  0.87975911  1
  Fe3+  Fe73  1  0.37442798  0.62410117  0.37655965  1
  Fe3+  Fe74  1  0.62423218  0.37414970  0.87559730  1
  Fe3+  Fe75  1  0.12751478  0.87422408  0.37603492  1
  Fe3+  Fe76  1  0.62379200  0.12575366  0.38004004  1
  Fe3+  Fe77  1  0.37469277  0.37630590  0.37358562  1
  Fe3+  Fe78  1  0.12453655  0.62645708  0.87666538  1
  Fe3+  Fe79  1  0.37400822  0.87375802  0.37999533  1
  Fe3+  Fe80  1  0.12569084  0.87524185  0.87479877  1
  Fe3+  Fe81  1  0.62494423  0.12353214  0.87500073  1
  Fe3+  Fe82  1  0.62321153  0.62401327  0.37584748  1
  Fe3+  Fe83  1  0.87461355  0.62605552  0.88011358  1
  Fe3+  Fe84  1  0.87533345  0.62539863  0.13492196  1
  Fe3+  Fe85  1  0.87577212  0.62391987  0.63476661  1
  Fe3+  Fe86  1  0.87673134  0.37429346  0.63895666  1
  Fe3+  Fe87  1  0.37354590  0.87537447  0.63496312  1
  Fe3+  Fe88  1  0.87605681  0.12591619  0.63462852  1
  Fe3+  Fe89  1  0.87548470  0.12459040  0.13680949  1
  Fe3+  Fe90  1  0.62537461  0.12557080  0.63359408  1
  Fe3+  Fe91  1  0.37500365  0.62537692  0.13454151  1
  Fe3+  Fe92  1  0.87554562  0.87587074  0.13905099  1
  Fe3+  Fe93  1  0.37496163  0.37434661  0.13209283  1
  Fe3+  Fe94  1  0.12381703  0.12591340  0.63985759  1
  Fe3+  Fe95  1  0.87556376  0.37423620  0.13779071  1
  Cu2+  Cu96  1  0.87681565  0.87353292  0.37388669  1
  Cu2+  Cu97  1  0.12478733  0.12352029  0.87235998  1
  Cu2+  Cu98  1  0.37523984  0.62508567  0.86761362  1
  Cu2+  Cu99  1  0.62284340  0.87441951  0.37326315  1
  Cu2+  Cu100  1  0.12600151  0.37513189  0.87327510  1
  Cu2+  Cu101  1  0.87528834  0.37599537  0.36327609  1
  Cu2+  Cu102  1  0.12634442  0.12500944  0.36333763  1
  Cu2+  Cu103  1  0.87410723  0.87485317  0.86583071  1
  Cu2+  Cu104  1  0.87412442  0.37497541  0.86912528  1
  Cu2+  Cu105  1  0.37549281  0.87524528  0.87002145  1
  Cu2+  Cu106  1  0.12836952  0.37586642  0.37021519  1
  Cu2+  Cu107  1  0.37567859  0.12458395  0.87334564  1
  Cu2+  Cu108  1  0.12394490  0.62551883  0.14569478  1
  Cu2+  Cu109  1  0.62500323  0.37430595  0.65468259  1
  Cu2+  Cu110  1  0.12429607  0.37369455  0.64670697  1
  Cu2+  Cu111  1  0.62611825  0.62630147  0.15048389  1
  Cu2+  Cu112  1  0.37396416  0.12510149  0.64902412  1
  Cu2+  Cu113  1  0.37456077  0.12473050  0.14225856  1
  Cu2+  Cu114  1  0.12342577  0.62443100  0.65430783  1
  Cu2+  Cu115  1  0.12433503  0.87525730  0.15152838  1
  Cu2+  Cu116  1  0.12546436  0.37456614  0.14109907  1
  Cu2+  Cu117  1  0.62665580  0.12374718  0.15436793  1
  Cu2+  Cu118  1  0.12370007  0.12440925  0.14211314  1
  Cu2+  Cu119  1  0.62488638  0.37458433  0.15023433  1
  Cu2+  Cu120  1  0.37476108  0.87531768  0.14215277  1
  Cu2+  Cu121  1  0.37423677  0.62499098  0.65383893  1
  Cu2+  Cu122  1  0.62604404  0.62464496  0.65227963  1
  Cu2+  Cu123  1  0.87577362  0.87550418  0.64090698  1
  Cu2+  Cu124  1  0.62585184  0.87541867  0.15533905  1
  Cu2+  Cu125  1  0.62361488  0.87553777  0.64215583  1
  Cu2+  Cu126  1  0.37386801  0.37497854  0.65769613  1
  Cu2+  Cu127  1  0.12616738  0.87601468  0.65329952  1
  O2-  O128  1  0.12363632  0.12293130  0.00810198  1
  O2-  O129  1  0.12389058  0.12729290  0.51923100  1
  O2-  O130  1  0.12560111  0.37543192  0.00724470  1
  O2-  O131  1  0.12729276  0.37532744  0.50756923  1
  O2-  O132  1  0.12255325  0.62737617  -0.00292222  1
  O2-  O133  1  0.12714173  0.62382386  0.49597590  1
  O2-  O134  1  0.12545047  0.87468457  -0.00434212  1
  O2-  O135  1  0.12825010  0.87342033  0.49643906  1
  O2-  O136  1  0.37667708  0.12459110  0.00699011  1
  O2-  O137  1  0.37469501  0.12723147  0.49753354  1
  O2-  O138  1  0.37622085  0.37479223  0.00578158  1
  O2-  O139  1  0.37542741  0.37723216  0.49395381  1
  O2-  O140  1  0.37633454  0.62632171  0.01405943  1
  O2-  O141  1  0.37411445  0.62252909  0.49627765  1
  O2-  O142  1  0.37585362  0.87499099  0.00756011  1
  O2-  O143  1  0.37290436  0.87390374  0.50616644  1
  O2-  O144  1  0.62650927  0.12317790  -0.00506129  1
  O2-  O145  1  0.62458544  0.12768766  0.50618894  1
  O2-  O146  1  0.62492786  0.37383439  -0.00413872  1
  O2-  O147  1  0.62095800  0.37656663  0.49476508  1
  O2-  O148  1  0.62726195  0.62678316  -0.00474101  1
  O2-  O149  1  0.62306987  0.62140085  0.49609422  1
  O2-  O150  1  0.62487156  0.87634723  -0.00571402  1
  O2-  O151  1  0.62268919  0.87421265  0.50674951  1
  O2-  O152  1  0.87292749  0.12368439  0.00897552  1
  O2-  O153  1  0.87616196  0.12693532  0.50834197  1
  O2-  O154  1  0.87327203  0.37383123  0.01738767  1
  O2-  O155  1  0.87622914  0.37580192  0.51853362  1
  O2-  O156  1  0.87380196  0.62648984  0.00749100  1
  O2-  O157  1  0.87555596  0.62310136  0.50726882  1
  O2-  O158  1  0.87334485  0.87597007  0.01881447  1
  O2-  O159  1  0.87700910  0.87320103  0.50730801  1
  O2-  O160  1  0.12346445  -0.00203686  0.16699816  1
  O2-  O161  1  0.12482064  0.00123991  0.66495530  1
  O2-  O162  1  0.12430189  0.25008930  0.16510532  1
  O2-  O163  1  0.12463094  0.24832852  0.67139040  1
  O2-  O164  1  0.12392207  0.50102408  0.16190331  1
  O2-  O165  1  0.12413034  0.50011203  0.66714003  1
  O2-  O166  1  0.12384160  0.75106293  0.16236980  1
  O2-  O167  1  0.12378214  0.75022646  0.66214914  1
  O2-  O168  1  0.37543026  -0.00001245  0.16747698  1
  O2-  O169  1  0.37398263  -0.00130598  0.66221350  1
  O2-  O170  1  0.37619810  0.25227981  0.16201692  1
  O2-  O171  1  0.37487845  0.25050011  0.66610548  1
  O2-  O172  1  0.37663146  0.49923150  0.15963300  1
  O2-  O173  1  0.37439782  0.50027067  0.66714367  1
  O2-  O174  1  0.37535734  0.74837121  0.16620130  1
  O2-  O175  1  0.37443062  0.75079524  0.66256776  1
  O2-  O176  1  0.62689839  -0.00043995  0.16929764  1
  O2-  O177  1  0.62545002  0.00378417  0.65991079  1
  O2-  O178  1  0.62638767  0.24894789  0.16462219  1
  O2-  O179  1  0.62512037  0.24815208  0.66262927  1
  O2-  O180  1  0.62648042  0.50047585  0.15978088  1
  O2-  O181  1  0.62596952  0.49933792  0.66606677  1
  O2-  O182  1  0.62650148  0.75105213  0.16444351  1
  O2-  O183  1  0.62525401  0.74877561  0.66242859  1
  O2-  O184  1  0.87441931  0.00061838  0.16945954  1
  O2-  O185  1  0.87482156  0.00358012  0.66320134  1
  O2-  O186  1  0.87375829  0.24878474  0.16677597  1
  O2-  O187  1  0.87459132  0.24899734  0.66836935  1
  O2-  O188  1  0.87413186  0.50110151  0.16280608  1
  O2-  O189  1  0.87473386  0.50038241  0.66804129  1
  O2-  O190  1  0.87497143  0.74942908  0.16499364  1
  O2-  O191  1  0.87559651  0.74690537  0.66306074  1
  O2-  O192  1  -0.00344310  0.12474417  0.16734249  1
  O2-  O193  1  -0.00166384  0.12521632  0.67025524  1
  O2-  O194  1  -0.00170657  0.37486795  0.16760512  1
  O2-  O195  1  -0.00149763  0.37457760  0.67103573  1
  O2-  O196  1  -0.00254004  0.62543337  0.16495762  1
  O2-  O197  1  -0.00199138  0.62421168  0.66468084  1
  O2-  O198  1  -0.00033173  0.87494237  0.16667148  1
  O2-  O199  1  0.00203904  0.87593247  0.66609374  1
  O2-  O200  1  0.24927613  0.12444707  0.16366233  1
  O2-  O201  1  0.24940066  0.12548101  0.66701554  1
  O2-  O202  1  0.25312661  0.37564897  0.16027753  1
  O2-  O203  1  0.25038322  0.37500546  0.66780154  1
  O2-  O204  1  0.25019682  0.62493686  0.16084797  1
  O2-  O205  1  0.24836560  0.62461513  0.66580997  1
  O2-  O206  1  0.24731790  0.87512680  0.16255050  1
  O2-  O207  1  0.25151954  0.87449410  0.66329685  1
  O2-  O208  1  0.50245379  0.12401667  0.16411664  1
  O2-  O209  1  0.50069202  0.12557935  0.66065692  1
  O2-  O210  1  0.49949262  0.37478469  0.15808453  1
  O2-  O211  1  0.49962503  0.37501944  0.66468226  1
  O2-  O212  1  0.50080782  0.62561129  0.16194401  1
  O2-  O213  1  0.50051218  0.62440179  0.66372235  1
  O2-  O214  1  0.50239999  0.87551310  0.16523596  1
  O2-  O215  1  0.49616403  0.87522475  0.66161560  1
  O2-  O216  1  0.75226668  0.12434716  0.16727506  1
  O2-  O217  1  0.75059562  0.12634121  0.66152257  1
  O2-  O218  1  0.75040429  0.37454550  0.16716188  1
  O2-  O219  1  0.75098979  0.37437730  0.66501176  1
  O2-  O220  1  0.75202095  0.62568685  0.16510624  1
  O2-  O221  1  0.75224438  0.62391884  0.66223473  1
  O2-  O222  1  0.75101334  0.87530235  0.16930769  1
  O2-  O223  1  0.74951453  0.87518474  0.66304309  1
  O2-  O224  1  0.12566572  -0.00038437  0.35020796  1
  O2-  O225  1  0.12383353  -0.00184515  0.84587853  1
  O2-  O226  1  0.12571030  0.24892611  0.34852834  1
  O2-  O227  1  0.12481873  0.24953412  0.85281060  1
  O2-  O228  1  0.12560475  0.50184557  0.34376720  1
  O2-  O229  1  0.12409978  0.50227226  0.84966563  1
  O2-  O230  1  0.12572904  0.74937107  0.34364011  1
  O2-  O231  1  0.12431471  0.75027172  0.84372504  1
  O2-  O232  1  0.37485795  -0.00073972  0.35102305  1
  O2-  O233  1  0.37569200  -0.00014636  0.84661248  1
  O2-  O234  1  0.37556155  0.24987801  0.34358687  1
  O2-  O235  1  0.37572360  0.25246569  0.85060802  1
  O2-  O236  1  0.37528556  0.50058224  0.33912564  1
  O2-  O237  1  0.37591255  0.49849517  0.85153245  1
  O2-  O238  1  0.37486482  0.75052965  0.34786481  1
  O2-  O239  1  0.37543551  0.74927047  0.84688896  1
  O2-  O240  1  0.62516749  0.00329171  0.35374365  1
  O2-  O241  1  0.62577106  -0.00023060  0.84046129  1
  O2-  O242  1  0.62503590  0.24907128  0.34778607  1
  O2-  O243  1  0.62573639  0.24954464  0.84444889  1
  O2-  O244  1  0.62480674  0.49987440  0.34105182  1
  O2-  O245  1  0.62513420  0.50020651  0.84803210  1
  O2-  O246  1  0.62460863  0.74750349  0.34738037  1
  O2-  O247  1  0.62569974  0.75059355  0.84359125  1
  O2-  O248  1  0.87534175  0.00353144  0.35301195  1
  O2-  O249  1  0.87402888  0.00134222  0.84834095  1
  O2-  O250  1  0.87481703  0.24874361  0.35157325  1
  O2-  O251  1  0.87342090  0.24794277  0.85229259  1
  O2-  O252  1  0.87517662  0.50195451  0.34676157  1
  O2-  O253  1  0.87454183  0.50218541  0.85261338  1
  O2-  O254  1  0.87541793  0.74541761  0.34799580  1
  O2-  O255  1  0.87396945  0.74841190  0.84810341  1
  O2-  O256  1  -0.00037449  0.12594027  0.35208460  1
  O2-  O257  1  -0.00343760  0.12461650  0.85361009  1
  O2-  O258  1  0.00012863  0.37535401  0.35055058  1
  O2-  O259  1  -0.00117379  0.37495463  0.85291737  1
  O2-  O260  1  0.00022246  0.62415670  0.34917570  1
  O2-  O261  1  -0.00186328  0.62585456  0.84844806  1
  O2-  O262  1  0.00311682  0.87469488  0.34803869  1
  O2-  O263  1  -0.00052113  0.87450374  0.84912096  1
  O2-  O264  1  0.25078871  0.12505149  0.34640625  1
  O2-  O265  1  0.24960322  0.12449584  0.85032645  1
  O2-  O266  1  0.25252236  0.37487003  0.34135043  1
  O2-  O267  1  0.25274117  0.37569239  0.85138449  1
  O2-  O268  1  0.25069560  0.62529308  0.34092796  1
  O2-  O269  1  0.24931859  0.62527645  0.84969047  1
  O2-  O270  1  0.25170967  0.87488664  0.34429374  1
  O2-  O271  1  0.24916313  0.87472038  0.84627418  1
  O2-  O272  1  0.50059607  0.12501938  0.34706768  1
  O2-  O273  1  0.50246829  0.12478803  0.84370186  1
  O2-  O274  1  0.49956806  0.37476431  0.33819353  1
  O2-  O275  1  0.49940689  0.37489695  0.84716811  1
  O2-  O276  1  0.49918436  0.62486331  0.34234502  1
  O2-  O277  1  0.50114122  0.62537438  0.84710090  1
  O2-  O278  1  0.49586788  0.87525887  0.34879611  1
  O2-  O279  1  0.50151282  0.87500624  0.84380367  1
  O2-  O280  1  0.74974277  0.12618220  0.35283259  1
  O2-  O281  1  0.75092312  0.12450407  0.84526003  1
  O2-  O282  1  0.74848002  0.37507936  0.34945431  1
  O2-  O283  1  0.74861294  0.37517354  0.84674708  1
  O2-  O284  1  0.75043873  0.62376290  0.34981618  1
  O2-  O285  1  0.75093543  0.62507886  0.84573397  1
  O2-  O286  1  0.75007612  0.87446086  0.35227001  1
  O2-  O287  1  0.74926002  0.87513539  0.84543106  1
