# generated using pymatgen
data_BaYFeCuO5
_symmetry_space_group_name_H-M   'P 1'
_cell_length_a   15.66942478
_cell_length_b   15.66874353
_cell_length_c   15.47872495
_cell_angle_alpha   90.00623174
_cell_angle_beta   89.99883841
_cell_angle_gamma   89.99647290
_symmetry_Int_Tables_number   1
_chemical_formula_structural   BaYFeCuO5
_chemical_formula_sum   'Ba32 Y32 Fe32 Cu32 O160'
_cell_volume   3800.33958658
_cell_formula_units_Z   32
loop_
 _symmetry_equiv_pos_site_id
 _symmetry_equiv_pos_as_xyz
  1  'x, y, z'
loop_
 _atom_type_symbol
 _atom_type_oxidation_number
  Ba2+  2.0
  Y3+  3.0
  Fe3+  3.0
  Cu2+  2.0
  O2-  -2.0
loop_
 _atom_site_type_symbol
 _atom_site_label
 _atom_site_symmetry_multiplicity
 _atom_site_fract_x
 _atom_site_fract_y
 _atom_site_fract_z
 _atom_site_occupancy
  Ba2+  Ba0  1  0.00238386  -0.00042960  0.02216254  1
  Ba2+  Ba1  1  0.00101237  -0.00199819  0.50660829  1
  Ba2+  Ba2  1  0.00381814  0.25115212  0.01255884  1
  Ba2+  Ba3  1  -0.00543352  0.25162397  0.50781355  1
  Ba2+  Ba4  1  -0.00256460  0.49566302  0.00071926  1
  Ba2+  Ba5  1  -0.00273310  0.50546088  0.50036024  1
  Ba2+  Ba6  1  -0.00278022  0.75480057  0.01108211  1
  Ba2+  Ba7  1  0.00435599  0.74408505  0.49898986  1
  Ba2+  Ba8  1  0.24793339  -0.00003332  0.02107360  1
  Ba2+  Ba9  1  0.25668729  -0.00289333  0.51543102  1
  Ba2+  Ba10  1  0.24973557  0.25250310  0.01760612  1
  Ba2+  Ba11  1  0.25996323  0.25040737  0.50745296  1
  Ba2+  Ba12  1  0.25265398  0.49039510  0.00982658  1
  Ba2+  Ba13  1  0.25649611  0.50321903  0.50758513  1
  Ba2+  Ba14  1  0.25107895  0.75702476  0.01440204  1
  Ba2+  Ba15  1  0.25179949  0.74956037  0.52006480  1
  Ba2+  Ba16  1  0.49499750  -0.00304258  0.02324518  1
  Ba2+  Ba17  1  0.49579609  -0.00584206  0.51058608  1
  Ba2+  Ba18  1  0.49305951  0.25441187  0.01658475  1
  Ba2+  Ba19  1  0.48867199  0.25121854  0.50686351  1
  Ba2+  Ba20  1  0.49459171  0.49403583  0.01644259  1
  Ba2+  Ba21  1  0.49539805  0.50581264  0.51288727  1
  Ba2+  Ba22  1  0.49574003  0.75470152  0.02102219  1
  Ba2+  Ba23  1  0.50268540  0.74879324  0.51589420  1
  Ba2+  Ba24  1  0.75422771  -0.00358284  0.02446028  1
  Ba2+  Ba25  1  0.74660396  -0.00487417  0.50280618  1
  Ba2+  Ba26  1  0.75454790  0.25277225  0.01166588  1
  Ba2+  Ba27  1  0.75706209  0.25211958  0.50704613  1
  Ba2+  Ba28  1  0.75601379  0.49935728  0.00577313  1
  Ba2+  Ba29  1  0.75036416  0.50800073  0.50650247  1
  Ba2+  Ba30  1  0.75623352  0.75232618  0.01737892  1
  Ba2+  Ba31  1  0.74062931  0.74516378  0.50216773  1
  Y3+  Y32  1  0.00044861  0.00041904  0.25735682  1
  Y3+  Y33  1  0.00314063  -0.00230817  0.75649470  1
  Y3+  Y34  1  0.00154573  0.24902288  0.25732924  1
  Y3+  Y35  1  0.00033564  0.25272792  0.75894063  1
  Y3+  Y36  1  0.00086863  0.50233964  0.25483306  1
  Y3+  Y37  1  -0.00120762  0.49851020  0.76245156  1
  Y3+  Y38  1  -0.00038463  0.74860805  0.25342902  1
  Y3+  Y39  1  0.00112093  0.75051284  0.76193723  1
  Y3+  Y40  1  0.25055441  0.00180635  0.25685681  1
  Y3+  Y41  1  0.25024631  -0.00141862  0.75483578  1
  Y3+  Y42  1  0.25201464  0.25102398  0.25773982  1
  Y3+  Y43  1  0.25277838  0.25197090  0.75745549  1
  Y3+  Y44  1  0.25161657  0.49820814  0.25509240  1
  Y3+  Y45  1  0.25166232  0.49672638  0.76014753  1
  Y3+  Y46  1  0.24984242  0.74977289  0.25284131  1
  Y3+  Y47  1  0.24918775  0.75214969  0.75957495  1
  Y3+  Y48  1  0.49903419  -0.00019776  0.26073103  1
  Y3+  Y49  1  0.49936727  -0.00077104  0.75123297  1
  Y3+  Y50  1  0.49584381  0.25160807  0.25932704  1
  Y3+  Y51  1  0.49638672  0.25093477  0.75478611  1
  Y3+  Y52  1  0.49820447  0.49895366  0.25801822  1
  Y3+  Y53  1  0.49839034  0.49960511  0.75600228  1
  Y3+  Y54  1  0.50184600  0.75009690  0.25808015  1
  Y3+  Y55  1  0.50125256  0.74973396  0.75306147  1
  Y3+  Y56  1  0.74982534  -0.00128102  0.26072568  1
  Y3+  Y57  1  0.74778816  -0.00174522  0.75333561  1
  Y3+  Y58  1  0.74996260  0.24947847  0.25815580  1
  Y3+  Y59  1  0.75066528  0.25138192  0.75661597  1
  Y3+  Y60  1  0.74890803  0.50334687  0.25669289  1
  Y3+  Y61  1  0.75122086  0.50127731  0.75838061  1
  Y3+  Y62  1  0.74863810  0.74872074  0.25848889  1
  Y3+  Y63  1  0.74847310  0.74847837  0.75641248  1
  Fe3+  Fe64  1  0.62418878  0.62582302  0.88088559  1
  Fe3+  Fe65  1  0.62431669  0.87616913  0.87759341  1
  Fe3+  Fe66  1  0.87536886  0.87315937  0.37825264  1
  Fe3+  Fe67  1  0.62401506  0.37624558  0.37978681  1
  Fe3+  Fe68  1  0.62421691  0.12407673  0.88024030  1
  Fe3+  Fe69  1  0.12567039  0.12512154  0.37984413  1
  Fe3+  Fe70  1  0.62406930  0.12581580  0.37948254  1
  Fe3+  Fe71  1  0.12674513  0.87357019  0.37643178  1
  Fe3+  Fe72  1  0.12593029  0.62503820  0.88127096  1
  Fe3+  Fe73  1  0.87433329  0.87690065  0.87518299  1
  Fe3+  Fe74  1  0.12582221  0.37655783  0.38025493  1
  Fe3+  Fe75  1  0.12606760  0.12462071  0.87612534  1
  Fe3+  Fe76  1  0.87488880  0.12328776  0.87673690  1
  Fe3+  Fe77  1  0.62399009  0.37408913  0.87731820  1
  Fe3+  Fe78  1  0.37540924  0.12415937  0.87677538  1
  Fe3+  Fe79  1  0.37605712  0.62545850  0.87851754  1
  Fe3+  Fe80  1  0.37439411  0.87356264  0.37499633  1
  Fe3+  Fe81  1  0.87502590  0.37656164  0.37632535  1
  Fe3+  Fe82  1  0.37434407  0.62652801  0.37377266  1
  Fe3+  Fe83  1  0.37596571  0.87643202  0.87444501  1
  Fe3+  Fe84  1  0.62462782  0.12604016  0.63280308  1
  Fe3+  Fe85  1  0.62441690  0.12604049  0.13631198  1
  Fe3+  Fe86  1  0.62439624  0.62438846  0.13497070  1
  Fe3+  Fe87  1  0.12539174  0.12534056  0.63342696  1
  Fe3+  Fe88  1  0.12462732  0.37614969  0.63482389  1
  Fe3+  Fe89  1  0.87555109  0.87236429  0.63311086  1
  Fe3+  Fe90  1  0.12560144  0.62377918  0.13434045  1
  Fe3+  Fe91  1  0.87522059  0.37535512  0.14050171  1
  Fe3+  Fe92  1  0.62538736  0.37593027  0.63375397  1
  Fe3+  Fe93  1  0.12475212  0.62395984  0.64104538  1
  Fe3+  Fe94  1  0.87546102  0.12422791  0.63565880  1
  Fe3+  Fe95  1  0.87617399  0.62529062  0.63989895  1
  Cu2+  Cu96  1  0.87514962  0.62532362  0.36036734  1
  Cu2+  Cu97  1  0.12664742  0.62508817  0.35968273  1
  Cu2+  Cu98  1  0.12610236  0.37323980  0.87361252  1
  Cu2+  Cu99  1  0.87412712  0.62654713  0.87545053  1
  Cu2+  Cu100  1  0.62373037  0.87411374  0.37212467  1
  Cu2+  Cu101  1  0.12575576  0.87685208  0.87429005  1
  Cu2+  Cu102  1  0.62292474  0.62409548  0.37047024  1
  Cu2+  Cu103  1  0.37613316  0.37400298  0.87087944  1
  Cu2+  Cu104  1  0.87538889  0.12474984  0.36547596  1
  Cu2+  Cu105  1  0.37437045  0.37641968  0.37212154  1
  Cu2+  Cu106  1  0.87385274  0.37361011  0.86230259  1
  Cu2+  Cu107  1  0.37434127  0.12417581  0.37240963  1
  Cu2+  Cu108  1  0.87483328  0.12541457  0.15451563  1
  Cu2+  Cu109  1  0.37438984  0.37595075  0.64135672  1
  Cu2+  Cu110  1  0.12387640  0.87384033  0.64753141  1
  Cu2+  Cu111  1  0.62624791  0.87407774  0.63898009  1
  Cu2+  Cu112  1  0.37477780  0.37482495  0.14607351  1
  Cu2+  Cu113  1  0.87560048  0.37618217  0.65080222  1
  Cu2+  Cu114  1  0.37493429  0.87374703  0.65025093  1
  Cu2+  Cu115  1  0.87524731  0.62442811  0.14102512  1
  Cu2+  Cu116  1  0.12465038  0.87510410  0.14255911  1
  Cu2+  Cu117  1  0.37487561  0.87539139  0.15488024  1
  Cu2+  Cu118  1  0.37490360  0.12485147  0.64051108  1
  Cu2+  Cu119  1  0.37382439  0.62511580  0.65488086  1
  Cu2+  Cu120  1  0.62535217  0.37478914  0.15168398  1
  Cu2+  Cu121  1  0.37514000  0.12517606  0.15288323  1
  Cu2+  Cu122  1  0.62535644  0.62366541  0.64317251  1
  Cu2+  Cu123  1  0.12532435  0.12580814  0.15375421  1
  Cu2+  Cu124  1  0.62498425  0.87551781  0.15275053  1
  Cu2+  Cu125  1  0.12426945  0.37528756  0.14390005  1
  Cu2+  Cu126  1  0.87484766  0.87520309  0.15752712  1
  Cu2+  Cu127  1  0.37483483  0.62479637  0.14642557  1
  O2-  O128  1  0.12516211  0.12461208  -0.00351366  1
  O2-  O129  1  0.12487510  0.12463448  0.50632347  1
  O2-  O130  1  0.12408318  0.37306980  0.00803210  1
  O2-  O131  1  0.12490641  0.37807116  0.50754097  1
  O2-  O132  1  0.12553026  0.62440542  0.00777338  1
  O2-  O133  1  0.12457909  0.62411239  0.52058800  1
  O2-  O134  1  0.12460009  0.87716821  0.00744669  1
  O2-  O135  1  0.12619338  0.87238289  0.49653180  1
  O2-  O136  1  0.37504140  0.12304897  -0.00318656  1
  O2-  O137  1  0.37493662  0.12376445  0.50622497  1
  O2-  O138  1  0.37562264  0.37313998  0.00753990  1
  O2-  O139  1  0.37401594  0.37734790  0.50743443  1
  O2-  O140  1  0.37726225  0.62599093  -0.00147953  1
  O2-  O141  1  0.37393770  0.62842646  0.49445560  1
  O2-  O142  1  0.37606699  0.87800461  -0.00522318  1
  O2-  O143  1  0.37376778  0.87092929  0.49574448  1
  O2-  O144  1  0.62502226  0.12400606  0.00647246  1
  O2-  O145  1  0.62528289  0.12630961  0.50629825  1
  O2-  O146  1  0.62497993  0.37192196  -0.00240872  1
  O2-  O147  1  0.62515930  0.37644132  0.50647894  1
  O2-  O148  1  0.62439553  0.62593790  0.00675768  1
  O2-  O149  1  0.62379874  0.62308051  0.50691683  1
  O2-  O150  1  0.62470711  0.87823550  -0.00272703  1
  O2-  O151  1  0.62530824  0.87464822  0.50573910  1
  O2-  O152  1  0.87438334  0.12204443  -0.00341655  1
  O2-  O153  1  0.87544152  0.12602560  0.51544408  1
  O2-  O154  1  0.87481482  0.37331226  0.01922766  1
  O2-  O155  1  0.87572515  0.37705353  0.49701963  1
  O2-  O156  1  0.87360293  0.62589876  0.00806299  1
  O2-  O157  1  0.87674667  0.62593914  0.51929778  1
  O2-  O158  1  0.87427603  0.87920366  -0.00426546  1
  O2-  O159  1  0.87608803  0.87094059  0.50609585  1
  O2-  O160  1  0.12431100  0.00183584  0.16779834  1
  O2-  O161  1  0.12452693  0.00052778  0.65793146  1
  O2-  O162  1  0.12491663  0.24885572  0.16982223  1
  O2-  O163  1  0.12323331  0.25043077  0.65811389  1
  O2-  O164  1  0.12514834  0.50233794  0.16644816  1
  O2-  O165  1  0.12476107  0.49870052  0.66966355  1
  O2-  O166  1  0.12513135  0.74725177  0.16115198  1
  O2-  O167  1  0.12439450  0.74920076  0.66935831  1
  O2-  O168  1  0.37562916  0.00026447  0.16651151  1
  O2-  O169  1  0.37513775  -0.00242995  0.65923150  1
  O2-  O170  1  0.37495794  0.24896135  0.16820498  1
  O2-  O171  1  0.37497262  0.25006713  0.66388590  1
  O2-  O172  1  0.37560124  0.50059178  0.16588693  1
  O2-  O173  1  0.37425628  0.50137123  0.66670644  1
  O2-  O174  1  0.37472301  0.75074096  0.15992341  1
  O2-  O175  1  0.37464638  0.75018815  0.66505170  1
  O2-  O176  1  0.62504045  0.00210828  0.16612034  1
  O2-  O177  1  0.62623890  0.00288367  0.65969600  1
  O2-  O178  1  0.62535118  0.24811264  0.16637693  1
  O2-  O179  1  0.62613007  0.25050856  0.66158751  1
  O2-  O180  1  0.62443542  0.50126287  0.16310122  1
  O2-  O181  1  0.62581501  0.49707682  0.66671246  1
  O2-  O182  1  0.62533792  0.74917319  0.16195904  1
  O2-  O183  1  0.62530706  0.74891238  0.66526728  1
  O2-  O184  1  0.87475927  0.00048918  0.16871410  1
  O2-  O185  1  0.87443348  -0.00162184  0.65771759  1
  O2-  O186  1  0.87427044  0.25015582  0.16804096  1
  O2-  O187  1  0.87551505  0.24945613  0.66360091  1
  O2-  O188  1  0.87457837  0.49862374  0.16723342  1
  O2-  O189  1  0.87552200  0.50069293  0.66932436  1
  O2-  O190  1  0.87436094  0.75130561  0.16409230  1
  O2-  O191  1  0.87628779  0.75031714  0.66777096  1
  O2-  O192  1  -0.00026094  0.12538823  0.16714604  1
  O2-  O193  1  0.00112130  0.12414368  0.66315688  1
  O2-  O194  1  -0.00178047  0.37418228  0.17025114  1
  O2-  O195  1  0.00204175  0.37528574  0.66539923  1
  O2-  O196  1  0.00281466  0.62514426  0.16488682  1
  O2-  O197  1  0.00035061  0.62432969  0.67284741  1
  O2-  O198  1  -0.00141388  0.87537605  0.16771795  1
  O2-  O199  1  -0.00239501  0.87521339  0.66370620  1
  O2-  O200  1  0.25068727  0.12524476  0.16456407  1
  O2-  O201  1  0.24653405  0.12500957  0.66176452  1
  O2-  O202  1  0.25000528  0.37456000  0.16595759  1
  O2-  O203  1  0.24655796  0.37502077  0.66425557  1
  O2-  O204  1  0.24921949  0.62453329  0.16072957  1
  O2-  O205  1  0.24917788  0.62526465  0.66796543  1
  O2-  O206  1  0.25129082  0.87617942  0.16325714  1
  O2-  O207  1  0.25016673  0.87395012  0.66316054  1
  O2-  O208  1  0.50126790  0.12557055  0.16328185  1
  O2-  O209  1  0.50314338  0.12543792  0.66301822  1
  O2-  O210  1  0.50103567  0.37422157  0.16645592  1
  O2-  O211  1  0.50265263  0.37497228  0.66126194  1
  O2-  O212  1  0.50137226  0.62522063  0.16156852  1
  O2-  O213  1  0.49787386  0.62430086  0.66352983  1
  O2-  O214  1  0.49965418  0.87578135  0.16397217  1
  O2-  O215  1  0.49898407  0.87474074  0.66108589  1
  O2-  O216  1  0.74798930  0.12478609  0.16540284  1
  O2-  O217  1  0.74946007  0.12588284  0.66473189  1
  O2-  O218  1  0.75054977  0.37432112  0.16919013  1
  O2-  O219  1  0.74890086  0.37435161  0.66210243  1
  O2-  O220  1  0.74657047  0.62509075  0.16467026  1
  O2-  O221  1  0.75246885  0.62459366  0.66829465  1
  O2-  O222  1  0.75018050  0.87627467  0.16769216  1
  O2-  O223  1  0.75372712  0.87404642  0.66229806  1
  O2-  O224  1  0.12445701  0.00016430  0.35093859  1
  O2-  O225  1  0.12551225  0.00262323  0.84058802  1
  O2-  O226  1  0.12362357  0.25081443  0.35499884  1
  O2-  O227  1  0.12509790  0.24748660  0.84188320  1
  O2-  O228  1  0.12508491  0.49953478  0.35093591  1
  O2-  O229  1  0.12507377  0.50208544  0.85256998  1
  O2-  O230  1  0.12412351  0.75004547  0.34422438  1
  O2-  O231  1  0.12561413  0.74767035  0.85266202  1
  O2-  O232  1  0.37440151  -0.00192553  0.34918764  1
  O2-  O233  1  0.37653927  0.00048755  0.83992619  1
  O2-  O234  1  0.37462202  0.25061857  0.35193981  1
  O2-  O235  1  0.37621643  0.24778654  0.84543336  1
  O2-  O236  1  0.37419700  0.50155469  0.34819116  1
  O2-  O237  1  0.37621618  0.50143803  0.84917656  1
  O2-  O238  1  0.37474691  0.75039084  0.34051348  1
  O2-  O239  1  0.37590851  0.75041682  0.84646443  1
  O2-  O240  1  0.62579042  0.00286493  0.35132225  1
  O2-  O241  1  0.62466177  0.00145244  0.84255475  1
  O2-  O242  1  0.62555549  0.25080110  0.35181706  1
  O2-  O243  1  0.62585788  0.24762625  0.84582582  1
  O2-  O244  1  0.62534450  0.49712655  0.34748755  1
  O2-  O245  1  0.62503886  0.50094927  0.85071148  1
  O2-  O246  1  0.62478822  0.74920316  0.34648123  1
  O2-  O247  1  0.62496664  0.74990660  0.84835749  1
  O2-  O248  1  0.87484717  -0.00205889  0.35365361  1
  O2-  O249  1  0.87427629  0.00034526  0.83745869  1
  O2-  O250  1  0.87545600  0.25128783  0.35005570  1
  O2-  O251  1  0.87353798  0.24805342  0.84631283  1
  O2-  O252  1  0.87476193  0.50061163  0.34807201  1
  O2-  O253  1  0.87420413  0.49818968  0.85280918  1
  O2-  O254  1  0.87591820  0.75019715  0.34864916  1
  O2-  O255  1  0.87387136  0.75332034  0.84781835  1
  O2-  O256  1  0.00241032  0.12464025  0.35186976  1
  O2-  O257  1  -0.00044495  0.12512599  0.84437972  1
  O2-  O258  1  0.00155951  0.37649483  0.35158109  1
  O2-  O259  1  -0.00207348  0.37373078  0.84999020  1
  O2-  O260  1  0.00103960  0.62473906  0.34993534  1
  O2-  O261  1  0.00235672  0.62513012  0.85382985  1
  O2-  O262  1  -0.00045477  0.87452061  0.35052684  1
  O2-  O263  1  -0.00153819  0.87598638  0.84639360  1
  O2-  O264  1  0.24614797  0.12570557  0.34855187  1
  O2-  O265  1  0.25116308  0.12480909  0.84312564  1
  O2-  O266  1  0.24674807  0.37527179  0.34960700  1
  O2-  O267  1  0.25144450  0.37435382  0.84773032  1
  O2-  O268  1  0.25072204  0.62529736  0.34320486  1
  O2-  O269  1  0.25006360  0.62481347  0.84988610  1
  O2-  O270  1  0.24959095  0.87457208  0.34352373  1
  O2-  O271  1  0.25266716  0.87588072  0.84599821  1
  O2-  O272  1  0.50271851  0.12568522  0.34794701  1
  O2-  O273  1  0.50170745  0.12525193  0.84626171  1
  O2-  O274  1  0.50204166  0.37474178  0.35021257  1
  O2-  O275  1  0.50227377  0.37403603  0.84335362  1
  O2-  O276  1  0.49757437  0.62455147  0.34396420  1
  O2-  O277  1  0.50167437  0.62519131  0.84602432  1
  O2-  O278  1  0.49799429  0.87528099  0.34658246  1
  O2-  O279  1  0.50091082  0.87560766  0.84208992  1
  O2-  O280  1  0.74826425  0.12585219  0.35072429  1
  O2-  O281  1  0.74815204  0.12441310  0.84716547  1
  O2-  O282  1  0.74893550  0.37464446  0.35111949  1
  O2-  O283  1  0.74849420  0.37429170  0.84593355  1
  O2-  O284  1  0.75043486  0.62501787  0.34917086  1
  O2-  O285  1  0.74626220  0.62483722  0.85011212  1
  O2-  O286  1  0.75265870  0.87415453  0.35189621  1
  O2-  O287  1  0.74836807  0.87638061  0.84276841  1
