# generated using pymatgen
data_BaYFeCuO5
_symmetry_space_group_name_H-M   'P 1'
_cell_length_a   15.67213538
_cell_length_b   15.66824426
_cell_length_c   15.47701603
_cell_angle_alpha   89.99624184
_cell_angle_beta   90.00010170
_cell_angle_gamma   89.99353792
_symmetry_Int_Tables_number   1
_chemical_formula_structural   BaYFeCuO5
_chemical_formula_sum   'Ba32 Y32 Fe32 Cu32 O160'
_cell_volume   3800.45624273
_cell_formula_units_Z   32
loop_
 _symmetry_equiv_pos_site_id
 _symmetry_equiv_pos_as_xyz
  1  'x, y, z'
loop_
 _atom_type_symbol
 _atom_type_oxidation_number
  Ba2+  2.0
  Y3+  3.0
  Fe3+  3.0
  Cu2+  2.0
  O2-  -2.0
loop_
 _atom_site_type_symbol
 _atom_site_label
 _atom_site_symmetry_multiplicity
 _atom_site_fract_x
 _atom_site_fract_y
 _atom_site_fract_z
 _atom_site_occupancy
  Ba2+  Ba0  1  -0.01026263  -0.00079855  0.01698615  1
  Ba2+  Ba1  1  -0.00398277  0.00147642  0.50573149  1
  Ba2+  Ba2  1  -0.01209720  0.25349693  0.01065307  1
  Ba2+  Ba3  1  -0.00037627  0.24872115  0.51673938  1
  Ba2+  Ba4  1  -0.00875657  0.50534998  0.00638270  1
  Ba2+  Ba5  1  -0.00188443  0.49340562  0.51805178  1
  Ba2+  Ba6  1  -0.00574479  0.74118765  0.01108562  1
  Ba2+  Ba7  1  -0.00443661  0.75724968  0.50634602  1
  Ba2+  Ba8  1  0.25945245  -0.00198703  0.00663193  1
  Ba2+  Ba9  1  0.24829414  0.00178810  0.52020497  1
  Ba2+  Ba10  1  0.25468515  0.24604305  0.01105156  1
  Ba2+  Ba11  1  0.24270651  0.24717450  0.51802764  1
  Ba2+  Ba12  1  0.24728666  0.51009278  0.01244143  1
  Ba2+  Ba13  1  0.24579804  0.49694172  0.50066379  1
  Ba2+  Ba14  1  0.25218657  0.74441398  0.00773261  1
  Ba2+  Ba15  1  0.25110756  0.75504590  0.50101048  1
  Ba2+  Ba16  1  0.50345680  -0.00111559  0.00484989  1
  Ba2+  Ba17  1  0.49549303  0.00508425  0.52095871  1
  Ba2+  Ba18  1  0.50715142  0.24487528  0.02255365  1
  Ba2+  Ba19  1  0.50689702  0.24839241  0.51504409  1
  Ba2+  Ba20  1  0.50877826  0.50615766  0.01802164  1
  Ba2+  Ba21  1  0.50310439  0.49658731  0.50210268  1
  Ba2+  Ba22  1  0.50481327  0.74878126  -0.00075055  1
  Ba2+  Ba23  1  0.49184315  0.75074485  0.50727967  1
  Ba2+  Ba24  1  0.74807968  0.00050661  0.01906911  1
  Ba2+  Ba25  1  0.75920028  0.00444779  0.51016073  1
  Ba2+  Ba26  1  0.75047092  0.25267507  0.02192633  1
  Ba2+  Ba27  1  0.75201528  0.24900784  0.51475858  1
  Ba2+  Ba28  1  0.75219414  0.50250747  0.01164915  1
  Ba2+  Ba29  1  0.75293700  0.49274555  0.51682504  1
  Ba2+  Ba30  1  0.74928568  0.74405770  0.00599295  1
  Ba2+  Ba31  1  0.76077439  0.75242152  0.51167195  1
  Y3+  Y32  1  -0.00396216  -0.00147636  0.26011141  1
  Y3+  Y33  1  -0.00258338  0.00050242  0.75398270  1
  Y3+  Y34  1  -0.00288336  0.25095371  0.25753967  1
  Y3+  Y35  1  -0.00188717  0.25197985  0.75607401  1
  Y3+  Y36  1  -0.00028022  0.50041032  0.25419774  1
  Y3+  Y37  1  -0.00241137  0.49995313  0.76127881  1
  Y3+  Y38  1  -0.00135977  0.75025092  0.25652299  1
  Y3+  Y39  1  -0.00243579  0.74716813  0.75899250  1
  Y3+  Y40  1  0.24926107  -0.00052892  0.25491397  1
  Y3+  Y41  1  0.25139871  -0.00075105  0.75924179  1
  Y3+  Y42  1  0.24912008  0.25149039  0.25638089  1
  Y3+  Y43  1  0.24816716  0.25031702  0.75658280  1
  Y3+  Y44  1  0.24864027  0.50239695  0.25777406  1
  Y3+  Y45  1  0.24639211  0.50004510  0.75814279  1
  Y3+  Y46  1  0.24917899  0.74732064  0.25670966  1
  Y3+  Y47  1  0.24973379  0.75002307  0.76072258  1
  Y3+  Y48  1  0.50100722  0.00210596  0.25532963  1
  Y3+  Y49  1  0.50010916  -0.00122348  0.75677136  1
  Y3+  Y50  1  0.50339646  0.25096885  0.25852876  1
  Y3+  Y51  1  0.50260070  0.24985095  0.75247717  1
  Y3+  Y52  1  0.50230014  0.50108006  0.25915976  1
  Y3+  Y53  1  0.50356531  0.49969233  0.75596998  1
  Y3+  Y54  1  0.50002032  0.74659304  0.25825530  1
  Y3+  Y55  1  0.50133041  0.75121885  0.75845605  1
  Y3+  Y56  1  0.75388399  0.00061617  0.26019031  1
  Y3+  Y57  1  0.75117131  0.00048865  0.75216713  1
  Y3+  Y58  1  0.75086686  0.25103598  0.25847300  1
  Y3+  Y59  1  0.75134864  0.25164832  0.75291096  1
  Y3+  Y60  1  0.74901976  0.49876492  0.25481649  1
  Y3+  Y61  1  0.75219340  0.49969146  0.75991810  1
  Y3+  Y62  1  0.75279171  0.74950249  0.25662002  1
  Y3+  Y63  1  0.75147403  0.74822893  0.75806243  1
  Fe3+  Fe64  1  0.12451881  0.37490586  0.88091674  1
  Fe3+  Fe65  1  0.87556153  0.37505473  0.37575974  1
  Fe3+  Fe66  1  0.37699238  0.12636344  0.87524371  1
  Fe3+  Fe67  1  0.62505674  0.87566674  0.38137548  1
  Fe3+  Fe68  1  0.12338876  0.87485349  0.88145940  1
  Fe3+  Fe69  1  0.12321626  0.62531140  0.37978294  1
  Fe3+  Fe70  1  0.37492308  0.87727952  0.37635537  1
  Fe3+  Fe71  1  0.87530881  0.62344675  0.37791430  1
  Fe3+  Fe72  1  0.62658145  0.62543907  0.38109399  1
  Fe3+  Fe73  1  0.62580285  0.12461002  0.37736977  1
  Fe3+  Fe74  1  0.62545938  0.37396890  0.87685845  1
  Fe3+  Fe75  1  0.37638206  0.62340253  0.87613760  1
  Fe3+  Fe76  1  0.37413846  0.12552827  0.37587689  1
  Fe3+  Fe77  1  0.12342603  0.12435084  0.88020688  1
  Fe3+  Fe78  1  0.12464496  0.12496668  0.37393789  1
  Fe3+  Fe79  1  0.87307543  0.12541715  0.87562361  1
  Fe3+  Fe80  1  0.37442108  0.37373372  0.37843775  1
  Fe3+  Fe81  1  0.87349402  0.87576193  0.87704729  1
  Fe3+  Fe82  1  0.62699054  0.12554920  0.87415370  1
  Fe3+  Fe83  1  0.37685988  0.37523621  0.88035970  1
  Fe3+  Fe84  1  0.62558022  0.87468477  0.63422540  1
  Fe3+  Fe85  1  0.37376516  0.62459271  0.63610577  1
  Fe3+  Fe86  1  0.12414269  0.87422742  0.13450202  1
  Fe3+  Fe87  1  0.62578471  0.62510433  0.63458636  1
  Fe3+  Fe88  1  0.37430419  0.37566450  0.63477321  1
  Fe3+  Fe89  1  0.12395343  0.12465448  0.13302139  1
  Fe3+  Fe90  1  0.12424773  0.62542912  0.63573180  1
  Fe3+  Fe91  1  0.37576229  0.37619437  0.13492619  1
  Fe3+  Fe92  1  0.12434480  0.87435783  0.63976360  1
  Fe3+  Fe93  1  0.62567005  0.87376043  0.14009937  1
  Fe3+  Fe94  1  0.12417829  0.37569058  0.13366513  1
  Fe3+  Fe95  1  0.37667930  0.87362800  0.13712232  1
  Cu2+  Cu96  1  0.87377035  0.62478520  0.86943843  1
  Cu2+  Cu97  1  0.12528002  0.87550311  0.36153906  1
  Cu2+  Cu98  1  0.87551309  0.12642447  0.37140852  1
  Cu2+  Cu99  1  0.87469147  0.87458649  0.37197314  1
  Cu2+  Cu100  1  0.62671068  0.87588371  0.86017547  1
  Cu2+  Cu101  1  0.62629628  0.37468813  0.37359906  1
  Cu2+  Cu102  1  0.37572259  0.87485946  0.86529176  1
  Cu2+  Cu103  1  0.37467046  0.62470005  0.36739486  1
  Cu2+  Cu104  1  0.87345574  0.37399996  0.87244139  1
  Cu2+  Cu105  1  0.12428550  0.62521415  0.87406566  1
  Cu2+  Cu106  1  0.62542660  0.62405193  0.87068460  1
  Cu2+  Cu107  1  0.12382935  0.37426201  0.37172752  1
  Cu2+  Cu108  1  0.62625837  0.12404947  0.15473039  1
  Cu2+  Cu109  1  0.87410795  0.62487996  0.14632581  1
  Cu2+  Cu110  1  0.37596413  0.62508696  0.15293739  1
  Cu2+  Cu111  1  0.62532983  0.37589168  0.63997508  1
  Cu2+  Cu112  1  0.62569065  0.12424551  0.64776386  1
  Cu2+  Cu113  1  0.87545178  0.37556311  0.65275447  1
  Cu2+  Cu114  1  0.87466112  0.37637633  0.14156407  1
  Cu2+  Cu115  1  0.87583397  0.87455638  0.64357269  1
  Cu2+  Cu116  1  0.37432559  0.87390862  0.65371180  1
  Cu2+  Cu117  1  0.87452312  0.87406086  0.14977148  1
  Cu2+  Cu118  1  0.87521015  0.12524192  0.15312403  1
  Cu2+  Cu119  1  0.12503656  0.37582956  0.64250289  1
  Cu2+  Cu120  1  0.37441112  0.12575583  0.65282919  1
  Cu2+  Cu121  1  0.87548583  0.62459405  0.64858939  1
  Cu2+  Cu122  1  0.12390835  0.62550369  0.14170005  1
  Cu2+  Cu123  1  0.37518889  0.12491875  0.14996657  1
  Cu2+  Cu124  1  0.87597619  0.12548532  0.64080517  1
  Cu2+  Cu125  1  0.62603096  0.62660219  0.14493897  1
  Cu2+  Cu126  1  0.62505801  0.37556846  0.15180011  1
  Cu2+  Cu127  1  0.12447930  0.12437497  0.65613582  1
  O2-  O128  1  0.12378496  0.12450494  0.00606275  1
  O2-  O129  1  0.12629489  0.12416583  0.49446804  1
  O2-  O130  1  0.12555623  0.37538718  0.00712646  1
  O2-  O131  1  0.12559238  0.37429175  0.50707325  1
  O2-  O132  1  0.12534936  0.62615539  0.00803727  1
  O2-  O133  1  0.12441740  0.62574690  0.50800160  1
  O2-  O134  1  0.12394102  0.87452238  0.00809695  1
  O2-  O135  1  0.12626027  0.87555125  0.51932560  1
  O2-  O136  1  0.37816206  0.12613264  -0.00442729  1
  O2-  O137  1  0.37193254  0.12530563  0.49566877  1
  O2-  O138  1  0.37741271  0.37551744  0.00607563  1
  O2-  O139  1  0.37301718  0.37351973  0.50667512  1
  O2-  O140  1  0.37772604  0.62353115  -0.00307787  1
  O2-  O141  1  0.37171991  0.62549646  0.51592239  1
  O2-  O142  1  0.37861724  0.87385960  0.01672815  1
  O2-  O143  1  0.37267200  0.87858653  0.49692175  1
  O2-  O144  1  0.62644749  0.12539792  -0.00581907  1
  O2-  O145  1  0.62377621  0.12347175  0.49781613  1
  O2-  O146  1  0.62302418  0.37287612  -0.00289541  1
  O2-  O147  1  0.62429191  0.37541599  0.50664038  1
  O2-  O148  1  0.62494338  0.62597114  0.00680443  1
  O2-  O149  1  0.62572349  0.62542843  0.50781116  1
  O2-  O150  1  0.62435178  0.87433460  0.01972736  1
  O2-  O151  1  0.62378165  0.87593970  0.50760079  1
  O2-  O152  1  0.87170371  0.12417079  -0.00391144  1
  O2-  O153  1  0.87737209  0.12671450  0.50710898  1
  O2-  O154  1  0.87304583  0.37486323  0.00716157  1
  O2-  O155  1  0.87676000  0.37428417  0.49675987  1
  O2-  O156  1  0.87241478  0.62527722  0.00717417  1
  O2-  O157  1  0.87688158  0.62278822  0.49824375  1
  O2-  O158  1  0.87204022  0.87680160  -0.00246923  1
  O2-  O159  1  0.87638753  0.87556472  0.50711844  1
  O2-  O160  1  0.12459838  -0.00044146  0.15928832  1
  O2-  O161  1  0.12621646  -0.00043268  0.66893754  1
  O2-  O162  1  0.12669740  0.25010083  0.15811232  1
  O2-  O163  1  0.12558099  0.24852675  0.66659754  1
  O2-  O164  1  0.12616806  0.49706991  0.16577907  1
  O2-  O165  1  0.12548908  0.50344864  0.66510429  1
  O2-  O166  1  0.12534504  0.75343889  0.16753149  1
  O2-  O167  1  0.12507901  0.74820396  0.66737002  1
  O2-  O168  1  0.37520700  -0.00059894  0.16273865  1
  O2-  O169  1  0.37383058  0.00016031  0.66496082  1
  O2-  O170  1  0.37413660  0.25178476  0.16063813  1
  O2-  O171  1  0.37403204  0.25173124  0.66269110  1
  O2-  O172  1  0.37523803  0.49832678  0.16501799  1
  O2-  O173  1  0.37434904  0.49966579  0.66480179  1
  O2-  O174  1  0.37449222  0.75040401  0.16884566  1
  O2-  O175  1  0.37474102  0.74822166  0.66668033  1
  O2-  O176  1  0.62513914  -0.00075366  0.16642696  1
  O2-  O177  1  0.62424280  -0.00200011  0.66269313  1
  O2-  O178  1  0.62491109  0.24900404  0.16353322  1
  O2-  O179  1  0.62430072  0.24885020  0.66070625  1
  O2-  O180  1  0.62391667  0.49983557  0.16671898  1
  O2-  O181  1  0.62500619  0.50335689  0.66348272  1
  O2-  O182  1  0.62531860  0.75170943  0.17291392  1
  O2-  O183  1  0.62425956  0.74973212  0.66288869  1
  O2-  O184  1  0.87555429  0.00045886  0.16521090  1
  O2-  O185  1  0.87568467  -0.00040463  0.66350558  1
  O2-  O186  1  0.87472960  0.24915069  0.16352146  1
  O2-  O187  1  0.87616096  0.25261062  0.66353503  1
  O2-  O188  1  0.87494892  0.50103001  0.16511845  1
  O2-  O189  1  0.87545946  0.49912106  0.66555772  1
  O2-  O190  1  0.87504257  0.74973081  0.16722684  1
  O2-  O191  1  0.87571372  0.74887271  0.66549409  1
  O2-  O192  1  0.00197845  0.12532718  0.16183976  1
  O2-  O193  1  0.00126307  0.12550228  0.66803188  1
  O2-  O194  1  0.00283425  0.37456557  0.16169484  1
  O2-  O195  1  -0.00153012  0.37566757  0.66793078  1
  O2-  O196  1  -0.00150297  0.62536290  0.16475625  1
  O2-  O197  1  0.00134245  0.62444909  0.66526877  1
  O2-  O198  1  0.00060430  0.87498821  0.16242557  1
  O2-  O199  1  0.00183089  0.87446564  0.66966881  1
  O2-  O200  1  0.24737981  0.12442237  0.15895555  1
  O2-  O201  1  0.24973600  0.12511899  0.66875202  1
  O2-  O202  1  0.25018758  0.37524600  0.16105321  1
  O2-  O203  1  0.25294387  0.37495915  0.66880329  1
  O2-  O204  1  0.25131105  0.62471957  0.16564204  1
  O2-  O205  1  0.24860909  0.62506650  0.66753262  1
  O2-  O206  1  0.24925056  0.87556585  0.16139812  1
  O2-  O207  1  0.24900485  0.87457831  0.67113092  1
  O2-  O208  1  0.50048405  0.12556990  0.16464053  1
  O2-  O209  1  0.49965489  0.12475106  0.66167918  1
  O2-  O210  1  0.49878363  0.37491527  0.16562046  1
  O2-  O211  1  0.49663399  0.37544524  0.66234237  1
  O2-  O212  1  0.49947640  0.62471079  0.16975199  1
  O2-  O213  1  0.50074488  0.62495049  0.66117886  1
  O2-  O214  1  0.49996929  0.87467891  0.17156463  1
  O2-  O215  1  0.50106129  0.87452423  0.66199072  1
  O2-  O216  1  0.75092945  0.12401990  0.16600197  1
  O2-  O217  1  0.74934776  0.12506978  0.66053649  1
  O2-  O218  1  0.74818600  0.37537343  0.16480464  1
  O2-  O219  1  0.75215986  0.37536426  0.66200499  1
  O2-  O220  1  0.75080375  0.62525697  0.16745867  1
  O2-  O221  1  0.74893765  0.62553900  0.66122503  1
  O2-  O222  1  0.75029441  0.87555622  0.16871782  1
  O2-  O223  1  0.74754583  0.87400747  0.66019424  1
  O2-  O224  1  0.12566767  0.00041178  0.34240795  1
  O2-  O225  1  0.12551442  0.00019383  0.85256660  1
  O2-  O226  1  0.12541798  0.24806471  0.34108958  1
  O2-  O227  1  0.12607698  0.24935085  0.85159756  1
  O2-  O228  1  0.12616289  0.50346553  0.35016594  1
  O2-  O229  1  0.12582221  0.49667053  0.84922665  1
  O2-  O230  1  0.12529124  0.74892766  0.35271716  1
  O2-  O231  1  0.12506257  0.75343500  0.84992588  1
  O2-  O232  1  0.37459319  0.00093208  0.34235629  1
  O2-  O233  1  0.37553091  0.00105240  0.84900896  1
  O2-  O234  1  0.37451338  0.25048449  0.34407073  1
  O2-  O235  1  0.37404952  0.25154344  0.84624759  1
  O2-  O236  1  0.37421260  0.49833191  0.35124138  1
  O2-  O237  1  0.37471958  0.49722077  0.84628543  1
  O2-  O238  1  0.37500669  0.75124639  0.35135638  1
  O2-  O239  1  0.37545751  0.74950787  0.84906636  1
  O2-  O240  1  0.62475024  -0.00090952  0.34762474  1
  O2-  O241  1  0.62439344  0.00096213  0.84610993  1
  O2-  O242  1  0.62451847  0.24808286  0.34673826  1
  O2-  O243  1  0.62438625  0.24973568  0.84140879  1
  O2-  O244  1  0.62451500  0.50340269  0.35114184  1
  O2-  O245  1  0.62398905  0.49733843  0.84571701  1
  O2-  O246  1  0.62330919  0.74998600  0.35534428  1
  O2-  O247  1  0.62507438  0.75159916  0.84773518  1
  O2-  O248  1  0.87529755  -0.00019057  0.35012689  1
  O2-  O249  1  0.87501009  0.00071983  0.84385503  1
  O2-  O250  1  0.87561332  0.25183056  0.34543262  1
  O2-  O251  1  0.87543507  0.24768672  0.84536267  1
  O2-  O252  1  0.87523900  0.50057385  0.34511804  1
  O2-  O253  1  0.87485936  0.49960243  0.84950865  1
  O2-  O254  1  0.87581325  0.74753684  0.34981269  1
  O2-  O255  1  0.87452808  0.75193292  0.84802267  1
  O2-  O256  1  0.00113439  0.12447412  0.34481568  1
  O2-  O257  1  0.00084566  0.12479332  0.85066354  1
  O2-  O258  1  -0.00170129  0.37589679  0.34350706  1
  O2-  O259  1  0.00235626  0.37401043  0.85261690  1
  O2-  O260  1  0.00085817  0.62525032  0.34708249  1
  O2-  O261  1  -0.00098476  0.62480541  0.84953964  1
  O2-  O262  1  0.00126710  0.87479966  0.34760105  1
  O2-  O263  1  -0.00007611  0.87608261  0.85074370  1
  O2-  O264  1  0.25051529  0.12531929  0.34010664  1
  O2-  O265  1  0.24884521  0.12501245  0.85257067  1
  O2-  O266  1  0.25248605  0.37505223  0.34616776  1
  O2-  O267  1  0.25055271  0.37410717  0.85344605  1
  O2-  O268  1  0.24774729  0.62563580  0.35042435  1
  O2-  O269  1  0.25238869  0.62434824  0.84882288  1
  O2-  O270  1  0.25114727  0.87469729  0.34398227  1
  O2-  O271  1  0.24802982  0.87568046  0.85489130  1
  O2-  O272  1  0.49949852  0.12515412  0.34631503  1
  O2-  O273  1  0.50056296  0.12526408  0.84326855  1
  O2-  O274  1  0.49711909  0.37505863  0.35082942  1
  O2-  O275  1  0.49883692  0.37433289  0.84432737  1
  O2-  O276  1  0.50179015  0.62475710  0.35388771  1
  O2-  O277  1  0.49830175  0.62470205  0.84278750  1
  O2-  O278  1  0.50084133  0.87548087  0.35130984  1
  O2-  O279  1  0.50156251  0.87509128  0.84751074  1
  O2-  O280  1  0.74907827  0.12478309  0.34925876  1
  O2-  O281  1  0.74995193  0.12463112  0.84072731  1
  O2-  O282  1  0.75222800  0.37552560  0.34703509  1
  O2-  O283  1  0.74804489  0.37433065  0.84475734  1
  O2-  O284  1  0.74933953  0.62598397  0.34996578  1
  O2-  O285  1  0.75001462  0.62505590  0.84557784  1
  O2-  O286  1  0.74656461  0.87410893  0.35171845  1
  O2-  O287  1  0.75089583  0.87573196  0.84277358  1
