# generated using pymatgen
data_BaYFeCuO5
_symmetry_space_group_name_H-M   'P 1'
_cell_length_a   15.69160103
_cell_length_b   15.69181454
_cell_length_c   15.57036784
_cell_angle_alpha   89.99605136
_cell_angle_beta   90.00216701
_cell_angle_gamma   90.00272707
_symmetry_Int_Tables_number   1
_chemical_formula_structural   BaYFeCuO5
_chemical_formula_sum   'Ba32 Y32 Fe32 Cu32 O160'
_cell_volume   3833.88688104
_cell_formula_units_Z   32
loop_
 _symmetry_equiv_pos_site_id
 _symmetry_equiv_pos_as_xyz
  1  'x, y, z'
loop_
 _atom_type_symbol
 _atom_type_oxidation_number
  Ba2+  2.0
  Y3+  3.0
  Fe3+  3.0
  Cu2+  2.0
  O2-  -2.0
loop_
 _atom_site_type_symbol
 _atom_site_label
 _atom_site_symmetry_multiplicity
 _atom_site_fract_x
 _atom_site_fract_y
 _atom_site_fract_z
 _atom_site_occupancy
  Ba2+  Ba0  1  0.00016656  -0.01342143  0.00619705  1
  Ba2+  Ba1  1  -0.00503571  0.00542029  0.52571985  1
  Ba2+  Ba2  1  0.00519987  0.25527920  0.00951971  1
  Ba2+  Ba3  1  -0.00119502  0.25002454  0.52932364  1
  Ba2+  Ba4  1  0.00493303  0.50751556  0.02139967  1
  Ba2+  Ba5  1  -0.00262165  0.50014545  0.52066427  1
  Ba2+  Ba6  1  0.00003944  0.75194318  0.01755664  1
  Ba2+  Ba7  1  -0.00630191  0.74410057  0.51581296  1
  Ba2+  Ba8  1  0.25324302  -0.00854969  0.00653809  1
  Ba2+  Ba9  1  0.25319672  0.00579505  0.51188579  1
  Ba2+  Ba10  1  0.25626060  0.25591367  0.02189754  1
  Ba2+  Ba11  1  0.24802440  0.25081842  0.51858933  1
  Ba2+  Ba12  1  0.25073858  0.50247197  0.01913591  1
  Ba2+  Ba13  1  0.24814579  0.49787058  0.51706371  1
  Ba2+  Ba14  1  0.24923963  0.75048455  -0.00078057  1
  Ba2+  Ba15  1  0.25357278  0.74572976  0.51116371  1
  Ba2+  Ba16  1  0.50318054  -0.00383753  0.00115779  1
  Ba2+  Ba17  1  0.50193464  0.00047821  0.50633217  1
  Ba2+  Ba18  1  0.49806330  0.25152159  0.01879629  1
  Ba2+  Ba19  1  0.50146935  0.24798129  0.49458124  1
  Ba2+  Ba20  1  0.49935721  0.50110546  0.01980992  1
  Ba2+  Ba21  1  0.50128383  0.50050911  0.49652331  1
  Ba2+  Ba22  1  0.50206056  0.75116479  0.00002940  1
  Ba2+  Ba23  1  0.50156709  0.75133133  0.50704886  1
  Ba2+  Ba24  1  0.74558536  -0.01093225  0.00298360  1
  Ba2+  Ba25  1  0.75139972  -0.00038918  0.52110217  1
  Ba2+  Ba26  1  0.73984773  0.25003707  0.00668432  1
  Ba2+  Ba27  1  0.75040689  0.24949073  0.50559036  1
  Ba2+  Ba28  1  0.74475330  0.50671281  0.02383472  1
  Ba2+  Ba29  1  0.75321694  0.50265503  0.50098342  1
  Ba2+  Ba30  1  0.74904465  0.75280831  0.01823150  1
  Ba2+  Ba31  1  0.75293325  0.74867265  0.51204358  1
  Y3+  Y32  1  0.00049714  -0.00386454  0.25109889  1
  Y3+  Y33  1  -0.00110055  -0.00321376  0.76222852  1
  Y3+  Y34  1  0.00097447  0.25038608  0.25126311  1
  Y3+  Y35  1  -0.00044304  0.25008570  0.75975549  1
  Y3+  Y36  1  -0.00046783  0.50383203  0.25697986  1
  Y3+  Y37  1  -0.00085800  0.50186565  0.75339277  1
  Y3+  Y38  1  -0.00159125  0.75021988  0.25515528  1
  Y3+  Y39  1  -0.00180363  0.75041724  0.75792440  1
  Y3+  Y40  1  0.25040982  0.00032378  0.25552315  1
  Y3+  Y41  1  0.24988025  -0.00278775  0.75854375  1
  Y3+  Y42  1  0.25207889  0.24944370  0.25653368  1
  Y3+  Y43  1  0.25005006  0.25093715  0.75598207  1
  Y3+  Y44  1  0.24985277  0.50057618  0.25836448  1
  Y3+  Y45  1  0.25013259  0.50042055  0.75436009  1
  Y3+  Y46  1  0.24835772  0.75054468  0.25794080  1
  Y3+  Y47  1  0.25064765  0.75088387  0.75677459  1
  Y3+  Y48  1  0.50024336  0.00108014  0.25709876  1
  Y3+  Y49  1  0.50159669  -0.00349399  0.75976406  1
  Y3+  Y50  1  0.50026492  0.24955625  0.25817249  1
  Y3+  Y51  1  0.50012090  0.24998878  0.75902706  1
  Y3+  Y52  1  0.50196182  0.50076441  0.26013217  1
  Y3+  Y53  1  0.49837677  0.50009026  0.75622439  1
  Y3+  Y54  1  0.50280373  0.74935047  0.25933786  1
  Y3+  Y55  1  0.49955699  0.75289695  0.75750378  1
  Y3+  Y56  1  0.74970700  -0.00281790  0.25314243  1
  Y3+  Y57  1  0.74914902  -0.00355462  0.76233896  1
  Y3+  Y58  1  0.74719893  0.25020135  0.25688957  1
  Y3+  Y59  1  0.74962894  0.24928479  0.75877866  1
  Y3+  Y60  1  0.74896601  0.50365084  0.26061031  1
  Y3+  Y61  1  0.75152446  0.50154522  0.75331464  1
  Y3+  Y62  1  0.75111032  0.74908565  0.25716632  1
  Y3+  Y63  1  0.75087971  0.75234908  0.75778990  1
  Fe3+  Fe64  1  0.12440381  0.62490457  0.37800662  1
  Fe3+  Fe65  1  0.37330724  0.37469397  0.37659603  1
  Fe3+  Fe66  1  0.62721128  0.87605814  0.37720055  1
  Fe3+  Fe67  1  0.37413218  0.87558425  0.37876185  1
  Fe3+  Fe68  1  0.87439036  0.62461374  0.87768036  1
  Fe3+  Fe69  1  0.37460569  0.37667510  0.87660760  1
  Fe3+  Fe70  1  0.87707851  0.37391389  0.37375369  1
  Fe3+  Fe71  1  0.12313213  0.37368475  0.37493119  1
  Fe3+  Fe72  1  0.12287393  0.12536222  0.37458635  1
  Fe3+  Fe73  1  0.12579402  0.37698175  0.87615314  1
  Fe3+  Fe74  1  0.12658185  0.12490897  0.87972628  1
  Fe3+  Fe75  1  0.87440066  0.37762634  0.88061000  1
  Fe3+  Fe76  1  0.87431384  0.12501211  0.88110045  1
  Fe3+  Fe77  1  0.37505314  0.12564895  0.87872306  1
  Fe3+  Fe78  1  0.12368129  0.87625953  0.38107768  1
  Fe3+  Fe79  1  0.62490754  0.62389480  0.87600192  1
  Fe3+  Fe80  1  0.62431548  0.37703074  0.87779034  1
  Fe3+  Fe81  1  0.12493618  0.62448872  0.87403143  1
  Fe3+  Fe82  1  0.87649423  0.12419235  0.37253954  1
  Fe3+  Fe83  1  0.87618292  0.87616089  0.37612926  1
  Fe3+  Fe84  1  0.62443701  0.37483351  0.63610287  1
  Fe3+  Fe85  1  0.37638344  0.62486904  0.63778372  1
  Fe3+  Fe86  1  0.62433622  0.12356353  0.13758738  1
  Fe3+  Fe87  1  0.37649058  0.87401311  0.13898728  1
  Fe3+  Fe88  1  0.12487093  0.87480259  0.63482790  1
  Fe3+  Fe89  1  0.37660592  0.12488760  0.63924952  1
  Fe3+  Fe90  1  0.62489641  0.62552586  0.63632637  1
  Fe3+  Fe91  1  0.62491082  0.12485081  0.64076303  1
  Fe3+  Fe92  1  0.12623444  0.12377453  0.13152925  1
  Fe3+  Fe93  1  0.87439452  0.12421413  0.13051112  1
  Fe3+  Fe94  1  0.87396432  0.37560006  0.13323380  1
  Fe3+  Fe95  1  0.37551813  0.62709728  0.14045227  1
  Cu2+  Cu96  1  0.62424008  0.12533151  0.86605076  1
  Cu2+  Cu97  1  0.87642929  0.62588548  0.37161920  1
  Cu2+  Cu98  1  0.12477446  0.87316629  0.87148172  1
  Cu2+  Cu99  1  0.87474610  0.87194348  0.87303043  1
  Cu2+  Cu100  1  0.37483250  0.62410691  0.86172669  1
  Cu2+  Cu101  1  0.37430988  0.12461791  0.36197427  1
  Cu2+  Cu102  1  0.37489517  0.87415435  0.86202433  1
  Cu2+  Cu103  1  0.62520159  0.87250338  0.87189843  1
  Cu2+  Cu104  1  0.62681362  0.12336913  0.36108608  1
  Cu2+  Cu105  1  0.62564470  0.62679622  0.36587633  1
  Cu2+  Cu106  1  0.62604828  0.37497389  0.36215579  1
  Cu2+  Cu107  1  0.37414749  0.62553555  0.36415516  1
  Cu2+  Cu108  1  0.87314586  0.37433789  0.65479511  1
  Cu2+  Cu109  1  0.37664369  0.37411245  0.64862031  1
  Cu2+  Cu110  1  0.87402906  0.87463342  0.14126022  1
  Cu2+  Cu111  1  0.87349504  0.62531569  0.64185585  1
  Cu2+  Cu112  1  0.37554300  0.12424535  0.14953205  1
  Cu2+  Cu113  1  0.12619502  0.62619141  0.15407712  1
  Cu2+  Cu114  1  0.87382621  0.12453722  0.66048858  1
  Cu2+  Cu115  1  0.87491534  0.87508893  0.65420547  1
  Cu2+  Cu116  1  0.12711212  0.87382909  0.14159266  1
  Cu2+  Cu117  1  0.12502737  0.62586034  0.64945331  1
  Cu2+  Cu118  1  0.62487305  0.87504566  0.65233196  1
  Cu2+  Cu119  1  0.12509492  0.37562286  0.14996303  1
  Cu2+  Cu120  1  0.37512423  0.87579204  0.65021815  1
  Cu2+  Cu121  1  0.62405420  0.62593668  0.15565159  1
  Cu2+  Cu122  1  0.87457348  0.62497453  0.15166062  1
  Cu2+  Cu123  1  0.12444871  0.37490060  0.65407629  1
  Cu2+  Cu124  1  0.62327923  0.87443253  0.14373448  1
  Cu2+  Cu125  1  0.62516516  0.37535483  0.15539303  1
  Cu2+  Cu126  1  0.37578715  0.37631983  0.15613097  1
  Cu2+  Cu127  1  0.12476906  0.12398686  0.65723635  1
  O2-  O128  1  0.12837979  0.12437946  0.00505293  1
  O2-  O129  1  0.12062577  0.12675987  0.49376133  1
  O2-  O130  1  0.12759297  0.37834998  -0.00465421  1
  O2-  O131  1  0.12157018  0.37128184  0.49393832  1
  O2-  O132  1  0.12617053  0.62453270  -0.00629413  1
  O2-  O133  1  0.12379093  0.62329459  0.49765701  1
  O2-  O134  1  0.12696041  0.87264413  0.00648555  1
  O2-  O135  1  0.12325223  0.87828048  0.50629014  1
  O2-  O136  1  0.37397852  0.12726016  -0.00182878  1
  O2-  O137  1  0.37645244  0.12583339  0.51934211  1
  O2-  O138  1  0.37448822  0.37804308  -0.00402934  1
  O2-  O139  1  0.37286585  0.37306948  0.49615098  1
  O2-  O140  1  0.37545152  0.62660631  0.02076871  1
  O2-  O141  1  0.37632153  0.62432495  0.51817649  1
  O2-  O142  1  0.37621162  0.87213676  0.01914895  1
  O2-  O143  1  0.37317292  0.87785103  0.49851048  1
  O2-  O144  1  0.62244484  0.12584102  0.01779918  1
  O2-  O145  1  0.62628740  0.12523601  0.52113849  1
  O2-  O146  1  0.62354377  0.37823898  -0.00296539  1
  O2-  O147  1  0.62548560  0.37250719  0.51668933  1
  O2-  O148  1  0.62418440  0.62347349  -0.00439445  1
  O2-  O149  1  0.62453090  0.62491312  0.51668830  1
  O2-  O150  1  0.62293272  0.87283546  0.00670336  1
  O2-  O151  1  0.62820581  0.87767974  0.49687907  1
  O2-  O152  1  0.87347970  0.12467437  0.00577375  1
  O2-  O153  1  0.87746101  0.12599663  0.49211061  1
  O2-  O154  1  0.87354878  0.37855182  0.00541165  1
  O2-  O155  1  0.87793524  0.37096037  0.49302319  1
  O2-  O156  1  0.87484331  0.62315575  -0.00294015  1
  O2-  O157  1  0.87532967  0.62399718  0.50672751  1
  O2-  O158  1  0.87465456  0.87234272  0.00659080  1
  O2-  O159  1  0.87644802  0.87901494  0.49542692  1
  O2-  O160  1  0.12579496  0.00297354  0.16278180  1
  O2-  O161  1  0.12416403  -0.00189324  0.66622404  1
  O2-  O162  1  0.12454672  0.24824566  0.15732114  1
  O2-  O163  1  0.12405745  0.24949020  0.66837207  1
  O2-  O164  1  0.12500715  0.50046184  0.16387719  1
  O2-  O165  1  0.12451324  0.49963057  0.66040826  1
  O2-  O166  1  0.12526441  0.74910905  0.17028175  1
  O2-  O167  1  0.12504285  0.75230685  0.65972739  1
  O2-  O168  1  0.37468881  -0.00077810  0.16603928  1
  O2-  O169  1  0.37434474  0.00066411  0.66889046  1
  O2-  O170  1  0.37561922  0.25114080  0.16261245  1
  O2-  O171  1  0.37456307  0.24908128  0.66832256  1
  O2-  O172  1  0.37513016  0.50113335  0.16719310  1
  O2-  O173  1  0.37500329  0.49959449  0.66408943  1
  O2-  O174  1  0.37550822  0.75007581  0.17375392  1
  O2-  O175  1  0.37462173  0.75032644  0.66484441  1
  O2-  O176  1  0.62482795  0.00133840  0.16578775  1
  O2-  O177  1  0.62549311  -0.00035651  0.66889815  1
  O2-  O178  1  0.62460263  0.24947553  0.16563269  1
  O2-  O179  1  0.62582947  0.24955514  0.67124839  1
  O2-  O180  1  0.62534512  0.50004106  0.16692960  1
  O2-  O181  1  0.62497415  0.49998022  0.66482475  1
  O2-  O182  1  0.62484251  0.74917909  0.16796649  1
  O2-  O183  1  0.62439937  0.75077823  0.66314353  1
  O2-  O184  1  0.87553050  0.00330032  0.16066678  1
  O2-  O185  1  0.87551753  -0.00015156  0.66822649  1
  O2-  O186  1  0.87585106  0.24999056  0.15590583  1
  O2-  O187  1  0.87481005  0.24957121  0.67056633  1
  O2-  O188  1  0.87492921  0.49886559  0.16335557  1
  O2-  O189  1  0.87433838  0.49837958  0.66273548  1
  O2-  O190  1  0.87477657  0.74800586  0.16626950  1
  O2-  O191  1  0.87493489  0.75161320  0.66317447  1
  O2-  O192  1  0.00034227  0.12546387  0.15327612  1
  O2-  O193  1  -0.00091829  0.12500934  0.66981574  1
  O2-  O194  1  -0.00185102  0.37464090  0.15583334  1
  O2-  O195  1  -0.00132300  0.37382201  0.66751128  1
  O2-  O196  1  0.00109498  0.62550215  0.16099099  1
  O2-  O197  1  0.00073174  0.62489096  0.66370538  1
  O2-  O198  1  0.00019589  0.87450197  0.16166170  1
  O2-  O199  1  0.00118884  0.87580218  0.66452423  1
  O2-  O200  1  0.24886391  0.12580912  0.16306277  1
  O2-  O201  1  0.25027935  0.12486086  0.66458512  1
  O2-  O202  1  0.24999736  0.37503417  0.16425327  1
  O2-  O203  1  0.24984358  0.37392418  0.66068545  1
  O2-  O204  1  0.25055098  0.62478358  0.16788649  1
  O2-  O205  1  0.25055689  0.62499451  0.66438103  1
  O2-  O206  1  0.25255737  0.87504580  0.16909811  1
  O2-  O207  1  0.24781001  0.87595085  0.66306903  1
  O2-  O208  1  0.50034412  0.12573631  0.16942354  1
  O2-  O209  1  0.50066932  0.12428558  0.67073919  1
  O2-  O210  1  0.50055340  0.37546616  0.16733775  1
  O2-  O211  1  0.50143896  0.37397655  0.66806906  1
  O2-  O212  1  0.49991841  0.62432735  0.17000105  1
  O2-  O213  1  0.50044231  0.62552001  0.66950023  1
  O2-  O214  1  0.49861099  0.87528497  0.17111473  1
  O2-  O215  1  0.49994828  0.87579579  0.66590158  1
  O2-  O216  1  0.75121967  0.12628028  0.16331989  1
  O2-  O217  1  0.74941462  0.12417716  0.67005442  1
  O2-  O218  1  0.75194745  0.37437623  0.16250183  1
  O2-  O219  1  0.74863740  0.37380961  0.66866156  1
  O2-  O220  1  0.74871547  0.62476639  0.16490833  1
  O2-  O221  1  0.74774305  0.62546515  0.66618091  1
  O2-  O222  1  0.74927705  0.87495354  0.16276549  1
  O2-  O223  1  0.75079370  0.87598775  0.66651008  1
  O2-  O224  1  0.12456061  -0.00108106  0.34499038  1
  O2-  O225  1  0.12486658  0.00295481  0.85043480  1
  O2-  O226  1  0.12446481  0.24987806  0.33796039  1
  O2-  O227  1  0.12455972  0.24952426  0.85081164  1
  O2-  O228  1  0.12451223  0.49911727  0.34539587  1
  O2-  O229  1  0.12465548  0.49978224  0.84086419  1
  O2-  O230  1  0.12565237  0.75240140  0.35263583  1
  O2-  O231  1  0.12579318  0.74697137  0.84196703  1
  O2-  O232  1  0.37426412  -0.00015860  0.34728830  1
  O2-  O233  1  0.37405475  0.00010202  0.85107099  1
  O2-  O234  1  0.37516747  0.24988834  0.34568440  1
  O2-  O235  1  0.37469991  0.25089404  0.84721748  1
  O2-  O236  1  0.37504730  0.49970315  0.34865046  1
  O2-  O237  1  0.37404465  0.49912791  0.84419664  1
  O2-  O238  1  0.37349685  0.75099280  0.35303781  1
  O2-  O239  1  0.37437268  0.74956843  0.84858151  1
  O2-  O240  1  0.62553466  -0.00077095  0.34532552  1
  O2-  O241  1  0.62501263  0.00061040  0.85181867  1
  O2-  O242  1  0.62606513  0.24823388  0.34897863  1
  O2-  O243  1  0.62499558  0.25184804  0.85039952  1
  O2-  O244  1  0.62553233  0.50148029  0.35143802  1
  O2-  O245  1  0.62490061  0.49953557  0.84152760  1
  O2-  O246  1  0.62569333  0.75161498  0.34972701  1
  O2-  O247  1  0.62419135  0.74676790  0.84441868  1
  O2-  O248  1  0.87628751  -0.00020218  0.33973418  1
  O2-  O249  1  0.87522301  0.00277314  0.85217386  1
  O2-  O250  1  0.87525611  0.24947058  0.33703241  1
  O2-  O251  1  0.87537906  0.25092702  0.85456269  1
  O2-  O252  1  0.87538290  0.49831914  0.34630335  1
  O2-  O253  1  0.87523432  0.49864278  0.84385744  1
  O2-  O254  1  0.87603282  0.75271419  0.34827112  1
  O2-  O255  1  0.87475090  0.74650728  0.84434986  1
  O2-  O256  1  0.00024288  0.12470075  0.33362740  1
  O2-  O257  1  0.00025604  0.12620688  0.85415679  1
  O2-  O258  1  0.00046601  0.37436418  0.33599739  1
  O2-  O259  1  -0.00115939  0.37430025  0.85064807  1
  O2-  O260  1  0.00268963  0.62580322  0.34287168  1
  O2-  O261  1  -0.00050531  0.62394208  0.84431280  1
  O2-  O262  1  0.00181693  0.87568744  0.34336796  1
  O2-  O263  1  -0.00039945  0.87423757  0.84789700  1
  O2-  O264  1  0.24774562  0.12472707  0.34565616  1
  O2-  O265  1  0.24929900  0.12514506  0.84582238  1
  O2-  O266  1  0.24886881  0.37419926  0.34513009  1
  O2-  O267  1  0.24966464  0.37479683  0.84212440  1
  O2-  O268  1  0.24841893  0.62503540  0.34827718  1
  O2-  O269  1  0.25033603  0.62450712  0.84603256  1
  O2-  O270  1  0.24773004  0.87663088  0.34974945  1
  O2-  O271  1  0.25095730  0.87448274  0.84691225  1
  O2-  O272  1  0.50104423  0.12474724  0.35295333  1
  O2-  O273  1  0.49912830  0.12477218  0.84968713  1
  O2-  O274  1  0.49997598  0.37449659  0.35090523  1
  O2-  O275  1  0.49946432  0.37555612  0.84643479  1
  O2-  O276  1  0.49957687  0.62570220  0.35257461  1
  O2-  O277  1  0.49928273  0.62420054  0.84894590  1
  O2-  O278  1  0.50018912  0.87537029  0.35111425  1
  O2-  O279  1  0.49872902  0.87431284  0.84990998  1
  O2-  O280  1  0.75171620  0.12510999  0.34426951  1
  O2-  O281  1  0.75090385  0.12649227  0.85316829  1
  O2-  O282  1  0.75094330  0.37443798  0.34601251  1
  O2-  O283  1  0.75124997  0.37457049  0.84989437  1
  O2-  O284  1  0.74988037  0.62530864  0.34892459  1
  O2-  O285  1  0.75005786  0.62320881  0.84501899  1
  O2-  O286  1  0.75125912  0.87570955  0.34340779  1
  O2-  O287  1  0.74997636  0.87412897  0.84969910  1
