# generated using pymatgen
data_BaYFeCuO5
_symmetry_space_group_name_H-M   'P 1'
_cell_length_a   15.67527442
_cell_length_b   15.67376011
_cell_length_c   15.48623479
_cell_angle_alpha   90.00316264
_cell_angle_beta   90.00521273
_cell_angle_gamma   89.99747207
_symmetry_Int_Tables_number   1
_chemical_formula_structural   BaYFeCuO5
_chemical_formula_sum   'Ba32 Y32 Fe32 Cu32 O160'
_cell_volume   3804.82060199
_cell_formula_units_Z   32
loop_
 _symmetry_equiv_pos_site_id
 _symmetry_equiv_pos_as_xyz
  1  'x, y, z'
loop_
 _atom_type_symbol
 _atom_type_oxidation_number
  Ba2+  2.0
  Y3+  3.0
  Fe3+  3.0
  Cu2+  2.0
  O2-  -2.0
loop_
 _atom_site_type_symbol
 _atom_site_label
 _atom_site_symmetry_multiplicity
 _atom_site_fract_x
 _atom_site_fract_y
 _atom_site_fract_z
 _atom_site_occupancy
  Ba2+  Ba0  1  -0.00547210  0.00618546  0.00707652  1
  Ba2+  Ba1  1  0.00021691  -0.00146366  0.52037630  1
  Ba2+  Ba2  1  0.00222356  0.25247613  0.00712675  1
  Ba2+  Ba3  1  0.00069018  0.25075420  0.51961038  1
  Ba2+  Ba4  1  0.01069781  0.50170455  0.00984994  1
  Ba2+  Ba5  1  -0.00150190  0.50186136  0.52195423  1
  Ba2+  Ba6  1  0.00327820  0.73935467  0.01134512  1
  Ba2+  Ba7  1  -0.00121222  0.74849504  0.52230674  1
  Ba2+  Ba8  1  0.26056320  0.00246322  0.00295398  1
  Ba2+  Ba9  1  0.25161884  0.00119015  0.49991080  1
  Ba2+  Ba10  1  0.25580899  0.25828942  0.00707888  1
  Ba2+  Ba11  1  0.24697517  0.24269778  0.50477017  1
  Ba2+  Ba12  1  0.25117014  0.49951530  0.00649601  1
  Ba2+  Ba13  1  0.24289428  0.50392894  0.52336423  1
  Ba2+  Ba14  1  0.25426581  0.74048093  0.00358922  1
  Ba2+  Ba15  1  0.24747933  0.75105956  0.51889310  1
  Ba2+  Ba16  1  0.49442397  -0.00134021  0.00742703  1
  Ba2+  Ba17  1  0.49683110  0.00022961  0.50033716  1
  Ba2+  Ba18  1  0.49150592  0.25426345  0.01271055  1
  Ba2+  Ba19  1  0.49768183  0.23861309  0.51211344  1
  Ba2+  Ba20  1  0.49008022  0.49664866  0.01143248  1
  Ba2+  Ba21  1  0.49959718  0.50944553  0.51710481  1
  Ba2+  Ba22  1  0.49216150  0.75040658  0.00621203  1
  Ba2+  Ba23  1  0.49917958  0.75297689  0.50473423  1
  Ba2+  Ba24  1  0.75005912  0.00223913  0.01130813  1
  Ba2+  Ba25  1  0.75155606  -0.00079472  0.51848002  1
  Ba2+  Ba26  1  0.75125669  0.24789520  0.01075230  1
  Ba2+  Ba27  1  0.75651047  0.24530667  0.52242061  1
  Ba2+  Ba28  1  0.74830272  0.49953857  0.01684663  1
  Ba2+  Ba29  1  0.75805921  0.50625386  0.51387724  1
  Ba2+  Ba30  1  0.74801182  0.74994365  0.01654490  1
  Ba2+  Ba31  1  0.75419137  0.74843421  0.51060257  1
  Y3+  Y32  1  0.00031176  0.00196836  0.25405682  1
  Y3+  Y33  1  -0.00106223  0.00029710  0.76120363  1
  Y3+  Y34  1  0.00168034  0.25056352  0.25287745  1
  Y3+  Y35  1  0.00033950  0.25158684  0.76143470  1
  Y3+  Y36  1  0.00137226  0.50176848  0.25299939  1
  Y3+  Y37  1  0.00289357  0.49998268  0.75898598  1
  Y3+  Y38  1  -0.00050394  0.74559475  0.25488385  1
  Y3+  Y39  1  0.00149027  0.74814117  0.75817916  1
  Y3+  Y40  1  0.25239269  0.00251145  0.25904971  1
  Y3+  Y41  1  0.25328821  0.00102996  0.75916230  1
  Y3+  Y42  1  0.25143029  0.25007422  0.25524292  1
  Y3+  Y43  1  0.25185726  0.25138174  0.76036675  1
  Y3+  Y44  1  0.24902927  0.49949986  0.25072804  1
  Y3+  Y45  1  0.24918958  0.50019765  0.76326878  1
  Y3+  Y46  1  0.25011892  0.74801665  0.25483800  1
  Y3+  Y47  1  0.25058240  0.74694700  0.76128695  1
  Y3+  Y48  1  0.49823957  -0.00024459  0.25862877  1
  Y3+  Y49  1  0.49757649  0.00253278  0.75775786  1
  Y3+  Y50  1  0.49678764  0.24959064  0.25674734  1
  Y3+  Y51  1  0.49710348  0.24796621  0.75732262  1
  Y3+  Y52  1  0.49808123  0.49874312  0.25501233  1
  Y3+  Y53  1  0.49743386  0.50147968  0.75806052  1
  Y3+  Y54  1  0.49963173  0.75181575  0.25714699  1
  Y3+  Y55  1  0.49756947  0.74797262  0.75778764  1
  Y3+  Y56  1  0.74888635  -0.00105836  0.25426539  1
  Y3+  Y57  1  0.75099951  0.00168659  0.75931948  1
  Y3+  Y58  1  0.75005527  0.25040919  0.25328886  1
  Y3+  Y59  1  0.75151266  0.24816680  0.75861003  1
  Y3+  Y60  1  0.75130065  0.50116582  0.25774302  1
  Y3+  Y61  1  0.75089080  0.50130881  0.75327054  1
  Y3+  Y62  1  0.74999141  0.74943224  0.25811745  1
  Y3+  Y63  1  0.75076106  0.74882328  0.75448817  1
  Fe3+  Fe64  1  0.12641342  0.12565624  0.88057141  1
  Fe3+  Fe65  1  0.62385423  0.12574777  0.87937056  1
  Fe3+  Fe66  1  0.62428111  0.87435007  0.87864020  1
  Fe3+  Fe67  1  0.12366560  0.87440711  0.37528965  1
  Fe3+  Fe68  1  0.12415826  0.37548718  0.37661011  1
  Fe3+  Fe69  1  0.87447975  0.87354314  0.87957967  1
  Fe3+  Fe70  1  0.87420520  0.37644578  0.87853678  1
  Fe3+  Fe71  1  0.37401475  0.37608212  0.38124233  1
  Fe3+  Fe72  1  0.37273625  0.62448727  0.37689589  1
  Fe3+  Fe73  1  0.62544111  0.37454876  0.38043460  1
  Fe3+  Fe74  1  0.87609069  0.12521213  0.37403321  1
  Fe3+  Fe75  1  0.87627415  0.87513948  0.37427749  1
  Fe3+  Fe76  1  0.12608195  0.87471336  0.88119782  1
  Fe3+  Fe77  1  0.12433082  0.62440279  0.37578975  1
  Fe3+  Fe78  1  0.87404712  0.62426904  0.87776157  1
  Fe3+  Fe79  1  0.62722891  0.12509836  0.37565614  1
  Fe3+  Fe80  1  0.62450352  0.37550164  0.87637952  1
  Fe3+  Fe81  1  0.87609478  0.37481612  0.37557058  1
  Fe3+  Fe82  1  0.62468413  0.62438401  0.87891836  1
  Fe3+  Fe83  1  0.62516974  0.62492209  0.37622125  1
  Fe3+  Fe84  1  0.87544873  0.87427001  0.13369685  1
  Fe3+  Fe85  1  0.12699072  0.12508032  0.13417615  1
  Fe3+  Fe86  1  0.12611961  0.87499807  0.13257982  1
  Fe3+  Fe87  1  0.12632338  0.12436923  0.64207355  1
  Fe3+  Fe88  1  0.62487723  0.37452915  0.63366350  1
  Fe3+  Fe89  1  0.62292174  0.12518557  0.13460984  1
  Fe3+  Fe90  1  0.87553456  0.37595468  0.13376012  1
  Fe3+  Fe91  1  0.37416846  0.87550225  0.63996935  1
  Fe3+  Fe92  1  0.62282863  0.62496678  0.13510123  1
  Fe3+  Fe93  1  0.62411857  0.87546401  0.63865941  1
  Fe3+  Fe94  1  0.37389267  0.37463325  0.63474705  1
  Fe3+  Fe95  1  0.37428499  0.87487264  0.13966960  1
  Cu2+  Cu96  1  0.37599145  0.12624623  0.87406975  1
  Cu2+  Cu97  1  0.87653744  0.62463275  0.37099378  1
  Cu2+  Cu98  1  0.37489621  0.12602795  0.37221137  1
  Cu2+  Cu99  1  0.87444917  0.12576714  0.87481712  1
  Cu2+  Cu100  1  0.37376762  0.87385119  0.36280295  1
  Cu2+  Cu101  1  0.12502333  0.62478400  0.87190033  1
  Cu2+  Cu102  1  0.62581894  0.87542378  0.36358335  1
  Cu2+  Cu103  1  0.37632770  0.37534247  0.86824441  1
  Cu2+  Cu104  1  0.37533054  0.87466130  0.86341640  1
  Cu2+  Cu105  1  0.37593617  0.62384443  0.87210019  1
  Cu2+  Cu106  1  0.12559154  0.37496634  0.87345197  1
  Cu2+  Cu107  1  0.12354282  0.12550962  0.35980797  1
  Cu2+  Cu108  1  0.62474660  0.12439384  0.65274171  1
  Cu2+  Cu109  1  0.37374660  0.12433258  0.64299349  1
  Cu2+  Cu110  1  0.37458641  0.37512953  0.14602764  1
  Cu2+  Cu111  1  0.87505187  0.12562383  0.13899970  1
  Cu2+  Cu112  1  0.62458195  0.62587016  0.65072993  1
  Cu2+  Cu113  1  0.12530888  0.62521118  0.65671077  1
  Cu2+  Cu114  1  0.87648132  0.12490210  0.65818078  1
  Cu2+  Cu115  1  0.87569584  0.62547114  0.64415030  1
  Cu2+  Cu116  1  0.12565736  0.87569222  0.65771436  1
  Cu2+  Cu117  1  0.12571779  0.37417840  0.65403830  1
  Cu2+  Cu118  1  0.37482003  0.12480696  0.14299318  1
  Cu2+  Cu119  1  0.62395476  0.87502822  0.14711458  1
  Cu2+  Cu120  1  0.87547906  0.37489743  0.65419797  1
  Cu2+  Cu121  1  0.87552253  0.87531594  0.65610622  1
  Cu2+  Cu122  1  0.37426849  0.62509952  0.65267302  1
  Cu2+  Cu123  1  0.12675089  0.62513592  0.14042273  1
  Cu2+  Cu124  1  0.62430582  0.37495779  0.14873823  1
  Cu2+  Cu125  1  0.87421752  0.62458500  0.14666669  1
  Cu2+  Cu126  1  0.37537715  0.62515919  0.14255817  1
  Cu2+  Cu127  1  0.12610977  0.37462135  0.13987597  1
  O2-  O128  1  0.12706976  0.12526282  0.00751855  1
  O2-  O129  1  0.12371274  0.12308423  0.52137875  1
  O2-  O130  1  0.12557571  0.37428738  0.00636911  1
  O2-  O131  1  0.12220969  0.37580118  0.49669697  1
  O2-  O132  1  0.12643242  0.62549201  0.00594907  1
  O2-  O133  1  0.12372867  0.62566038  0.49617846  1
  O2-  O134  1  0.12642386  0.87480075  0.00696003  1
  O2-  O135  1  0.12150649  0.87418278  0.49530107  1
  O2-  O136  1  0.37670254  0.12527239  0.00772715  1
  O2-  O137  1  0.37355855  0.12411888  0.50728626  1
  O2-  O138  1  0.37579576  0.37589335  0.00673060  1
  O2-  O139  1  0.37326117  0.37571876  0.50710438  1
  O2-  O140  1  0.37694395  0.62434227  0.00669258  1
  O2-  O141  1  0.37234224  0.62501963  0.49722403  1
  O2-  O142  1  0.37509187  0.87491176  0.01871176  1
  O2-  O143  1  0.37394779  0.87524726  0.51950449  1
  O2-  O144  1  0.62293798  0.12589239  0.00605440  1
  O2-  O145  1  0.62967203  0.12472412  0.49592100  1
  O2-  O146  1  0.62491295  0.37556689  -0.00385916  1
  O2-  O147  1  0.62697523  0.37393314  0.50588994  1
  O2-  O148  1  0.62410509  0.62444058  0.00614215  1
  O2-  O149  1  0.62573238  0.62565887  0.49666350  1
  O2-  O150  1  0.62528771  0.87416171  -0.00145338  1
  O2-  O151  1  0.62490407  0.87620081  0.51834798  1
  O2-  O152  1  0.87347887  0.12543132  0.00636636  1
  O2-  O153  1  0.87670673  0.12435840  0.49425511  1
  O2-  O154  1  0.87322170  0.37692741  0.00518714  1
  O2-  O155  1  0.87657823  0.37320949  0.49584730  1
  O2-  O156  1  0.87127928  0.62427105  -0.00240381  1
  O2-  O157  1  0.87629585  0.62595768  0.50679894  1
  O2-  O158  1  0.87369590  0.87328748  0.00547351  1
  O2-  O159  1  0.87690130  0.87631665  0.49460560  1
  O2-  O160  1  0.12460632  -0.00019990  0.16143461  1
  O2-  O161  1  0.12443440  0.00051213  0.67369344  1
  O2-  O162  1  0.12555283  0.24729402  0.16311331  1
  O2-  O163  1  0.12407999  0.24960589  0.66907851  1
  O2-  O164  1  0.12539093  0.50007401  0.16221963  1
  O2-  O165  1  0.12506509  0.49926714  0.66491547  1
  O2-  O166  1  0.12474345  0.75303842  0.16163347  1
  O2-  O167  1  0.12450914  0.75062579  0.66690859  1
  O2-  O168  1  0.37521981  -0.00163297  0.16756525  1
  O2-  O169  1  0.37448875  -0.00137834  0.67020157  1
  O2-  O170  1  0.37523173  0.25009023  0.16635440  1
  O2-  O171  1  0.37579935  0.25268802  0.66375890  1
  O2-  O172  1  0.37607138  0.49985235  0.16540991  1
  O2-  O173  1  0.37526420  0.49881105  0.66257366  1
  O2-  O174  1  0.37546672  0.75176452  0.16646782  1
  O2-  O175  1  0.37453964  0.74982586  0.66758850  1
  O2-  O176  1  0.62482776  0.00161925  0.16088635  1
  O2-  O177  1  0.62627283  -0.00020457  0.67032166  1
  O2-  O178  1  0.62470593  0.24899170  0.16183010  1
  O2-  O179  1  0.62496724  0.25105443  0.66320511  1
  O2-  O180  1  0.62470860  0.50125849  0.16302125  1
  O2-  O181  1  0.62525197  0.49835837  0.66149564  1
  O2-  O182  1  0.62492918  0.74828796  0.16242071  1
  O2-  O183  1  0.62511163  0.75095840  0.66833574  1
  O2-  O184  1  0.87482422  -0.00313474  0.16031650  1
  O2-  O185  1  0.87552267  0.00008594  0.66898738  1
  O2-  O186  1  0.87434851  0.25313006  0.16064356  1
  O2-  O187  1  0.87556985  0.25006845  0.66697416  1
  O2-  O188  1  0.87362681  0.49873240  0.16242478  1
  O2-  O189  1  0.87469668  0.49887806  0.66485891  1
  O2-  O190  1  0.87449342  0.75147103  0.16138737  1
  O2-  O191  1  0.87579470  0.75123663  0.66740153  1
  O2-  O192  1  0.00288239  0.12482314  0.15883913  1
  O2-  O193  1  0.00077799  0.12468204  0.67122037  1
  O2-  O194  1  -0.00237170  0.37524942  0.15842472  1
  O2-  O195  1  0.00024948  0.37465023  0.66782203  1
  O2-  O196  1  -0.00123222  0.62505238  0.15940192  1
  O2-  O197  1  0.00174299  0.62489508  0.66803430  1
  O2-  O198  1  0.00044459  0.87538293  0.15551802  1
  O2-  O199  1  0.00030235  0.87587452  0.66887233  1
  O2-  O200  1  0.24815439  0.12420283  0.16620467  1
  O2-  O201  1  0.24879147  0.12556001  0.67088902  1
  O2-  O202  1  0.25037108  0.37426124  0.16643158  1
  O2-  O203  1  0.25178579  0.37485102  0.66433299  1
  O2-  O204  1  0.25108531  0.62544130  0.16380568  1
  O2-  O205  1  0.24923135  0.62547909  0.66683198  1
  O2-  O206  1  0.24846838  0.87573281  0.16636623  1
  O2-  O207  1  0.25029191  0.87441777  0.67036860  1
  O2-  O208  1  0.50196284  0.12529639  0.16608182  1
  O2-  O209  1  0.50038142  0.12467179  0.66498553  1
  O2-  O210  1  0.50073901  0.37461854  0.16939923  1
  O2-  O211  1  0.50009744  0.37552404  0.65820294  1
  O2-  O212  1  0.50224302  0.62492053  0.16532879  1
  O2-  O213  1  0.49976043  0.62474313  0.66448159  1
  O2-  O214  1  0.49944416  0.87531233  0.16832505  1
  O2-  O215  1  0.49967568  0.87494654  0.66929646  1
  O2-  O216  1  0.74674553  0.12549742  0.15964568  1
  O2-  O217  1  0.75158129  0.12521821  0.66604755  1
  O2-  O218  1  0.75127045  0.37551686  0.16179628  1
  O2-  O219  1  0.74833041  0.37432292  0.66263914  1
  O2-  O220  1  0.74741154  0.62472088  0.16179293  1
  O2-  O221  1  0.74903189  0.62547073  0.66483634  1
  O2-  O222  1  0.75098603  0.87460525  0.15974682  1
  O2-  O223  1  0.75006407  0.87551731  0.66647092  1
  O2-  O224  1  0.12436989  0.00020322  0.34508923  1
  O2-  O225  1  0.12449899  -0.00037022  0.85611914  1
  O2-  O226  1  0.12458998  0.25050678  0.34644443  1
  O2-  O227  1  0.12528750  0.24745136  0.85165494  1
  O2-  O228  1  0.12510190  0.49960531  0.34293839  1
  O2-  O229  1  0.12447386  0.49982568  0.84911282  1
  O2-  O230  1  0.12468135  0.74932471  0.34230259  1
  O2-  O231  1  0.12533325  0.75310950  0.85123434  1
  O2-  O232  1  0.37474079  -0.00138964  0.35024103  1
  O2-  O233  1  0.37640174  -0.00096411  0.85230839  1
  O2-  O234  1  0.37537240  0.25377590  0.34974472  1
  O2-  O235  1  0.37588141  0.25068856  0.84692964  1
  O2-  O236  1  0.37538233  0.49856281  0.34713874  1
  O2-  O237  1  0.37663459  0.49949515  0.84659081  1
  O2-  O238  1  0.37504288  0.74882941  0.34748785  1
  O2-  O239  1  0.37535088  0.75075858  0.85068788  1
  O2-  O240  1  0.62557670  0.00070630  0.34472967  1
  O2-  O241  1  0.62463293  0.00073675  0.85250288  1
  O2-  O242  1  0.62547073  0.25183269  0.34507550  1
  O2-  O243  1  0.62584579  0.24926526  0.84753704  1
  O2-  O244  1  0.62491528  0.49803711  0.34692368  1
  O2-  O245  1  0.62552941  0.50137056  0.84591158  1
  O2-  O246  1  0.62478519  0.74968503  0.34635452  1
  O2-  O247  1  0.62542820  0.74860335  0.85047495  1
  O2-  O248  1  0.87527255  0.00051078  0.34060889  1
  O2-  O249  1  0.87475595  -0.00372437  0.85313325  1
  O2-  O250  1  0.87469329  0.25023091  0.34109529  1
  O2-  O251  1  0.87344536  0.25353225  0.85099483  1
  O2-  O252  1  0.87427595  0.49774147  0.34488379  1
  O2-  O253  1  0.87372102  0.49961744  0.84702218  1
  O2-  O254  1  0.87505075  0.75138615  0.34403359  1
  O2-  O255  1  0.87407480  0.75059175  0.84950981  1
  O2-  O256  1  -0.00107796  0.12559333  0.34038421  1
  O2-  O257  1  0.00290507  0.12491916  0.85393240  1
  O2-  O258  1  0.00024550  0.37469606  0.33978122  1
  O2-  O259  1  -0.00320294  0.37518093  0.85223690  1
  O2-  O260  1  0.00218025  0.62426031  0.34144847  1
  O2-  O261  1  -0.00246752  0.62548005  0.85020069  1
  O2-  O262  1  0.00009913  0.87525014  0.33696619  1
  O2-  O263  1  -0.00008218  0.87478808  0.85386854  1
  O2-  O264  1  0.24820220  0.12534212  0.35049637  1
  O2-  O265  1  0.24825514  0.12436451  0.85234161  1
  O2-  O266  1  0.25062087  0.37426055  0.34903386  1
  O2-  O267  1  0.25082119  0.37494675  0.84868556  1
  O2-  O268  1  0.24943137  0.62450626  0.34377511  1
  O2-  O269  1  0.25038519  0.62439594  0.85090227  1
  O2-  O270  1  0.24868691  0.87543390  0.34781288  1
  O2-  O271  1  0.24947938  0.87608599  0.85369421  1
  O2-  O272  1  0.50246703  0.12539374  0.34922687  1
  O2-  O273  1  0.50285993  0.12580073  0.84834484  1
  O2-  O274  1  0.50019690  0.37509377  0.35373411  1
  O2-  O275  1  0.50288735  0.37493606  0.84145414  1
  O2-  O276  1  0.49940146  0.62459821  0.34715484  1
  O2-  O277  1  0.50327221  0.62480392  0.84845636  1
  O2-  O278  1  0.49911182  0.87490601  0.35233384  1
  O2-  O279  1  0.50039624  0.87422316  0.84967811  1
  O2-  O280  1  0.75086583  0.12543308  0.34008095  1
  O2-  O281  1  0.74646806  0.12479208  0.85025853  1
  O2-  O282  1  0.74873103  0.37496376  0.34548860  1
  O2-  O283  1  0.75031967  0.37582554  0.84601041  1
  O2-  O284  1  0.74823251  0.62472708  0.34517722  1
  O2-  O285  1  0.74878170  0.62478845  0.84691337  1
  O2-  O286  1  0.75161074  0.87512894  0.34306323  1
  O2-  O287  1  0.75029870  0.87470702  0.84875493  1
