# generated using pymatgen
data_BaYFeCuO5
_symmetry_space_group_name_H-M   'P 1'
_cell_length_a   15.67332242
_cell_length_b   15.67302298
_cell_length_c   15.49055681
_cell_angle_alpha   89.99830363
_cell_angle_beta   90.00248417
_cell_angle_gamma   89.99943509
_symmetry_Int_Tables_number   1
_chemical_formula_structural   BaYFeCuO5
_chemical_formula_sum   'Ba32 Y32 Fe32 Cu32 O160'
_cell_volume   3805.22960003
_cell_formula_units_Z   32
loop_
 _symmetry_equiv_pos_site_id
 _symmetry_equiv_pos_as_xyz
  1  'x, y, z'
loop_
 _atom_type_symbol
 _atom_type_oxidation_number
  Ba2+  2.0
  Y3+  3.0
  Fe3+  3.0
  Cu2+  2.0
  O2-  -2.0
loop_
 _atom_site_type_symbol
 _atom_site_label
 _atom_site_symmetry_multiplicity
 _atom_site_fract_x
 _atom_site_fract_y
 _atom_site_fract_z
 _atom_site_occupancy
  Ba2+  Ba0  1  0.00452452  0.00317190  0.01755854  1
  Ba2+  Ba1  1  -0.00041763  -0.00923960  0.51736834  1
  Ba2+  Ba2  1  -0.00367882  0.25263636  0.01346764  1
  Ba2+  Ba3  1  -0.00032670  0.25846522  0.49650983  1
  Ba2+  Ba4  1  0.00021667  0.49276916  0.00556975  1
  Ba2+  Ba5  1  -0.00718581  0.50022147  0.49691210  1
  Ba2+  Ba6  1  0.00927018  0.75117795  0.01243146  1
  Ba2+  Ba7  1  -0.00777416  0.75023085  0.51739687  1
  Ba2+  Ba8  1  0.24013553  -0.00266748  0.01033479  1
  Ba2+  Ba9  1  0.25647187  -0.00396189  0.52332452  1
  Ba2+  Ba10  1  0.24536018  0.25513882  0.01175519  1
  Ba2+  Ba11  1  0.25637610  0.25393282  0.51218169  1
  Ba2+  Ba12  1  0.25076780  0.50034810  0.00694043  1
  Ba2+  Ba13  1  0.25818607  0.49970784  0.50680559  1
  Ba2+  Ba14  1  0.24516028  0.74726188  0.00791092  1
  Ba2+  Ba15  1  0.25813045  0.75163321  0.51719876  1
  Ba2+  Ba16  1  0.50755314  -0.00026946  0.00617541  1
  Ba2+  Ba17  1  0.50169963  -0.00319746  0.52214170  1
  Ba2+  Ba18  1  0.50422085  0.25603680  0.01071766  1
  Ba2+  Ba19  1  0.50006421  0.24999468  0.52598637  1
  Ba2+  Ba20  1  0.50287640  0.50136776  0.01265320  1
  Ba2+  Ba21  1  0.50156245  0.50430991  0.51699362  1
  Ba2+  Ba22  1  0.50451303  0.74164092  0.00620382  1
  Ba2+  Ba23  1  0.50367894  0.74710002  0.51018386  1
  Ba2+  Ba24  1  0.74820953  0.00468268  0.01092504  1
  Ba2+  Ba25  1  0.74234707  -0.00727218  0.51491381  1
  Ba2+  Ba26  1  0.75381230  0.25399017  0.01164573  1
  Ba2+  Ba27  1  0.74355615  0.25467123  0.51251884  1
  Ba2+  Ba28  1  0.74595713  0.49542398  0.01355606  1
  Ba2+  Ba29  1  0.74847655  0.50662430  0.50643547  1
  Ba2+  Ba30  1  0.74051714  0.74656368  0.01315090  1
  Ba2+  Ba31  1  0.74537093  0.74712654  0.51163245  1
  Y3+  Y32  1  0.00080815  0.00036322  0.25491677  1
  Y3+  Y33  1  0.00095989  -0.00350409  0.75789010  1
  Y3+  Y34  1  -0.00144521  0.25177731  0.25688514  1
  Y3+  Y35  1  -0.00139179  0.25295932  0.75974217  1
  Y3+  Y36  1  -0.00243863  0.49959979  0.25937796  1
  Y3+  Y37  1  -0.00278298  0.49987747  0.75830989  1
  Y3+  Y38  1  0.00077345  0.74882310  0.25710900  1
  Y3+  Y39  1  -0.00056061  0.75049065  0.75737674  1
  Y3+  Y40  1  0.24815537  -0.00040084  0.25313119  1
  Y3+  Y41  1  0.24979223  -0.00286424  0.75920897  1
  Y3+  Y42  1  0.24899087  0.25157802  0.25765567  1
  Y3+  Y43  1  0.25124165  0.25110033  0.75657534  1
  Y3+  Y44  1  0.25088005  0.50068843  0.26041972  1
  Y3+  Y45  1  0.25270801  0.50131216  0.75563896  1
  Y3+  Y46  1  0.25019822  0.74868761  0.25712992  1
  Y3+  Y47  1  0.25096040  0.74957844  0.75822788  1
  Y3+  Y48  1  0.50238382  -0.00255100  0.25581769  1
  Y3+  Y49  1  0.50175586  -0.00046007  0.75684337  1
  Y3+  Y50  1  0.49988466  0.25233202  0.25317540  1
  Y3+  Y51  1  0.50138563  0.24966497  0.75748656  1
  Y3+  Y52  1  0.50146054  0.50343105  0.25833743  1
  Y3+  Y53  1  0.50103711  0.50339888  0.75667762  1
  Y3+  Y54  1  0.50332607  0.74793809  0.25951842  1
  Y3+  Y55  1  0.50120448  0.74626931  0.75539147  1
  Y3+  Y56  1  0.74841584  -0.00148318  0.25714038  1
  Y3+  Y57  1  0.74822952  -0.00117229  0.75530206  1
  Y3+  Y58  1  0.75202481  0.25285619  0.25571005  1
  Y3+  Y59  1  0.74877140  0.25070152  0.75866433  1
  Y3+  Y60  1  0.74986018  0.50179927  0.25890911  1
  Y3+  Y61  1  0.74889099  0.50212585  0.75709250  1
  Y3+  Y62  1  0.74580839  0.74796980  0.26030702  1
  Y3+  Y63  1  0.74851015  0.74751692  0.75454392  1
  Fe3+  Fe64  1  0.87497885  0.12455150  0.87584481  1
  Fe3+  Fe65  1  0.12600655  0.12422808  0.38021484  1
  Fe3+  Fe66  1  0.87426050  0.87476734  0.37523013  1
  Fe3+  Fe67  1  0.62577850  0.87407419  0.87641822  1
  Fe3+  Fe68  1  0.62379673  0.37506035  0.37622586  1
  Fe3+  Fe69  1  0.12598637  0.87517541  0.37723068  1
  Fe3+  Fe70  1  0.37627544  0.12404150  0.37524316  1
  Fe3+  Fe71  1  0.62547564  0.37557714  0.87524980  1
  Fe3+  Fe72  1  0.12444460  0.12611709  0.87545612  1
  Fe3+  Fe73  1  0.37736871  0.37478345  0.37568687  1
  Fe3+  Fe74  1  0.87499979  0.87434873  0.88025836  1
  Fe3+  Fe75  1  0.37532086  0.37597005  0.87635795  1
  Fe3+  Fe76  1  0.12474324  0.62373690  0.87561377  1
  Fe3+  Fe77  1  0.12546321  0.62584725  0.38071336  1
  Fe3+  Fe78  1  0.87394600  0.62494433  0.88113758  1
  Fe3+  Fe79  1  0.37563430  0.87564275  0.37443406  1
  Fe3+  Fe80  1  0.37533232  0.87354159  0.87974074  1
  Fe3+  Fe81  1  0.62349859  0.12539131  0.37700034  1
  Fe3+  Fe82  1  0.37510214  0.12512261  0.87934777  1
  Fe3+  Fe83  1  0.87380805  0.12400513  0.38013341  1
  Fe3+  Fe84  1  0.12506627  0.37696195  0.14121090  1
  Fe3+  Fe85  1  0.37454834  0.62462931  0.13841006  1
  Fe3+  Fe86  1  0.87405211  0.37553329  0.63806623  1
  Fe3+  Fe87  1  0.87495113  0.12515706  0.63347711  1
  Fe3+  Fe88  1  0.37600091  0.87417021  0.13262572  1
  Fe3+  Fe89  1  0.87542415  0.62474945  0.13530721  1
  Fe3+  Fe90  1  0.62578221  0.12623295  0.13665407  1
  Fe3+  Fe91  1  0.37445838  0.12568085  0.13190027  1
  Fe3+  Fe92  1  0.12437022  0.62452809  0.63478948  1
  Fe3+  Fe93  1  0.87404770  0.87434605  0.13413606  1
  Fe3+  Fe94  1  0.12455881  0.37612542  0.63657490  1
  Fe3+  Fe95  1  0.12447685  0.12570538  0.63393909  1
  Cu2+  Cu96  1  0.12590985  0.37532461  0.36672561  1
  Cu2+  Cu97  1  0.62422296  0.87542771  0.37238296  1
  Cu2+  Cu98  1  0.12539082  0.37532420  0.86142586  1
  Cu2+  Cu99  1  0.62457171  0.62481536  0.37215780  1
  Cu2+  Cu100  1  0.87334199  0.37489778  0.36318647  1
  Cu2+  Cu101  1  0.37549319  0.62608363  0.37343556  1
  Cu2+  Cu102  1  0.62561413  0.62422062  0.87217524  1
  Cu2+  Cu103  1  0.87448382  0.62692521  0.37199404  1
  Cu2+  Cu104  1  0.12437317  0.87433537  0.87187006  1
  Cu2+  Cu105  1  0.87401082  0.37524052  0.87327484  1
  Cu2+  Cu106  1  0.62542914  0.12504044  0.86392617  1
  Cu2+  Cu107  1  0.37546156  0.62479205  0.86468139  1
  Cu2+  Cu108  1  0.12479190  0.12675537  0.15249710  1
  Cu2+  Cu109  1  0.87384798  0.87465062  0.65341348  1
  Cu2+  Cu110  1  0.37497093  0.62511693  0.64202956  1
  Cu2+  Cu111  1  0.62445863  0.87319704  0.64376857  1
  Cu2+  Cu112  1  0.62518864  0.62433938  0.14327754  1
  Cu2+  Cu113  1  0.37486813  0.37600279  0.14873081  1
  Cu2+  Cu114  1  0.62555299  0.62442452  0.64363428  1
  Cu2+  Cu115  1  0.12482954  0.62373337  0.15338396  1
  Cu2+  Cu116  1  0.62475570  0.87459882  0.14887459  1
  Cu2+  Cu117  1  0.37454489  0.12461355  0.65501197  1
  Cu2+  Cu118  1  0.87498698  0.62425849  0.64281299  1
  Cu2+  Cu119  1  0.62504168  0.37548229  0.15153993  1
  Cu2+  Cu120  1  0.37565278  0.37535323  0.65316656  1
  Cu2+  Cu121  1  0.12534871  0.87403787  0.14181186  1
  Cu2+  Cu122  1  0.12538861  0.87400818  0.65150943  1
  Cu2+  Cu123  1  0.62572319  0.12505968  0.65217625  1
  Cu2+  Cu124  1  0.87474131  0.12491179  0.15234747  1
  Cu2+  Cu125  1  0.37607933  0.87408916  0.65719728  1
  Cu2+  Cu126  1  0.62530196  0.37578460  0.65237867  1
  Cu2+  Cu127  1  0.87502807  0.37641149  0.14297877  1
  O2-  O128  1  0.12362876  0.12724155  -0.00427994  1
  O2-  O129  1  0.12675666  0.12384508  0.50644187  1
  O2-  O130  1  0.12501451  0.37591746  0.02010324  1
  O2-  O131  1  0.12470734  0.37450406  0.51682896  1
  O2-  O132  1  0.12497812  0.62320938  -0.00373540  1
  O2-  O133  1  0.12486000  0.62617401  0.50780757  1
  O2-  O134  1  0.12429062  0.87512770  0.00661105  1
  O2-  O135  1  0.12733589  0.87697229  0.49691613  1
  O2-  O136  1  0.37358820  0.12619446  0.00518566  1
  O2-  O137  1  0.37609594  0.12354838  0.49476683  1
  O2-  O138  1  0.37394048  0.37481782  -0.00332912  1
  O2-  O139  1  0.37815689  0.37238492  0.49593553  1
  O2-  O140  1  0.37365830  0.62416170  0.01788037  1
  O2-  O141  1  0.37444030  0.62589823  0.50815098  1
  O2-  O142  1  0.37527989  0.87383262  0.00601146  1
  O2-  O143  1  0.37514462  0.87793457  0.49463540  1
  O2-  O144  1  0.62653929  0.12614282  0.01610767  1
  O2-  O145  1  0.62214768  0.12533060  0.49703100  1
  O2-  O146  1  0.62557860  0.37435709  -0.00385146  1
  O2-  O147  1  0.62190743  0.37339103  0.49624146  1
  O2-  O148  1  0.62534763  0.62338473  0.00820634  1
  O2-  O149  1  0.62481689  0.62467755  0.50799588  1
  O2-  O150  1  0.62645715  0.87581899  -0.00304858  1
  O2-  O151  1  0.62341571  0.87515688  0.50770710  1
  O2-  O152  1  0.87659371  0.12441471  -0.00396176  1
  O2-  O153  1  0.87420214  0.12411513  0.50629040  1
  O2-  O154  1  0.87525198  0.37500722  0.00856830  1
  O2-  O155  1  0.87495723  0.37406639  0.51767365  1
  O2-  O156  1  0.87550355  0.62440232  0.00781839  1
  O2-  O157  1  0.87550277  0.62608057  0.50728569  1
  O2-  O158  1  0.87504847  0.87585985  0.00636255  1
  O2-  O159  1  0.87474072  0.87597022  0.49565228  1
  O2-  O160  1  0.12409555  0.00215461  0.16246828  1
  O2-  O161  1  0.12509752  0.00112979  0.66287127  1
  O2-  O162  1  0.12517928  0.25113297  0.16845364  1
  O2-  O163  1  0.12502051  0.24910155  0.66414384  1
  O2-  O164  1  0.12470816  0.49978699  0.17148620  1
  O2-  O165  1  0.12504679  0.50054112  0.66543314  1
  O2-  O166  1  0.12569169  0.74793073  0.16464581  1
  O2-  O167  1  0.12461981  0.74900710  0.66325152  1
  O2-  O168  1  0.37508287  0.00058975  0.15627537  1
  O2-  O169  1  0.37452514  -0.00047242  0.66801962  1
  O2-  O170  1  0.37407244  0.24898629  0.15981402  1
  O2-  O171  1  0.37458698  0.24968040  0.66511526  1
  O2-  O172  1  0.37479359  0.50042109  0.16765160  1
  O2-  O173  1  0.37469762  0.49873725  0.66496081  1
  O2-  O174  1  0.37423772  0.75099016  0.16423372  1
  O2-  O175  1  0.37454724  0.75103744  0.66819835  1
  O2-  O176  1  0.62501430  0.00091606  0.16327406  1
  O2-  O177  1  0.62496967  0.00081009  0.66571832  1
  O2-  O178  1  0.62557026  0.25059187  0.16377110  1
  O2-  O179  1  0.62505671  0.24985315  0.66424759  1
  O2-  O180  1  0.62502428  0.49805021  0.16566470  1
  O2-  O181  1  0.62530793  0.49899233  0.66605020  1
  O2-  O182  1  0.62485866  0.75116176  0.16551047  1
  O2-  O183  1  0.62521821  0.74895259  0.66696944  1
  O2-  O184  1  0.87543548  -0.00165449  0.16117365  1
  O2-  O185  1  0.87544923  0.00156801  0.66301489  1
  O2-  O186  1  0.87529449  0.24911739  0.16606495  1
  O2-  O187  1  0.87526034  0.24848919  0.66552735  1
  O2-  O188  1  0.87573050  0.50348692  0.16601961  1
  O2-  O189  1  0.87495007  0.49767799  0.66968699  1
  O2-  O190  1  0.87557471  0.74990893  0.15884415  1
  O2-  O191  1  0.87553178  0.75127520  0.66855999  1
  O2-  O192  1  -0.00042772  0.12563185  0.16825252  1
  O2-  O193  1  0.00007057  0.12415574  0.65899143  1
  O2-  O194  1  0.00159911  0.37498561  0.16967275  1
  O2-  O195  1  -0.00004743  0.37462491  0.66941705  1
  O2-  O196  1  -0.00113753  0.62587213  0.16530272  1
  O2-  O197  1  0.00285484  0.62516754  0.66524498  1
  O2-  O198  1  -0.00292070  0.87489884  0.16361204  1
  O2-  O199  1  -0.00061017  0.87522490  0.66428154  1
  O2-  O200  1  0.25190984  0.12520541  0.16264741  1
  O2-  O201  1  0.24774019  0.12470150  0.66326574  1
  O2-  O202  1  0.24941590  0.37534463  0.16791251  1
  O2-  O203  1  0.24955157  0.37433447  0.66454640  1
  O2-  O204  1  0.25030578  0.62432255  0.16821828  1
  O2-  O205  1  0.24670133  0.62545803  0.66359525  1
  O2-  O206  1  0.25334225  0.87620483  0.16132834  1
  O2-  O207  1  0.25095543  0.87509430  0.66651420  1
  O2-  O208  1  0.49858553  0.12597312  0.15968617  1
  O2-  O209  1  0.49980617  0.12438640  0.66723771  1
  O2-  O210  1  0.50057983  0.37417017  0.15894880  1
  O2-  O211  1  0.50031905  0.37404827  0.66511566  1
  O2-  O212  1  0.49849325  0.62507050  0.16584066  1
  O2-  O213  1  0.50019784  0.62476083  0.66564183  1
  O2-  O214  1  0.49827904  0.87577127  0.16047737  1
  O2-  O215  1  0.49912330  0.87535594  0.66844875  1
  O2-  O216  1  0.74947282  0.12474261  0.16729402  1
  O2-  O217  1  0.75217267  0.12467402  0.66114325  1
  O2-  O218  1  0.74850414  0.37522526  0.16448495  1
  O2-  O219  1  0.75019515  0.37383486  0.66549444  1
  O2-  O220  1  0.75257535  0.62553763  0.16428089  1
  O2-  O221  1  0.75044023  0.62492280  0.66583270  1
  O2-  O222  1  0.75147846  0.87529903  0.16221411  1
  O2-  O223  1  0.75058542  0.87495805  0.66592273  1
  O2-  O224  1  0.12501232  0.00154882  0.34476956  1
  O2-  O225  1  0.12523114  0.00202939  0.84623435  1
  O2-  O226  1  0.12470108  0.24776628  0.35198889  1
  O2-  O227  1  0.12535024  0.24994661  0.84573275  1
  O2-  O228  1  0.12538757  0.50145569  0.35468591  1
  O2-  O229  1  0.12445046  0.50003212  0.84700821  1
  O2-  O230  1  0.12483811  0.75005042  0.34732883  1
  O2-  O231  1  0.12472954  0.74740251  0.84678597  1
  O2-  O232  1  0.37420082  0.00063709  0.33779213  1
  O2-  O233  1  0.37419495  -0.00017302  0.85291279  1
  O2-  O234  1  0.37486590  0.24909742  0.34176446  1
  O2-  O235  1  0.37487402  0.24874322  0.84840034  1
  O2-  O236  1  0.37454821  0.49867482  0.34968128  1
  O2-  O237  1  0.37480737  0.49996502  0.84786540  1
  O2-  O238  1  0.37417378  0.75215445  0.34603940  1
  O2-  O239  1  0.37498292  0.75082024  0.85216585  1
  O2-  O240  1  0.62514273  0.00249781  0.34436721  1
  O2-  O241  1  0.62550812  -0.00106401  0.84838057  1
  O2-  O242  1  0.62492013  0.24983403  0.34345783  1
  O2-  O243  1  0.62462882  0.25015046  0.84718744  1
  O2-  O244  1  0.62539036  0.49842553  0.34799515  1
  O2-  O245  1  0.62497903  0.49891148  0.84776747  1
  O2-  O246  1  0.62481404  0.74985051  0.34946518  1
  O2-  O247  1  0.62511831  0.75111564  0.84911243  1
  O2-  O248  1  0.87543010  0.00156885  0.34432923  1
  O2-  O249  1  0.87526489  -0.00181688  0.84695402  1
  O2-  O250  1  0.87542643  0.24757143  0.35074051  1
  O2-  O251  1  0.87519265  0.24846807  0.84729264  1
  O2-  O252  1  0.87489602  0.49900729  0.35015120  1
  O2-  O253  1  0.87570471  0.50266829  0.85241612  1
  O2-  O254  1  0.87597392  0.75279094  0.34184621  1
  O2-  O255  1  0.87554180  0.74997503  0.85323863  1
  O2-  O256  1  0.00013796  0.12473058  0.35420671  1
  O2-  O257  1  -0.00007519  0.12475047  0.84113894  1
  O2-  O258  1  -0.00073502  0.37474344  0.35289630  1
  O2-  O259  1  0.00118545  0.37479266  0.85058189  1
  O2-  O260  1  0.00309596  0.62527422  0.34989573  1
  O2-  O261  1  -0.00190351  0.62502199  0.84805194  1
  O2-  O262  1  0.00108721  0.87642666  0.34540406  1
  O2-  O263  1  -0.00307553  0.87470865  0.84823757  1
  O2-  O264  1  0.24894385  0.12507703  0.34647862  1
  O2-  O265  1  0.25128669  0.12520487  0.84724107  1
  O2-  O266  1  0.25156737  0.37376593  0.34941998  1
  O2-  O267  1  0.25093313  0.37498980  0.84658867  1
  O2-  O268  1  0.24708265  0.62566627  0.35097577  1
  O2-  O269  1  0.24970189  0.62443512  0.84690358  1
  O2-  O270  1  0.24921754  0.87607663  0.34172975  1
  O2-  O271  1  0.25283214  0.87470715  0.85061070  1
  O2-  O272  1  0.49968744  0.12470650  0.33962810  1
  O2-  O273  1  0.49788735  0.12403737  0.85243645  1
  O2-  O274  1  0.50000735  0.37462446  0.33999879  1
  O2-  O275  1  0.49984150  0.37430641  0.84693395  1
  O2-  O276  1  0.50016792  0.62554344  0.34806642  1
  O2-  O277  1  0.49931389  0.62518720  0.84973541  1
  O2-  O278  1  0.49833465  0.87593231  0.34303684  1
  O2-  O279  1  0.49904445  0.87580806  0.85122350  1
  O2-  O280  1  0.75090352  0.12484010  0.34989453  1
  O2-  O281  1  0.75121671  0.12400600  0.84496828  1
  O2-  O282  1  0.74906252  0.37421810  0.34755033  1
  O2-  O283  1  0.74846153  0.37453187  0.84649905  1
  O2-  O284  1  0.74976102  0.62545140  0.34815690  1
  O2-  O285  1  0.75288076  0.62550788  0.84929028  1
  O2-  O286  1  0.75123854  0.87592467  0.34552874  1
  O2-  O287  1  0.75158626  0.87501925  0.84841778  1
