# generated using pymatgen
data_BaYFeCuO5
_symmetry_space_group_name_H-M   'P 1'
_cell_length_a   15.67317023
_cell_length_b   15.67837088
_cell_length_c   15.50152073
_cell_angle_alpha   90.00596731
_cell_angle_beta   90.00301678
_cell_angle_gamma   90.00412903
_symmetry_Int_Tables_number   1
_chemical_formula_structural   BaYFeCuO5
_chemical_formula_sum   'Ba32 Y32 Fe32 Cu32 O160'
_cell_volume   3809.18517709
_cell_formula_units_Z   32
loop_
 _symmetry_equiv_pos_site_id
 _symmetry_equiv_pos_as_xyz
  1  'x, y, z'
loop_
 _atom_type_symbol
 _atom_type_oxidation_number
  Ba2+  2.0
  Y3+  3.0
  Fe3+  3.0
  Cu2+  2.0
  O2-  -2.0
loop_
 _atom_site_type_symbol
 _atom_site_label
 _atom_site_symmetry_multiplicity
 _atom_site_fract_x
 _atom_site_fract_y
 _atom_site_fract_z
 _atom_site_occupancy
  Ba2+  Ba0  1  -0.00356984  -0.00463806  0.00149826  1
  Ba2+  Ba1  1  0.00602314  -0.00469767  0.51349889  1
  Ba2+  Ba2  1  -0.00683106  0.25289300  0.00739633  1
  Ba2+  Ba3  1  0.01013298  0.24770301  0.51779649  1
  Ba2+  Ba4  1  0.00174481  0.50372401  0.01306072  1
  Ba2+  Ba5  1  0.01045447  0.50088936  0.51690128  1
  Ba2+  Ba6  1  0.00500709  0.74895978  0.00701855  1
  Ba2+  Ba7  1  0.00648163  0.75561015  0.51285228  1
  Ba2+  Ba8  1  0.25277233  -0.00475627  0.01024176  1
  Ba2+  Ba9  1  0.25109884  -0.00173418  0.52961601  1
  Ba2+  Ba10  1  0.25627343  0.25221653  0.00702320  1
  Ba2+  Ba11  1  0.24813053  0.24380061  0.52346100  1
  Ba2+  Ba12  1  0.24673708  0.50345401  -0.00004388  1
  Ba2+  Ba13  1  0.25056007  0.50771590  0.51625091  1
  Ba2+  Ba14  1  0.24444043  0.74914175  0.00642002  1
  Ba2+  Ba15  1  0.25254662  0.75092307  0.52351659  1
  Ba2+  Ba16  1  0.49487169  0.00551330  0.01448903  1
  Ba2+  Ba17  1  0.49887237  0.00036059  0.52320344  1
  Ba2+  Ba18  1  0.49541530  0.24566844  0.01696293  1
  Ba2+  Ba19  1  0.50525503  0.24412334  0.51071064  1
  Ba2+  Ba20  1  0.49602352  0.50272196  0.01334294  1
  Ba2+  Ba21  1  0.50103287  0.50526219  0.50094711  1
  Ba2+  Ba22  1  0.49599468  0.74557298  0.01185940  1
  Ba2+  Ba23  1  0.49444930  0.75043737  0.51187441  1
  Ba2+  Ba24  1  0.75617469  0.00622438  0.00713042  1
  Ba2+  Ba25  1  0.74224548  -0.00161154  0.50677240  1
  Ba2+  Ba26  1  0.75577684  0.24531257  0.01939040  1
  Ba2+  Ba27  1  0.73829587  0.24852961  0.50631938  1
  Ba2+  Ba28  1  0.75487955  0.50319075  0.02625165  1
  Ba2+  Ba29  1  0.74024571  0.49851347  0.50267541  1
  Ba2+  Ba30  1  0.75454303  0.74496012  0.01380282  1
  Ba2+  Ba31  1  0.74559552  0.75578534  0.50128254  1
  Y3+  Y32  1  -0.00067831  -0.00134179  0.25416666  1
  Y3+  Y33  1  -0.00039156  -0.00099485  0.76218625  1
  Y3+  Y34  1  -0.00213633  0.24891191  0.25549786  1
  Y3+  Y35  1  0.00088516  0.25019506  0.75924451  1
  Y3+  Y36  1  0.00021002  0.50138162  0.25611511  1
  Y3+  Y37  1  0.00471932  0.50005206  0.75830225  1
  Y3+  Y38  1  0.00194543  0.75066681  0.25411120  1
  Y3+  Y39  1  0.00295388  0.75106579  0.76141582  1
  Y3+  Y40  1  0.25117125  -0.00191815  0.24834424  1
  Y3+  Y41  1  0.25052697  -0.00038982  0.76363695  1
  Y3+  Y42  1  0.25262480  0.24937020  0.25313658  1
  Y3+  Y43  1  0.24999964  0.24976643  0.76031630  1
  Y3+  Y44  1  0.25101904  0.50181054  0.25683781  1
  Y3+  Y45  1  0.24906848  0.50259128  0.75735384  1
  Y3+  Y46  1  0.24956393  0.75028556  0.25256417  1
  Y3+  Y47  1  0.24890158  0.74836332  0.76113351  1
  Y3+  Y48  1  0.49880694  0.00241172  0.25370042  1
  Y3+  Y49  1  0.50011817  0.00172946  0.75857117  1
  Y3+  Y50  1  0.50071427  0.24844465  0.25841256  1
  Y3+  Y51  1  0.50123946  0.24842893  0.75511771  1
  Y3+  Y52  1  0.49985608  0.50083230  0.26154550  1
  Y3+  Y53  1  0.49936387  0.50013875  0.75341216  1
  Y3+  Y54  1  0.49801734  0.74805816  0.25830522  1
  Y3+  Y55  1  0.49790037  0.74969904  0.75613815  1
  Y3+  Y56  1  0.74999154  0.00236243  0.25745995  1
  Y3+  Y57  1  0.75009298  0.00140651  0.75837807  1
  Y3+  Y58  1  0.74817528  0.24788660  0.26038597  1
  Y3+  Y59  1  0.74806712  0.24912340  0.75451274  1
  Y3+  Y60  1  0.74801680  0.49994819  0.26206303  1
  Y3+  Y61  1  0.74792770  0.49806274  0.75240877  1
  Y3+  Y62  1  0.74971900  0.74941329  0.25867034  1
  Y3+  Y63  1  0.75015843  0.75184668  0.75761786  1
  Fe3+  Fe64  1  0.12492903  0.12599449  0.87962123  1
  Fe3+  Fe65  1  0.87402442  0.62358929  0.87375041  1
  Fe3+  Fe66  1  0.37302022  0.87614163  0.37490960  1
  Fe3+  Fe67  1  0.87662857  0.37429894  0.38074448  1
  Fe3+  Fe68  1  0.37312086  0.12285609  0.37598428  1
  Fe3+  Fe69  1  0.37357014  0.37401235  0.38032966  1
  Fe3+  Fe70  1  0.62567828  0.37556946  0.88093914  1
  Fe3+  Fe71  1  0.12714290  0.87613260  0.37403082  1
  Fe3+  Fe72  1  0.87672611  0.62622568  0.38060660  1
  Fe3+  Fe73  1  0.62563740  0.62355097  0.87780898  1
  Fe3+  Fe74  1  0.37656755  0.87405637  0.87755986  1
  Fe3+  Fe75  1  0.62572474  0.87464145  0.88117655  1
  Fe3+  Fe76  1  0.62516880  0.12652147  0.87830009  1
  Fe3+  Fe77  1  0.12664482  0.37374631  0.37704774  1
  Fe3+  Fe78  1  0.12635034  0.62659186  0.37612934  1
  Fe3+  Fe79  1  0.87334996  0.37651537  0.87467170  1
  Fe3+  Fe80  1  0.62208475  0.87634778  0.37415439  1
  Fe3+  Fe81  1  0.37670521  0.37580757  0.87532191  1
  Fe3+  Fe82  1  0.87630802  0.12361853  0.38109232  1
  Fe3+  Fe83  1  0.12721921  0.12337685  0.37432789  1
  Fe3+  Fe84  1  0.62453385  0.37488281  0.13663324  1
  Fe3+  Fe85  1  0.87530147  0.37488263  0.63235792  1
  Fe3+  Fe86  1  0.12540619  0.37532218  0.13585523  1
  Fe3+  Fe87  1  0.62513171  0.62658798  0.63649256  1
  Fe3+  Fe88  1  0.12383300  0.12508665  0.13217026  1
  Fe3+  Fe89  1  0.37538206  0.37482142  0.63465371  1
  Fe3+  Fe90  1  0.87482021  0.87494643  0.63879249  1
  Fe3+  Fe91  1  0.87538370  0.12438805  0.63474586  1
  Fe3+  Fe92  1  0.87439903  0.87457224  0.13862786  1
  Fe3+  Fe93  1  0.37395897  0.62412603  0.13870246  1
  Fe3+  Fe94  1  0.87548364  0.62566103  0.63313065  1
  Fe3+  Fe95  1  0.62491667  0.87496938  0.13401940  1
  Cu2+  Cu96  1  0.87422076  0.12682175  0.87132858  1
  Cu2+  Cu97  1  0.87358164  0.87416086  0.86472737  1
  Cu2+  Cu98  1  0.12505006  0.37505771  0.86632129  1
  Cu2+  Cu99  1  0.62437018  0.62676793  0.36380974  1
  Cu2+  Cu100  1  0.37610333  0.12569865  0.87246012  1
  Cu2+  Cu101  1  0.37277092  0.62662923  0.37317700  1
  Cu2+  Cu102  1  0.12525899  0.87502304  0.87384600  1
  Cu2+  Cu103  1  0.62313736  0.37393580  0.37242680  1
  Cu2+  Cu104  1  0.87597241  0.87551033  0.36427252  1
  Cu2+  Cu105  1  0.12459551  0.62456750  0.87200595  1
  Cu2+  Cu106  1  0.62296326  0.12295627  0.37100095  1
  Cu2+  Cu107  1  0.37618413  0.62460362  0.86173810  1
  Cu2+  Cu108  1  0.12439689  0.87464690  0.13846995  1
  Cu2+  Cu109  1  0.62387272  0.37503955  0.63971850  1
  Cu2+  Cu110  1  0.37411333  0.12560680  0.14005247  1
  Cu2+  Cu111  1  0.62554342  0.12485198  0.14894153  1
  Cu2+  Cu112  1  0.12450564  0.62639823  0.65433879  1
  Cu2+  Cu113  1  0.87433736  0.37537838  0.15660900  1
  Cu2+  Cu114  1  0.37481112  0.87545407  0.65761203  1
  Cu2+  Cu115  1  0.12505764  0.62444199  0.14192245  1
  Cu2+  Cu116  1  0.12609855  0.37492574  0.65311385  1
  Cu2+  Cu117  1  0.87506755  0.62539305  0.15769621  1
  Cu2+  Cu118  1  0.62448021  0.62492626  0.15331212  1
  Cu2+  Cu119  1  0.87590015  0.12441738  0.14462706  1
  Cu2+  Cu120  1  0.37471275  0.12507182  0.65576185  1
  Cu2+  Cu121  1  0.12502138  0.87529634  0.65917070  1
  Cu2+  Cu122  1  0.37529621  0.62521389  0.64259895  1
  Cu2+  Cu123  1  0.62581947  0.12396920  0.64277786  1
  Cu2+  Cu124  1  0.37542623  0.37607158  0.15231471  1
  Cu2+  Cu125  1  0.37601683  0.87355020  0.14549476  1
  Cu2+  Cu126  1  0.62499671  0.87471607  0.65480840  1
  Cu2+  Cu127  1  0.12411584  0.12372514  0.65856174  1
  O2-  O128  1  0.12270080  0.12742826  0.00615855  1
  O2-  O129  1  0.12793467  0.12186891  0.49423057  1
  O2-  O130  1  0.12371060  0.37581162  0.01577248  1
  O2-  O131  1  0.12690061  0.37242581  0.49704421  1
  O2-  O132  1  0.12399817  0.62336653  0.00635300  1
  O2-  O133  1  0.12594746  0.62804024  0.49638831  1
  O2-  O134  1  0.12349109  0.87464255  0.00600747  1
  O2-  O135  1  0.12875028  0.87669664  0.49412758  1
  O2-  O136  1  0.37521894  0.12672932  0.00593236  1
  O2-  O137  1  0.37135544  0.12167409  0.49569343  1
  O2-  O138  1  0.37772759  0.37629157  -0.00437346  1
  O2-  O139  1  0.37317155  0.37332153  0.50668837  1
  O2-  O140  1  0.37517900  0.62289105  0.01785725  1
  O2-  O141  1  0.37332993  0.62655272  0.50824728  1
  O2-  O142  1  0.37830282  0.87293537  -0.00221908  1
  O2-  O143  1  0.37277675  0.87779062  0.49469644  1
  O2-  O144  1  0.62646416  0.12774144  -0.00157459  1
  O2-  O145  1  0.62376080  0.12189216  0.50694737  1
  O2-  O146  1  0.62696183  0.37589928  0.00693057  1
  O2-  O147  1  0.62311082  0.37477410  0.50600723  1
  O2-  O148  1  0.62745244  0.62177528  -0.00241408  1
  O2-  O149  1  0.62455427  0.62856790  0.51605467  1
  O2-  O150  1  0.62655962  0.87403029  0.00678840  1
  O2-  O151  1  0.62100001  0.87591740  0.49469895  1
  O2-  O152  1  0.87538923  0.12648599  0.00647815  1
  O2-  O153  1  0.87716108  0.12311867  0.50776642  1
  O2-  O154  1  0.87186873  0.37765701  -0.00544238  1
  O2-  O155  1  0.87785377  0.37338763  0.50604954  1
  O2-  O156  1  0.87306832  0.62163997  -0.00625282  1
  O2-  O157  1  0.87713581  0.62731158  0.50679174  1
  O2-  O158  1  0.87266066  0.87336193  0.01827233  1
  O2-  O159  1  0.87610509  0.87548988  0.51889689  1
  O2-  O160  1  0.12469925  0.00248410  0.15830590  1
  O2-  O161  1  0.12443934  -0.00034825  0.66931880  1
  O2-  O162  1  0.12379113  0.24978681  0.16436177  1
  O2-  O163  1  0.12402278  0.24891526  0.66488926  1
  O2-  O164  1  0.12420839  0.49801242  0.16855884  1
  O2-  O165  1  0.12557271  0.50077518  0.66225087  1
  O2-  O166  1  0.12432847  0.74960859  0.16259478  1
  O2-  O167  1  0.12392176  0.75083819  0.66648001  1
  O2-  O168  1  0.37504694  -0.00164385  0.15861151  1
  O2-  O169  1  0.37468540  0.00046054  0.66789941  1
  O2-  O170  1  0.37568832  0.25206051  0.16552218  1
  O2-  O171  1  0.37479985  0.25052342  0.66186812  1
  O2-  O172  1  0.37613854  0.50046143  0.17110845  1
  O2-  O173  1  0.37403457  0.49731927  0.66186854  1
  O2-  O174  1  0.37633571  0.74877700  0.16545608  1
  O2-  O175  1  0.37527711  0.75181507  0.66603485  1
  O2-  O176  1  0.62600879  -0.00124382  0.15937985  1
  O2-  O177  1  0.62580811  -0.00179111  0.66864813  1
  O2-  O178  1  0.62554402  0.25158019  0.16384895  1
  O2-  O179  1  0.62508784  0.24957348  0.66457501  1
  O2-  O180  1  0.62558311  0.49821245  0.16653406  1
  O2-  O181  1  0.62572439  0.50226560  0.66429713  1
  O2-  O182  1  0.62534539  0.75104463  0.16157007  1
  O2-  O183  1  0.62560195  0.74972216  0.66920793  1
  O2-  O184  1  0.87383332  -0.00174456  0.16694796  1
  O2-  O185  1  0.87549436  0.00091596  0.66760640  1
  O2-  O186  1  0.87454639  0.25068729  0.16755744  1
  O2-  O187  1  0.87671981  0.24987527  0.65916758  1
  O2-  O188  1  0.87395934  0.50099953  0.16963790  1
  O2-  O189  1  0.87490156  0.50020965  0.65514567  1
  O2-  O190  1  0.87357751  0.74989111  0.16771816  1
  O2-  O191  1  0.87569214  0.74882240  0.66571528  1
  O2-  O192  1  0.00262177  0.12549541  0.16623930  1
  O2-  O193  1  -0.00180785  0.12443768  0.66427050  1
  O2-  O194  1  -0.00059223  0.37511370  0.16621786  1
  O2-  O195  1  -0.00087505  0.37554653  0.66301154  1
  O2-  O196  1  -0.00115120  0.62428889  0.16572087  1
  O2-  O197  1  -0.00145670  0.62444744  0.66240482  1
  O2-  O198  1  -0.00216132  0.87459918  0.16714384  1
  O2-  O199  1  -0.00025649  0.87560974  0.66750966  1
  O2-  O200  1  0.24673909  0.12662870  0.15794734  1
  O2-  O201  1  0.24899975  0.12511627  0.66866293  1
  O2-  O202  1  0.25014121  0.37474643  0.16360881  1
  O2-  O203  1  0.25151457  0.37354570  0.66461608  1
  O2-  O204  1  0.25128729  0.62411543  0.16477690  1
  O2-  O205  1  0.24817007  0.62619042  0.66666079  1
  O2-  O206  1  0.25156010  0.87408481  0.15787640  1
  O2-  O207  1  0.24940749  0.87553769  0.66755656  1
  O2-  O208  1  0.50080696  0.12558568  0.16305390  1
  O2-  O209  1  0.49906986  0.12418336  0.66479955  1
  O2-  O210  1  0.50174143  0.37537649  0.16270096  1
  O2-  O211  1  0.49688123  0.37473227  0.66488633  1
  O2-  O212  1  0.49938439  0.62399376  0.16624803  1
  O2-  O213  1  0.50192882  0.62549101  0.66648412  1
  O2-  O214  1  0.50241022  0.87488276  0.16008950  1
  O2-  O215  1  0.50000532  0.87535819  0.66537661  1
  O2-  O216  1  0.74948511  0.12582851  0.16902510  1
  O2-  O217  1  0.75394577  0.12512933  0.66283107  1
  O2-  O218  1  0.74855913  0.37524262  0.16727268  1
  O2-  O219  1  0.75341017  0.37448059  0.66125069  1
  O2-  O220  1  0.74964491  0.62453621  0.16891207  1
  O2-  O221  1  0.75187015  0.62536710  0.66205099  1
  O2-  O222  1  0.74820865  0.87405746  0.16791605  1
  O2-  O223  1  0.75081505  0.87492382  0.66674468  1
  O2-  O224  1  0.12436667  0.00007654  0.33882528  1
  O2-  O225  1  0.12403383  0.00288812  0.85298130  1
  O2-  O226  1  0.12477865  0.24936497  0.34443720  1
  O2-  O227  1  0.12498129  0.24892216  0.84947430  1
  O2-  O228  1  0.12435075  0.49952250  0.34921283  1
  O2-  O229  1  0.12522046  0.49905928  0.84690771  1
  O2-  O230  1  0.12436441  0.75093053  0.34347543  1
  O2-  O231  1  0.12479491  0.74975140  0.85045303  1
  O2-  O232  1  0.37404025  -0.00017160  0.33887481  1
  O2-  O233  1  0.37662095  -0.00175123  0.85028728  1
  O2-  O234  1  0.37388727  0.25003433  0.34837805  1
  O2-  O235  1  0.37567863  0.25261163  0.84458879  1
  O2-  O236  1  0.37417525  0.49785683  0.35430178  1
  O2-  O237  1  0.37630609  0.49987686  0.84440467  1
  O2-  O238  1  0.37428347  0.75210186  0.34656558  1
  O2-  O239  1  0.37633244  0.74927777  0.84888496  1
  O2-  O240  1  0.62477352  -0.00178900  0.34161743  1
  O2-  O241  1  0.62576269  -0.00089499  0.85206885  1
  O2-  O242  1  0.62469740  0.24879466  0.34801026  1
  O2-  O243  1  0.62552288  0.25243272  0.84733529  1
  O2-  O244  1  0.62472599  0.50164850  0.35130073  1
  O2-  O245  1  0.62495684  0.49825415  0.84569214  1
  O2-  O246  1  0.62537712  0.75162679  0.34521680  1
  O2-  O247  1  0.62664955  0.75042367  0.85159085  1
  O2-  O248  1  0.87591360  0.00175484  0.34933098  1
  O2-  O249  1  0.87432296  -0.00136398  0.85119437  1
  O2-  O250  1  0.87567740  0.24913307  0.35182433  1
  O2-  O251  1  0.87414965  0.25369809  0.84193174  1
  O2-  O252  1  0.87559657  0.50035591  0.35446151  1
  O2-  O253  1  0.87447582  0.49936357  0.83670968  1
  O2-  O254  1  0.87507682  0.74858023  0.35124945  1
  O2-  O255  1  0.87326710  0.74880550  0.84763864  1
  O2-  O256  1  -0.00033739  0.12496661  0.34854031  1
  O2-  O257  1  0.00209544  0.12649251  0.84875226  1
  O2-  O258  1  -0.00059517  0.37428844  0.34817458  1
  O2-  O259  1  -0.00060156  0.37513683  0.84709189  1
  O2-  O260  1  -0.00012435  0.62518838  0.34803565  1
  O2-  O261  1  -0.00247879  0.62436743  0.84532489  1
  O2-  O262  1  0.00109975  0.87547530  0.34894246  1
  O2-  O263  1  -0.00220631  0.87461147  0.85062999  1
  O2-  O264  1  0.24991010  0.12473390  0.33764520  1
  O2-  O265  1  0.24791491  0.12586524  0.85279492  1
  O2-  O266  1  0.25075476  0.37443798  0.34461633  1
  O2-  O267  1  0.25072009  0.37588515  0.84910477  1
  O2-  O268  1  0.24727386  0.62499882  0.34380065  1
  O2-  O269  1  0.25182686  0.62398904  0.85050722  1
  O2-  O270  1  0.24959511  0.87561060  0.33784559  1
  O2-  O271  1  0.25245603  0.87474971  0.85055000  1
  O2-  O272  1  0.49670336  0.12490978  0.34504303  1
  O2-  O273  1  0.50291759  0.12591583  0.84667851  1
  O2-  O274  1  0.49571286  0.37470685  0.34772219  1
  O2-  O275  1  0.50289435  0.37568846  0.84701572  1
  O2-  O276  1  0.50010868  0.62544713  0.34954932  1
  O2-  O277  1  0.50197549  0.62462796  0.84763067  1
  O2-  O278  1  0.49818636  0.87488979  0.34138789  1
  O2-  O279  1  0.50272821  0.87397970  0.84833567  1
  O2-  O280  1  0.75291632  0.12452056  0.35328397  1
  O2-  O281  1  0.74748033  0.12582175  0.84439762  1
  O2-  O282  1  0.75369744  0.37509358  0.35245965  1
  O2-  O283  1  0.74748723  0.37577159  0.84294294  1
  O2-  O284  1  0.75214922  0.62515447  0.35371052  1
  O2-  O285  1  0.74919006  0.62379352  0.84073577  1
  O2-  O286  1  0.74994021  0.87536078  0.35088466  1
  O2-  O287  1  0.74794637  0.87524095  0.84919032  1
