# generated using pymatgen
data_BaYFeCuO5
_symmetry_space_group_name_H-M   'P 1'
_cell_length_a   15.66512759
_cell_length_b   15.66289340
_cell_length_c   15.47060808
_cell_angle_alpha   89.99550065
_cell_angle_beta   89.99825555
_cell_angle_gamma   90.00083264
_symmetry_Int_Tables_number   1
_chemical_formula_structural   BaYFeCuO5
_chemical_formula_sum   'Ba32 Y32 Fe32 Cu32 O160'
_cell_volume   3795.88731304
_cell_formula_units_Z   32
loop_
 _symmetry_equiv_pos_site_id
 _symmetry_equiv_pos_as_xyz
  1  'x, y, z'
loop_
 _atom_type_symbol
 _atom_type_oxidation_number
  Ba2+  2.0
  Y3+  3.0
  Fe3+  3.0
  Cu2+  2.0
  O2-  -2.0
loop_
 _atom_site_type_symbol
 _atom_site_label
 _atom_site_symmetry_multiplicity
 _atom_site_fract_x
 _atom_site_fract_y
 _atom_site_fract_z
 _atom_site_occupancy
  Ba2+  Ba0  1  0.00277696  0.00304073  0.01149377  1
  Ba2+  Ba1  1  0.00031214  0.00732215  0.50758517  1
  Ba2+  Ba2  1  0.00362283  0.25512988  0.00079590  1
  Ba2+  Ba3  1  0.00729407  0.24516455  0.51784290  1
  Ba2+  Ba4  1  -0.00866746  0.49690922  0.00164305  1
  Ba2+  Ba5  1  0.00588851  0.50267057  0.51303203  1
  Ba2+  Ba6  1  -0.01111840  0.74667373  0.01168473  1
  Ba2+  Ba7  1  -0.00250576  0.74685737  0.50144561  1
  Ba2+  Ba8  1  0.24824054  0.00245165  0.01163543  1
  Ba2+  Ba9  1  0.25544959  0.00704836  0.50621403  1
  Ba2+  Ba10  1  0.24352864  0.25257216  0.00588235  1
  Ba2+  Ba11  1  0.25029609  0.24715227  0.51835756  1
  Ba2+  Ba12  1  0.25761998  0.49879538  0.00696723  1
  Ba2+  Ba13  1  0.25194849  0.50024440  0.51273069  1
  Ba2+  Ba14  1  0.26181665  0.74688069  0.01169964  1
  Ba2+  Ba15  1  0.25709250  0.74634272  0.50190084  1
  Ba2+  Ba16  1  0.50038116  -0.01056701  0.01830913  1
  Ba2+  Ba17  1  0.49407635  0.00091696  0.50601727  1
  Ba2+  Ba18  1  0.49970456  0.26006722  0.01696652  1
  Ba2+  Ba19  1  0.49583710  0.24734288  0.51126758  1
  Ba2+  Ba20  1  0.50022327  0.50368798  0.02155997  1
  Ba2+  Ba21  1  0.49282326  0.49716341  0.51506203  1
  Ba2+  Ba22  1  0.50059072  0.74632236  0.02341913  1
  Ba2+  Ba23  1  0.49198401  0.75450355  0.51072366  1
  Ba2+  Ba24  1  0.74901992  -0.01040391  0.01716365  1
  Ba2+  Ba25  1  0.74959261  0.00022562  0.50610150  1
  Ba2+  Ba26  1  0.75185774  0.26176266  0.01031196  1
  Ba2+  Ba27  1  0.74564078  0.24550891  0.51214949  1
  Ba2+  Ba28  1  0.75234099  0.50203967  0.01644188  1
  Ba2+  Ba29  1  0.74959875  0.49929196  0.51622275  1
  Ba2+  Ba30  1  0.74877292  0.74569601  0.02230996  1
  Ba2+  Ba31  1  0.75322883  0.75482011  0.51066338  1
  Y3+  Y32  1  0.00198797  0.00090119  0.25760972  1
  Y3+  Y33  1  0.00260863  0.00341267  0.75841526  1
  Y3+  Y34  1  0.00220489  0.24893109  0.25441520  1
  Y3+  Y35  1  0.00307234  0.24966961  0.76015889  1
  Y3+  Y36  1  -0.00103981  0.50035285  0.25524088  1
  Y3+  Y37  1  -0.00119075  0.49898455  0.76062315  1
  Y3+  Y38  1  -0.00120733  0.74960692  0.25718115  1
  Y3+  Y39  1  -0.00112621  0.74780962  0.75904567  1
  Y3+  Y40  1  0.25007785  0.00191130  0.26032190  1
  Y3+  Y41  1  0.25009141  0.00228801  0.75555320  1
  Y3+  Y42  1  0.24856124  0.24751841  0.25740657  1
  Y3+  Y43  1  0.24769345  0.24871941  0.75766607  1
  Y3+  Y44  1  0.25193292  0.50219713  0.25800167  1
  Y3+  Y45  1  0.25128865  0.49956380  0.75769090  1
  Y3+  Y46  1  0.25338310  0.74869186  0.26010395  1
  Y3+  Y47  1  0.25380336  0.74907094  0.75648379  1
  Y3+  Y48  1  0.49764210  -0.00034831  0.26124417  1
  Y3+  Y49  1  0.49774079  -0.00195506  0.75241567  1
  Y3+  Y50  1  0.49916040  0.24986597  0.25874535  1
  Y3+  Y51  1  0.49862648  0.25041625  0.75387890  1
  Y3+  Y52  1  0.49794120  0.50125452  0.25701010  1
  Y3+  Y53  1  0.49770561  0.50145905  0.75369670  1
  Y3+  Y54  1  0.49647697  0.74945192  0.26014183  1
  Y3+  Y55  1  0.49710550  0.74991326  0.75234634  1
  Y3+  Y56  1  0.75063996  -0.00151671  0.25800737  1
  Y3+  Y57  1  0.74931401  -0.00049885  0.75563162  1
  Y3+  Y58  1  0.75026410  0.25194837  0.25514572  1
  Y3+  Y59  1  0.75087411  0.25110978  0.75738433  1
  Y3+  Y60  1  0.75059150  0.49972896  0.25364962  1
  Y3+  Y61  1  0.75202874  0.50031538  0.75783600  1
  Y3+  Y62  1  0.75099324  0.75038219  0.25708508  1
  Y3+  Y63  1  0.75054836  0.74850806  0.75493148  1
  Fe3+  Fe64  1  0.87413883  0.62369385  0.37710571  1
  Fe3+  Fe65  1  0.62478571  0.87501460  0.37716425  1
  Fe3+  Fe66  1  0.12496190  0.37508294  0.37773093  1
  Fe3+  Fe67  1  0.12590986  0.62521435  0.88162542  1
  Fe3+  Fe68  1  0.87397510  0.87450678  0.87742786  1
  Fe3+  Fe69  1  0.62448963  0.62450233  0.37920710  1
  Fe3+  Fe70  1  0.62391574  0.12434058  0.88125686  1
  Fe3+  Fe71  1  0.37628919  0.37546976  0.87526745  1
  Fe3+  Fe72  1  0.37372010  0.37411958  0.37572114  1
  Fe3+  Fe73  1  0.12518871  0.87493988  0.37964796  1
  Fe3+  Fe74  1  0.62431872  0.87303987  0.87516579  1
  Fe3+  Fe75  1  0.87598191  0.37438883  0.38028917  1
  Fe3+  Fe76  1  0.87528832  0.12638750  0.37541778  1
  Fe3+  Fe77  1  0.62510665  0.37506570  0.37719479  1
  Fe3+  Fe78  1  0.12559511  0.87372062  0.88102730  1
  Fe3+  Fe79  1  0.37656833  0.12468828  0.88046571  1
  Fe3+  Fe80  1  0.87341588  0.12462511  0.87990281  1
  Fe3+  Fe81  1  0.37609392  0.87435984  0.87671363  1
  Fe3+  Fe82  1  0.62401363  0.37683454  0.87459993  1
  Fe3+  Fe83  1  0.62385198  0.62552994  0.87458417  1
  Fe3+  Fe84  1  0.12522992  0.62585157  0.63996937  1
  Fe3+  Fe85  1  0.62507526  0.12501256  0.13435823  1
  Fe3+  Fe86  1  0.62459550  0.12404114  0.63835258  1
  Fe3+  Fe87  1  0.62480656  0.62554186  0.63277705  1
  Fe3+  Fe88  1  0.12550737  0.37622301  0.13690565  1
  Fe3+  Fe89  1  0.87711718  0.87603412  0.63711484  1
  Fe3+  Fe90  1  0.87606043  0.37402279  0.63546898  1
  Fe3+  Fe91  1  0.12514013  0.62481129  0.13529631  1
  Fe3+  Fe92  1  0.12590828  0.87384300  0.13612384  1
  Fe3+  Fe93  1  0.87526563  0.12554499  0.13381167  1
  Fe3+  Fe94  1  0.37468998  0.12552076  0.13506848  1
  Fe3+  Fe95  1  0.12580316  0.87483038  0.63517216  1
  Cu2+  Cu96  1  0.12486556  0.62435119  0.36292808  1
  Cu2+  Cu97  1  0.37574442  0.62329289  0.37308556  1
  Cu2+  Cu98  1  0.37726042  0.62514605  0.87172176  1
  Cu2+  Cu99  1  0.62539308  0.12560202  0.36069030  1
  Cu2+  Cu100  1  0.12487902  0.12624565  0.37188116  1
  Cu2+  Cu101  1  0.87374920  0.37481213  0.87011619  1
  Cu2+  Cu102  1  0.87288882  0.62545945  0.87183518  1
  Cu2+  Cu103  1  0.12601808  0.12397810  0.87477858  1
  Cu2+  Cu104  1  0.12601815  0.37626218  0.86376893  1
  Cu2+  Cu105  1  0.37448024  0.12681656  0.37034151  1
  Cu2+  Cu106  1  0.87579667  0.87554384  0.36382697  1
  Cu2+  Cu107  1  0.37408871  0.87580690  0.37218015  1
  Cu2+  Cu108  1  0.37396196  0.37427283  0.65168850  1
  Cu2+  Cu109  1  0.37284079  0.87589553  0.64114009  1
  Cu2+  Cu110  1  0.62482742  0.37497013  0.64723885  1
  Cu2+  Cu111  1  0.62494080  0.87510708  0.64494689  1
  Cu2+  Cu112  1  0.87611706  0.87581112  0.15249206  1
  Cu2+  Cu113  1  0.12500863  0.37542160  0.65331215  1
  Cu2+  Cu114  1  0.12553418  0.12427074  0.64408681  1
  Cu2+  Cu115  1  0.37373835  0.62494676  0.64111857  1
  Cu2+  Cu116  1  0.87661798  0.37471132  0.14236216  1
  Cu2+  Cu117  1  0.12526774  0.12507984  0.14102388  1
  Cu2+  Cu118  1  0.62421760  0.87486390  0.15605400  1
  Cu2+  Cu119  1  0.87577363  0.62450931  0.14354746  1
  Cu2+  Cu120  1  0.37379033  0.37438701  0.15188990  1
  Cu2+  Cu121  1  0.37480012  0.12513499  0.64399618  1
  Cu2+  Cu122  1  0.62444919  0.37530820  0.15246427  1
  Cu2+  Cu123  1  0.87589931  0.62477415  0.64935355  1
  Cu2+  Cu124  1  0.87522501  0.12514616  0.65316023  1
  Cu2+  Cu125  1  0.37394661  0.87583578  0.15407000  1
  Cu2+  Cu126  1  0.37420782  0.62470451  0.14395938  1
  Cu2+  Cu127  1  0.62469536  0.62516011  0.15630093  1
  O2-  O128  1  0.12556814  0.12358464  0.00737731  1
  O2-  O129  1  0.12486496  0.12542480  0.50769356  1
  O2-  O130  1  0.12456674  0.37765993  0.01621505  1
  O2-  O131  1  0.12513846  0.37469347  0.49805526  1
  O2-  O132  1  0.12521236  0.62547944  0.00875610  1
  O2-  O133  1  0.12448955  0.62614445  0.51939310  1
  O2-  O134  1  0.12535919  0.87344423  0.00811041  1
  O2-  O135  1  0.12428246  0.87484392  0.50815152  1
  O2-  O136  1  0.37694652  0.12447455  0.00686215  1
  O2-  O137  1  0.37549736  0.12701580  0.50728416  1
  O2-  O138  1  0.37786347  0.37618747  -0.00430844  1
  O2-  O139  1  0.37319731  0.37303696  0.49619976  1
  O2-  O140  1  0.37739800  0.62493466  0.00827089  1
  O2-  O141  1  0.37450571  0.62308342  0.50729138  1
  O2-  O142  1  0.37784983  0.87381526  -0.00288120  1
  O2-  O143  1  0.37264600  0.87637705  0.50607749  1
  O2-  O144  1  0.62449428  0.12460478  0.00721713  1
  O2-  O145  1  0.62555608  0.12417369  0.51769570  1
  O2-  O146  1  0.62372784  0.37815460  -0.00496159  1
  O2-  O147  1  0.62598658  0.37407261  0.49715805  1
  O2-  O148  1  0.62458134  0.62552206  -0.00509768  1
  O2-  O149  1  0.62544148  0.62476430  0.50506247  1
  O2-  O150  1  0.62453924  0.87130334  -0.00467338  1
  O2-  O151  1  0.62622523  0.87651069  0.49766272  1
  O2-  O152  1  0.87307471  0.12453731  0.00664710  1
  O2-  O153  1  0.87457311  0.12668568  0.49593103  1
  O2-  O154  1  0.87438622  0.37486983  0.00630215  1
  O2-  O155  1  0.87605122  0.37380185  0.50612303  1
  O2-  O156  1  0.87258549  0.62544840  0.00760692  1
  O2-  O157  1  0.87507845  0.62302868  0.49755852  1
  O2-  O158  1  0.87209652  0.87351465  -0.00225865  1
  O2-  O159  1  0.87821158  0.87682136  0.51652040  1
  O2-  O160  1  0.12510564  -0.00293451  0.16412479  1
  O2-  O161  1  0.12416039  -0.00234567  0.66615698  1
  O2-  O162  1  0.12556100  0.25137650  0.16365139  1
  O2-  O163  1  0.12493480  0.25112252  0.66699697  1
  O2-  O164  1  0.12519609  0.50170372  0.16626357  1
  O2-  O165  1  0.12410838  0.50032288  0.66649155  1
  O2-  O166  1  0.12487732  0.75002061  0.16513768  1
  O2-  O167  1  0.12456187  0.75129598  0.66816658  1
  O2-  O168  1  0.37546524  0.00190197  0.16373863  1
  O2-  O169  1  0.37425216  0.00017597  0.66659780  1
  O2-  O170  1  0.37523296  0.24828812  0.16103499  1
  O2-  O171  1  0.37419565  0.25159619  0.66704576  1
  O2-  O172  1  0.37481959  0.49831674  0.16541583  1
  O2-  O173  1  0.37427703  0.49768352  0.66263165  1
  O2-  O174  1  0.37457996  0.75170817  0.16745810  1
  O2-  O175  1  0.37344159  0.75041876  0.66318482  1
  O2-  O176  1  0.62462571  0.00166345  0.16212411  1
  O2-  O177  1  0.62521869  0.00000373  0.66865235  1
  O2-  O178  1  0.62555668  0.24817358  0.16125713  1
  O2-  O179  1  0.62591081  0.24962788  0.66783889  1
  O2-  O180  1  0.62475551  0.49998981  0.16521420  1
  O2-  O181  1  0.62506718  0.50140536  0.65874291  1
  O2-  O182  1  0.62515052  0.75044118  0.16740843  1
  O2-  O183  1  0.62609266  0.74866005  0.65815297  1
  O2-  O184  1  0.87513172  0.00176680  0.16198707  1
  O2-  O185  1  0.87615905  -0.00003712  0.66827582  1
  O2-  O186  1  0.87407225  0.24693025  0.16307340  1
  O2-  O187  1  0.87470107  0.25101130  0.66464911  1
  O2-  O188  1  0.87540879  0.49951224  0.16612090  1
  O2-  O189  1  0.87594104  0.49801781  0.66199862  1
  O2-  O190  1  0.87526555  0.75169022  0.16700720  1
  O2-  O191  1  0.87612003  0.75081984  0.66384813  1
  O2-  O192  1  -0.00242793  0.12445771  0.16255415  1
  O2-  O193  1  -0.00094905  0.12540883  0.66819108  1
  O2-  O194  1  0.00261884  0.37493496  0.16871599  1
  O2-  O195  1  -0.00171055  0.37410086  0.66495927  1
  O2-  O196  1  0.00302043  0.62599679  0.16467867  1
  O2-  O197  1  0.00076412  0.62490690  0.67041804  1
  O2-  O198  1  0.00247350  0.87479786  0.16375873  1
  O2-  O199  1  0.00171648  0.87509279  0.66943756  1
  O2-  O200  1  0.25283679  0.12425136  0.16314011  1
  O2-  O201  1  0.25004297  0.12500208  0.66833248  1
  O2-  O202  1  0.24936967  0.37527249  0.16430659  1
  O2-  O203  1  0.25019931  0.37500620  0.66650340  1
  O2-  O204  1  0.24716938  0.62584850  0.16470388  1
  O2-  O205  1  0.24810125  0.62444717  0.67112611  1
  O2-  O206  1  0.24833351  0.87487394  0.16383457  1
  O2-  O207  1  0.24644420  0.87535778  0.66834722  1
  O2-  O208  1  0.50033838  0.12529806  0.16155126  1
  O2-  O209  1  0.50131586  0.12537213  0.66725568  1
  O2-  O210  1  0.49935107  0.37438851  0.16329641  1
  O2-  O211  1  0.49848905  0.37379290  0.66001155  1
  O2-  O212  1  0.50069122  0.62534702  0.16692606  1
  O2-  O213  1  0.50209464  0.62526901  0.65950486  1
  O2-  O214  1  0.49917239  0.87544652  0.16469091  1
  O2-  O215  1  0.50014311  0.87511177  0.66073932  1
  O2-  O216  1  0.74953102  0.12416565  0.16070920  1
  O2-  O217  1  0.74954220  0.12474985  0.66739139  1
  O2-  O218  1  0.74878713  0.37511314  0.16538785  1
  O2-  O219  1  0.75254994  0.37467599  0.66121861  1
  O2-  O220  1  0.74889517  0.62509380  0.16610157  1
  O2-  O221  1  0.74898513  0.62472403  0.65983349  1
  O2-  O222  1  0.74996542  0.87560365  0.16449993  1
  O2-  O223  1  0.75168056  0.87574243  0.66268530  1
  O2-  O224  1  0.12433479  -0.00205574  0.34956586  1
  O2-  O225  1  0.12571680  -0.00418010  0.85035882  1
  O2-  O226  1  0.12375192  0.25233885  0.34481976  1
  O2-  O227  1  0.12493720  0.25120547  0.85139292  1
  O2-  O228  1  0.12407853  0.49979193  0.34809445  1
  O2-  O229  1  0.12554474  0.50242584  0.85036491  1
  O2-  O230  1  0.12414954  0.75041268  0.35144762  1
  O2-  O231  1  0.12434200  0.75004390  0.85105303  1
  O2-  O232  1  0.37434143  0.00134568  0.34826430  1
  O2-  O233  1  0.37495235  0.00060789  0.84893532  1
  O2-  O234  1  0.37504548  0.25188845  0.34314754  1
  O2-  O235  1  0.37660863  0.24838351  0.84985563  1
  O2-  O236  1  0.37511396  0.49758383  0.34729456  1
  O2-  O237  1  0.37509777  0.49854902  0.84503707  1
  O2-  O238  1  0.37478895  0.74926371  0.35121260  1
  O2-  O239  1  0.37580775  0.75194389  0.84515078  1
  O2-  O240  1  0.62604201  0.00011143  0.34617485  1
  O2-  O241  1  0.62546314  0.00050678  0.85065526  1
  O2-  O242  1  0.62593139  0.25092825  0.34487265  1
  O2-  O243  1  0.62462981  0.24845839  0.85071287  1
  O2-  O244  1  0.62627807  0.50043484  0.34838090  1
  O2-  O245  1  0.62484741  0.50032835  0.84069363  1
  O2-  O246  1  0.62561737  0.74881833  0.35059469  1
  O2-  O247  1  0.62456049  0.75047290  0.83951881  1
  O2-  O248  1  0.87525991  0.00090521  0.34619064  1
  O2-  O249  1  0.87406186  0.00071079  0.84988986  1
  O2-  O250  1  0.87519874  0.25222159  0.34523536  1
  O2-  O251  1  0.87412787  0.24671797  0.84987182  1
  O2-  O252  1  0.87440911  0.49807712  0.34837948  1
  O2-  O253  1  0.87433529  0.49966235  0.84652547  1
  O2-  O254  1  0.87540551  0.74923113  0.35051592  1
  O2-  O255  1  0.87499296  0.75231471  0.84512587  1
  O2-  O256  1  -0.00181276  0.12493338  0.34511819  1
  O2-  O257  1  -0.00278760  0.12412662  0.85294436  1
  O2-  O258  1  -0.00151016  0.37591446  0.34957446  1
  O2-  O259  1  0.00137799  0.37510409  0.84965113  1
  O2-  O260  1  -0.00161377  0.62483260  0.34751796  1
  O2-  O261  1  0.00216018  0.62506990  0.85394822  1
  O2-  O262  1  0.00217010  0.87465251  0.34873979  1
  O2-  O263  1  0.00085076  0.87509370  0.85208502  1
  O2-  O264  1  0.24931893  0.12521439  0.34673534  1
  O2-  O265  1  0.25380167  0.12482404  0.85234571  1
  O2-  O266  1  0.24916040  0.37532978  0.34476779  1
  O2-  O267  1  0.25131489  0.37435314  0.84998154  1
  O2-  O268  1  0.24905501  0.62486172  0.34865641  1
  O2-  O269  1  0.24845238  0.62623141  0.85433266  1
  O2-  O270  1  0.24676927  0.87457610  0.34846304  1
  O2-  O271  1  0.24963230  0.87391935  0.85139642  1
  O2-  O272  1  0.50137385  0.12552664  0.34646382  1
  O2-  O273  1  0.50043471  0.12391481  0.84993036  1
  O2-  O274  1  0.50030097  0.37450831  0.34618242  1
  O2-  O275  1  0.50031033  0.37454330  0.84106447  1
  O2-  O276  1  0.50306235  0.62423398  0.34973309  1
  O2-  O277  1  0.50150244  0.62507635  0.84094505  1
  O2-  O278  1  0.50131246  0.87575140  0.34819885  1
  O2-  O279  1  0.50004673  0.87603473  0.84208788  1
  O2-  O280  1  0.75153004  0.12581643  0.34413637  1
  O2-  O281  1  0.74875129  0.12481184  0.85066832  1
  O2-  O282  1  0.75189344  0.37436009  0.34886173  1
  O2-  O283  1  0.74710783  0.37422131  0.84361071  1
  O2-  O284  1  0.74926524  0.62491992  0.34856344  1
  O2-  O285  1  0.74753854  0.62532455  0.84230946  1
  O2-  O286  1  0.74969283  0.87540597  0.34826885  1
  O2-  O287  1  0.74937294  0.87534330  0.84311746  1
