# generated using pymatgen
data_BaYFeCuO5
_symmetry_space_group_name_H-M   'P 1'
_cell_length_a   15.66639101
_cell_length_b   15.66379021
_cell_length_c   15.46945527
_cell_angle_alpha   90.00466906
_cell_angle_beta   89.98994473
_cell_angle_gamma   90.00315458
_symmetry_Int_Tables_number   1
_chemical_formula_structural   BaYFeCuO5
_chemical_formula_sum   'Ba32 Y32 Fe32 Cu32 O160'
_cell_volume   3796.12785834
_cell_formula_units_Z   32
loop_
 _symmetry_equiv_pos_site_id
 _symmetry_equiv_pos_as_xyz
  1  'x, y, z'
loop_
 _atom_type_symbol
 _atom_type_oxidation_number
  Ba2+  2.0
  Y3+  3.0
  Fe3+  3.0
  Cu2+  2.0
  O2-  -2.0
loop_
 _atom_site_type_symbol
 _atom_site_label
 _atom_site_symmetry_multiplicity
 _atom_site_fract_x
 _atom_site_fract_y
 _atom_site_fract_z
 _atom_site_occupancy
  Ba2+  Ba0  1  -0.00911437  0.00013427  0.00563749  1
  Ba2+  Ba1  1  -0.00505221  0.00357689  0.50204972  1
  Ba2+  Ba2  1  -0.00631552  0.24616455  0.01044863  1
  Ba2+  Ba3  1  -0.00193437  0.24459651  0.51639507  1
  Ba2+  Ba4  1  -0.00720020  0.50307398  0.01199502  1
  Ba2+  Ba5  1  -0.00543861  0.49364986  0.51419108  1
  Ba2+  Ba6  1  -0.01015989  0.75011699  0.00757827  1
  Ba2+  Ba7  1  -0.00752680  0.75673088  0.49841233  1
  Ba2+  Ba8  1  0.25019493  -0.00039530  0.01640777  1
  Ba2+  Ba9  1  0.23737336  0.00361962  0.50158448  1
  Ba2+  Ba10  1  0.25112951  0.25065456  0.01461916  1
  Ba2+  Ba11  1  0.24168558  0.25090317  0.51741967  1
  Ba2+  Ba12  1  0.25116005  0.49964031  0.00611555  1
  Ba2+  Ba13  1  0.24994623  0.49042897  0.51850338  1
  Ba2+  Ba14  1  0.25071936  0.75076671  0.00670975  1
  Ba2+  Ba15  1  0.24450379  0.75404922  0.50241313  1
  Ba2+  Ba16  1  0.50680578  -0.00407438  0.02317369  1
  Ba2+  Ba17  1  0.51192340  -0.00156713  0.51031064  1
  Ba2+  Ba18  1  0.50633765  0.25427120  0.02156006  1
  Ba2+  Ba19  1  0.50676503  0.25640735  0.51377636  1
  Ba2+  Ba20  1  0.50815166  0.49898436  0.01626178  1
  Ba2+  Ba21  1  0.50959960  0.49685333  0.51008358  1
  Ba2+  Ba22  1  0.50895737  0.75118620  0.01729842  1
  Ba2+  Ba23  1  0.51286230  0.74938819  0.50688237  1
  Ba2+  Ba24  1  0.75154620  -0.00300505  0.01202949  1
  Ba2+  Ba25  1  0.75482323  -0.00213307  0.51221712  1
  Ba2+  Ba26  1  0.74903970  0.25015564  0.01715631  1
  Ba2+  Ba27  1  0.75200531  0.24991835  0.51593916  1
  Ba2+  Ba28  1  0.74770497  0.50151116  0.02197528  1
  Ba2+  Ba29  1  0.74618954  0.50033757  0.50598558  1
  Ba2+  Ba30  1  0.74927058  0.75003479  0.01811008  1
  Ba2+  Ba31  1  0.74937936  0.75271198  0.50219571  1
  Y3+  Y32  1  -0.00190361  0.00058933  0.26058682  1
  Y3+  Y33  1  -0.00487755  0.00108792  0.75590859  1
  Y3+  Y34  1  -0.00080634  0.24643978  0.25844879  1
  Y3+  Y35  1  -0.00201582  0.24783513  0.75460674  1
  Y3+  Y36  1  -0.00434316  0.50128003  0.25693089  1
  Y3+  Y37  1  -0.00036359  0.49986591  0.75872374  1
  Y3+  Y38  1  -0.00544876  0.75216907  0.25799912  1
  Y3+  Y39  1  -0.00303416  0.75099726  0.76068424  1
  Y3+  Y40  1  0.24707410  0.00113682  0.25804990  1
  Y3+  Y41  1  0.24880325  0.00140983  0.75593911  1
  Y3+  Y42  1  0.24857787  0.24794217  0.25611192  1
  Y3+  Y43  1  0.24904710  0.25013421  0.75492254  1
  Y3+  Y44  1  0.25094678  0.49915426  0.25539467  1
  Y3+  Y45  1  0.24997361  0.49948048  0.75829231  1
  Y3+  Y46  1  0.24994308  0.75178637  0.25775602  1
  Y3+  Y47  1  0.24931994  0.74862549  0.75888912  1
  Y3+  Y48  1  0.50244848  -0.00202549  0.25894410  1
  Y3+  Y49  1  0.50385298  -0.00043365  0.75262720  1
  Y3+  Y50  1  0.50232534  0.25233240  0.25763327  1
  Y3+  Y51  1  0.50260407  0.25133902  0.75207018  1
  Y3+  Y52  1  0.50470488  0.50010768  0.25919051  1
  Y3+  Y53  1  0.50396321  0.50041074  0.75368298  1
  Y3+  Y54  1  0.50498897  0.74989614  0.25965470  1
  Y3+  Y55  1  0.50526400  0.74842073  0.75500634  1
  Y3+  Y56  1  0.75166070  -0.00251896  0.26083160  1
  Y3+  Y57  1  0.75295199  -0.00110823  0.75388938  1
  Y3+  Y58  1  0.74975180  0.25117291  0.25925170  1
  Y3+  Y59  1  0.75097317  0.24860019  0.75285168  1
  Y3+  Y60  1  0.74855251  0.50230365  0.26002369  1
  Y3+  Y61  1  0.74720171  0.50077179  0.75371130  1
  Y3+  Y62  1  0.75039234  0.74998536  0.26043102  1
  Y3+  Y63  1  0.74925496  0.75111289  0.75539239  1
  Fe3+  Fe64  1  0.37783731  0.62521515  0.87926900  1
  Fe3+  Fe65  1  0.12399729  0.37454715  0.87896218  1
  Fe3+  Fe66  1  0.37527214  0.12600296  0.37941460  1
  Fe3+  Fe67  1  0.87482647  0.37411482  0.37618684  1
  Fe3+  Fe68  1  0.12480372  0.12487249  0.87836740  1
  Fe3+  Fe69  1  0.37726200  0.87586410  0.87718900  1
  Fe3+  Fe70  1  0.62588524  0.87502919  0.87491488  1
  Fe3+  Fe71  1  0.87287651  0.37443402  0.87636792  1
  Fe3+  Fe72  1  0.12406211  0.87533535  0.88052542  1
  Fe3+  Fe73  1  0.62611999  0.12578751  0.37700444  1
  Fe3+  Fe74  1  0.37755513  0.12471218  0.87878068  1
  Fe3+  Fe75  1  0.37526031  0.87569875  0.37997720  1
  Fe3+  Fe76  1  0.62544686  0.12501843  0.87608687  1
  Fe3+  Fe77  1  0.37449053  0.37434994  0.37640830  1
  Fe3+  Fe78  1  0.12405721  0.37472446  0.37458602  1
  Fe3+  Fe79  1  0.12391745  0.62379543  0.38045401  1
  Fe3+  Fe80  1  0.87185753  0.62435239  0.87680491  1
  Fe3+  Fe81  1  0.62602564  0.37483759  0.87453322  1
  Fe3+  Fe82  1  0.37730345  0.37415878  0.87645859  1
  Fe3+  Fe83  1  0.37471807  0.62405644  0.38055313  1
  Fe3+  Fe84  1  0.37515296  0.12458022  0.63257346  1
  Fe3+  Fe85  1  0.37628016  0.12476553  0.13586781  1
  Fe3+  Fe86  1  0.12296684  0.87525356  0.13653320  1
  Fe3+  Fe87  1  0.12343785  0.37465496  0.13424969  1
  Fe3+  Fe88  1  0.12399262  0.62597068  0.13707207  1
  Fe3+  Fe89  1  0.87507806  0.62577807  0.63609631  1
  Fe3+  Fe90  1  0.87377710  0.12448756  0.14032954  1
  Fe3+  Fe91  1  0.12367242  0.62558453  0.63564224  1
  Fe3+  Fe92  1  0.37535698  0.62530129  0.63379189  1
  Fe3+  Fe93  1  0.37444028  0.87462924  0.63299202  1
  Fe3+  Fe94  1  0.12322885  0.87509143  0.63895124  1
  Fe3+  Fe95  1  0.37609288  0.62548368  0.13664418  1
  Cu2+  Cu96  1  0.62559620  0.62494939  0.37258177  1
  Cu2+  Cu97  1  0.87412947  0.12596670  0.37206286  1
  Cu2+  Cu98  1  0.87309433  0.87508319  0.87319170  1
  Cu2+  Cu99  1  0.62577062  0.37445395  0.37178711  1
  Cu2+  Cu100  1  0.12413743  0.12643873  0.37172429  1
  Cu2+  Cu101  1  0.62573531  0.87581075  0.37200480  1
  Cu2+  Cu102  1  0.87429959  0.87583176  0.37197218  1
  Cu2+  Cu103  1  0.62551176  0.62470842  0.87278609  1
  Cu2+  Cu104  1  0.12454678  0.62489824  0.86833941  1
  Cu2+  Cu105  1  0.87530266  0.62443639  0.36832969  1
  Cu2+  Cu106  1  0.12442546  0.87474200  0.36237745  1
  Cu2+  Cu107  1  0.87347962  0.12537082  0.86308031  1
  Cu2+  Cu108  1  0.87489667  0.12419550  0.64169332  1
  Cu2+  Cu109  1  0.12403250  0.12433087  0.14675380  1
  Cu2+  Cu110  1  0.62645575  0.62557388  0.64084739  1
  Cu2+  Cu111  1  0.37555119  0.37523360  0.64982234  1
  Cu2+  Cu112  1  0.12397047  0.37528360  0.65472010  1
  Cu2+  Cu113  1  0.62696043  0.87436263  0.64064245  1
  Cu2+  Cu114  1  0.37516431  0.87448784  0.15299139  1
  Cu2+  Cu115  1  0.62587620  0.62561543  0.14471823  1
  Cu2+  Cu116  1  0.87456682  0.87562853  0.14386512  1
  Cu2+  Cu117  1  0.62685892  0.37541489  0.64062141  1
  Cu2+  Cu118  1  0.62565333  0.12455314  0.64692664  1
  Cu2+  Cu119  1  0.12406945  0.12360874  0.64361650  1
  Cu2+  Cu120  1  0.37493241  0.37574063  0.15002700  1
  Cu2+  Cu121  1  0.87444672  0.62526604  0.15250226  1
  Cu2+  Cu122  1  0.87515053  0.37587676  0.65089178  1
  Cu2+  Cu123  1  0.62633155  0.87505566  0.15621220  1
  Cu2+  Cu124  1  0.87506922  0.37465957  0.15218367  1
  Cu2+  Cu125  1  0.87606038  0.87371145  0.64326914  1
  Cu2+  Cu126  1  0.62563488  0.12460797  0.15344129  1
  Cu2+  Cu127  1  0.62612594  0.37530802  0.15492559  1
  O2-  O128  1  0.12755673  0.12569081  -0.00160037  1
  O2-  O129  1  0.12493305  0.12600568  0.50739092  1
  O2-  O130  1  0.12481686  0.37543601  0.00581281  1
  O2-  O131  1  0.12479102  0.37554913  0.49500741  1
  O2-  O132  1  0.12671024  0.62559374  0.01724647  1
  O2-  O133  1  0.12452099  0.62387244  0.50831773  1
  O2-  O134  1  0.12534608  0.87460428  0.00838514  1
  O2-  O135  1  0.12448297  0.87415886  0.51843514  1
  O2-  O136  1  0.37688989  0.12409241  0.00548257  1
  O2-  O137  1  0.37429671  0.12588460  0.50555715  1
  O2-  O138  1  0.37712279  0.37425751  -0.00368746  1
  O2-  O139  1  0.37216968  0.37383263  0.49659384  1
  O2-  O140  1  0.37635175  0.62601310  0.00750854  1
  O2-  O141  1  0.37347506  0.62391647  0.50701822  1
  O2-  O142  1  0.37725076  0.87611889  -0.00317365  1
  O2-  O143  1  0.37304229  0.87508584  0.50677115  1
  O2-  O144  1  0.62291565  0.12521239  -0.00396601  1
  O2-  O145  1  0.62439175  0.12679003  0.49764865  1
  O2-  O146  1  0.62523838  0.37453429  -0.00462892  1
  O2-  O147  1  0.62655860  0.37465597  0.50611421  1
  O2-  O148  1  0.62445380  0.62484743  0.00862304  1
  O2-  O149  1  0.62492485  0.62418980  0.50636086  1
  O2-  O150  1  0.62417125  0.87573015  -0.00441371  1
  O2-  O151  1  0.62582845  0.87530103  0.50623370  1
  O2-  O152  1  0.87357837  0.12474866  0.01871948  1
  O2-  O153  1  0.87514629  0.12601069  0.50788447  1
  O2-  O154  1  0.87303847  0.37475572  -0.00356222  1
  O2-  O155  1  0.87695107  0.37378657  0.49676345  1
  O2-  O156  1  0.87225424  0.62369106  -0.00168205  1
  O2-  O157  1  0.87809233  0.62498447  0.51536778  1
  O2-  O158  1  0.87369461  0.87525475  0.00846694  1
  O2-  O159  1  0.87610661  0.87509255  0.50749467  1
  O2-  O160  1  0.12634990  -0.00168142  0.16395360  1
  O2-  O161  1  0.12612975  -0.00217316  0.66933014  1
  O2-  O162  1  0.12565615  0.25142571  0.15976733  1
  O2-  O163  1  0.12593516  0.25112258  0.66469079  1
  O2-  O164  1  0.12567493  0.49965278  0.16392392  1
  O2-  O165  1  0.12578460  0.50193054  0.66403985  1
  O2-  O166  1  0.12561283  0.75105714  0.16807085  1
  O2-  O167  1  0.12676649  0.74825683  0.66756504  1
  O2-  O168  1  0.37490052  0.00148200  0.16527612  1
  O2-  O169  1  0.37435975  -0.00039043  0.66159072  1
  O2-  O170  1  0.37467663  0.24855739  0.16085766  1
  O2-  O171  1  0.37452851  0.24819350  0.66210396  1
  O2-  O172  1  0.37363054  0.50232038  0.16265937  1
  O2-  O173  1  0.37362675  0.50226445  0.66400720  1
  O2-  O174  1  0.37430860  0.74815841  0.16738989  1
  O2-  O175  1  0.37241567  0.74943488  0.66268678  1
  O2-  O176  1  0.62377206  -0.00060446  0.16541143  1
  O2-  O177  1  0.62402119  0.00053042  0.66174339  1
  O2-  O178  1  0.62396977  0.25056110  0.16285710  1
  O2-  O179  1  0.62476807  0.24874186  0.66233639  1
  O2-  O180  1  0.62493094  0.49892460  0.16684064  1
  O2-  O181  1  0.62458546  0.50071064  0.66315490  1
  O2-  O182  1  0.62482368  0.75154825  0.16783749  1
  O2-  O183  1  0.62500955  0.74994268  0.66491752  1
  O2-  O184  1  0.87481581  0.00183095  0.16859478  1
  O2-  O185  1  0.87591639  -0.00117427  0.66513293  1
  O2-  O186  1  0.87539892  0.24954665  0.16482045  1
  O2-  O187  1  0.87583850  0.25185558  0.66323667  1
  O2-  O188  1  0.87552920  0.49950154  0.16421921  1
  O2-  O189  1  0.87738577  0.50094294  0.66472558  1
  O2-  O190  1  0.87519441  0.74932871  0.16598283  1
  O2-  O191  1  0.87689095  0.74794868  0.66830576  1
  O2-  O192  1  -0.00072698  0.12504851  0.16591056  1
  O2-  O193  1  -0.00009197  0.12482516  0.66752016  1
  O2-  O194  1  0.00161655  0.37577625  0.16076225  1
  O2-  O195  1  0.00014938  0.37545111  0.66768737  1
  O2-  O196  1  0.00022957  0.62510597  0.16585480  1
  O2-  O197  1  0.00195727  0.62477037  0.66780314  1
  O2-  O198  1  0.00205621  0.87494394  0.16445559  1
  O2-  O199  1  0.00197666  0.87371535  0.67233887  1
  O2-  O200  1  0.25173715  0.12459362  0.16274822  1
  O2-  O201  1  0.25309891  0.12485076  0.66496514  1
  O2-  O202  1  0.24774173  0.37552091  0.16060740  1
  O2-  O203  1  0.24972158  0.37569413  0.66647356  1
  O2-  O204  1  0.25066734  0.62589855  0.16661419  1
  O2-  O205  1  0.24946638  0.62435963  0.66450072  1
  O2-  O206  1  0.24811693  0.87458777  0.16410900  1
  O2-  O207  1  0.25111970  0.87433381  0.66770408  1
  O2-  O208  1  0.49925406  0.12488542  0.16355141  1
  O2-  O209  1  0.49806019  0.12454729  0.66027736  1
  O2-  O210  1  0.50021586  0.37578239  0.16481055  1
  O2-  O211  1  0.49938988  0.37545525  0.66187274  1
  O2-  O212  1  0.49775251  0.62524333  0.16535861  1
  O2-  O213  1  0.49726051  0.62575803  0.66215628  1
  O2-  O214  1  0.50047545  0.87454281  0.16640984  1
  O2-  O215  1  0.49628992  0.87416034  0.65981473  1
  O2-  O216  1  0.74942971  0.12567902  0.16588273  1
  O2-  O217  1  0.74901760  0.12466576  0.66370664  1
  O2-  O218  1  0.75043716  0.37486806  0.16453269  1
  O2-  O219  1  0.75185660  0.37539554  0.66321165  1
  O2-  O220  1  0.75126992  0.62503899  0.16657741  1
  O2-  O221  1  0.75211458  0.62480015  0.66407626  1
  O2-  O222  1  0.74935386  0.87509216  0.16623955  1
  O2-  O223  1  0.75118148  0.87468805  0.66350202  1
  O2-  O224  1  0.12584878  -0.00113691  0.34893520  1
  O2-  O225  1  0.12685331  -0.00073014  0.85077284  1
  O2-  O226  1  0.12586203  0.25231313  0.34252161  1
  O2-  O227  1  0.12559719  0.25068719  0.84815456  1
  O2-  O228  1  0.12577906  0.50121304  0.34629391  1
  O2-  O229  1  0.12666280  0.49770728  0.84924939  1
  O2-  O230  1  0.12686606  0.74790147  0.35305438  1
  O2-  O231  1  0.12614361  0.75202744  0.85120184  1
  O2-  O232  1  0.37440890  0.00014668  0.35161681  1
  O2-  O233  1  0.37424896  0.00128763  0.84506998  1
  O2-  O234  1  0.37421014  0.24908283  0.34469431  1
  O2-  O235  1  0.37463665  0.24855499  0.84640176  1
  O2-  O236  1  0.37340660  0.50104460  0.34699145  1
  O2-  O237  1  0.37404255  0.50056661  0.84864408  1
  O2-  O238  1  0.37239429  0.75001569  0.35363979  1
  O2-  O239  1  0.37463748  0.74955984  0.84756053  1
  O2-  O240  1  0.62307480  0.00194986  0.34814165  1
  O2-  O241  1  0.62423519  0.00033832  0.84318939  1
  O2-  O242  1  0.62368021  0.24861508  0.34540567  1
  O2-  O243  1  0.62394837  0.24975042  0.84315584  1
  O2-  O244  1  0.62440847  0.50037136  0.35030041  1
  O2-  O245  1  0.62413269  0.49787666  0.84515720  1
  O2-  O246  1  0.62444002  0.75000570  0.35132230  1
  O2-  O247  1  0.62372395  0.75158938  0.84685350  1
  O2-  O248  1  0.87565695  0.00049127  0.35038882  1
  O2-  O249  1  0.87459107  0.00141917  0.84922783  1
  O2-  O250  1  0.87561932  0.25152928  0.34540578  1
  O2-  O251  1  0.87583688  0.25066729  0.84616715  1
  O2-  O252  1  0.87627339  0.49944120  0.34807787  1
  O2-  O253  1  0.87541917  0.49904131  0.84497344  1
  O2-  O254  1  0.87565772  0.74914914  0.35057685  1
  O2-  O255  1  0.87553911  0.74835855  0.84929113  1
  O2-  O256  1  -0.00055492  0.12516357  0.34898198  1
  O2-  O257  1  0.00018119  0.12476876  0.85100195  1
  O2-  O258  1  0.00035867  0.37595299  0.34245432  1
  O2-  O259  1  0.00092604  0.37537096  0.85128772  1
  O2-  O260  1  0.00248912  0.62543268  0.34967445  1
  O2-  O261  1  -0.00128506  0.62407968  0.85069997  1
  O2-  O262  1  0.00111132  0.87440945  0.34793844  1
  O2-  O263  1  0.00197146  0.87532655  0.85504007  1
  O2-  O264  1  0.25306280  0.12457766  0.34767942  1
  O2-  O265  1  0.25179220  0.12520973  0.84807333  1
  O2-  O266  1  0.24993896  0.37526149  0.34170961  1
  O2-  O267  1  0.24949858  0.37456438  0.85006936  1
  O2-  O268  1  0.24975976  0.62518730  0.35066206  1
  O2-  O269  1  0.25238676  0.62536924  0.85069818  1
  O2-  O270  1  0.25174402  0.87538140  0.34951933  1
  O2-  O271  1  0.24991614  0.87433943  0.84986265  1
  O2-  O272  1  0.49811425  0.12515561  0.34745128  1
  O2-  O273  1  0.49884379  0.12458443  0.84283839  1
  O2-  O274  1  0.49785765  0.37532944  0.34802198  1
  O2-  O275  1  0.50004466  0.37464059  0.84229608  1
  O2-  O276  1  0.49565346  0.62551860  0.34949215  1
  O2-  O277  1  0.49772706  0.62478615  0.84629724  1
  O2-  O278  1  0.49630361  0.87456465  0.35056503  1
  O2-  O279  1  0.50001085  0.87536905  0.84025439  1
  O2-  O280  1  0.74858039  0.12526226  0.34739426  1
  O2-  O281  1  0.74929024  0.12548201  0.84705758  1
  O2-  O282  1  0.75169427  0.37562745  0.34752973  1
  O2-  O283  1  0.74955815  0.37404921  0.84344310  1
  O2-  O284  1  0.75157214  0.62503191  0.35075306  1
  O2-  O285  1  0.75077605  0.62463851  0.84482529  1
  O2-  O286  1  0.75009921  0.87504835  0.34951066  1
  O2-  O287  1  0.74823157  0.87547123  0.84555383  1
