# generated using pymatgen
data_BaYFeCuO5
_symmetry_space_group_name_H-M   'P 1'
_cell_length_a   15.66886773
_cell_length_b   15.66754506
_cell_length_c   15.48193675
_cell_angle_alpha   89.99901574
_cell_angle_beta   89.99815874
_cell_angle_gamma   90.00212135
_symmetry_Int_Tables_number   1
_chemical_formula_structural   BaYFeCuO5
_chemical_formula_sum   'Ba32 Y32 Fe32 Cu32 O160'
_cell_volume   3800.70231417
_cell_formula_units_Z   32
loop_
 _symmetry_equiv_pos_site_id
 _symmetry_equiv_pos_as_xyz
  1  'x, y, z'
loop_
 _atom_type_symbol
 _atom_type_oxidation_number
  Ba2+  2.0
  Y3+  3.0
  Fe3+  3.0
  Cu2+  2.0
  O2-  -2.0
loop_
 _atom_site_type_symbol
 _atom_site_label
 _atom_site_symmetry_multiplicity
 _atom_site_fract_x
 _atom_site_fract_y
 _atom_site_fract_z
 _atom_site_occupancy
  Ba2+  Ba0  1  0.00526261  -0.00363404  0.01149972  1
  Ba2+  Ba1  1  0.00608793  -0.00574524  0.51609409  1
  Ba2+  Ba2  1  0.00494907  0.25402891  -0.00984024  1
  Ba2+  Ba3  1  0.00012220  0.24828848  0.51661306  1
  Ba2+  Ba4  1  0.00589923  0.49604210  -0.00001176  1
  Ba2+  Ba5  1  0.00001863  0.50082964  0.51662098  1
  Ba2+  Ba6  1  0.00635170  0.75301439  0.02187587  1
  Ba2+  Ba7  1  0.00562485  0.75729138  0.51494969  1
  Ba2+  Ba8  1  0.25259938  -0.00024081  0.01734186  1
  Ba2+  Ba9  1  0.25134123  0.00020477  0.51656125  1
  Ba2+  Ba10  1  0.25076815  0.25055085  0.00464472  1
  Ba2+  Ba11  1  0.25930306  0.24489670  0.50984998  1
  Ba2+  Ba12  1  0.25413663  0.50308522  0.01261382  1
  Ba2+  Ba13  1  0.25356387  0.49748415  0.51107630  1
  Ba2+  Ba14  1  0.25373573  0.74796009  0.02129186  1
  Ba2+  Ba15  1  0.24489751  0.75756191  0.51473798  1
  Ba2+  Ba16  1  0.50242869  0.00000209  0.01576420  1
  Ba2+  Ba17  1  0.49635010  0.00480808  0.51180166  1
  Ba2+  Ba18  1  0.49939228  0.24853424  0.02289246  1
  Ba2+  Ba19  1  0.49766184  0.25032876  0.51080134  1
  Ba2+  Ba20  1  0.49589187  0.50214601  0.01257416  1
  Ba2+  Ba21  1  0.50046313  0.48738954  0.50625712  1
  Ba2+  Ba22  1  0.49827610  0.74987594  0.00593013  1
  Ba2+  Ba23  1  0.49956039  0.75967668  0.50605131  1
  Ba2+  Ba24  1  0.74026568  -0.00240174  0.01025475  1
  Ba2+  Ba25  1  0.74476510  -0.00270567  0.51270157  1
  Ba2+  Ba26  1  0.74121799  0.25015316  0.00694671  1
  Ba2+  Ba27  1  0.74173607  0.25340834  0.51746650  1
  Ba2+  Ba28  1  0.74483684  0.49546383  0.00136781  1
  Ba2+  Ba29  1  0.74695029  0.48969232  0.51210067  1
  Ba2+  Ba30  1  0.74219371  0.75583530  0.00682494  1
  Ba2+  Ba31  1  0.75048392  0.75872668  0.50659148  1
  Y3+  Y32  1  0.00106986  -0.00282591  0.25664627  1
  Y3+  Y33  1  0.00225028  0.00002203  0.75602940  1
  Y3+  Y34  1  -0.00010189  0.24904000  0.25892388  1
  Y3+  Y35  1  0.00060126  0.24993712  0.75674013  1
  Y3+  Y36  1  0.00095831  0.50143085  0.25724454  1
  Y3+  Y37  1  -0.00015383  0.49899936  0.75691694  1
  Y3+  Y38  1  0.00203241  0.75248173  0.25763028  1
  Y3+  Y39  1  0.00157086  0.75129890  0.75368421  1
  Y3+  Y40  1  0.25185027  -0.00054480  0.25879937  1
  Y3+  Y41  1  0.25045885  0.00127355  0.75387398  1
  Y3+  Y42  1  0.25547492  0.24945763  0.25991259  1
  Y3+  Y43  1  0.25138772  0.24807948  0.75351534  1
  Y3+  Y44  1  0.25355391  0.50030561  0.25734267  1
  Y3+  Y45  1  0.25167698  0.50080671  0.75656683  1
  Y3+  Y46  1  0.25001168  0.75086934  0.25650362  1
  Y3+  Y47  1  0.25096191  0.75002490  0.75484833  1
  Y3+  Y48  1  0.50005019  0.00130460  0.25479123  1
  Y3+  Y49  1  0.50011126  0.00180479  0.75866519  1
  Y3+  Y50  1  0.49887092  0.25019537  0.26078464  1
  Y3+  Y51  1  0.49982099  0.24845539  0.75252747  1
  Y3+  Y52  1  0.49872113  0.49640399  0.25885616  1
  Y3+  Y53  1  0.49857060  0.49999347  0.75602112  1
  Y3+  Y54  1  0.49922495  0.75169184  0.25423327  1
  Y3+  Y55  1  0.49964773  0.74942961  0.76100134  1
  Y3+  Y56  1  0.74760931  -0.00105948  0.25217615  1
  Y3+  Y57  1  0.74653244  0.00057366  0.76191952  1
  Y3+  Y58  1  0.74608275  0.24983652  0.25592559  1
  Y3+  Y59  1  0.74773945  0.25035685  0.75810116  1
  Y3+  Y60  1  0.74799233  0.49818378  0.25898231  1
  Y3+  Y61  1  0.74922381  0.49768700  0.75699986  1
  Y3+  Y62  1  0.74953083  0.75299882  0.25528797  1
  Y3+  Y63  1  0.74770055  0.75107445  0.76032841  1
  Fe3+  Fe64  1  0.87526254  0.62573769  0.87946757  1
  Fe3+  Fe65  1  0.12686645  0.87478806  0.87567020  1
  Fe3+  Fe66  1  0.62159415  0.37426129  0.87536546  1
  Fe3+  Fe67  1  0.12528976  0.62568711  0.37854133  1
  Fe3+  Fe68  1  0.62505975  0.62556213  0.38137697  1
  Fe3+  Fe69  1  0.62505438  0.12422131  0.37648986  1
  Fe3+  Fe70  1  0.37504400  0.87605375  0.37578053  1
  Fe3+  Fe71  1  0.37497593  0.37469436  0.87545267  1
  Fe3+  Fe72  1  0.37527354  0.12511790  0.87664613  1
  Fe3+  Fe73  1  0.87481068  0.62552204  0.38034052  1
  Fe3+  Fe74  1  0.87490877  0.87655632  0.37589338  1
  Fe3+  Fe75  1  0.12538759  0.37449142  0.38087208  1
  Fe3+  Fe76  1  0.87403821  0.12412307  0.38042163  1
  Fe3+  Fe77  1  0.87527701  0.37393857  0.37906385  1
  Fe3+  Fe78  1  0.37412088  0.87530303  0.87654279  1
  Fe3+  Fe79  1  0.12531880  0.12392188  0.37912001  1
  Fe3+  Fe80  1  0.87609600  0.87468993  0.87807115  1
  Fe3+  Fe81  1  0.87479041  0.12452082  0.87932297  1
  Fe3+  Fe82  1  0.37572612  0.62593626  0.38014347  1
  Fe3+  Fe83  1  0.12626515  0.62622472  0.87552579  1
  Fe3+  Fe84  1  0.87471080  0.62431006  0.13430470  1
  Fe3+  Fe85  1  0.12612904  0.37460468  0.63592182  1
  Fe3+  Fe86  1  0.62491028  0.62389888  0.13945549  1
  Fe3+  Fe87  1  0.87563686  0.12545699  0.13339065  1
  Fe3+  Fe88  1  0.37577454  0.62594000  0.63351413  1
  Fe3+  Fe89  1  0.87370696  0.62624794  0.63503218  1
  Fe3+  Fe90  1  0.62393413  0.87525774  0.64074954  1
  Fe3+  Fe91  1  0.62448794  0.62518576  0.63465088  1
  Fe3+  Fe92  1  0.12529888  0.12672629  0.13819517  1
  Fe3+  Fe93  1  0.87562585  0.37447435  0.13596064  1
  Fe3+  Fe94  1  0.87353016  0.12365072  0.63601246  1
  Fe3+  Fe95  1  0.12575884  0.37435874  0.14003062  1
  Cu2+  Cu96  1  0.87455884  0.37478913  0.86347678  1
  Cu2+  Cu97  1  0.62477372  0.87565276  0.36080986  1
  Cu2+  Cu98  1  0.62543551  0.37383385  0.37169685  1
  Cu2+  Cu99  1  0.62464928  0.62389732  0.86303327  1
  Cu2+  Cu100  1  0.37565042  0.12378068  0.37172693  1
  Cu2+  Cu101  1  0.12697263  0.37549802  0.85738800  1
  Cu2+  Cu102  1  0.37465984  0.37473886  0.37317050  1
  Cu2+  Cu103  1  0.62305698  0.87552538  0.87267587  1
  Cu2+  Cu104  1  0.12584014  0.87563332  0.37119411  1
  Cu2+  Cu105  1  0.62282970  0.12593194  0.87311239  1
  Cu2+  Cu106  1  0.12609560  0.12431809  0.86192529  1
  Cu2+  Cu107  1  0.37441667  0.62511308  0.87161438  1
  Cu2+  Cu108  1  0.37524618  0.87526427  0.15022272  1
  Cu2+  Cu109  1  0.37579857  0.12441855  0.64159180  1
  Cu2+  Cu110  1  0.37505828  0.37504116  0.64130756  1
  Cu2+  Cu111  1  0.37486293  0.37445387  0.15198584  1
  Cu2+  Cu112  1  0.62458817  0.37551365  0.15258132  1
  Cu2+  Cu113  1  0.87510374  0.87500853  0.14572108  1
  Cu2+  Cu114  1  0.12481303  0.12538460  0.64800552  1
  Cu2+  Cu115  1  0.62466681  0.12557491  0.14225620  1
  Cu2+  Cu116  1  0.37627766  0.87476309  0.65146016  1
  Cu2+  Cu117  1  0.37622524  0.62471942  0.14400500  1
  Cu2+  Cu118  1  0.62380829  0.87405132  0.14282399  1
  Cu2+  Cu119  1  0.87477589  0.37440768  0.65175671  1
  Cu2+  Cu120  1  0.12640649  0.87563065  0.15275882  1
  Cu2+  Cu121  1  0.12587982  0.87572348  0.64400573  1
  Cu2+  Cu122  1  0.12521781  0.62462027  0.64739921  1
  Cu2+  Cu123  1  0.12524567  0.62387274  0.15216712  1
  Cu2+  Cu124  1  0.62510484  0.12447094  0.65145031  1
  Cu2+  Cu125  1  0.87346804  0.87568546  0.65265156  1
  Cu2+  Cu126  1  0.62389581  0.37503959  0.64447598  1
  Cu2+  Cu127  1  0.37446783  0.12529277  0.15132538  1
  O2-  O128  1  0.12392041  0.12804858  0.01811890  1
  O2-  O129  1  0.12347772  0.12394397  0.49946635  1
  O2-  O130  1  0.12475739  0.37415378  0.01988092  1
  O2-  O131  1  0.12405919  0.37464865  0.50745303  1
  O2-  O132  1  0.12593141  0.62543893  -0.00402690  1
  O2-  O133  1  0.12275369  0.62591037  0.49854915  1
  O2-  O134  1  0.12689468  0.87395344  -0.00408057  1
  O2-  O135  1  0.12518836  0.87599300  0.50698117  1
  O2-  O136  1  0.37410185  0.12602044  -0.00300150  1
  O2-  O137  1  0.37575043  0.12331649  0.50694126  1
  O2-  O138  1  0.37468757  0.37477023  -0.00401082  1
  O2-  O139  1  0.37351239  0.37521318  0.50681589  1
  O2-  O140  1  0.37449734  0.62458428  0.00751936  1
  O2-  O141  1  0.37589539  0.62644859  0.50639700  1
  O2-  O142  1  0.37313553  0.87504815  -0.00311091  1
  O2-  O143  1  0.37513390  0.87573648  0.49642196  1
  O2-  O144  1  0.62421760  0.12654280  0.00736801  1
  O2-  O145  1  0.62678863  0.12362756  0.49693841  1
  O2-  O146  1  0.62163058  0.37575118  -0.00377772  1
  O2-  O147  1  0.62592546  0.37403415  0.50721507  1
  O2-  O148  1  0.62594377  0.62312290  0.01911113  1
  O2-  O149  1  0.62608556  0.62620958  0.50841211  1
  O2-  O150  1  0.62304438  0.87388301  0.00779661  1
  O2-  O151  1  0.62582310  0.87492715  0.51969231  1
  O2-  O152  1  0.87673673  0.12610763  0.00653112  1
  O2-  O153  1  0.87342523  0.12339344  0.50647897  1
  O2-  O154  1  0.87758883  0.37576861  0.01632690  1
  O2-  O155  1  0.87605284  0.37411773  0.49915866  1
  O2-  O156  1  0.87530550  0.62469127  0.00696397  1
  O2-  O157  1  0.87449156  0.62573616  0.50664372  1
  O2-  O158  1  0.87816571  0.87319319  -0.00199937  1
  O2-  O159  1  0.87417279  0.87698787  0.49633162  1
  O2-  O160  1  0.12473534  0.00121268  0.16356202  1
  O2-  O161  1  0.12446478  0.00116275  0.66542716  1
  O2-  O162  1  0.12487582  0.25030014  0.17337075  1
  O2-  O163  1  0.12375410  0.25148872  0.66303393  1
  O2-  O164  1  0.12488672  0.49863514  0.16987087  1
  O2-  O165  1  0.12379543  0.49864980  0.66206839  1
  O2-  O166  1  0.12479311  0.74991324  0.16356310  1
  O2-  O167  1  0.12424252  0.74894903  0.66270413  1
  O2-  O168  1  0.37435019  0.00015446  0.16245488  1
  O2-  O169  1  0.37569212  -0.00160172  0.66463808  1
  O2-  O170  1  0.37502992  0.25015760  0.16659624  1
  O2-  O171  1  0.37484961  0.24974807  0.66309969  1
  O2-  O172  1  0.37504598  0.49826016  0.16773940  1
  O2-  O173  1  0.37492244  0.50374103  0.66275534  1
  O2-  O174  1  0.37513353  0.75114365  0.16598206  1
  O2-  O175  1  0.37576444  0.74834381  0.66225343  1
  O2-  O176  1  0.62516354  0.00013362  0.16261448  1
  O2-  O177  1  0.62575254  -0.00032674  0.66746838  1
  O2-  O178  1  0.62555460  0.25189524  0.16455696  1
  O2-  O179  1  0.62608386  0.24827566  0.66334338  1
  O2-  O180  1  0.62587498  0.49988377  0.17062362  1
  O2-  O181  1  0.62586630  0.50356370  0.66275409  1
  O2-  O182  1  0.62581962  0.74768080  0.16923886  1
  O2-  O183  1  0.62555700  0.74837730  0.66642751  1
  O2-  O184  1  0.87618748  0.00169738  0.16079389  1
  O2-  O185  1  0.87406693  0.00130637  0.66440162  1
  O2-  O186  1  0.87569242  0.24925165  0.16761875  1
  O2-  O187  1  0.87482755  0.24755741  0.66311134  1
  O2-  O188  1  0.87530823  0.50069891  0.16753431  1
  O2-  O189  1  0.87455834  0.50203045  0.66342204  1
  O2-  O190  1  0.87559694  0.74764474  0.16393622  1
  O2-  O191  1  0.87393952  0.74911932  0.66205178  1
  O2-  O192  1  -0.00084363  0.12519022  0.16793368  1
  O2-  O193  1  -0.00247634  0.12494520  0.66342851  1
  O2-  O194  1  -0.00000627  0.37530129  0.17110379  1
  O2-  O195  1  0.00148334  0.37505958  0.66325584  1
  O2-  O196  1  -0.00171894  0.62435837  0.16367067  1
  O2-  O197  1  -0.00266268  0.62500130  0.66258334  1
  O2-  O198  1  0.00117578  0.87461037  0.16390618  1
  O2-  O199  1  -0.00182510  0.87522292  0.66362569  1
  O2-  O200  1  0.24957866  0.12574571  0.16666120  1
  O2-  O201  1  0.24897467  0.12480456  0.66284377  1
  O2-  O202  1  0.24981939  0.37510870  0.16837996  1
  O2-  O203  1  0.24762174  0.37566636  0.66167657  1
  O2-  O204  1  0.24915091  0.62419735  0.16663348  1
  O2-  O205  1  0.25199598  0.62542777  0.65926775  1
  O2-  O206  1  0.25042538  0.87472260  0.16423286  1
  O2-  O207  1  0.25222102  0.87466045  0.66163893  1
  O2-  O208  1  0.49814368  0.12538973  0.16508785  1
  O2-  O209  1  0.50179365  0.12440273  0.66315565  1
  O2-  O210  1  0.49957842  0.37541415  0.16535877  1
  O2-  O211  1  0.49977399  0.37571955  0.66240851  1
  O2-  O212  1  0.50185958  0.62369207  0.17046347  1
  O2-  O213  1  0.50045818  0.62572382  0.66206776  1
  O2-  O214  1  0.49837991  0.87474595  0.16562661  1
  O2-  O215  1  0.50082360  0.87411536  0.66635142  1
  O2-  O216  1  0.75354876  0.12549478  0.16313937  1
  O2-  O217  1  0.75121176  0.12454135  0.66637596  1
  O2-  O218  1  0.75125078  0.37538428  0.16507821  1
  O2-  O219  1  0.75035643  0.37510812  0.66677038  1
  O2-  O220  1  0.75184637  0.62427389  0.16837263  1
  O2-  O221  1  0.74976010  0.62541263  0.66450591  1
  O2-  O222  1  0.75087726  0.87443094  0.16434683  1
  O2-  O223  1  0.74840879  0.87469067  0.66925171  1
  O2-  O224  1  0.12411015  0.00188827  0.34527953  1
  O2-  O225  1  0.12438531  -0.00110117  0.84775801  1
  O2-  O226  1  0.12309174  0.25071269  0.35254381  1
  O2-  O227  1  0.12439600  0.25038610  0.84805108  1
  O2-  O228  1  0.12355832  0.49941010  0.35150388  1
  O2-  O229  1  0.12394018  0.50097430  0.84570732  1
  O2-  O230  1  0.12447050  0.74821446  0.34676079  1
  O2-  O231  1  0.12421326  0.75040578  0.84275178  1
  O2-  O232  1  0.37597752  -0.00170959  0.34503792  1
  O2-  O233  1  0.37397833  0.00025299  0.84590706  1
  O2-  O234  1  0.37511466  0.24961387  0.35071741  1
  O2-  O235  1  0.37356763  0.25005193  0.84402118  1
  O2-  O236  1  0.37534693  0.50355352  0.35139405  1
  O2-  O237  1  0.37450683  0.49870972  0.84553307  1
  O2-  O238  1  0.37564515  0.74874595  0.34828588  1
  O2-  O239  1  0.37480608  0.75128378  0.84563805  1
  O2-  O240  1  0.62635492  0.00027245  0.34522183  1
  O2-  O241  1  0.62482558  0.00059246  0.85022520  1
  O2-  O242  1  0.62632887  0.24781332  0.34673031  1
  O2-  O243  1  0.62515078  0.25193726  0.84537386  1
  O2-  O244  1  0.62607530  0.50300867  0.35320252  1
  O2-  O245  1  0.62547480  0.49879343  0.84541174  1
  O2-  O246  1  0.62674219  0.74866188  0.35267792  1
  O2-  O247  1  0.62513088  0.74810832  0.84946239  1
  O2-  O248  1  0.87437814  0.00148110  0.34476869  1
  O2-  O249  1  0.87573867  0.00070065  0.84870129  1
  O2-  O250  1  0.87583685  0.24815204  0.34990167  1
  O2-  O251  1  0.87616252  0.24820529  0.84886661  1
  O2-  O252  1  0.87553848  0.50144605  0.35055251  1
  O2-  O253  1  0.87540243  0.50192661  0.84957082  1
  O2-  O254  1  0.87417264  0.74911154  0.34871485  1
  O2-  O255  1  0.87497045  0.74882423  0.84604093  1
  O2-  O256  1  -0.00187202  0.12478195  0.34966263  1
  O2-  O257  1  -0.00094931  0.12548346  0.84900307  1
  O2-  O258  1  0.00064644  0.37509228  0.34966391  1
  O2-  O259  1  0.00115012  0.37531783  0.84811819  1
  O2-  O260  1  -0.00174644  0.62523583  0.34775237  1
  O2-  O261  1  -0.00114003  0.62445460  0.84686868  1
  O2-  O262  1  -0.00205346  0.87490156  0.34643399  1
  O2-  O263  1  0.00056181  0.87499508  0.84474537  1
  O2-  O264  1  0.24860617  0.12524121  0.34870821  1
  O2-  O265  1  0.25039717  0.12550549  0.84589818  1
  O2-  O266  1  0.24649109  0.37547393  0.35117874  1
  O2-  O267  1  0.25085738  0.37530881  0.84384301  1
  O2-  O268  1  0.25121517  0.62486983  0.35021018  1
  O2-  O269  1  0.24786992  0.62479620  0.84217198  1
  O2-  O270  1  0.25192401  0.87443868  0.34646899  1
  O2-  O271  1  0.24981775  0.87480019  0.84224494  1
  O2-  O272  1  0.50191136  0.12441566  0.34788741  1
  O2-  O273  1  0.49738119  0.12546434  0.84490549  1
  O2-  O274  1  0.50011416  0.37522588  0.34993459  1
  O2-  O275  1  0.49867635  0.37560760  0.84195375  1
  O2-  O276  1  0.50061285  0.62600874  0.35427362  1
  O2-  O277  1  0.50118768  0.62435321  0.84684269  1
  O2-  O278  1  0.50036731  0.87370648  0.34838042  1
  O2-  O279  1  0.49766087  0.87451401  0.84731996  1
  O2-  O280  1  0.75157511  0.12455052  0.34615606  1
  O2-  O281  1  0.75247211  0.12536246  0.85132813  1
  O2-  O282  1  0.75293310  0.37508897  0.34657744  1
  O2-  O283  1  0.74858583  0.37541903  0.84952637  1
  O2-  O284  1  0.75068451  0.62504511  0.35216567  1
  O2-  O285  1  0.75194798  0.62440573  0.85061206  1
  O2-  O286  1  0.75029766  0.87500487  0.34716828  1
  O2-  O287  1  0.75147439  0.87451646  0.85082720  1
