# generated using pymatgen
data_BaYFeCuO5
_symmetry_space_group_name_H-M   'P 1'
_cell_length_a   15.66789824
_cell_length_b   15.66707409
_cell_length_c   15.48351777
_cell_angle_alpha   89.99726778
_cell_angle_beta   90.00191723
_cell_angle_gamma   89.99948842
_symmetry_Int_Tables_number   1
_chemical_formula_structural   BaYFeCuO5
_chemical_formula_sum   'Ba32 Y32 Fe32 Cu32 O160'
_cell_volume   3800.74099803
_cell_formula_units_Z   32
loop_
 _symmetry_equiv_pos_site_id
 _symmetry_equiv_pos_as_xyz
  1  'x, y, z'
loop_
 _atom_type_symbol
 _atom_type_oxidation_number
  Ba2+  2.0
  Y3+  3.0
  Fe3+  3.0
  Cu2+  2.0
  O2-  -2.0
loop_
 _atom_site_type_symbol
 _atom_site_label
 _atom_site_symmetry_multiplicity
 _atom_site_fract_x
 _atom_site_fract_y
 _atom_site_fract_z
 _atom_site_occupancy
  Ba2+  Ba0  1  -0.00334385  -0.00163452  0.00069598  1
  Ba2+  Ba1  1  0.00652598  0.00304434  0.51666476  1
  Ba2+  Ba2  1  -0.00223506  0.24985086  -0.00836472  1
  Ba2+  Ba3  1  0.00006937  0.25535815  0.51609407  1
  Ba2+  Ba4  1  -0.00606412  0.49389829  0.00710394  1
  Ba2+  Ba5  1  0.00106764  0.49594404  0.51611681  1
  Ba2+  Ba6  1  -0.00696533  0.75612249  0.01767355  1
  Ba2+  Ba7  1  0.00805767  0.74625786  0.51598463  1
  Ba2+  Ba8  1  0.24690270  -0.00644200  0.00765871  1
  Ba2+  Ba9  1  0.24408212  -0.00667231  0.51612625  1
  Ba2+  Ba10  1  0.24353642  0.25222033  0.00063901  1
  Ba2+  Ba11  1  0.24354262  0.25731301  0.51565078  1
  Ba2+  Ba12  1  0.25340170  0.49652245  0.01204041  1
  Ba2+  Ba13  1  0.24734686  0.49962169  0.52201982  1
  Ba2+  Ba14  1  0.25636405  0.75547782  0.01540006  1
  Ba2+  Ba15  1  0.24705185  0.74967756  0.52124296  1
  Ba2+  Ba16  1  0.50225587  -0.00760320  0.00669219  1
  Ba2+  Ba17  1  0.49907017  0.00072635  0.50596183  1
  Ba2+  Ba18  1  0.50057588  0.24960621  0.01664322  1
  Ba2+  Ba19  1  0.50434458  0.25556289  0.51181882  1
  Ba2+  Ba20  1  0.49939885  0.50762447  0.01518829  1
  Ba2+  Ba21  1  0.49434467  0.49601481  0.52259199  1
  Ba2+  Ba22  1  0.50134336  0.75024253  0.00625775  1
  Ba2+  Ba23  1  0.48913731  0.74829590  0.51764838  1
  Ba2+  Ba24  1  0.75381826  -0.00298419  0.00188545  1
  Ba2+  Ba25  1  0.75038458  0.00971137  0.50661723  1
  Ba2+  Ba26  1  0.75787645  0.24811886  0.00755955  1
  Ba2+  Ba27  1  0.75426100  0.25457479  0.51194034  1
  Ba2+  Ba28  1  0.75438517  0.50516338  0.01266045  1
  Ba2+  Ba29  1  0.75694057  0.49333830  0.51613451  1
  Ba2+  Ba30  1  0.75005099  0.75036766  0.00638826  1
  Ba2+  Ba31  1  0.75526573  0.74418014  0.51095796  1
  Y3+  Y32  1  0.00139700  -0.00279438  0.25803125  1
  Y3+  Y33  1  0.00029384  0.00162195  0.75760413  1
  Y3+  Y34  1  -0.00088209  0.25374020  0.26097137  1
  Y3+  Y35  1  -0.00068584  0.25067539  0.75610053  1
  Y3+  Y36  1  -0.00152917  0.49739543  0.25805389  1
  Y3+  Y37  1  -0.00091610  0.49692086  0.75646623  1
  Y3+  Y38  1  0.00064550  0.75260104  0.25728567  1
  Y3+  Y39  1  0.00013530  0.75019424  0.75566264  1
  Y3+  Y40  1  0.24868300  -0.00273998  0.25637948  1
  Y3+  Y41  1  0.24800440  -0.00163842  0.75801300  1
  Y3+  Y42  1  0.24921300  0.25184665  0.25720258  1
  Y3+  Y43  1  0.24520638  0.25040179  0.75694085  1
  Y3+  Y44  1  0.24988984  0.49919730  0.25473011  1
  Y3+  Y45  1  0.24790351  0.49861589  0.75709063  1
  Y3+  Y46  1  0.24946057  0.75270504  0.25465127  1
  Y3+  Y47  1  0.25062895  0.75155227  0.75630232  1
  Y3+  Y48  1  0.50059545  0.00094844  0.25658522  1
  Y3+  Y49  1  0.49841148  -0.00294965  0.75923009  1
  Y3+  Y50  1  0.50134713  0.24901307  0.25671300  1
  Y3+  Y51  1  0.50012408  0.25124809  0.75679379  1
  Y3+  Y52  1  0.49966822  0.50172581  0.25188156  1
  Y3+  Y53  1  0.50085632  0.50059447  0.75887024  1
  Y3+  Y54  1  0.49883436  0.74889967  0.25270571  1
  Y3+  Y55  1  0.49901142  0.75045339  0.76082968  1
  Y3+  Y56  1  0.75011647  0.00187556  0.25762157  1
  Y3+  Y57  1  0.75260838  -0.00031031  0.75937124  1
  Y3+  Y58  1  0.75123706  0.25094553  0.25813927  1
  Y3+  Y59  1  0.75438065  0.25170327  0.75752696  1
  Y3+  Y60  1  0.75248213  0.49940035  0.25427894  1
  Y3+  Y61  1  0.75183232  0.49866910  0.75909621  1
  Y3+  Y62  1  0.75147190  0.74858658  0.25461570  1
  Y3+  Y63  1  0.74972292  0.74936372  0.75996396  1
  Fe3+  Fe64  1  0.37493267  0.37634306  0.37536130  1
  Fe3+  Fe65  1  0.12578587  0.12566318  0.37871390  1
  Fe3+  Fe66  1  0.62404334  0.62409344  0.38011745  1
  Fe3+  Fe67  1  0.62556835  0.37545388  0.87985232  1
  Fe3+  Fe68  1  0.37540070  0.37464168  0.87685185  1
  Fe3+  Fe69  1  0.62494818  0.37692641  0.37552542  1
  Fe3+  Fe70  1  0.87598863  0.62540457  0.87518391  1
  Fe3+  Fe71  1  0.12458711  0.62484868  0.87980135  1
  Fe3+  Fe72  1  0.37445729  0.87422459  0.37668798  1
  Fe3+  Fe73  1  0.37421798  0.62443871  0.37543084  1
  Fe3+  Fe74  1  0.37389451  0.62513018  0.87580513  1
  Fe3+  Fe75  1  0.62500066  0.87378729  0.38139415  1
  Fe3+  Fe76  1  0.12619796  0.62435157  0.37465524  1
  Fe3+  Fe77  1  0.87576667  0.87513004  0.38123687  1
  Fe3+  Fe78  1  0.62493288  0.12528236  0.87813155  1
  Fe3+  Fe79  1  0.37401251  0.12578184  0.38040853  1
  Fe3+  Fe80  1  0.37445694  0.12451387  0.87914859  1
  Fe3+  Fe81  1  0.12406855  0.87316792  0.87603421  1
  Fe3+  Fe82  1  0.87607533  0.62409499  0.37669908  1
  Fe3+  Fe83  1  0.87626321  0.12622116  0.37921547  1
  Fe3+  Fe84  1  0.12321195  0.12506511  0.13633802  1
  Fe3+  Fe85  1  0.87481227  0.87507211  0.63498401  1
  Fe3+  Fe86  1  0.62520357  0.12532553  0.63883782  1
  Fe3+  Fe87  1  0.37414572  0.12532109  0.63554168  1
  Fe3+  Fe88  1  0.62618685  0.37492290  0.13428379  1
  Fe3+  Fe89  1  0.12403650  0.62538683  0.13264898  1
  Fe3+  Fe90  1  0.62491858  0.87487073  0.63505356  1
  Fe3+  Fe91  1  0.87646872  0.12494686  0.13901992  1
  Fe3+  Fe92  1  0.62641171  0.87554754  0.13985327  1
  Fe3+  Fe93  1  0.12357596  0.37371416  0.13647325  1
  Fe3+  Fe94  1  0.62524290  0.62406185  0.63528882  1
  Fe3+  Fe95  1  0.37386720  0.12446313  0.13445213  1
  Cu2+  Cu96  1  0.12475341  0.12437673  0.86489022  1
  Cu2+  Cu97  1  0.12454016  0.37572495  0.86397330  1
  Cu2+  Cu98  1  0.87575506  0.87380310  0.87007008  1
  Cu2+  Cu99  1  0.37399499  0.87483029  0.87264054  1
  Cu2+  Cu100  1  0.87493193  0.12472852  0.86139217  1
  Cu2+  Cu101  1  0.62481008  0.12592488  0.36469415  1
  Cu2+  Cu102  1  0.87440956  0.37549242  0.87214181  1
  Cu2+  Cu103  1  0.62552344  0.87494702  0.86162768  1
  Cu2+  Cu104  1  0.62518145  0.62437057  0.87281926  1
  Cu2+  Cu105  1  0.12550487  0.87429377  0.37354671  1
  Cu2+  Cu106  1  0.12567380  0.37646819  0.37274980  1
  Cu2+  Cu107  1  0.87512985  0.37584296  0.37232740  1
  Cu2+  Cu108  1  0.37453990  0.37386905  0.65405647  1
  Cu2+  Cu109  1  0.87597887  0.37349166  0.14081187  1
  Cu2+  Cu110  1  0.87505045  0.12463827  0.65030828  1
  Cu2+  Cu111  1  0.37620738  0.87665395  0.14196049  1
  Cu2+  Cu112  1  0.37537934  0.87583202  0.65162817  1
  Cu2+  Cu113  1  0.37482539  0.62436978  0.65446132  1
  Cu2+  Cu114  1  0.12428570  0.87570541  0.14870199  1
  Cu2+  Cu115  1  0.12411183  0.37516983  0.64486265  1
  Cu2+  Cu116  1  0.12464098  0.62452558  0.65503766  1
  Cu2+  Cu117  1  0.87488973  0.62510945  0.65121087  1
  Cu2+  Cu118  1  0.37358345  0.62575738  0.14818245  1
  Cu2+  Cu119  1  0.12423463  0.87485573  0.64414870  1
  Cu2+  Cu120  1  0.37471362  0.37377132  0.14712679  1
  Cu2+  Cu121  1  0.87405210  0.87682872  0.14395819  1
  Cu2+  Cu122  1  0.87540911  0.37482839  0.64469777  1
  Cu2+  Cu123  1  0.62593587  0.12491147  0.14862753  1
  Cu2+  Cu124  1  0.87683382  0.62532019  0.15148685  1
  Cu2+  Cu125  1  0.62560985  0.37502820  0.65381275  1
  Cu2+  Cu126  1  0.62621898  0.62613664  0.14006450  1
  Cu2+  Cu127  1  0.12494182  0.12506923  0.65174914  1
  O2-  O128  1  0.12307885  0.12523921  0.01622238  1
  O2-  O129  1  0.12794096  0.12531437  0.49914109  1
  O2-  O130  1  0.12321175  0.37293309  0.01607415  1
  O2-  O131  1  0.12610178  0.37703599  0.50821184  1
  O2-  O132  1  0.12430201  0.62582140  0.00542392  1
  O2-  O133  1  0.12731680  0.62367192  0.49503549  1
  O2-  O134  1  0.12369408  0.87323371  -0.00325524  1
  O2-  O135  1  0.12506225  0.87368163  0.50757779  1
  O2-  O136  1  0.37454220  0.12455601  0.00664507  1
  O2-  O137  1  0.37438058  0.12593276  0.50681387  1
  O2-  O138  1  0.37580684  0.37331038  -0.00308694  1
  O2-  O139  1  0.37542174  0.37598954  0.49552307  1
  O2-  O140  1  0.37421937  0.62502490  -0.00378904  1
  O2-  O141  1  0.37371131  0.62328078  0.49520840  1
  O2-  O142  1  0.37606328  0.87629515  0.00658393  1
  O2-  O143  1  0.37439567  0.87400883  0.49719873  1
  O2-  O144  1  0.62392489  0.12494681  -0.00184744  1
  O2-  O145  1  0.62317720  0.12579482  0.51860222  1
  O2-  O146  1  0.62545104  0.37489468  0.00630203  1
  O2-  O147  1  0.62345574  0.37763785  0.49591369  1
  O2-  O148  1  0.62550099  0.62587797  0.00673046  1
  O2-  O149  1  0.62352126  0.62299698  0.50637764  1
  O2-  O150  1  0.62688583  0.87541187  0.01882723  1
  O2-  O151  1  0.62380953  0.87405305  0.50844924  1
  O2-  O152  1  0.87638148  0.12365295  0.01827930  1
  O2-  O153  1  0.87528618  0.12614085  0.49981968  1
  O2-  O154  1  0.87460773  0.37385631  0.00730718  1
  O2-  O155  1  0.87506648  0.37499733  0.50832540  1
  O2-  O156  1  0.87601795  0.62687371  -0.00434830  1
  O2-  O157  1  0.87599278  0.62390203  0.49669823  1
  O2-  O158  1  0.87372543  0.87560271  0.00783937  1
  O2-  O159  1  0.87534430  0.87511226  0.50773884  1
  O2-  O160  1  0.12510559  0.00027807  0.16646702  1
  O2-  O161  1  0.12520107  0.00085668  0.66577006  1
  O2-  O162  1  0.12572385  0.24971250  0.16917009  1
  O2-  O163  1  0.12473889  0.24880873  0.66625662  1
  O2-  O164  1  0.12535103  0.50086423  0.16031727  1
  O2-  O165  1  0.12488467  0.50133370  0.66811018  1
  O2-  O166  1  0.12485508  0.74944418  0.16102661  1
  O2-  O167  1  0.12555941  0.74845143  0.66388925  1
  O2-  O168  1  0.37573083  0.00364434  0.16735407  1
  O2-  O169  1  0.37557590  0.00228047  0.66366740  1
  O2-  O170  1  0.37538765  0.24712891  0.16494907  1
  O2-  O171  1  0.37529883  0.24800121  0.66385248  1
  O2-  O172  1  0.37480936  0.49990568  0.15931549  1
  O2-  O173  1  0.37527160  0.49881572  0.66462151  1
  O2-  O174  1  0.37482222  0.75001924  0.16332337  1
  O2-  O175  1  0.37521076  0.75018498  0.66257427  1
  O2-  O176  1  0.62499890  0.00006605  0.17085006  1
  O2-  O177  1  0.62436252  -0.00169964  0.66460887  1
  O2-  O178  1  0.62447180  0.25166000  0.16253615  1
  O2-  O179  1  0.62448813  0.24995477  0.66728612  1
  O2-  O180  1  0.62494961  0.49790894  0.16060703  1
  O2-  O181  1  0.62460229  0.50098279  0.66377982  1
  O2-  O182  1  0.62578464  0.75135522  0.16938189  1
  O2-  O183  1  0.62465956  0.74998974  0.66020076  1
  O2-  O184  1  0.87488222  0.00240804  0.17146007  1
  O2-  O185  1  0.87412625  -0.00218188  0.66365552  1
  O2-  O186  1  0.87488112  0.24780597  0.16910871  1
  O2-  O187  1  0.87483383  0.24862435  0.66632144  1
  O2-  O188  1  0.87577405  0.50149578  0.16155797  1
  O2-  O189  1  0.87452218  0.50150846  0.66618316  1
  O2-  O190  1  0.87513471  0.74904256  0.16604637  1
  O2-  O191  1  0.87360677  0.75150671  0.66059822  1
  O2-  O192  1  0.00090193  0.12455197  0.17097980  1
  O2-  O193  1  0.00003856  0.12419527  0.66389712  1
  O2-  O194  1  0.00192386  0.37508829  0.16928031  1
  O2-  O195  1  -0.00025636  0.37491726  0.66575148  1
  O2-  O196  1  0.00164960  0.62603040  0.16241986  1
  O2-  O197  1  -0.00037934  0.62574532  0.66401027  1
  O2-  O198  1  0.00084077  0.87523824  0.16689484  1
  O2-  O199  1  -0.00325689  0.87447196  0.66283707  1
  O2-  O200  1  0.24997771  0.12454042  0.16343493  1
  O2-  O201  1  0.25163267  0.12499348  0.66519197  1
  O2-  O202  1  0.24911472  0.37444285  0.16282662  1
  O2-  O203  1  0.25049422  0.37437362  0.66630932  1
  O2-  O204  1  0.24775140  0.62547209  0.15862806  1
  O2-  O205  1  0.25040589  0.62435718  0.66586426  1
  O2-  O206  1  0.24910274  0.87642266  0.16140198  1
  O2-  O207  1  0.25134992  0.87560232  0.66529952  1
  O2-  O208  1  0.49879546  0.12541544  0.16357929  1
  O2-  O209  1  0.49885933  0.12513088  0.66632137  1
  O2-  O210  1  0.50140208  0.37447184  0.16025630  1
  O2-  O211  1  0.49977444  0.37433400  0.66507873  1
  O2-  O212  1  0.49746340  0.62559063  0.16410908  1
  O2-  O213  1  0.50160046  0.62472014  0.66320484  1
  O2-  O214  1  0.50232455  0.87606698  0.16797524  1
  O2-  O215  1  0.50173422  0.87491882  0.66404673  1
  O2-  O216  1  0.75081209  0.12537891  0.16754784  1
  O2-  O217  1  0.74902986  0.12440836  0.66666748  1
  O2-  O218  1  0.74790397  0.37500420  0.16384006  1
  O2-  O219  1  0.74958134  0.37488681  0.66672929  1
  O2-  O220  1  0.75369194  0.62495931  0.16708824  1
  O2-  O221  1  0.74773064  0.62505152  0.66196564  1
  O2-  O222  1  0.74848432  0.87569616  0.17287285  1
  O2-  O223  1  0.74926061  0.87464175  0.66170405  1
  O2-  O224  1  0.12620372  0.00200582  0.34824445  1
  O2-  O225  1  0.12487118  -0.00083983  0.84868130  1
  O2-  O226  1  0.12637060  0.24863259  0.34860782  1
  O2-  O227  1  0.12490197  0.24985953  0.85068732  1
  O2-  O228  1  0.12577976  0.50205607  0.34150979  1
  O2-  O229  1  0.12528111  0.50152747  0.85188933  1
  O2-  O230  1  0.12529060  0.74807813  0.34409458  1
  O2-  O231  1  0.12475722  0.74793054  0.84558955  1
  O2-  O232  1  0.37601294  0.00132311  0.35074045  1
  O2-  O233  1  0.37482023  0.00282031  0.84863852  1
  O2-  O234  1  0.37614655  0.24901139  0.34818638  1
  O2-  O235  1  0.37524928  0.24874603  0.84781704  1
  O2-  O236  1  0.37594464  0.50061482  0.34091254  1
  O2-  O237  1  0.37463320  0.49919021  0.84643374  1
  O2-  O238  1  0.37634705  0.74978316  0.34455717  1
  O2-  O239  1  0.37466395  0.74831616  0.84607963  1
  O2-  O240  1  0.62490769  -0.00182219  0.35528066  1
  O2-  O241  1  0.62473607  0.00058986  0.84734506  1
  O2-  O242  1  0.62373415  0.25136496  0.34658866  1
  O2-  O243  1  0.62388733  0.25095173  0.84960828  1
  O2-  O244  1  0.62469989  0.50239159  0.34298328  1
  O2-  O245  1  0.62450073  0.49658306  0.84799379  1
  O2-  O246  1  0.62482851  0.74940246  0.35284191  1
  O2-  O247  1  0.62480578  0.75158981  0.84561511  1
  O2-  O248  1  0.87369101  -0.00081351  0.35241754  1
  O2-  O249  1  0.87472944  0.00061022  0.84815253  1
  O2-  O250  1  0.87460442  0.24911488  0.34919666  1
  O2-  O251  1  0.87493960  0.24895740  0.85035865  1
  O2-  O252  1  0.87412949  0.50172123  0.34434247  1
  O2-  O253  1  0.87499993  0.50147744  0.84816516  1
  O2-  O254  1  0.87408990  0.75101970  0.34927035  1
  O2-  O255  1  0.87525681  0.74815815  0.84313103  1
  O2-  O256  1  0.00031171  0.12466104  0.34946480  1
  O2-  O257  1  -0.00071205  0.12446413  0.84910199  1
  O2-  O258  1  0.00004629  0.37602075  0.35087729  1
  O2-  O259  1  0.00083697  0.37494039  0.84910113  1
  O2-  O260  1  -0.00011365  0.62560788  0.34439302  1
  O2-  O261  1  0.00180199  0.62448325  0.84696077  1
  O2-  O262  1  -0.00326604  0.87495925  0.35021016  1
  O2-  O263  1  0.00170569  0.87495345  0.84507778  1
  O2-  O264  1  0.25208421  0.12535107  0.34566584  1
  O2-  O265  1  0.25151870  0.12558656  0.85054352  1
  O2-  O266  1  0.25274992  0.37507440  0.34373477  1
  O2-  O267  1  0.25040504  0.37388211  0.84945893  1
  O2-  O268  1  0.25113320  0.62536383  0.34005264  1
  O2-  O269  1  0.24830621  0.62441709  0.84859223  1
  O2-  O270  1  0.25271461  0.87515299  0.34383278  1
  O2-  O271  1  0.24729960  0.87500684  0.84740460  1
  O2-  O272  1  0.49802338  0.12479975  0.34956614  1
  O2-  O273  1  0.49878510  0.12460474  0.84815993  1
  O2-  O274  1  0.49985398  0.37537064  0.34197000  1
  O2-  O275  1  0.50088282  0.37443262  0.84794311  1
  O2-  O276  1  0.50098594  0.62517627  0.34665822  1
  O2-  O277  1  0.49793823  0.62467734  0.84659529  1
  O2-  O278  1  0.50123347  0.87584582  0.34967356  1
  O2-  O279  1  0.50103237  0.87525316  0.84873560  1
  O2-  O280  1  0.75051462  0.12540368  0.35036112  1
  O2-  O281  1  0.74937089  0.12459749  0.84906852  1
  O2-  O282  1  0.74797049  0.37565965  0.34666096  1
  O2-  O283  1  0.74748791  0.37439079  0.85003490  1
  O2-  O284  1  0.74851587  0.62580682  0.35040764  1
  O2-  O285  1  0.75160677  0.62525308  0.84578491  1
  O2-  O286  1  0.74964045  0.87456179  0.35600193  1
  O2-  O287  1  0.74950182  0.87469470  0.84634015  1
