# generated using pymatgen
data_BaYFeCuO5
_symmetry_space_group_name_H-M   'P 1'
_cell_length_a   15.66822414
_cell_length_b   15.66803762
_cell_length_c   15.48193423
_cell_angle_alpha   89.99196090
_cell_angle_beta   90.00310869
_cell_angle_gamma   89.99864024
_symmetry_Int_Tables_number   1
_chemical_formula_structural   BaYFeCuO5
_chemical_formula_sum   'Ba32 Y32 Fe32 Cu32 O160'
_cell_volume   3800.66502611
_cell_formula_units_Z   32
loop_
 _symmetry_equiv_pos_site_id
 _symmetry_equiv_pos_as_xyz
  1  'x, y, z'
loop_
 _atom_type_symbol
 _atom_type_oxidation_number
  Ba2+  2.0
  Y3+  3.0
  Fe3+  3.0
  Cu2+  2.0
  O2-  -2.0
loop_
 _atom_site_type_symbol
 _atom_site_label
 _atom_site_symmetry_multiplicity
 _atom_site_fract_x
 _atom_site_fract_y
 _atom_site_fract_z
 _atom_site_occupancy
  Ba2+  Ba0  1  0.00028104  0.00875425  0.01762964  1
  Ba2+  Ba1  1  0.00034037  -0.00021606  0.51657711  1
  Ba2+  Ba2  1  0.00458659  0.24855488  0.02209993  1
  Ba2+  Ba3  1  0.00517333  0.25398640  0.51094062  1
  Ba2+  Ba4  1  0.00580476  0.50480420  0.01644795  1
  Ba2+  Ba5  1  -0.00366193  0.50316036  0.51207439  1
  Ba2+  Ba6  1  0.00190695  0.73877636  0.01083459  1
  Ba2+  Ba7  1  -0.00722824  0.74430898  0.51629210  1
  Ba2+  Ba8  1  0.25774119  0.00009930  0.00526713  1
  Ba2+  Ba9  1  0.25594333  0.00438022  0.50141497  1
  Ba2+  Ba10  1  0.24557611  0.24706843  0.01277480  1
  Ba2+  Ba11  1  0.25530559  0.25298810  0.50161597  1
  Ba2+  Ba12  1  0.24464165  0.50623298  0.01621733  1
  Ba2+  Ba13  1  0.25415854  0.49757469  0.51134936  1
  Ba2+  Ba14  1  0.25558482  0.74496031  0.01139642  1
  Ba2+  Ba15  1  0.25538225  0.74516443  0.51358196  1
  Ba2+  Ba16  1  0.49673062  -0.00947223  0.00328490  1
  Ba2+  Ba17  1  0.49897102  -0.00036079  0.49463488  1
  Ba2+  Ba18  1  0.49939360  0.25019063  0.00604581  1
  Ba2+  Ba19  1  0.49898609  0.25597666  0.50694625  1
  Ba2+  Ba20  1  0.50385790  0.50593504  0.02359268  1
  Ba2+  Ba21  1  0.50241968  0.49867558  0.51134124  1
  Ba2+  Ba22  1  0.49968591  0.75300537  0.01619118  1
  Ba2+  Ba23  1  0.50355846  0.74705502  0.50148060  1
  Ba2+  Ba24  1  0.74578339  -0.00401908  0.01035886  1
  Ba2+  Ba25  1  0.74459219  -0.00507421  0.51271809  1
  Ba2+  Ba26  1  0.74994140  0.25126970  0.01590896  1
  Ba2+  Ba27  1  0.74303973  0.25645125  0.51542377  1
  Ba2+  Ba28  1  0.74599339  0.50475674  0.02351233  1
  Ba2+  Ba29  1  0.74611670  0.50329508  0.51041786  1
  Ba2+  Ba30  1  0.74272529  0.74692184  0.01685664  1
  Ba2+  Ba31  1  0.74876164  0.74376804  0.50699697  1
  Y3+  Y32  1  0.00026462  0.00108326  0.25651026  1
  Y3+  Y33  1  -0.00012753  -0.00096218  0.75577465  1
  Y3+  Y34  1  0.00201881  0.25092973  0.25715938  1
  Y3+  Y35  1  -0.00010793  0.25122030  0.75418422  1
  Y3+  Y36  1  0.00102505  0.50176022  0.25820067  1
  Y3+  Y37  1  -0.00030603  0.50239121  0.75459213  1
  Y3+  Y38  1  -0.00087251  0.74666655  0.25712111  1
  Y3+  Y39  1  -0.00047291  0.74654505  0.75613566  1
  Y3+  Y40  1  0.25292827  -0.00116078  0.25648327  1
  Y3+  Y41  1  0.25190239  -0.00019092  0.75995828  1
  Y3+  Y42  1  0.25026074  0.25256540  0.25953228  1
  Y3+  Y43  1  0.25209650  0.24989759  0.75606231  1
  Y3+  Y44  1  0.24897987  0.49939746  0.25798895  1
  Y3+  Y45  1  0.24999816  0.50213476  0.75541944  1
  Y3+  Y46  1  0.25228946  0.74961281  0.25468338  1
  Y3+  Y47  1  0.24973546  0.74756372  0.76040648  1
  Y3+  Y48  1  0.49914564  -0.00408558  0.25533033  1
  Y3+  Y49  1  0.49948041  -0.00178002  0.76343760  1
  Y3+  Y50  1  0.49930696  0.25318226  0.26065161  1
  Y3+  Y51  1  0.49970788  0.25144385  0.75509619  1
  Y3+  Y52  1  0.50269470  0.49987287  0.26259673  1
  Y3+  Y53  1  0.50013905  0.50025153  0.75055878  1
  Y3+  Y54  1  0.50121749  0.75123315  0.25652357  1
  Y3+  Y55  1  0.50034890  0.74978449  0.75942420  1
  Y3+  Y56  1  0.74842917  -0.00122374  0.25506475  1
  Y3+  Y57  1  0.74822106  -0.00207378  0.75867554  1
  Y3+  Y58  1  0.74884782  0.25178895  0.25719919  1
  Y3+  Y59  1  0.74795773  0.25187334  0.75410065  1
  Y3+  Y60  1  0.74839633  0.50274639  0.26271093  1
  Y3+  Y61  1  0.74939193  0.50049267  0.74955188  1
  Y3+  Y62  1  0.74757535  0.74795452  0.25994766  1
  Y3+  Y63  1  0.74931810  0.74881072  0.75443711  1
  Fe3+  Fe64  1  0.87414425  0.12524098  0.37889735  1
  Fe3+  Fe65  1  0.87526324  0.87509091  0.37656211  1
  Fe3+  Fe66  1  0.37495605  0.37631170  0.88063826  1
  Fe3+  Fe67  1  0.12528146  0.87375703  0.37960047  1
  Fe3+  Fe68  1  0.12534807  0.12477834  0.37661594  1
  Fe3+  Fe69  1  0.87342300  0.62315610  0.87686238  1
  Fe3+  Fe70  1  0.12448217  0.37560906  0.87727636  1
  Fe3+  Fe71  1  0.87479904  0.37590793  0.87969330  1
  Fe3+  Fe72  1  0.87520232  0.87381909  0.88023545  1
  Fe3+  Fe73  1  0.12409122  0.87387939  0.88026623  1
  Fe3+  Fe74  1  0.12520039  0.62534351  0.37816410  1
  Fe3+  Fe75  1  0.37637976  0.62296345  0.87652534  1
  Fe3+  Fe76  1  0.87491252  0.12633200  0.87637456  1
  Fe3+  Fe77  1  0.62483397  0.12541738  0.87944389  1
  Fe3+  Fe78  1  0.62542094  0.37728065  0.87717607  1
  Fe3+  Fe79  1  0.12453776  0.12563902  0.87477767  1
  Fe3+  Fe80  1  0.62517406  0.62376847  0.87472046  1
  Fe3+  Fe81  1  0.37522894  0.62481709  0.37510948  1
  Fe3+  Fe82  1  0.87525879  0.37528278  0.37715612  1
  Fe3+  Fe83  1  0.62498956  0.12523815  0.37609332  1
  Fe3+  Fe84  1  0.87519638  0.37641633  0.13596795  1
  Fe3+  Fe85  1  0.37495174  0.37620357  0.13586800  1
  Fe3+  Fe86  1  0.12634147  0.37522346  0.63696927  1
  Fe3+  Fe87  1  0.37646228  0.12390339  0.63959564  1
  Fe3+  Fe88  1  0.12619293  0.87446227  0.63533871  1
  Fe3+  Fe89  1  0.62311127  0.87497169  0.63893687  1
  Fe3+  Fe90  1  0.37595729  0.87473789  0.63891478  1
  Fe3+  Fe91  1  0.87364422  0.12522298  0.63385165  1
  Fe3+  Fe92  1  0.12549718  0.87481693  0.13434557  1
  Fe3+  Fe93  1  0.87521993  0.87389307  0.13465976  1
  Fe3+  Fe94  1  0.37574895  0.12552648  0.13851162  1
  Fe3+  Fe95  1  0.62365095  0.12527186  0.13538678  1
  Cu2+  Cu96  1  0.37511553  0.37663221  0.37140998  1
  Cu2+  Cu97  1  0.87532536  0.62516503  0.37190587  1
  Cu2+  Cu98  1  0.12453892  0.62384805  0.87126688  1
  Cu2+  Cu99  1  0.37450684  0.87382320  0.36372208  1
  Cu2+  Cu100  1  0.37526114  0.12630355  0.86665262  1
  Cu2+  Cu101  1  0.12455782  0.37599772  0.36544566  1
  Cu2+  Cu102  1  0.37432398  0.87275322  0.87371544  1
  Cu2+  Cu103  1  0.62586042  0.37495809  0.37185479  1
  Cu2+  Cu104  1  0.37569578  0.12519361  0.36084310  1
  Cu2+  Cu105  1  0.62602033  0.87271116  0.87430743  1
  Cu2+  Cu106  1  0.62542682  0.87534191  0.36214127  1
  Cu2+  Cu107  1  0.62468878  0.62550432  0.37225327  1
  Cu2+  Cu108  1  0.62508347  0.87504172  0.14258215  1
  Cu2+  Cu109  1  0.37455871  0.37508342  0.64216905  1
  Cu2+  Cu110  1  0.12554699  0.62624138  0.14529074  1
  Cu2+  Cu111  1  0.62332926  0.12362702  0.65201086  1
  Cu2+  Cu112  1  0.62465219  0.62519303  0.15709535  1
  Cu2+  Cu113  1  0.87421313  0.12540074  0.15105345  1
  Cu2+  Cu114  1  0.87445184  0.62497188  0.15186746  1
  Cu2+  Cu115  1  0.12642962  0.12439056  0.64878707  1
  Cu2+  Cu116  1  0.87444350  0.87490123  0.65111703  1
  Cu2+  Cu117  1  0.62467403  0.37493894  0.15154139  1
  Cu2+  Cu118  1  0.37463925  0.87456607  0.14235466  1
  Cu2+  Cu119  1  0.37526954  0.62620763  0.65068001  1
  Cu2+  Cu120  1  0.87375941  0.62473705  0.64205205  1
  Cu2+  Cu121  1  0.62374644  0.37517396  0.64186254  1
  Cu2+  Cu122  1  0.12672945  0.12427720  0.15473828  1
  Cu2+  Cu123  1  0.12551217  0.37557215  0.15164004  1
  Cu2+  Cu124  1  0.62368435  0.62640543  0.64061987  1
  Cu2+  Cu125  1  0.87518301  0.37482426  0.64723591  1
  Cu2+  Cu126  1  0.12554145  0.62543295  0.64630373  1
  Cu2+  Cu127  1  0.37565085  0.62425725  0.15310201  1
  O2-  O128  1  0.12281204  0.12616440  -0.00490470  1
  O2-  O129  1  0.12454749  0.12326987  0.49656735  1
  O2-  O130  1  0.12406926  0.37461995  -0.00242262  1
  O2-  O131  1  0.12650019  0.37413967  0.51610223  1
  O2-  O132  1  0.12518127  0.62522319  0.00648022  1
  O2-  O133  1  0.12510702  0.62724107  0.49853425  1
  O2-  O134  1  0.12369170  0.87551546  0.00711977  1
  O2-  O135  1  0.12567219  0.87463480  0.50654917  1
  O2-  O136  1  0.37501022  0.12676579  0.01816367  1
  O2-  O137  1  0.37647924  0.12362116  0.51926849  1
  O2-  O138  1  0.37501696  0.37624215  0.00733073  1
  O2-  O139  1  0.37431149  0.37509318  0.50740856  1
  O2-  O140  1  0.37702465  0.62214633  -0.00308870  1
  O2-  O141  1  0.37455548  0.62534081  0.49564113  1
  O2-  O142  1  0.37311420  0.87377610  0.00836074  1
  O2-  O143  1  0.37520924  0.87649615  0.51887671  1
  O2-  O144  1  0.62556386  0.12596761  0.00720104  1
  O2-  O145  1  0.62572683  0.12390877  0.49626696  1
  O2-  O146  1  0.62596433  0.37728238  -0.00285043  1
  O2-  O147  1  0.62480935  0.37419180  0.50639139  1
  O2-  O148  1  0.62549288  0.62313136  -0.00467593  1
  O2-  O149  1  0.62429165  0.62635257  0.50664176  1
  O2-  O150  1  0.62654540  0.87404944  0.00818035  1
  O2-  O151  1  0.62239714  0.87688052  0.51835531  1
  O2-  O152  1  0.87625694  0.12791394  -0.00384445  1
  O2-  O153  1  0.87385544  0.12456623  0.50473622  1
  O2-  O154  1  0.87521405  0.37564349  0.00611172  1
  O2-  O155  1  0.87617708  0.37318585  0.49764850  1
  O2-  O156  1  0.87317879  0.62263700  -0.00292785  1
  O2-  O157  1  0.87489942  0.62514751  0.50631838  1
  O2-  O158  1  0.87619042  0.87462075  0.00653794  1
  O2-  O159  1  0.87574774  0.87711520  0.49673953  1
  O2-  O160  1  0.12455652  -0.00186694  0.16393807  1
  O2-  O161  1  0.12416301  -0.00234745  0.66488225  1
  O2-  O162  1  0.12467774  0.24944809  0.16446798  1
  O2-  O163  1  0.12500329  0.24978509  0.66503057  1
  O2-  O164  1  0.12525092  0.50008317  0.16528163  1
  O2-  O165  1  0.12506150  0.50030982  0.66302436  1
  O2-  O166  1  0.12362338  0.75337462  0.16428658  1
  O2-  O167  1  0.12493936  0.75173218  0.66423099  1
  O2-  O168  1  0.37483540  0.00189699  0.16682658  1
  O2-  O169  1  0.37476923  -0.00116156  0.67276868  1
  O2-  O170  1  0.37501495  0.25218621  0.16538496  1
  O2-  O171  1  0.37511096  0.24771086  0.66891699  1
  O2-  O172  1  0.37400971  0.49849978  0.16241753  1
  O2-  O173  1  0.37432124  0.50288221  0.66214055  1
  O2-  O174  1  0.37532741  0.74809151  0.16389893  1
  O2-  O175  1  0.37373745  0.75049846  0.66633101  1
  O2-  O176  1  0.62538334  0.00315279  0.16336472  1
  O2-  O177  1  0.62522563  -0.00149091  0.67164076  1
  O2-  O178  1  0.62503213  0.24868922  0.16215149  1
  O2-  O179  1  0.62445360  0.24843562  0.66644559  1
  O2-  O180  1  0.62597446  0.50004508  0.16599470  1
  O2-  O181  1  0.62438489  0.50058124  0.66047461  1
  O2-  O182  1  0.62530389  0.74878839  0.16596728  1
  O2-  O183  1  0.62492078  0.75229477  0.66677515  1
  O2-  O184  1  0.87551719  -0.00115445  0.16266758  1
  O2-  O185  1  0.87512530  0.00229944  0.66537498  1
  O2-  O186  1  0.87571886  0.25200899  0.16318960  1
  O2-  O187  1  0.87463979  0.24763947  0.66330207  1
  O2-  O188  1  0.87480207  0.49879091  0.16321616  1
  O2-  O189  1  0.87533284  0.49860128  0.66341858  1
  O2-  O190  1  0.87622582  0.75108910  0.16205411  1
  O2-  O191  1  0.87530192  0.75110715  0.66674648  1
  O2-  O192  1  0.00089430  0.12429801  0.16394167  1
  O2-  O193  1  -0.00142917  0.12437157  0.65842396  1
  O2-  O194  1  -0.00088805  0.37510607  0.16188430  1
  O2-  O195  1  0.00119659  0.37421724  0.66516155  1
  O2-  O196  1  -0.00098783  0.62505230  0.16468163  1
  O2-  O197  1  0.00040782  0.62542898  0.66419603  1
  O2-  O198  1  -0.00011765  0.87654900  0.16214397  1
  O2-  O199  1  0.00137768  0.87523541  0.66233486  1
  O2-  O200  1  0.25134044  0.12567902  0.16715753  1
  O2-  O201  1  0.25120788  0.12333204  0.66790522  1
  O2-  O202  1  0.25119723  0.37466192  0.16308557  1
  O2-  O203  1  0.24847384  0.37505451  0.66904736  1
  O2-  O204  1  0.25121835  0.62610537  0.16446921  1
  O2-  O205  1  0.25100338  0.62626758  0.66516340  1
  O2-  O206  1  0.24712327  0.87505719  0.16514259  1
  O2-  O207  1  0.24925107  0.87477672  0.66753685  1
  O2-  O208  1  0.50080078  0.12622288  0.16549385  1
  O2-  O209  1  0.49944832  0.12377242  0.67220810  1
  O2-  O210  1  0.49856326  0.37558828  0.16418248  1
  O2-  O211  1  0.49921019  0.37459607  0.66649971  1
  O2-  O212  1  0.50048313  0.62403184  0.16483959  1
  O2-  O213  1  0.49794140  0.62606565  0.66423883  1
  O2-  O214  1  0.50011658  0.87499761  0.16492747  1
  O2-  O215  1  0.49911741  0.87516247  0.67277177  1
  O2-  O216  1  0.74774201  0.12579399  0.16236038  1
  O2-  O217  1  0.75042733  0.12435583  0.66207740  1
  O2-  O218  1  0.75132867  0.37390578  0.16154720  1
  O2-  O219  1  0.75081923  0.37374319  0.66425946  1
  O2-  O220  1  0.74961713  0.62528521  0.16590670  1
  O2-  O221  1  0.74943313  0.62550961  0.66285630  1
  O2-  O222  1  0.75333481  0.87532868  0.16214672  1
  O2-  O223  1  0.74939270  0.87637133  0.66650158  1
  O2-  O224  1  0.12493588  -0.00124864  0.34761733  1
  O2-  O225  1  0.12368787  -0.00089833  0.84850814  1
  O2-  O226  1  0.12509260  0.24923455  0.34845125  1
  O2-  O227  1  0.12452885  0.25036117  0.84481601  1
  O2-  O228  1  0.12460276  0.50104183  0.34850124  1
  O2-  O229  1  0.12419777  0.49723264  0.84441677  1
  O2-  O230  1  0.12513927  0.75153588  0.34699203  1
  O2-  O231  1  0.12336849  0.75238463  0.84915716  1
  O2-  O232  1  0.37487369  -0.00113127  0.34996036  1
  O2-  O233  1  0.37434835  0.00120554  0.85393927  1
  O2-  O234  1  0.37464583  0.24981556  0.34856925  1
  O2-  O235  1  0.37520242  0.25251442  0.85206846  1
  O2-  O236  1  0.37456207  0.50204682  0.34494393  1
  O2-  O237  1  0.37500251  0.49791834  0.84439235  1
  O2-  O238  1  0.37406086  0.74963948  0.34674217  1
  O2-  O239  1  0.37433272  0.74677067  0.84757214  1
  O2-  O240  1  0.62501439  0.00069114  0.34565687  1
  O2-  O241  1  0.62606187  0.00231134  0.85442334  1
  O2-  O242  1  0.62568472  0.24794410  0.34470703  1
  O2-  O243  1  0.62537808  0.24996697  0.84974581  1
  O2-  O244  1  0.62558132  0.50017873  0.35013090  1
  O2-  O245  1  0.62565238  0.49934526  0.84085944  1
  O2-  O246  1  0.62559708  0.75224346  0.34990500  1
  O2-  O247  1  0.62597446  0.74708859  0.84696095  1
  O2-  O248  1  0.87585464  0.00175392  0.34607689  1
  O2-  O249  1  0.87541117  -0.00048276  0.84974569  1
  O2-  O250  1  0.87514387  0.24787037  0.34672644  1
  O2-  O251  1  0.87465257  0.25142874  0.84625338  1
  O2-  O252  1  0.87601877  0.49870184  0.34671131  1
  O2-  O253  1  0.87467827  0.49789838  0.84583814  1
  O2-  O254  1  0.87563774  0.75235647  0.34552115  1
  O2-  O255  1  0.87582073  0.75028889  0.84992761  1
  O2-  O256  1  -0.00121728  0.12490391  0.34778884  1
  O2-  O257  1  -0.00070333  0.12493557  0.84042959  1
  O2-  O258  1  -0.00076748  0.37371989  0.34525656  1
  O2-  O259  1  -0.00185280  0.37399496  0.84746243  1
  O2-  O260  1  0.00236264  0.62595475  0.34664265  1
  O2-  O261  1  -0.00292668  0.62432785  0.84645414  1
  O2-  O262  1  0.00174114  0.87602175  0.34599515  1
  O2-  O263  1  -0.00072144  0.87544834  0.84787971  1
  O2-  O264  1  0.25050051  0.12439294  0.34963372  1
  O2-  O265  1  0.24913166  0.12490426  0.84952379  1
  O2-  O266  1  0.24878948  0.37527767  0.34765964  1
  O2-  O267  1  0.25118488  0.37424526  0.85077360  1
  O2-  O268  1  0.24927877  0.62560099  0.34548864  1
  O2-  O269  1  0.25158327  0.62380666  0.84811382  1
  O2-  O270  1  0.24769105  0.87582693  0.35000856  1
  O2-  O271  1  0.24647258  0.87512275  0.85123497  1
  O2-  O272  1  0.49985279  0.12462419  0.34741272  1
  O2-  O273  1  0.50169450  0.12580092  0.85509444  1
  O2-  O274  1  0.50028994  0.37467154  0.34872769  1
  O2-  O275  1  0.49920706  0.37426203  0.84989077  1
  O2-  O276  1  0.49885826  0.62610631  0.34778293  1
  O2-  O277  1  0.50060497  0.62340863  0.84457442  1
  O2-  O278  1  0.50007436  0.87532198  0.34975966  1
  O2-  O279  1  0.49986958  0.87432290  0.85357844  1
  O2-  O280  1  0.75164518  0.12418311  0.34557588  1
  O2-  O281  1  0.74935603  0.12546859  0.84634577  1
  O2-  O282  1  0.75235437  0.37397176  0.34493223  1
  O2-  O283  1  0.75113893  0.37371714  0.84745785  1
  O2-  O284  1  0.74981047  0.62583618  0.34996651  1
  O2-  O285  1  0.75042734  0.62425285  0.84297415  1
  O2-  O286  1  0.75108175  0.87690020  0.34555954  1
  O2-  O287  1  0.75383283  0.87539182  0.84975887  1
