# generated using pymatgen
data_BaYFeCuO5
_symmetry_space_group_name_H-M   'P 1'
_cell_length_a   15.67424246
_cell_length_b   15.67100834
_cell_length_c   15.49064048
_cell_angle_alpha   89.99793801
_cell_angle_beta   90.00247423
_cell_angle_gamma   89.99520580
_symmetry_Int_Tables_number   1
_chemical_formula_structural   BaYFeCuO5
_chemical_formula_sum   'Ba32 Y32 Fe32 Cu32 O160'
_cell_volume   3804.98434721
_cell_formula_units_Z   32
loop_
 _symmetry_equiv_pos_site_id
 _symmetry_equiv_pos_as_xyz
  1  'x, y, z'
loop_
 _atom_type_symbol
 _atom_type_oxidation_number
  Ba2+  2.0
  Y3+  3.0
  Fe3+  3.0
  Cu2+  2.0
  O2-  -2.0
loop_
 _atom_site_type_symbol
 _atom_site_label
 _atom_site_symmetry_multiplicity
 _atom_site_fract_x
 _atom_site_fract_y
 _atom_site_fract_z
 _atom_site_occupancy
  Ba2+  Ba0  1  -0.00028156  -0.01037647  0.00680639  1
  Ba2+  Ba1  1  -0.00766804  0.00725605  0.51602547  1
  Ba2+  Ba2  1  -0.00540481  0.25538137  0.01180016  1
  Ba2+  Ba3  1  0.00075178  0.24390105  0.50672959  1
  Ba2+  Ba4  1  -0.00520768  0.50632269  0.01446973  1
  Ba2+  Ba5  1  -0.00295357  0.50027701  0.50177977  1
  Ba2+  Ba6  1  -0.00011640  0.74888986  0.00558857  1
  Ba2+  Ba7  1  -0.01197809  0.74902394  0.51140507  1
  Ba2+  Ba8  1  0.25549797  -0.00652809  0.02374215  1
  Ba2+  Ba9  1  0.25339615  0.01198739  0.51059860  1
  Ba2+  Ba10  1  0.26148381  0.25249376  0.01201863  1
  Ba2+  Ba11  1  0.25474136  0.24754683  0.51153401  1
  Ba2+  Ba12  1  0.25713512  0.50377689  -0.00438596  1
  Ba2+  Ba13  1  0.25594806  0.49254949  0.51205561  1
  Ba2+  Ba14  1  0.25053158  0.74958091  0.00694617  1
  Ba2+  Ba15  1  0.25552187  0.74575945  0.51121279  1
  Ba2+  Ba16  1  0.50249819  0.00259314  0.01236830  1
  Ba2+  Ba17  1  0.50338010  0.00748361  0.51659494  1
  Ba2+  Ba18  1  0.50327991  0.25295223  0.01075883  1
  Ba2+  Ba19  1  0.49881161  0.24884076  0.52361829  1
  Ba2+  Ba20  1  0.50128753  0.49497151  0.00650350  1
  Ba2+  Ba21  1  0.50273542  0.50008283  0.52240869  1
  Ba2+  Ba22  1  0.50021471  0.74919261  0.00591946  1
  Ba2+  Ba23  1  0.50791375  0.74434292  0.51522667  1
  Ba2+  Ba24  1  0.74252283  -0.00311308  -0.00360469  1
  Ba2+  Ba25  1  0.75046606  0.00196968  0.52219578  1
  Ba2+  Ba26  1  0.73991765  0.25342956  0.01067856  1
  Ba2+  Ba27  1  0.74688155  0.24408729  0.51737540  1
  Ba2+  Ba28  1  0.74717927  0.49927146  0.02328271  1
  Ba2+  Ba29  1  0.74501904  0.50731372  0.50941205  1
  Ba2+  Ba30  1  0.74979944  0.74946917  0.00641519  1
  Ba2+  Ba31  1  0.74818417  0.74608785  0.51578269  1
  Y3+  Y32  1  -0.00108007  0.00032983  0.25810007  1
  Y3+  Y33  1  -0.00292161  0.00044897  0.75574784  1
  Y3+  Y34  1  -0.00200722  0.25056147  0.25806895  1
  Y3+  Y35  1  -0.00122251  0.24848252  0.75686063  1
  Y3+  Y36  1  -0.00242674  0.49975048  0.25985795  1
  Y3+  Y37  1  -0.00039751  0.50179930  0.75598626  1
  Y3+  Y38  1  -0.00212759  0.74893347  0.25935726  1
  Y3+  Y39  1  -0.00304063  0.75001066  0.75550611  1
  Y3+  Y40  1  0.25317636  0.00101112  0.25896216  1
  Y3+  Y41  1  0.25074928  0.00297539  0.75322631  1
  Y3+  Y42  1  0.25394806  0.24997586  0.25682159  1
  Y3+  Y43  1  0.25380072  0.25062619  0.75741429  1
  Y3+  Y44  1  0.25098413  0.49693268  0.25784538  1
  Y3+  Y45  1  0.25360642  0.49989227  0.75842652  1
  Y3+  Y46  1  0.25062459  0.75165532  0.25874159  1
  Y3+  Y47  1  0.25095258  0.74696587  0.75647810  1
  Y3+  Y48  1  0.49918952  0.00293910  0.25567602  1
  Y3+  Y49  1  0.50359366  0.00195024  0.75793335  1
  Y3+  Y50  1  0.49981882  0.24955640  0.25083392  1
  Y3+  Y51  1  0.50160637  0.25179727  0.76238768  1
  Y3+  Y52  1  0.50337917  0.49885889  0.25415740  1
  Y3+  Y53  1  0.49988016  0.49809611  0.75942513  1
  Y3+  Y54  1  0.50249251  0.74854658  0.25843441  1
  Y3+  Y55  1  0.50225710  0.74838307  0.75534793  1
  Y3+  Y56  1  0.74871005  0.00243855  0.25667714  1
  Y3+  Y57  1  0.74859662  -0.00053036  0.75783096  1
  Y3+  Y58  1  0.74810416  0.25051087  0.25424505  1
  Y3+  Y59  1  0.74612218  0.24897877  0.75963392  1
  Y3+  Y60  1  0.74885748  0.50150208  0.25947345  1
  Y3+  Y61  1  0.74675308  0.50021435  0.75363692  1
  Y3+  Y62  1  0.74919606  0.74541022  0.26120856  1
  Y3+  Y63  1  0.74954385  0.75118376  0.75379536  1
  Fe3+  Fe64  1  0.37775943  0.37369413  0.37646896  1
  Fe3+  Fe65  1  0.12586737  0.62421611  0.38124391  1
  Fe3+  Fe66  1  0.37672855  0.62335888  0.37884584  1
  Fe3+  Fe67  1  0.87342866  0.37672370  0.87683019  1
  Fe3+  Fe68  1  0.37560098  0.87543360  0.87322068  1
  Fe3+  Fe69  1  0.62514345  0.87588795  0.37947841  1
  Fe3+  Fe70  1  0.12466947  0.87578134  0.38114426  1
  Fe3+  Fe71  1  0.62362767  0.37401410  0.37810417  1
  Fe3+  Fe72  1  0.12576867  0.12461192  0.88073580  1
  Fe3+  Fe73  1  0.62564591  0.62454500  0.87637775  1
  Fe3+  Fe74  1  0.12429998  0.37592566  0.88054717  1
  Fe3+  Fe75  1  0.12528841  0.12571437  0.37413905  1
  Fe3+  Fe76  1  0.87345592  0.62475897  0.87444320  1
  Fe3+  Fe77  1  0.87452917  0.12489441  0.87994754  1
  Fe3+  Fe78  1  0.12628067  0.87510488  0.87285617  1
  Fe3+  Fe79  1  0.87279629  0.87644138  0.37838482  1
  Fe3+  Fe80  1  0.62450166  0.12625147  0.37519105  1
  Fe3+  Fe81  1  0.37703458  0.87580765  0.38078714  1
  Fe3+  Fe82  1  0.87303215  0.37336792  0.37955895  1
  Fe3+  Fe83  1  0.37522137  0.12381080  0.87722054  1
  Fe3+  Fe84  1  0.12485079  0.87603990  0.63250706  1
  Fe3+  Fe85  1  0.12560822  0.37615725  0.13489620  1
  Fe3+  Fe86  1  0.12570983  0.62535416  0.13989030  1
  Fe3+  Fe87  1  0.62521954  0.87408848  0.13816818  1
  Fe3+  Fe88  1  0.87392633  0.12410956  0.13324041  1
  Fe3+  Fe89  1  0.12483763  0.37393609  0.63811849  1
  Fe3+  Fe90  1  0.37553390  0.62502571  0.13865265  1
  Fe3+  Fe91  1  0.37616779  0.87566697  0.63392015  1
  Fe3+  Fe92  1  0.87379503  0.87402596  0.13796373  1
  Fe3+  Fe93  1  0.12500232  0.62417847  0.63492113  1
  Fe3+  Fe94  1  0.12480648  0.12461398  0.13325409  1
  Fe3+  Fe95  1  0.87397713  0.37466746  0.63462305  1
  Cu2+  Cu96  1  0.62612679  0.37653739  0.87130660  1
  Cu2+  Cu97  1  0.37561177  0.37474097  0.87284787  1
  Cu2+  Cu98  1  0.87455598  0.87453358  0.86186607  1
  Cu2+  Cu99  1  0.37734123  0.12623486  0.37120259  1
  Cu2+  Cu100  1  0.62434160  0.87368634  0.86088227  1
  Cu2+  Cu101  1  0.62358697  0.62387498  0.37252848  1
  Cu2+  Cu102  1  0.87422190  0.62484388  0.37396836  1
  Cu2+  Cu103  1  0.12448936  0.62522041  0.86135056  1
  Cu2+  Cu104  1  0.62451476  0.12520065  0.87356530  1
  Cu2+  Cu105  1  0.37618479  0.62602322  0.86113798  1
  Cu2+  Cu106  1  0.12558998  0.37393656  0.36412739  1
  Cu2+  Cu107  1  0.87306647  0.12529953  0.37104710  1
  Cu2+  Cu108  1  0.62478390  0.87548434  0.64835287  1
  Cu2+  Cu109  1  0.37605295  0.87351626  0.15557104  1
  Cu2+  Cu110  1  0.62534560  0.12401417  0.13990052  1
  Cu2+  Cu111  1  0.37560874  0.37471576  0.65422939  1
  Cu2+  Cu112  1  0.37496665  0.12483658  0.14843648  1
  Cu2+  Cu113  1  0.87401235  0.12673382  0.64565430  1
  Cu2+  Cu114  1  0.62491894  0.37571338  0.14272685  1
  Cu2+  Cu115  1  0.37608103  0.12557353  0.64457582  1
  Cu2+  Cu116  1  0.12493363  0.12602078  0.65357856  1
  Cu2+  Cu117  1  0.87488568  0.62353216  0.64099615  1
  Cu2+  Cu118  1  0.12448538  0.87455279  0.15535042  1
  Cu2+  Cu119  1  0.37497335  0.37688912  0.14081848  1
  Cu2+  Cu120  1  0.62482781  0.12567332  0.65608433  1
  Cu2+  Cu121  1  0.62523406  0.62581815  0.14944529  1
  Cu2+  Cu122  1  0.62499376  0.37458120  0.64884407  1
  Cu2+  Cu123  1  0.87477923  0.62555015  0.15482195  1
  Cu2+  Cu124  1  0.62479260  0.62428565  0.64573419  1
  Cu2+  Cu125  1  0.37511483  0.62480641  0.64989114  1
  Cu2+  Cu126  1  0.87500815  0.37510107  0.15206830  1
  Cu2+  Cu127  1  0.87445983  0.87544250  0.65100269  1
  O2-  O128  1  0.12593154  0.12242938  0.00596136  1
  O2-  O129  1  0.12448649  0.12632860  0.49480435  1
  O2-  O130  1  0.12392168  0.37861156  0.00771186  1
  O2-  O131  1  0.12498514  0.37287222  0.51828339  1
  O2-  O132  1  0.12531304  0.62616120  0.01967889  1
  O2-  O133  1  0.12576797  0.62329789  0.50811980  1
  O2-  O134  1  0.12682818  0.87376926  -0.00687026  1
  O2-  O135  1  0.12412046  0.87704205  0.50604400  1
  O2-  O136  1  0.37245814  0.12077180  -0.00256952  1
  O2-  O137  1  0.37645410  0.12647973  0.50675519  1
  O2-  O138  1  0.37388707  0.37697336  0.00667923  1
  O2-  O139  1  0.37730027  0.37309004  0.49707405  1
  O2-  O140  1  0.37309637  0.62791245  0.01827550  1
  O2-  O141  1  0.37583943  0.62286587  0.49932473  1
  O2-  O142  1  0.37375468  0.87404190  -0.00663304  1
  O2-  O143  1  0.37664788  0.87593372  0.50659146  1
  O2-  O144  1  0.62533948  0.12333466  0.00643120  1
  O2-  O145  1  0.62495102  0.12625034  0.49589992  1
  O2-  O146  1  0.62585622  0.37727525  0.00691284  1
  O2-  O147  1  0.62279073  0.37234873  0.49815585  1
  O2-  O148  1  0.62668513  0.62572443  -0.00303954  1
  O2-  O149  1  0.62378619  0.62424691  0.50727667  1
  O2-  O150  1  0.62446538  0.87263605  0.01760305  1
  O2-  O151  1  0.62538774  0.87731939  0.49941385  1
  O2-  O152  1  0.87537007  0.12400906  0.00644075  1
  O2-  O153  1  0.87396168  0.12633061  0.50694422  1
  O2-  O154  1  0.87541414  0.37806179  -0.00295690  1
  O2-  O155  1  0.87456571  0.37265055  0.50697044  1
  O2-  O156  1  0.87441058  0.62544490  -0.00530414  1
  O2-  O157  1  0.87563292  0.62372561  0.50715249  1
  O2-  O158  1  0.87570101  0.87275322  0.01744813  1
  O2-  O159  1  0.87366816  0.87800104  0.49873711  1
  O2-  O160  1  0.12442147  0.00115228  0.16158788  1
  O2-  O161  1  0.12442349  -0.00047993  0.66156477  1
  O2-  O162  1  0.12405392  0.24988140  0.15545437  1
  O2-  O163  1  0.12513179  0.25043673  0.67209830  1
  O2-  O164  1  0.12404591  0.49919121  0.16825031  1
  O2-  O165  1  0.12477240  0.50035637  0.66569407  1
  O2-  O166  1  0.12492542  0.74967452  0.17201733  1
  O2-  O167  1  0.12622871  0.75041365  0.65824234  1
  O2-  O168  1  0.37401059  -0.00126428  0.16528278  1
  O2-  O169  1  0.37469492  -0.00246468  0.66153434  1
  O2-  O170  1  0.37396915  0.24956376  0.16007044  1
  O2-  O171  1  0.37458358  0.25103539  0.66767445  1
  O2-  O172  1  0.37404241  0.50245712  0.16816275  1
  O2-  O173  1  0.37449858  0.49948923  0.66539460  1
  O2-  O174  1  0.37404514  0.74885094  0.17133318  1
  O2-  O175  1  0.37335046  0.75234488  0.66082275  1
  O2-  O176  1  0.62454088  -0.00215354  0.16572714  1
  O2-  O177  1  0.62523983  0.00093767  0.66530222  1
  O2-  O178  1  0.62561619  0.24957824  0.16066938  1
  O2-  O179  1  0.62525726  0.24999406  0.66745191  1
  O2-  O180  1  0.62613585  0.50194691  0.16553298  1
  O2-  O181  1  0.62370952  0.49858781  0.66431093  1
  O2-  O182  1  0.62589538  0.75040831  0.16920387  1
  O2-  O183  1  0.62544356  0.75069742  0.66385606  1
  O2-  O184  1  0.87650539  0.00079649  0.16373016  1
  O2-  O185  1  0.87540336  -0.00010539  0.66730292  1
  O2-  O186  1  0.87640893  0.24793547  0.16086386  1
  O2-  O187  1  0.87466899  0.25346990  0.66744875  1
  O2-  O188  1  0.87640577  0.50072831  0.16666934  1
  O2-  O189  1  0.87686391  0.49627339  0.66187142  1
  O2-  O190  1  0.87541949  0.75017377  0.16867550  1
  O2-  O191  1  0.87521453  0.75078221  0.66266567  1
  O2-  O192  1  0.00005719  0.12495472  0.16088643  1
  O2-  O193  1  0.00052639  0.12606020  0.66806035  1
  O2-  O194  1  0.00204147  0.37517322  0.16549711  1
  O2-  O195  1  -0.00082427  0.37368205  0.66636068  1
  O2-  O196  1  0.00068041  0.62490899  0.16884386  1
  O2-  O197  1  0.00352158  0.62550050  0.66356851  1
  O2-  O198  1  -0.00127602  0.87472467  0.16806723  1
  O2-  O199  1  0.00221610  0.87526536  0.66256103  1
  O2-  O200  1  0.24790982  0.12425960  0.16393983  1
  O2-  O201  1  0.24939952  0.12554033  0.66412889  1
  O2-  O202  1  0.24653512  0.37485398  0.16548460  1
  O2-  O203  1  0.24979335  0.37531116  0.66707649  1
  O2-  O204  1  0.24951539  0.62572038  0.17208114  1
  O2-  O205  1  0.24789434  0.62426300  0.66330350  1
  O2-  O206  1  0.25018163  0.87483470  0.16800679  1
  O2-  O207  1  0.24940080  0.87622592  0.65687051  1
  O2-  O208  1  0.49838642  0.12396031  0.16153298  1
  O2-  O209  1  0.50144398  0.12526928  0.66663773  1
  O2-  O210  1  0.50012918  0.37591355  0.16144148  1
  O2-  O211  1  0.49985362  0.37443613  0.66658219  1
  O2-  O212  1  0.50002521  0.62619521  0.16395092  1
  O2-  O213  1  0.49905420  0.62557736  0.66562691  1
  O2-  O214  1  0.50053390  0.87382631  0.16636195  1
  O2-  O215  1  0.49856143  0.87475935  0.66158826  1
  O2-  O216  1  0.75326823  0.12468584  0.16253904  1
  O2-  O217  1  0.74840871  0.12520947  0.66769884  1
  O2-  O218  1  0.75152938  0.37550692  0.16684112  1
  O2-  O219  1  0.75098428  0.37512664  0.66091805  1
  O2-  O220  1  0.75050985  0.62481641  0.16573674  1
  O2-  O221  1  0.74970215  0.62394680  0.66295772  1
  O2-  O222  1  0.75047555  0.87499481  0.16761161  1
  O2-  O223  1  0.74980135  0.87616330  0.66491166  1
  O2-  O224  1  0.12548545  -0.00153699  0.34542819  1
  O2-  O225  1  0.12501565  0.00185448  0.84506362  1
  O2-  O226  1  0.12471008  0.24921748  0.34006208  1
  O2-  O227  1  0.12260225  0.24945803  0.85612019  1
  O2-  O228  1  0.12542969  0.50115779  0.35191460  1
  O2-  O229  1  0.12501889  0.49902581  0.84996401  1
  O2-  O230  1  0.12591353  0.75052129  0.35533450  1
  O2-  O231  1  0.12490012  0.75046111  0.84261813  1
  O2-  O232  1  0.37465329  -0.00273514  0.34971121  1
  O2-  O233  1  0.37374958  0.00027935  0.84138992  1
  O2-  O234  1  0.37529003  0.25185027  0.34267509  1
  O2-  O235  1  0.37434626  0.24769590  0.85020808  1
  O2-  O236  1  0.37351984  0.49903643  0.34737669  1
  O2-  O237  1  0.37364999  0.50175188  0.85023097  1
  O2-  O238  1  0.37392947  0.75118975  0.35323171  1
  O2-  O239  1  0.37443985  0.75076804  0.84406957  1
  O2-  O240  1  0.62447892  0.00023019  0.34504064  1
  O2-  O241  1  0.62552509  -0.00228027  0.84964117  1
  O2-  O242  1  0.62496156  0.25075802  0.34154604  1
  O2-  O243  1  0.62541421  0.25089946  0.85125617  1
  O2-  O244  1  0.62517850  0.49759620  0.34770591  1
  O2-  O245  1  0.62562120  0.50208038  0.84558564  1
  O2-  O246  1  0.62427315  0.75150828  0.35064504  1
  O2-  O247  1  0.62468698  0.74916837  0.84660080  1
  O2-  O248  1  0.87537754  -0.00179044  0.34385206  1
  O2-  O249  1  0.87566384  0.00107806  0.85221805  1
  O2-  O250  1  0.87539497  0.25290245  0.34553456  1
  O2-  O251  1  0.87707586  0.24887918  0.85076210  1
  O2-  O252  1  0.87583461  0.49635696  0.35152882  1
  O2-  O253  1  0.87542517  0.50062787  0.84193678  1
  O2-  O254  1  0.87586722  0.75242581  0.34993169  1
  O2-  O255  1  0.87587893  0.74969154  0.84592382  1
  O2-  O256  1  0.00142539  0.12522736  0.34429527  1
  O2-  O257  1  0.00023347  0.12391415  0.85214297  1
  O2-  O258  1  -0.00127453  0.37418046  0.35132681  1
  O2-  O259  1  0.00073045  0.37577293  0.84820252  1
  O2-  O260  1  0.00359944  0.62485878  0.35223635  1
  O2-  O261  1  -0.00129163  0.62528090  0.84588323  1
  O2-  O262  1  0.00154808  0.87526384  0.35026397  1
  O2-  O263  1  0.00126339  0.87544963  0.84604654  1
  O2-  O264  1  0.24920538  0.12507859  0.34730815  1
  O2-  O265  1  0.24822809  0.12552691  0.84626031  1
  O2-  O266  1  0.25108365  0.37418271  0.34807950  1
  O2-  O267  1  0.24622346  0.37455640  0.85079687  1
  O2-  O268  1  0.24946760  0.62535641  0.35234382  1
  O2-  O269  1  0.25025829  0.62592165  0.84832563  1
  O2-  O270  1  0.24990761  0.87517188  0.35328332  1
  O2-  O271  1  0.24997661  0.87463966  0.83837350  1
  O2-  O272  1  0.50224279  0.12515470  0.34342845  1
  O2-  O273  1  0.49840793  0.12381793  0.84900045  1
  O2-  O274  1  0.50050600  0.37501952  0.34165237  1
  O2-  O275  1  0.50037380  0.37598157  0.85077630  1
  O2-  O276  1  0.49734011  0.62479417  0.34494224  1
  O2-  O277  1  0.50077342  0.62571630  0.84875553  1
  O2-  O278  1  0.49934407  0.87492362  0.34838751  1
  O2-  O279  1  0.49921077  0.87472548  0.84471003  1
  O2-  O280  1  0.74735574  0.12574891  0.34369427  1
  O2-  O281  1  0.75290883  0.12492042  0.85150974  1
  O2-  O282  1  0.75003184  0.37435899  0.34969678  1
  O2-  O283  1  0.75239513  0.37462419  0.84357188  1
  O2-  O284  1  0.74947946  0.62430834  0.35023600  1
  O2-  O285  1  0.75004373  0.62621352  0.84303776  1
  O2-  O286  1  0.74896413  0.87542601  0.34588668  1
  O2-  O287  1  0.74956683  0.87452040  0.85002359  1
