# generated using pymatgen
data_BaYFeCuO5
_symmetry_space_group_name_H-M   'P 1'
_cell_length_a   15.66468942
_cell_length_b   15.66584706
_cell_length_c   15.46647506
_cell_angle_alpha   89.99794885
_cell_angle_beta   90.00305301
_cell_angle_gamma   90.00459301
_symmetry_Int_Tables_number   1
_chemical_formula_structural   BaYFeCuO5
_chemical_formula_sum   'Ba32 Y32 Fe32 Cu32 O160'
_cell_volume   3795.48268539
_cell_formula_units_Z   32
loop_
 _symmetry_equiv_pos_site_id
 _symmetry_equiv_pos_as_xyz
  1  'x, y, z'
loop_
 _atom_type_symbol
 _atom_type_oxidation_number
  Ba2+  2.0
  Y3+  3.0
  Fe3+  3.0
  Cu2+  2.0
  O2-  -2.0
loop_
 _atom_site_type_symbol
 _atom_site_label
 _atom_site_symmetry_multiplicity
 _atom_site_fract_x
 _atom_site_fract_y
 _atom_site_fract_z
 _atom_site_occupancy
  Ba2+  Ba0  1  0.00448367  0.00526477  0.01172051  1
  Ba2+  Ba1  1  0.00565724  -0.00403199  0.51636296  1
  Ba2+  Ba2  1  0.00190213  0.25106312  0.00475737  1
  Ba2+  Ba3  1  0.00536461  0.24245708  0.50666858  1
  Ba2+  Ba4  1  -0.00005868  0.49917665  0.02025229  1
  Ba2+  Ba5  1  -0.00725634  0.50801574  0.50614784  1
  Ba2+  Ba6  1  0.00411663  0.74520524  0.02181887  1
  Ba2+  Ba7  1  -0.00668604  0.75353283  0.51567634  1
  Ba2+  Ba8  1  0.24939156  0.00155940  0.00625978  1
  Ba2+  Ba9  1  0.24885136  -0.00565587  0.51240209  1
  Ba2+  Ba10  1  0.25021724  0.25222604  -0.00151272  1
  Ba2+  Ba11  1  0.24986229  0.24610280  0.51107309  1
  Ba2+  Ba12  1  0.24762045  0.49241803  0.00524701  1
  Ba2+  Ba13  1  0.26186543  0.50391135  0.51145575  1
  Ba2+  Ba14  1  0.24461391  0.75342836  0.01352181  1
  Ba2+  Ba15  1  0.26033066  0.75425664  0.51082665  1
  Ba2+  Ba16  1  0.49739190  -0.00408643  0.00598246  1
  Ba2+  Ba17  1  0.50489303  -0.00759232  0.50633732  1
  Ba2+  Ba18  1  0.49264832  0.25445196  0.01755056  1
  Ba2+  Ba19  1  0.50711950  0.25360504  0.51113706  1
  Ba2+  Ba20  1  0.49736971  0.48919750  0.01193386  1
  Ba2+  Ba21  1  0.50147814  0.50209123  0.51783661  1
  Ba2+  Ba22  1  0.50140154  0.75939659  0.00246915  1
  Ba2+  Ba23  1  0.49893437  0.75214768  0.51278907  1
  Ba2+  Ba24  1  0.74800097  -0.00145925  0.01133233  1
  Ba2+  Ba25  1  0.74039932  -0.00527717  0.51116928  1
  Ba2+  Ba26  1  0.75568211  0.25433953  0.02484128  1
  Ba2+  Ba27  1  0.73758307  0.24943828  0.50615051  1
  Ba2+  Ba28  1  0.75544204  0.49525446  0.02336028  1
  Ba2+  Ba29  1  0.74361626  0.50524210  0.51071964  1
  Ba2+  Ba30  1  0.74820393  0.75209337  0.01088686  1
  Ba2+  Ba31  1  0.74713400  0.75035190  0.51700619  1
  Y3+  Y32  1  0.00159539  0.00092561  0.25829432  1
  Y3+  Y33  1  0.00190562  0.00019800  0.75490572  1
  Y3+  Y34  1  -0.00060412  0.24776854  0.26033217  1
  Y3+  Y35  1  0.00287740  0.24838695  0.75456766  1
  Y3+  Y36  1  -0.00205795  0.50285929  0.25995403  1
  Y3+  Y37  1  -0.00089765  0.50117089  0.75358998  1
  Y3+  Y38  1  -0.00030059  0.74824621  0.25790179  1
  Y3+  Y39  1  -0.00177143  0.75068457  0.75329665  1
  Y3+  Y40  1  0.25135167  -0.00002130  0.26096704  1
  Y3+  Y41  1  0.25005426  -0.00071352  0.75506178  1
  Y3+  Y42  1  0.25238673  0.24846961  0.25938782  1
  Y3+  Y43  1  0.25036541  0.25071277  0.75636690  1
  Y3+  Y44  1  0.25243080  0.50130773  0.25792474  1
  Y3+  Y45  1  0.25398598  0.49878386  0.75715108  1
  Y3+  Y46  1  0.25209646  0.74997841  0.26019511  1
  Y3+  Y47  1  0.25322718  0.75164540  0.75514186  1
  Y3+  Y48  1  0.50116078  -0.00163758  0.25931468  1
  Y3+  Y49  1  0.50154786  -0.00293026  0.75644726  1
  Y3+  Y50  1  0.50075041  0.25028435  0.25890161  1
  Y3+  Y51  1  0.50015911  0.25211874  0.75516019  1
  Y3+  Y52  1  0.49951365  0.49812480  0.25763897  1
  Y3+  Y53  1  0.49880371  0.49872363  0.75649545  1
  Y3+  Y54  1  0.49953562  0.75269059  0.25927117  1
  Y3+  Y55  1  0.50025616  0.75251502  0.75708698  1
  Y3+  Y56  1  0.74618433  -0.00036175  0.25750856  1
  Y3+  Y57  1  0.74654363  -0.00206849  0.75603689  1
  Y3+  Y58  1  0.74721258  0.24994897  0.26136333  1
  Y3+  Y59  1  0.74671005  0.24942944  0.75188210  1
  Y3+  Y60  1  0.75006651  0.49985340  0.26048139  1
  Y3+  Y61  1  0.74862249  0.50148046  0.75241140  1
  Y3+  Y62  1  0.74887174  0.75033599  0.25681093  1
  Y3+  Y63  1  0.74849306  0.75150238  0.75635189  1
  Fe3+  Fe64  1  0.12567827  0.37576165  0.38154792  1
  Fe3+  Fe65  1  0.12426312  0.62454565  0.87463098  1
  Fe3+  Fe66  1  0.62554445  0.62369546  0.88000627  1
  Fe3+  Fe67  1  0.12601768  0.62599956  0.38037416  1
  Fe3+  Fe68  1  0.62539744  0.12651916  0.88023219  1
  Fe3+  Fe69  1  0.12504139  0.87421933  0.37683156  1
  Fe3+  Fe70  1  0.62676284  0.37439339  0.87702735  1
  Fe3+  Fe71  1  0.87415665  0.37474180  0.38050791  1
  Fe3+  Fe72  1  0.62362483  0.62592430  0.37495870  1
  Fe3+  Fe73  1  0.37502842  0.62543366  0.88021729  1
  Fe3+  Fe74  1  0.12423071  0.87431875  0.87546030  1
  Fe3+  Fe75  1  0.37645007  0.12381536  0.38066001  1
  Fe3+  Fe76  1  0.87377176  0.87488633  0.37594254  1
  Fe3+  Fe77  1  0.37616366  0.37542318  0.37872919  1
  Fe3+  Fe78  1  0.87468108  0.37521897  0.87273001  1
  Fe3+  Fe79  1  0.87511105  0.62439479  0.87672106  1
  Fe3+  Fe80  1  0.87369738  0.12259319  0.37988248  1
  Fe3+  Fe81  1  0.37564943  0.12496375  0.87576131  1
  Fe3+  Fe82  1  0.87619133  0.87501051  0.87894396  1
  Fe3+  Fe83  1  0.87435594  0.12580370  0.87552429  1
  Fe3+  Fe84  1  0.87600306  0.87598940  0.13495334  1
  Fe3+  Fe85  1  0.62375036  0.12525325  0.13571389  1
  Fe3+  Fe86  1  0.87344916  0.12364325  0.63324268  1
  Fe3+  Fe87  1  0.37421413  0.87591057  0.13906198  1
  Fe3+  Fe88  1  0.37685478  0.12427774  0.63537469  1
  Fe3+  Fe89  1  0.12538370  0.37644442  0.63367646  1
  Fe3+  Fe90  1  0.12644608  0.62628937  0.63368660  1
  Fe3+  Fe91  1  0.12546080  0.37419969  0.14261194  1
  Fe3+  Fe92  1  0.37483892  0.62484603  0.13399143  1
  Fe3+  Fe93  1  0.12675377  0.12578127  0.14035861  1
  Fe3+  Fe94  1  0.62383919  0.62472368  0.13398224  1
  Fe3+  Fe95  1  0.87439209  0.37429140  0.63198243  1
  Cu2+  Cu96  1  0.12498386  0.12503499  0.85948059  1
  Cu2+  Cu97  1  0.37691104  0.62521496  0.37226365  1
  Cu2+  Cu98  1  0.62411524  0.37637527  0.37174485  1
  Cu2+  Cu99  1  0.37404357  0.87524814  0.86300226  1
  Cu2+  Cu100  1  0.12589890  0.12374267  0.37514235  1
  Cu2+  Cu101  1  0.37572222  0.37443852  0.87092072  1
  Cu2+  Cu102  1  0.87324029  0.62712038  0.37331094  1
  Cu2+  Cu103  1  0.37575803  0.87483901  0.37252251  1
  Cu2+  Cu104  1  0.62603169  0.87545773  0.87342185  1
  Cu2+  Cu105  1  0.62389285  0.12391233  0.37233784  1
  Cu2+  Cu106  1  0.62532127  0.87360307  0.36988597  1
  Cu2+  Cu107  1  0.12374042  0.37598252  0.85737570  1
  Cu2+  Cu108  1  0.87516964  0.12464438  0.15294025  1
  Cu2+  Cu109  1  0.12549294  0.87535570  0.15302472  1
  Cu2+  Cu110  1  0.12628157  0.62438894  0.15482606  1
  Cu2+  Cu111  1  0.87348725  0.62577455  0.63979109  1
  Cu2+  Cu112  1  0.62484279  0.37592455  0.64115061  1
  Cu2+  Cu113  1  0.37481960  0.12474060  0.15194111  1
  Cu2+  Cu114  1  0.62377290  0.62587005  0.65401356  1
  Cu2+  Cu115  1  0.37612931  0.62593741  0.64411152  1
  Cu2+  Cu116  1  0.62492027  0.37496434  0.15290647  1
  Cu2+  Cu117  1  0.87410061  0.62560283  0.15190465  1
  Cu2+  Cu118  1  0.12635698  0.12442463  0.64119771  1
  Cu2+  Cu119  1  0.87646705  0.37425913  0.15988241  1
  Cu2+  Cu120  1  0.37283159  0.37436462  0.14518303  1
  Cu2+  Cu121  1  0.87381898  0.87612788  0.65127408  1
  Cu2+  Cu122  1  0.12571224  0.87373734  0.65021821  1
  Cu2+  Cu123  1  0.62346611  0.12394123  0.64250109  1
  Cu2+  Cu124  1  0.62421868  0.87428012  0.64417324  1
  Cu2+  Cu125  1  0.37505309  0.37449688  0.64722239  1
  Cu2+  Cu126  1  0.62431001  0.87497396  0.14140953  1
  Cu2+  Cu127  1  0.37615228  0.87584073  0.64364652  1
  O2-  O128  1  0.12563813  0.12808489  0.01968340  1
  O2-  O129  1  0.12556965  0.12376165  0.50803075  1
  O2-  O130  1  0.12347569  0.37377965  0.02186981  1
  O2-  O131  1  0.12592183  0.37647608  0.50771966  1
  O2-  O132  1  0.12278643  0.62297108  -0.00512919  1
  O2-  O133  1  0.12630284  0.62705535  0.50656827  1
  O2-  O134  1  0.12254923  0.87458862  -0.00412669  1
  O2-  O135  1  0.12400535  0.87252952  0.49721531  1
  O2-  O136  1  0.37360953  0.12569316  -0.00358064  1
  O2-  O137  1  0.37714234  0.12381615  0.50771033  1
  O2-  O138  1  0.37271269  0.37421332  0.00648537  1
  O2-  O139  1  0.37637646  0.37566342  0.49917523  1
  O2-  O140  1  0.37243007  0.62489441  0.00713751  1
  O2-  O141  1  0.37711237  0.62543462  0.50791855  1
  O2-  O142  1  0.37224681  0.87582398  0.01794220  1
  O2-  O143  1  0.37601139  0.87598579  0.50810174  1
  O2-  O144  1  0.62617318  0.12793391  0.00670381  1
  O2-  O145  1  0.62368189  0.12348830  0.50665026  1
  O2-  O146  1  0.62913590  0.37337052  -0.00267467  1
  O2-  O147  1  0.62474713  0.37732262  0.50661128  1
  O2-  O148  1  0.62678195  0.62243968  0.00632754  1
  O2-  O149  1  0.62312391  0.62681443  0.49583567  1
  O2-  O150  1  0.62602779  0.87605277  0.00713628  1
  O2-  O151  1  0.62539034  0.87205597  0.50805143  1
  O2-  O152  1  0.87586741  0.12828485  -0.00429766  1
  O2-  O153  1  0.87361445  0.12150943  0.50621185  1
  O2-  O154  1  0.87652716  0.37492665  -0.00692901  1
  O2-  O155  1  0.87416568  0.37498065  0.50617456  1
  O2-  O156  1  0.87727159  0.62196286  -0.00343513  1
  O2-  O157  1  0.87344314  0.62697652  0.50616728  1
  O2-  O158  1  0.87787882  0.87535518  0.00572165  1
  O2-  O159  1  0.87380634  0.87601719  0.49624756  1
  O2-  O160  1  0.12487058  0.00089882  0.16556615  1
  O2-  O161  1  0.12511690  -0.00232015  0.66471494  1
  O2-  O162  1  0.12478406  0.24955518  0.17495143  1
  O2-  O163  1  0.12519639  0.25357137  0.66234863  1
  O2-  O164  1  0.12425503  0.49961451  0.17049393  1
  O2-  O165  1  0.12436394  0.50058421  0.65971567  1
  O2-  O166  1  0.12519792  0.74943176  0.16203405  1
  O2-  O167  1  0.12523861  0.74874980  0.66286123  1
  O2-  O168  1  0.37473090  -0.00034774  0.16799670  1
  O2-  O169  1  0.37542535  0.00226928  0.66468396  1
  O2-  O170  1  0.37448534  0.24852470  0.16904854  1
  O2-  O171  1  0.37470915  0.24873304  0.66087060  1
  O2-  O172  1  0.37421467  0.50257931  0.16369417  1
  O2-  O173  1  0.37552578  0.49893875  0.66574000  1
  O2-  O174  1  0.37438832  0.74878124  0.16464700  1
  O2-  O175  1  0.37571301  0.75068161  0.66778158  1
  O2-  O176  1  0.62456123  0.00285128  0.16379030  1
  O2-  O177  1  0.62474543  -0.00047957  0.66748481  1
  O2-  O178  1  0.62562063  0.24913587  0.16626877  1
  O2-  O179  1  0.62471451  0.24983416  0.66248317  1
  O2-  O180  1  0.62503611  0.50071734  0.16257496  1
  O2-  O181  1  0.62456153  0.50248298  0.66428761  1
  O2-  O182  1  0.62472800  0.74694230  0.16055489  1
  O2-  O183  1  0.62482538  0.74845366  0.66848032  1
  O2-  O184  1  0.87610326  -0.00123214  0.16092815  1
  O2-  O185  1  0.87468406  0.00137485  0.66546312  1
  O2-  O186  1  0.87523201  0.24926108  0.17042662  1
  O2-  O187  1  0.87533501  0.24935734  0.65769387  1
  O2-  O188  1  0.87607344  0.50015432  0.16665833  1
  O2-  O189  1  0.87514492  0.49721380  0.66019689  1
  O2-  O190  1  0.87538409  0.75180585  0.15975294  1
  O2-  O191  1  0.87392490  0.75213863  0.66612671  1
  O2-  O192  1  0.00083151  0.12522522  0.16875540  1
  O2-  O193  1  -0.00282769  0.12458317  0.66123217  1
  O2-  O194  1  0.00090100  0.37476905  0.17253618  1
  O2-  O195  1  -0.00008035  0.37496817  0.65892292  1
  O2-  O196  1  -0.00010946  0.62477449  0.16696032  1
  O2-  O197  1  0.00288350  0.62587994  0.65959608  1
  O2-  O198  1  -0.00065724  0.87488940  0.16338539  1
  O2-  O199  1  -0.00028404  0.87492702  0.66154241  1
  O2-  O200  1  0.24989506  0.12470462  0.17053913  1
  O2-  O201  1  0.25341540  0.12517451  0.66334957  1
  O2-  O202  1  0.24824525  0.37519260  0.17141041  1
  O2-  O203  1  0.24816416  0.37618033  0.66356493  1
  O2-  O204  1  0.25212474  0.62511529  0.16577744  1
  O2-  O205  1  0.24767358  0.62456311  0.66482471  1
  O2-  O206  1  0.25024831  0.87469187  0.16823320  1
  O2-  O207  1  0.24957426  0.87478344  0.66464028  1
  O2-  O208  1  0.50106746  0.12606166  0.16130522  1
  O2-  O209  1  0.49749736  0.12546938  0.66819990  1
  O2-  O210  1  0.49961492  0.37452075  0.16169150  1
  O2-  O211  1  0.49908960  0.37545696  0.66629926  1
  O2-  O212  1  0.49937725  0.62387594  0.15776060  1
  O2-  O213  1  0.50149247  0.62504301  0.67066958  1
  O2-  O214  1  0.49788744  0.87505133  0.16592640  1
  O2-  O215  1  0.50045532  0.87467340  0.66842519  1
  O2-  O216  1  0.74846667  0.12528181  0.16282208  1
  O2-  O217  1  0.75192186  0.12443612  0.66341765  1
  O2-  O218  1  0.75158045  0.37469268  0.16547456  1
  O2-  O219  1  0.75271405  0.37468982  0.66102457  1
  O2-  O220  1  0.74804023  0.62422143  0.16140462  1
  O2-  O221  1  0.74724742  0.62562137  0.66431882  1
  O2-  O222  1  0.75271538  0.87573150  0.16102091  1
  O2-  O223  1  0.75007924  0.87514366  0.66679645  1
  O2-  O224  1  0.12499733  -0.00198467  0.34728657  1
  O2-  O225  1  0.12448556  -0.00088124  0.84797312  1
  O2-  O226  1  0.12457815  0.25298363  0.35573242  1
  O2-  O227  1  0.12419606  0.25078552  0.84740434  1
  O2-  O228  1  0.12457688  0.50010156  0.35391989  1
  O2-  O229  1  0.12495830  0.50107259  0.84225585  1
  O2-  O230  1  0.12474560  0.74885492  0.34555918  1
  O2-  O231  1  0.12447184  0.74949012  0.84411783  1
  O2-  O232  1  0.37524043  0.00174295  0.35119685  1
  O2-  O233  1  0.37442727  0.00062236  0.84752814  1
  O2-  O234  1  0.37530104  0.24927195  0.35199626  1
  O2-  O235  1  0.37475126  0.24800573  0.84353710  1
  O2-  O236  1  0.37466310  0.49837019  0.34650490  1
  O2-  O237  1  0.37474847  0.50300693  0.84979141  1
  O2-  O238  1  0.37538034  0.75019937  0.34773839  1
  O2-  O239  1  0.37513987  0.74859260  0.85197314  1
  O2-  O240  1  0.62523668  -0.00102348  0.34784832  1
  O2-  O241  1  0.62603055  0.00318516  0.85149865  1
  O2-  O242  1  0.62468098  0.25012350  0.35088932  1
  O2-  O243  1  0.62568808  0.24917180  0.84417448  1
  O2-  O244  1  0.62521124  0.50168112  0.34566589  1
  O2-  O245  1  0.62586527  0.50080052  0.84692951  1
  O2-  O246  1  0.62492845  0.74899430  0.34295655  1
  O2-  O247  1  0.62540908  0.74702633  0.85290690  1
  O2-  O248  1  0.87448176  0.00035019  0.34432942  1
  O2-  O249  1  0.87579187  -0.00044831  0.84965673  1
  O2-  O250  1  0.87527641  0.24934348  0.35528323  1
  O2-  O251  1  0.87558395  0.24990304  0.83952528  1
  O2-  O252  1  0.87501526  0.49749775  0.35166068  1
  O2-  O253  1  0.87491039  0.50033592  0.84074134  1
  O2-  O254  1  0.87504187  0.75245727  0.34250915  1
  O2-  O255  1  0.87555743  0.75057402  0.84939225  1
  O2-  O256  1  -0.00327070  0.12451598  0.35192499  1
  O2-  O257  1  -0.00020577  0.12551786  0.84509627  1
  O2-  O258  1  -0.00010486  0.37511281  0.35533633  1
  O2-  O259  1  -0.00124716  0.37506204  0.84125939  1
  O2-  O260  1  0.00283775  0.62510761  0.35181170  1
  O2-  O261  1  -0.00078182  0.62470056  0.84043395  1
  O2-  O262  1  -0.00016749  0.87505666  0.34550227  1
  O2-  O263  1  -0.00127991  0.87512863  0.84407201  1
  O2-  O264  1  0.25356300  0.12539299  0.35289714  1
  O2-  O265  1  0.24961995  0.12566542  0.84717140  1
  O2-  O266  1  0.24930680  0.37538140  0.35184565  1
  O2-  O267  1  0.24826409  0.37505952  0.84850177  1
  O2-  O268  1  0.24754732  0.62475000  0.35053641  1
  O2-  O269  1  0.25109067  0.62500852  0.84819758  1
  O2-  O270  1  0.24867506  0.87409102  0.34960423  1
  O2-  O271  1  0.24882860  0.87473189  0.84744480  1
  O2-  O272  1  0.49698848  0.12471186  0.34605801  1
  O2-  O273  1  0.50216407  0.12493746  0.85090933  1
  O2-  O274  1  0.49810169  0.37484441  0.34496467  1
  O2-  O275  1  0.50312647  0.37512259  0.84901886  1
  O2-  O276  1  0.50162932  0.62481030  0.34054558  1
  O2-  O277  1  0.50021635  0.62476738  0.85565178  1
  O2-  O278  1  0.50041448  0.87512948  0.34831969  1
  O2-  O279  1  0.49860372  0.87564339  0.85226822  1
  O2-  O280  1  0.75250085  0.12480315  0.34778687  1
  O2-  O281  1  0.74878110  0.12535332  0.84601302  1
  O2-  O282  1  0.75250030  0.37425380  0.34991056  1
  O2-  O283  1  0.75012554  0.37474641  0.84056259  1
  O2-  O284  1  0.74769924  0.62539986  0.34449954  1
  O2-  O285  1  0.74960097  0.62504045  0.84730456  1
  O2-  O286  1  0.75090074  0.87535882  0.34374630  1
  O2-  O287  1  0.75401917  0.87520442  0.85051376  1
