# generated using pymatgen
data_BaYFeCuO5
_symmetry_space_group_name_H-M   'P 1'
_cell_length_a   15.67865986
_cell_length_b   15.67637335
_cell_length_c   15.49799748
_cell_angle_alpha   89.99641296
_cell_angle_beta   90.00896293
_cell_angle_gamma   90.00101424
_symmetry_Int_Tables_number   1
_chemical_formula_structural   BaYFeCuO5
_chemical_formula_sum   'Ba32 Y32 Fe32 Cu32 O160'
_cell_volume   3809.16790182
_cell_formula_units_Z   32
loop_
 _symmetry_equiv_pos_site_id
 _symmetry_equiv_pos_as_xyz
  1  'x, y, z'
loop_
 _atom_type_symbol
 _atom_type_oxidation_number
  Ba2+  2.0
  Y3+  3.0
  Fe3+  3.0
  Cu2+  2.0
  O2-  -2.0
loop_
 _atom_site_type_symbol
 _atom_site_label
 _atom_site_symmetry_multiplicity
 _atom_site_fract_x
 _atom_site_fract_y
 _atom_site_fract_z
 _atom_site_occupancy
  Ba2+  Ba0  1  -0.00733875  -0.00701734  0.01652264  1
  Ba2+  Ba1  1  0.00861485  0.00698722  0.50621297  1
  Ba2+  Ba2  1  0.00278694  0.25210521  0.01073020  1
  Ba2+  Ba3  1  0.00460637  0.24883544  0.51528348  1
  Ba2+  Ba4  1  0.00574447  0.50321814  0.00592886  1
  Ba2+  Ba5  1  0.00294396  0.50070322  0.49977667  1
  Ba2+  Ba6  1  -0.00352439  0.75301441  0.01314276  1
  Ba2+  Ba7  1  0.00769685  0.74326997  0.49783968  1
  Ba2+  Ba8  1  0.25928668  -0.00433895  0.01028715  1
  Ba2+  Ba9  1  0.24670461  0.00267401  0.51235775  1
  Ba2+  Ba10  1  0.25051163  0.24932604  0.00658906  1
  Ba2+  Ba11  1  0.24689330  0.24791841  0.51500329  1
  Ba2+  Ba12  1  0.24361552  0.50249522  0.00583970  1
  Ba2+  Ba13  1  0.24674800  0.50160747  0.51415683  1
  Ba2+  Ba14  1  0.25282493  0.75278702  0.01250144  1
  Ba2+  Ba15  1  0.24784431  0.74636726  0.51294824  1
  Ba2+  Ba16  1  0.49717448  -0.00267161  0.01609460  1
  Ba2+  Ba17  1  0.48899048  0.00112213  0.51738872  1
  Ba2+  Ba18  1  0.49822229  0.23777885  0.01059291  1
  Ba2+  Ba19  1  0.49668035  0.25872493  0.50442748  1
  Ba2+  Ba20  1  0.49963933  0.51111128  0.01677108  1
  Ba2+  Ba21  1  0.50109755  0.49815828  0.51321094  1
  Ba2+  Ba22  1  0.49931975  0.75425175  0.02042388  1
  Ba2+  Ba23  1  0.49335151  0.74366197  0.52055262  1
  Ba2+  Ba24  1  0.75007521  -0.00432094  0.02360285  1
  Ba2+  Ba25  1  0.75540286  0.00620571  0.51058840  1
  Ba2+  Ba26  1  0.75021142  0.23892824  0.01792571  1
  Ba2+  Ba27  1  0.75272366  0.25861606  0.50589504  1
  Ba2+  Ba28  1  0.75072260  0.51120395  0.01771929  1
  Ba2+  Ba29  1  0.74895222  0.49651447  0.50089633  1
  Ba2+  Ba30  1  0.75090689  0.75425230  0.02271995  1
  Ba2+  Ba31  1  0.75054594  0.73986458  0.50673254  1
  Y3+  Y32  1  0.00244411  -0.00169372  0.25820734  1
  Y3+  Y33  1  0.00014622  0.00047758  0.75660100  1
  Y3+  Y34  1  0.00221510  0.24993722  0.25617117  1
  Y3+  Y35  1  0.00262102  0.24951267  0.75893283  1
  Y3+  Y36  1  0.00097844  0.50103739  0.25720143  1
  Y3+  Y37  1  0.00425495  0.50030662  0.75968084  1
  Y3+  Y38  1  0.00144245  0.75021565  0.25839722  1
  Y3+  Y39  1  0.00147703  0.74983655  0.75922059  1
  Y3+  Y40  1  0.24903245  -0.00118147  0.25582661  1
  Y3+  Y41  1  0.25246144  0.00063919  0.75842147  1
  Y3+  Y42  1  0.24946576  0.24928896  0.25410424  1
  Y3+  Y43  1  0.24845680  0.24849529  0.76096940  1
  Y3+  Y44  1  0.24860366  0.49985019  0.25569180  1
  Y3+  Y45  1  0.24614376  0.50098156  0.75972605  1
  Y3+  Y46  1  0.24854322  0.75151467  0.25741277  1
  Y3+  Y47  1  0.24997673  0.74935413  0.75734550  1
  Y3+  Y48  1  0.49758508  0.00015498  0.25356607  1
  Y3+  Y49  1  0.49453624  -0.00017015  0.75884663  1
  Y3+  Y50  1  0.49921531  0.25015517  0.25624506  1
  Y3+  Y51  1  0.49902819  0.24975604  0.75721886  1
  Y3+  Y52  1  0.49978487  0.49904413  0.25828794  1
  Y3+  Y53  1  0.50105320  0.50045685  0.75539048  1
  Y3+  Y54  1  0.49820589  0.75044983  0.25447168  1
  Y3+  Y55  1  0.49715679  0.75063127  0.75576746  1
  Y3+  Y56  1  0.75105099  -0.00000041  0.25752652  1
  Y3+  Y57  1  0.75223230  -0.00066705  0.75480259  1
  Y3+  Y58  1  0.74943335  0.25093373  0.25922170  1
  Y3+  Y59  1  0.74992413  0.25083483  0.75438198  1
  Y3+  Y60  1  0.75108083  0.50012980  0.25994939  1
  Y3+  Y61  1  0.74793523  0.49977390  0.75479674  1
  Y3+  Y62  1  0.75182077  0.74924147  0.25754368  1
  Y3+  Y63  1  0.75103391  0.75062180  0.75557387  1
  Fe3+  Fe64  1  0.12651092  0.37377799  0.37481547  1
  Fe3+  Fe65  1  0.62355548  0.87521243  0.38033742  1
  Fe3+  Fe66  1  0.62326432  0.62533145  0.37529276  1
  Fe3+  Fe67  1  0.87408323  0.12374138  0.87662993  1
  Fe3+  Fe68  1  0.87352372  0.37535350  0.88149045  1
  Fe3+  Fe69  1  0.37345059  0.12570313  0.37542126  1
  Fe3+  Fe70  1  0.37530540  0.62599554  0.87679329  1
  Fe3+  Fe71  1  0.62528126  0.87515968  0.87449514  1
  Fe3+  Fe72  1  0.37631050  0.37577479  0.88091588  1
  Fe3+  Fe73  1  0.62359105  0.12497598  0.37894495  1
  Fe3+  Fe74  1  0.87688554  0.12651485  0.37607191  1
  Fe3+  Fe75  1  0.62530511  0.62723929  0.87550706  1
  Fe3+  Fe76  1  0.12491499  0.87514464  0.87900794  1
  Fe3+  Fe77  1  0.37389386  0.62377891  0.37538333  1
  Fe3+  Fe78  1  0.87437796  0.62629337  0.87778890  1
  Fe3+  Fe79  1  0.87594788  0.87488840  0.38030617  1
  Fe3+  Fe80  1  0.12483958  0.12277962  0.88058829  1
  Fe3+  Fe81  1  0.37437646  0.87453355  0.37715231  1
  Fe3+  Fe82  1  0.62540109  0.37502575  0.88171799  1
  Fe3+  Fe83  1  0.62570816  0.12271887  0.87439879  1
  Fe3+  Fe84  1  0.12501143  0.87458418  0.63783693  1
  Fe3+  Fe85  1  0.12499350  0.62616538  0.13852774  1
  Fe3+  Fe86  1  0.37472582  0.37567041  0.13408686  1
  Fe3+  Fe87  1  0.62471859  0.87508347  0.63181626  1
  Fe3+  Fe88  1  0.62414376  0.12640236  0.63268440  1
  Fe3+  Fe89  1  0.87671119  0.62375777  0.63716615  1
  Fe3+  Fe90  1  0.12499042  0.12344552  0.13447413  1
  Fe3+  Fe91  1  0.87697450  0.87458458  0.63258193  1
  Fe3+  Fe92  1  0.87545019  0.37540712  0.13534052  1
  Fe3+  Fe93  1  0.87694480  0.37605206  0.63946331  1
  Fe3+  Fe94  1  0.37323987  0.37528886  0.64095616  1
  Fe3+  Fe95  1  0.62510152  0.37500424  0.13426891  1
  Cu2+  Cu96  1  0.37548855  0.87388053  0.87121487  1
  Cu2+  Cu97  1  0.12687532  0.62414369  0.37029439  1
  Cu2+  Cu98  1  0.12627619  0.12564993  0.36911440  1
  Cu2+  Cu99  1  0.87381837  0.87504500  0.87117932  1
  Cu2+  Cu100  1  0.62407498  0.37502676  0.37205890  1
  Cu2+  Cu101  1  0.87561880  0.62472422  0.36281037  1
  Cu2+  Cu102  1  0.37372643  0.37501589  0.35983868  1
  Cu2+  Cu103  1  0.12495049  0.62669064  0.86577588  1
  Cu2+  Cu104  1  0.37545385  0.12464072  0.87322626  1
  Cu2+  Cu105  1  0.12605255  0.87513461  0.36621903  1
  Cu2+  Cu106  1  0.87683040  0.37458170  0.35979431  1
  Cu2+  Cu107  1  0.12468950  0.37440097  0.87565234  1
  Cu2+  Cu108  1  0.37399606  0.62465579  0.15102298  1
  Cu2+  Cu109  1  0.62492785  0.37475123  0.64177519  1
  Cu2+  Cu110  1  0.12549315  0.12464593  0.64552417  1
  Cu2+  Cu111  1  0.62520079  0.62497943  0.15437884  1
  Cu2+  Cu112  1  0.87563356  0.12576087  0.64927440  1
  Cu2+  Cu113  1  0.37446422  0.12640364  0.65285678  1
  Cu2+  Cu114  1  0.12375653  0.62499819  0.64348932  1
  Cu2+  Cu115  1  0.37366812  0.87453746  0.64955092  1
  Cu2+  Cu116  1  0.87546919  0.87448250  0.14768243  1
  Cu2+  Cu117  1  0.12486779  0.37538559  0.14019083  1
  Cu2+  Cu118  1  0.12491611  0.87497251  0.14820062  1
  Cu2+  Cu119  1  0.87608848  0.12537666  0.15339910  1
  Cu2+  Cu120  1  0.37411855  0.12504017  0.14141572  1
  Cu2+  Cu121  1  0.12491149  0.37492042  0.65567194  1
  Cu2+  Cu122  1  0.62511836  0.12482951  0.15498007  1
  Cu2+  Cu123  1  0.87604321  0.62474143  0.15376721  1
  Cu2+  Cu124  1  0.62506922  0.87498536  0.15642873  1
  Cu2+  Cu125  1  0.37367491  0.62348018  0.65341518  1
  Cu2+  Cu126  1  0.37415888  0.87458966  0.14322889  1
  Cu2+  Cu127  1  0.62563221  0.62505685  0.64923916  1
  O2-  O128  1  0.12387283  0.12218978  0.00686519  1
  O2-  O129  1  0.12632503  0.12643373  0.50730259  1
  O2-  O130  1  0.12354792  0.37533899  0.00736277  1
  O2-  O131  1  0.12635479  0.37346158  0.49538570  1
  O2-  O132  1  0.12388709  0.62707508  0.01764356  1
  O2-  O133  1  0.12572828  0.62358529  0.50767622  1
  O2-  O134  1  0.12401280  0.87541040  -0.00054428  1
  O2-  O135  1  0.12486448  0.87454926  0.51717989  1
  O2-  O136  1  0.37576254  0.12433375  0.00718729  1
  O2-  O137  1  0.37372726  0.12647009  0.49573022  1
  O2-  O138  1  0.37798234  0.37628765  0.00742058  1
  O2-  O139  1  0.37298881  0.37567418  0.52043389  1
  O2-  O140  1  0.37685592  0.62764808  -0.00313810  1
  O2-  O141  1  0.37453799  0.62243234  0.49557319  1
  O2-  O142  1  0.37698185  0.87341046  0.00717315  1
  O2-  O143  1  0.37511287  0.87456232  0.49746663  1
  O2-  O144  1  0.62751737  0.12063989  -0.00561762  1
  O2-  O145  1  0.62299242  0.12768806  0.50520335  1
  O2-  O146  1  0.62603219  0.37473198  0.00718016  1
  O2-  O147  1  0.62461556  0.37509775  0.50631647  1
  O2-  O148  1  0.62606449  0.62881475  -0.00476799  1
  O2-  O149  1  0.62300182  0.62398028  0.49549642  1
  O2-  O150  1  0.62607035  0.87586856  -0.00563373  1
  O2-  O151  1  0.62320487  0.87442853  0.50516653  1
  O2-  O152  1  0.87150833  0.12122835  -0.00348629  1
  O2-  O153  1  0.87698174  0.12790714  0.49624770  1
  O2-  O154  1  0.87187650  0.37532202  0.00794441  1
  O2-  O155  1  0.87713080  0.37651040  0.51935576  1
  O2-  O156  1  0.87218250  0.62868225  -0.00206407  1
  O2-  O157  1  0.87665337  0.62196941  0.51706594  1
  O2-  O158  1  0.87248638  0.87467434  0.00704675  1
  O2-  O159  1  0.87678373  0.87476761  0.50660355  1
  O2-  O160  1  0.12405242  0.00094594  0.16461659  1
  O2-  O161  1  0.12509909  -0.00188282  0.66553837  1
  O2-  O162  1  0.12457174  0.24711848  0.16042739  1
  O2-  O163  1  0.12513360  0.25042790  0.66905135  1
  O2-  O164  1  0.12468549  0.50194147  0.16517067  1
  O2-  O165  1  0.12458249  0.49892079  0.66830375  1
  O2-  O166  1  0.12448478  0.74995286  0.16732603  1
  O2-  O167  1  0.12493815  0.75189281  0.66613043  1
  O2-  O168  1  0.37506334  -0.00004935  0.16514162  1
  O2-  O169  1  0.37457072  0.00127334  0.66290181  1
  O2-  O170  1  0.37611181  0.25324388  0.16216518  1
  O2-  O171  1  0.37432119  0.25086452  0.67087484  1
  O2-  O172  1  0.37584135  0.49836668  0.16206371  1
  O2-  O173  1  0.37441218  0.49940951  0.67051422  1
  O2-  O174  1  0.37532052  0.74847154  0.16554368  1
  O2-  O175  1  0.37457575  0.74812261  0.66122595  1
  O2-  O176  1  0.62608121  0.00018349  0.16844756  1
  O2-  O177  1  0.62529627  0.00035689  0.65444789  1
  O2-  O178  1  0.62514588  0.25197742  0.16243527  1
  O2-  O179  1  0.62493952  0.24685464  0.66674205  1
  O2-  O180  1  0.62592021  0.49812014  0.16098734  1
  O2-  O181  1  0.62489071  0.50144814  0.66785945  1
  O2-  O182  1  0.62548392  0.74960160  0.16648300  1
  O2-  O183  1  0.62582941  0.75216974  0.65783081  1
  O2-  O184  1  0.87471273  0.00123923  0.16866047  1
  O2-  O185  1  0.87517241  -0.00154131  0.65836929  1
  O2-  O186  1  0.87433323  0.25156851  0.16068663  1
  O2-  O187  1  0.87556512  0.25077424  0.66898055  1
  O2-  O188  1  0.87408869  0.49829346  0.16296183  1
  O2-  O189  1  0.87555820  0.49989555  0.67318227  1
  O2-  O190  1  0.87491266  0.74862735  0.16886144  1
  O2-  O191  1  0.87403901  0.75153733  0.66165820  1
  O2-  O192  1  0.00155823  0.12461835  0.16191760  1
  O2-  O193  1  -0.00097248  0.12546008  0.66786714  1
  O2-  O194  1  -0.00282520  0.37478393  0.16228179  1
  O2-  O195  1  0.00073071  0.37410498  0.67014017  1
  O2-  O196  1  0.00059260  0.62541170  0.16740085  1
  O2-  O197  1  -0.00206461  0.62532929  0.67077252  1
  O2-  O198  1  0.00068349  0.87482054  0.16769998  1
  O2-  O199  1  -0.00138057  0.87515071  0.66756912  1
  O2-  O200  1  0.24699698  0.12449594  0.16138804  1
  O2-  O201  1  0.25133413  0.12578709  0.66925665  1
  O2-  O202  1  0.25235512  0.37511665  0.15985637  1
  O2-  O203  1  0.24901797  0.37469032  0.67038647  1
  O2-  O204  1  0.24939233  0.62532314  0.16421466  1
  O2-  O205  1  0.24999471  0.62410185  0.66685572  1
  O2-  O206  1  0.24883904  0.87488343  0.16475935  1
  O2-  O207  1  0.24994484  0.87501021  0.66704215  1
  O2-  O208  1  0.50117240  0.12501961  0.16431709  1
  O2-  O209  1  0.50110776  0.12507967  0.66234090  1
  O2-  O210  1  0.50105822  0.37556156  0.16190950  1
  O2-  O211  1  0.49816183  0.37497244  0.66804810  1
  O2-  O212  1  0.49990768  0.62441199  0.16208834  1
  O2-  O213  1  0.50007835  0.62441073  0.66185555  1
  O2-  O214  1  0.50136497  0.87521539  0.16485600  1
  O2-  O215  1  0.50071506  0.87523027  0.66116526  1
  O2-  O216  1  0.75043234  0.12525723  0.16732053  1
  O2-  O217  1  0.74845640  0.12522507  0.65776670  1
  O2-  O218  1  0.74966507  0.37446091  0.16363271  1
  O2-  O219  1  0.75202988  0.37492938  0.66653200  1
  O2-  O220  1  0.75051213  0.62503554  0.16626739  1
  O2-  O221  1  0.75138604  0.62467538  0.66329571  1
  O2-  O222  1  0.74911184  0.87493540  0.17037208  1
  O2-  O223  1  0.75039750  0.87609397  0.65754019  1
  O2-  O224  1  0.12533135  -0.00086198  0.34880437  1
  O2-  O225  1  0.12469296  0.00097363  0.84642078  1
  O2-  O226  1  0.12558393  0.25132500  0.34213249  1
  O2-  O227  1  0.12433304  0.24616400  0.85275591  1
  O2-  O228  1  0.12504469  0.49779308  0.34613380  1
  O2-  O229  1  0.12451071  0.50182659  0.85248005  1
  O2-  O230  1  0.12516075  0.75069273  0.35010783  1
  O2-  O231  1  0.12479488  0.75083403  0.84723222  1
  O2-  O232  1  0.37534038  -0.00021195  0.34626696  1
  O2-  O233  1  0.37516335  -0.00013858  0.84774804  1
  O2-  O234  1  0.37551665  0.24992568  0.34496565  1
  O2-  O235  1  0.37657563  0.25315711  0.85368760  1
  O2-  O236  1  0.37532102  0.49950740  0.34478715  1
  O2-  O237  1  0.37630027  0.49928360  0.85170922  1
  O2-  O238  1  0.37519948  0.75006185  0.34648349  1
  O2-  O239  1  0.37518456  0.74786846  0.84351413  1
  O2-  O240  1  0.62531146  0.00006691  0.35295831  1
  O2-  O241  1  0.62519506  -0.00030344  0.83702169  1
  O2-  O242  1  0.62489344  0.24666060  0.34708076  1
  O2-  O243  1  0.62537478  0.25123383  0.84985709  1
  O2-  O244  1  0.62498755  0.50197205  0.34439646  1
  O2-  O245  1  0.62540944  0.49902406  0.85074509  1
  O2-  O246  1  0.62561848  0.75166291  0.34932124  1
  O2-  O247  1  0.62508040  0.75028977  0.83945935  1
  O2-  O248  1  0.87478057  -0.00111336  0.35136808  1
  O2-  O249  1  0.87447722  0.00222848  0.84087982  1
  O2-  O250  1  0.87475859  0.24941174  0.34355237  1
  O2-  O251  1  0.87354563  0.25070223  0.85153673  1
  O2-  O252  1  0.87536957  0.49935757  0.34784508  1
  O2-  O253  1  0.87362767  0.49937986  0.85369772  1
  O2-  O254  1  0.87485359  0.75217700  0.35288787  1
  O2-  O255  1  0.87456302  0.74783232  0.84255103  1
  O2-  O256  1  -0.00064650  0.12480568  0.34503801  1
  O2-  O257  1  0.00041862  0.12474308  0.85049523  1
  O2-  O258  1  0.00119946  0.37460982  0.34523093  1
  O2-  O259  1  -0.00417049  0.37475815  0.85319262  1
  O2-  O260  1  -0.00032855  0.62451099  0.35032289  1
  O2-  O261  1  -0.00053297  0.62480352  0.85154743  1
  O2-  O262  1  -0.00109477  0.87522573  0.35211620  1
  O2-  O263  1  0.00147939  0.87543194  0.84888489  1
  O2-  O264  1  0.25186405  0.12527837  0.34296477  1
  O2-  O265  1  0.24742459  0.12488667  0.85303202  1
  O2-  O266  1  0.24980263  0.37440906  0.34233164  1
  O2-  O267  1  0.25318374  0.37524556  0.85420143  1
  O2-  O268  1  0.25187549  0.62429420  0.34472106  1
  O2-  O269  1  0.25012714  0.62453438  0.84999657  1
  O2-  O270  1  0.25088948  0.87535873  0.34730682  1
  O2-  O271  1  0.24841999  0.87507794  0.84952069  1
  O2-  O272  1  0.50026663  0.12520114  0.34703610  1
  O2-  O273  1  0.50237876  0.12543469  0.84509648  1
  O2-  O274  1  0.49767417  0.37412299  0.34596419  1
  O2-  O275  1  0.50172198  0.37503988  0.85064493  1
  O2-  O276  1  0.49923087  0.62505552  0.34335410  1
  O2-  O277  1  0.50084759  0.62466246  0.84363377  1
  O2-  O278  1  0.50085850  0.87527627  0.34663320  1
  O2-  O279  1  0.50152901  0.87496365  0.84394359  1
  O2-  O280  1  0.74896362  0.12492148  0.35122126  1
  O2-  O281  1  0.74950101  0.12538277  0.83933174  1
  O2-  O282  1  0.75225942  0.37478637  0.34855481  1
  O2-  O283  1  0.74903216  0.37478684  0.84881217  1
  O2-  O284  1  0.74954546  0.62479168  0.34983144  1
  O2-  O285  1  0.74934608  0.62480541  0.84263412  1
  O2-  O286  1  0.74981107  0.87560456  0.35432265  1
  O2-  O287  1  0.74817580  0.87531337  0.83951436  1
