# generated using pymatgen
data_BaYFeCuO5
_symmetry_space_group_name_H-M   'P 1'
_cell_length_a   15.66706100
_cell_length_b   15.66784172
_cell_length_c   15.48295195
_cell_angle_alpha   90.00320094
_cell_angle_beta   90.00780725
_cell_angle_gamma   90.00695937
_symmetry_Int_Tables_number   1
_chemical_formula_structural   BaYFeCuO5
_chemical_formula_sum   'Ba32 Y32 Fe32 Cu32 O160'
_cell_volume   3800.58515709
_cell_formula_units_Z   32
loop_
 _symmetry_equiv_pos_site_id
 _symmetry_equiv_pos_as_xyz
  1  'x, y, z'
loop_
 _atom_type_symbol
 _atom_type_oxidation_number
  Ba2+  2.0
  Y3+  3.0
  Fe3+  3.0
  Cu2+  2.0
  O2-  -2.0
loop_
 _atom_site_type_symbol
 _atom_site_label
 _atom_site_symmetry_multiplicity
 _atom_site_fract_x
 _atom_site_fract_y
 _atom_site_fract_z
 _atom_site_occupancy
  Ba2+  Ba0  1  -0.00195738  0.00217498  0.00251679  1
  Ba2+  Ba1  1  -0.00263489  -0.00057670  0.51373948  1
  Ba2+  Ba2  1  -0.00721429  0.25472823  0.00281017  1
  Ba2+  Ba3  1  0.00191410  0.25102013  0.52461933  1
  Ba2+  Ba4  1  -0.00424236  0.50010767  0.00731358  1
  Ba2+  Ba5  1  0.00913117  0.49574106  0.51072802  1
  Ba2+  Ba6  1  0.00223971  0.74183638  0.00760420  1
  Ba2+  Ba7  1  0.00472697  0.75425285  0.49992569  1
  Ba2+  Ba8  1  0.25698035  -0.00205363  0.00628338  1
  Ba2+  Ba9  1  0.24369237  -0.00370383  0.51212665  1
  Ba2+  Ba10  1  0.25581463  0.25230898  0.00668634  1
  Ba2+  Ba11  1  0.24251331  0.25628996  0.51661537  1
  Ba2+  Ba12  1  0.25067510  0.50185046  0.01847039  1
  Ba2+  Ba13  1  0.24473971  0.49965950  0.51551270  1
  Ba2+  Ba14  1  0.25145944  0.74892084  0.01801767  1
  Ba2+  Ba15  1  0.24639987  0.74613329  0.51230161  1
  Ba2+  Ba16  1  0.49806938  0.00036563  0.02087902  1
  Ba2+  Ba17  1  0.50029380  -0.00783180  0.51652833  1
  Ba2+  Ba18  1  0.49459635  0.24401434  0.01580317  1
  Ba2+  Ba19  1  0.50018723  0.25776766  0.50597084  1
  Ba2+  Ba20  1  0.49557734  0.50453638  0.01277177  1
  Ba2+  Ba21  1  0.49327331  0.49748482  0.51281570  1
  Ba2+  Ba22  1  0.49902599  0.75103107  0.01766405  1
  Ba2+  Ba23  1  0.49441317  0.75357765  0.52003309  1
  Ba2+  Ba24  1  0.74654992  0.00494554  0.01710393  1
  Ba2+  Ba25  1  0.75820094  -0.00438958  0.51654111  1
  Ba2+  Ba26  1  0.75778336  0.24744938  0.01103742  1
  Ba2+  Ba27  1  0.75678029  0.25185374  0.51380488  1
  Ba2+  Ba28  1  0.75836565  0.50319191  0.00238714  1
  Ba2+  Ba29  1  0.75137448  0.49158552  0.50571276  1
  Ba2+  Ba30  1  0.74841296  0.74312328  0.00509231  1
  Ba2+  Ba31  1  0.75367695  0.76009624  0.51173766  1
  Y3+  Y32  1  -0.00149977  -0.00115954  0.25742673  1
  Y3+  Y33  1  -0.00102493  0.00136500  0.75910419  1
  Y3+  Y34  1  -0.00091405  0.25140460  0.25347953  1
  Y3+  Y35  1  -0.00093758  0.25218221  0.76173004  1
  Y3+  Y36  1  0.00112759  0.50135717  0.25682389  1
  Y3+  Y37  1  0.00071747  0.49837818  0.75892325  1
  Y3+  Y38  1  0.00038123  0.74818309  0.25886365  1
  Y3+  Y39  1  0.00051263  0.74855330  0.75766615  1
  Y3+  Y40  1  0.25038621  0.00014623  0.25516298  1
  Y3+  Y41  1  0.24922558  0.00057411  0.75949487  1
  Y3+  Y42  1  0.24987154  0.25063523  0.25565530  1
  Y3+  Y43  1  0.24808640  0.25131568  0.75839729  1
  Y3+  Y44  1  0.24691467  0.50087042  0.26019112  1
  Y3+  Y45  1  0.24787387  0.49918765  0.75321353  1
  Y3+  Y46  1  0.24734265  0.74835539  0.25908992  1
  Y3+  Y47  1  0.24879041  0.74912104  0.75458016  1
  Y3+  Y48  1  0.49987761  0.00080764  0.25434400  1
  Y3+  Y49  1  0.49881235  -0.00077277  0.75656404  1
  Y3+  Y50  1  0.49943245  0.24917020  0.25505025  1
  Y3+  Y51  1  0.49831804  0.24988551  0.75765395  1
  Y3+  Y52  1  0.49925836  0.49855201  0.25808127  1
  Y3+  Y53  1  0.49905429  0.50137136  0.75608315  1
  Y3+  Y54  1  0.49945655  0.75105980  0.25605162  1
  Y3+  Y55  1  0.49957296  0.75025692  0.75475102  1
  Y3+  Y56  1  0.75097308  0.00018127  0.25612868  1
  Y3+  Y57  1  0.75319074  -0.00093033  0.75716435  1
  Y3+  Y58  1  0.75131117  0.24950369  0.25346662  1
  Y3+  Y59  1  0.75427984  0.25041110  0.76110767  1
  Y3+  Y60  1  0.75251110  0.49852111  0.25527070  1
  Y3+  Y61  1  0.75280142  0.50102293  0.76062205  1
  Y3+  Y62  1  0.75200845  0.75091524  0.25745861  1
  Y3+  Y63  1  0.75175111  0.74992114  0.75725771  1
  Fe3+  Fe64  1  0.62429124  0.87479311  0.87666149  1
  Fe3+  Fe65  1  0.12400205  0.12591773  0.37697062  1
  Fe3+  Fe66  1  0.62486800  0.62472446  0.38123893  1
  Fe3+  Fe67  1  0.12675794  0.62444191  0.87634452  1
  Fe3+  Fe68  1  0.62429953  0.37562571  0.88056811  1
  Fe3+  Fe69  1  0.12577447  0.12563810  0.87935430  1
  Fe3+  Fe70  1  0.62571085  0.12536757  0.37998168  1
  Fe3+  Fe71  1  0.37336254  0.37456064  0.37581871  1
  Fe3+  Fe72  1  0.37396364  0.87535029  0.37611617  1
  Fe3+  Fe73  1  0.37497049  0.87405923  0.87513464  1
  Fe3+  Fe74  1  0.87670297  0.37361612  0.37572668  1
  Fe3+  Fe75  1  0.62486476  0.87543005  0.37627842  1
  Fe3+  Fe76  1  0.87498358  0.62475900  0.38065381  1
  Fe3+  Fe77  1  0.87547116  0.87415044  0.88036093  1
  Fe3+  Fe78  1  0.37476116  0.62578343  0.87412832  1
  Fe3+  Fe79  1  0.62430353  0.12459955  0.87603410  1
  Fe3+  Fe80  1  0.37488897  0.37616338  0.87583607  1
  Fe3+  Fe81  1  0.37423019  0.12480283  0.38040512  1
  Fe3+  Fe82  1  0.37483240  0.62531618  0.37733226  1
  Fe3+  Fe83  1  0.87580840  0.12544354  0.37605584  1
  Fe3+  Fe84  1  0.87496002  0.87361699  0.13481865  1
  Fe3+  Fe85  1  0.87649607  0.62450850  0.63467024  1
  Fe3+  Fe86  1  0.62509646  0.37508406  0.13435578  1
  Fe3+  Fe87  1  0.62570859  0.62449231  0.13937842  1
  Fe3+  Fe88  1  0.12441081  0.87473051  0.13623548  1
  Fe3+  Fe89  1  0.37401713  0.12559082  0.63385403  1
  Fe3+  Fe90  1  0.62616101  0.62494360  0.63437584  1
  Fe3+  Fe91  1  0.62578680  0.37474535  0.63926390  1
  Fe3+  Fe92  1  0.12371781  0.87513306  0.64102465  1
  Fe3+  Fe93  1  0.12467744  0.12513872  0.13330767  1
  Fe3+  Fe94  1  0.12468348  0.37553864  0.13562136  1
  Fe3+  Fe95  1  0.62610152  0.12505545  0.63392791  1
  Cu2+  Cu96  1  0.12606862  0.37614294  0.86855263  1
  Cu2+  Cu97  1  0.37600424  0.12468291  0.87063810  1
  Cu2+  Cu98  1  0.12485660  0.62414944  0.37458346  1
  Cu2+  Cu99  1  0.62394953  0.62535657  0.86172830  1
  Cu2+  Cu100  1  0.12526846  0.87641141  0.36134234  1
  Cu2+  Cu101  1  0.12421727  0.37340035  0.37004491  1
  Cu2+  Cu102  1  0.87416998  0.12402273  0.87304942  1
  Cu2+  Cu103  1  0.87601113  0.62598828  0.87048177  1
  Cu2+  Cu104  1  0.87526717  0.87594998  0.37188530  1
  Cu2+  Cu105  1  0.12548366  0.87413461  0.86826685  1
  Cu2+  Cu106  1  0.62551815  0.37428877  0.36218110  1
  Cu2+  Cu107  1  0.87500195  0.37608633  0.87254490  1
  Cu2+  Cu108  1  0.62508930  0.12547856  0.15173920  1
  Cu2+  Cu109  1  0.87642173  0.12427989  0.14066118  1
  Cu2+  Cu110  1  0.87534129  0.37598147  0.14195433  1
  Cu2+  Cu111  1  0.37505252  0.62488590  0.15494056  1
  Cu2+  Cu112  1  0.87474632  0.37606268  0.65454997  1
  Cu2+  Cu113  1  0.62551070  0.87447202  0.14913919  1
  Cu2+  Cu114  1  0.37509572  0.37426876  0.65131918  1
  Cu2+  Cu115  1  0.37465509  0.37559444  0.15193190  1
  Cu2+  Cu116  1  0.37319586  0.87593843  0.65097909  1
  Cu2+  Cu117  1  0.12410060  0.37472218  0.64642162  1
  Cu2+  Cu118  1  0.12339675  0.62490069  0.64214405  1
  Cu2+  Cu119  1  0.37295455  0.12493483  0.14209863  1
  Cu2+  Cu120  1  0.37412195  0.87436388  0.15268294  1
  Cu2+  Cu121  1  0.37447877  0.62458833  0.64772552  1
  Cu2+  Cu122  1  0.62594326  0.87522914  0.65089249  1
  Cu2+  Cu123  1  0.12483513  0.62489189  0.15225350  1
  Cu2+  Cu124  1  0.87499531  0.62530272  0.14362373  1
  Cu2+  Cu125  1  0.87725515  0.87390322  0.64548101  1
  Cu2+  Cu126  1  0.87538669  0.12568893  0.65416030  1
  Cu2+  Cu127  1  0.12456298  0.12512840  0.65453785  1
  O2-  O128  1  0.12693593  0.12520261  0.00697171  1
  O2-  O129  1  0.12371115  0.12539502  0.49716945  1
  O2-  O130  1  0.12646236  0.37671242  0.01512033  1
  O2-  O131  1  0.12414307  0.37292131  0.50778369  1
  O2-  O132  1  0.12861171  0.62447901  -0.00307256  1
  O2-  O133  1  0.12459574  0.62536000  0.50714656  1
  O2-  O134  1  0.12596510  0.87387461  0.01630924  1
  O2-  O135  1  0.12337681  0.87663780  0.51984102  1
  O2-  O136  1  0.37540433  0.12424165  0.00623508  1
  O2-  O137  1  0.37391307  0.12511422  0.50584143  1
  O2-  O138  1  0.37664477  0.37681659  -0.00386387  1
  O2-  O139  1  0.37449639  0.37394738  0.49639336  1
  O2-  O140  1  0.37545497  0.62639503  -0.00575450  1
  O2-  O141  1  0.37569919  0.62543027  0.49755620  1
  O2-  O142  1  0.37696038  0.87312278  -0.00453082  1
  O2-  O143  1  0.37421921  0.87638722  0.49619182  1
  O2-  O144  1  0.62229723  0.12372510  -0.00374932  1
  O2-  O145  1  0.62656126  0.12545672  0.50622985  1
  O2-  O146  1  0.62370496  0.37582011  0.00733874  1
  O2-  O147  1  0.62579336  0.37460699  0.51862166  1
  O2-  O148  1  0.62428328  0.62463179  0.01903064  1
  O2-  O149  1  0.62509431  0.62449494  0.50767460  1
  O2-  O150  1  0.62255085  0.87522468  -0.00353759  1
  O2-  O151  1  0.62501812  0.87593092  0.49671532  1
  O2-  O152  1  0.87422200  0.12294596  0.00647736  1
  O2-  O153  1  0.87601442  0.12634994  0.49613043  1
  O2-  O154  1  0.87360308  0.37624115  0.00675580  1
  O2-  O155  1  0.87612719  0.37276824  0.49628506  1
  O2-  O156  1  0.87459395  0.62664179  0.00794992  1
  O2-  O157  1  0.87512040  0.62447871  0.50751403  1
  O2-  O158  1  0.87402680  0.87355887  0.00758510  1
  O2-  O159  1  0.87652487  0.87557240  0.50735550  1
  O2-  O160  1  0.12493636  0.00030440  0.16358231  1
  O2-  O161  1  0.12490981  0.00049362  0.66879651  1
  O2-  O162  1  0.12570907  0.24953891  0.16222706  1
  O2-  O163  1  0.12405072  0.24896111  0.66868556  1
  O2-  O164  1  0.12549006  0.50040521  0.16668043  1
  O2-  O165  1  0.12491906  0.49938524  0.66392594  1
  O2-  O166  1  0.12502633  0.74967206  0.16644439  1
  O2-  O167  1  0.12458717  0.75111345  0.66595238  1
  O2-  O168  1  0.37459265  -0.00153617  0.16531088  1
  O2-  O169  1  0.37457469  0.00286134  0.66228404  1
  O2-  O170  1  0.37481720  0.25129828  0.16529972  1
  O2-  O171  1  0.37629056  0.24770294  0.66308615  1
  O2-  O172  1  0.37610377  0.50038904  0.16531000  1
  O2-  O173  1  0.37589493  0.49905326  0.66211901  1
  O2-  O174  1  0.37579629  0.74971054  0.16466307  1
  O2-  O175  1  0.37496049  0.75066673  0.66085948  1
  O2-  O176  1  0.62467016  -0.00007532  0.16406380  1
  O2-  O177  1  0.62579418  0.00184440  0.66062935  1
  O2-  O178  1  0.62417249  0.25186345  0.16286480  1
  O2-  O179  1  0.62474823  0.24829264  0.66562917  1
  O2-  O180  1  0.62405344  0.49815532  0.16769223  1
  O2-  O181  1  0.62562673  0.50141653  0.66597736  1
  O2-  O182  1  0.62450896  0.74941917  0.16790625  1
  O2-  O183  1  0.62526826  0.74857004  0.66103850  1
  O2-  O184  1  0.87486953  -0.00370128  0.16296010  1
  O2-  O185  1  0.87544618  0.00113009  0.66596579  1
  O2-  O186  1  0.87489499  0.25000897  0.16165447  1
  O2-  O187  1  0.87478208  0.25082409  0.66675666  1
  O2-  O188  1  0.87472665  0.50029326  0.16718136  1
  O2-  O189  1  0.87296565  0.50162727  0.66367590  1
  O2-  O190  1  0.87446126  0.75266644  0.16680638  1
  O2-  O191  1  0.87488020  0.74664012  0.66502445  1
  O2-  O192  1  0.00354715  0.12450236  0.16205886  1
  O2-  O193  1  -0.00061260  0.12522406  0.66855211  1
  O2-  O194  1  0.00193623  0.37566830  0.16452210  1
  O2-  O195  1  -0.00199819  0.37510755  0.66832541  1
  O2-  O196  1  0.00096620  0.62561694  0.16668502  1
  O2-  O197  1  -0.00284627  0.62388107  0.66638878  1
  O2-  O198  1  -0.00076196  0.87397292  0.16491707  1
  O2-  O199  1  0.00170220  0.87569402  0.67307263  1
  O2-  O200  1  0.24607406  0.12463505  0.16547703  1
  O2-  O201  1  0.25151081  0.12589143  0.66335740  1
  O2-  O202  1  0.24966107  0.37562770  0.16466588  1
  O2-  O203  1  0.25133978  0.37347610  0.66439196  1
  O2-  O204  1  0.25089212  0.62516752  0.16488326  1
  O2-  O205  1  0.25067004  0.62481318  0.66191474  1
  O2-  O206  1  0.24904213  0.87427698  0.16545539  1
  O2-  O207  1  0.24872559  0.87631585  0.66652475  1
  O2-  O208  1  0.50064906  0.12506911  0.16789678  1
  O2-  O209  1  0.50034274  0.12449505  0.65718999  1
  O2-  O210  1  0.50095807  0.37470168  0.16285309  1
  O2-  O211  1  0.50110380  0.37506987  0.66505908  1
  O2-  O212  1  0.50061245  0.62469233  0.16740516  1
  O2-  O213  1  0.50182820  0.62461919  0.66017455  1
  O2-  O214  1  0.49935002  0.87516462  0.16335626  1
  O2-  O215  1  0.49931257  0.87581001  0.65985583  1
  O2-  O216  1  0.74921484  0.12465116  0.16498402  1
  O2-  O217  1  0.74909451  0.12547208  0.66166837  1
  O2-  O218  1  0.74721486  0.37503814  0.16364415  1
  O2-  O219  1  0.74931630  0.37463486  0.66812802  1
  O2-  O220  1  0.74791102  0.62489898  0.17131037  1
  O2-  O221  1  0.75013416  0.62557432  0.66291663  1
  O2-  O222  1  0.75149546  0.87481343  0.16272705  1
  O2-  O223  1  0.75022051  0.87473032  0.66617154  1
  O2-  O224  1  0.12542128  0.00140900  0.34556469  1
  O2-  O225  1  0.12507415  0.00119486  0.85268644  1
  O2-  O226  1  0.12506725  0.24761144  0.34261310  1
  O2-  O227  1  0.12597120  0.24951951  0.85285985  1
  O2-  O228  1  0.12467888  0.49876511  0.34993076  1
  O2-  O229  1  0.12558936  0.50077039  0.84602207  1
  O2-  O230  1  0.12452133  0.75226870  0.35013712  1
  O2-  O231  1  0.12584015  0.74900991  0.84722890  1
  O2-  O232  1  0.37521049  0.00172966  0.34766138  1
  O2-  O233  1  0.37536042  -0.00226165  0.84511621  1
  O2-  O234  1  0.37557375  0.24787699  0.34787872  1
  O2-  O235  1  0.37572601  0.25212390  0.84631464  1
  O2-  O236  1  0.37575455  0.49993173  0.34726460  1
  O2-  O237  1  0.37601951  0.50064676  0.84386757  1
  O2-  O238  1  0.37560855  0.75036537  0.34633749  1
  O2-  O239  1  0.37499166  0.75011097  0.84213082  1
  O2-  O240  1  0.62454488  0.00202093  0.34756772  1
  O2-  O241  1  0.62478432  -0.00116690  0.84253443  1
  O2-  O242  1  0.62451501  0.24760377  0.34834809  1
  O2-  O243  1  0.62440135  0.25174096  0.84848109  1
  O2-  O244  1  0.62551906  0.50150448  0.35162516  1
  O2-  O245  1  0.62396613  0.49940362  0.85051122  1
  O2-  O246  1  0.62490927  0.74864435  0.34969801  1
  O2-  O247  1  0.62543377  0.75057405  0.84494399  1
  O2-  O248  1  0.87431735  0.00237248  0.34508441  1
  O2-  O249  1  0.87534446  -0.00379622  0.84981414  1
  O2-  O250  1  0.87423931  0.24928343  0.34219673  1
  O2-  O251  1  0.87421557  0.25015998  0.85125026  1
  O2-  O252  1  0.87365830  0.50073825  0.34987903  1
  O2-  O253  1  0.87500410  0.50125844  0.84788336  1
  O2-  O254  1  0.87441598  0.74730052  0.35078154  1
  O2-  O255  1  0.87466607  0.75271722  0.84841334  1
  O2-  O256  1  -0.00050749  0.12447037  0.34266368  1
  O2-  O257  1  0.00276612  0.12521155  0.85332721  1
  O2-  O258  1  -0.00189025  0.37485521  0.34427249  1
  O2-  O259  1  0.00146841  0.37538816  0.85210275  1
  O2-  O260  1  -0.00316923  0.62498410  0.35063415  1
  O2-  O261  1  0.00245827  0.62567890  0.84895009  1
  O2-  O262  1  0.00172578  0.87574582  0.34781663  1
  O2-  O263  1  -0.00088939  0.87423222  0.85571390  1
  O2-  O264  1  0.25157136  0.12474524  0.34813651  1
  O2-  O265  1  0.24756318  0.12488443  0.84852895  1
  O2-  O266  1  0.25129072  0.37371259  0.34586850  1
  O2-  O267  1  0.25125279  0.37523119  0.84714260  1
  O2-  O268  1  0.25184696  0.62534141  0.34797937  1
  O2-  O269  1  0.25086221  0.62479359  0.84272888  1
  O2-  O270  1  0.25049340  0.87620321  0.34739178  1
  O2-  O271  1  0.25045688  0.87548839  0.84796564  1
  O2-  O272  1  0.49962240  0.12538161  0.35299376  1
  O2-  O273  1  0.50235499  0.12502164  0.83958358  1
  O2-  O274  1  0.49920268  0.37390681  0.34694159  1
  O2-  O275  1  0.50109021  0.37562501  0.84634282  1
  O2-  O276  1  0.50118066  0.62436958  0.34907256  1
  O2-  O277  1  0.49873774  0.62577072  0.84320612  1
  O2-  O278  1  0.49986771  0.87589911  0.34493479  1
  O2-  O279  1  0.50005600  0.87419238  0.84163559  1
  O2-  O280  1  0.74899540  0.12539666  0.34814242  1
  O2-  O281  1  0.74745622  0.12451770  0.84487114  1
  O2-  O282  1  0.75112864  0.37456653  0.34713932  1
  O2-  O283  1  0.74665274  0.37627714  0.85096535  1
  O2-  O284  1  0.74978482  0.62481569  0.35409053  1
  O2-  O285  1  0.74881955  0.62538573  0.84798266  1
  O2-  O286  1  0.74741427  0.87512375  0.34523748  1
  O2-  O287  1  0.75082352  0.87437333  0.84932492  1
