# generated using pymatgen
data_BaYFeCuO5
_symmetry_space_group_name_H-M   'P 1'
_cell_length_a   15.68010093
_cell_length_b   15.67208554
_cell_length_c   15.50269770
_cell_angle_alpha   89.99887231
_cell_angle_beta   89.99761012
_cell_angle_gamma   89.99686587
_symmetry_Int_Tables_number   1
_chemical_formula_structural   BaYFeCuO5
_chemical_formula_sum   'Ba32 Y32 Fe32 Cu32 O160'
_cell_volume   3809.63110884
_cell_formula_units_Z   32
loop_
 _symmetry_equiv_pos_site_id
 _symmetry_equiv_pos_as_xyz
  1  'x, y, z'
loop_
 _atom_type_symbol
 _atom_type_oxidation_number
  Ba2+  2.0
  Y3+  3.0
  Fe3+  3.0
  Cu2+  2.0
  O2-  -2.0
loop_
 _atom_site_type_symbol
 _atom_site_label
 _atom_site_symmetry_multiplicity
 _atom_site_fract_x
 _atom_site_fract_y
 _atom_site_fract_z
 _atom_site_occupancy
  Ba2+  Ba0  1  -0.00553500  0.00081564  0.01842681  1
  Ba2+  Ba1  1  -0.00036782  0.00789135  0.50743014  1
  Ba2+  Ba2  1  0.00662548  0.24547689  0.01287986  1
  Ba2+  Ba3  1  -0.00358461  0.24968782  0.50029172  1
  Ba2+  Ba4  1  0.00791035  0.50620387  0.00652618  1
  Ba2+  Ba5  1  -0.00071044  0.49872858  0.50563112  1
  Ba2+  Ba6  1  -0.00392109  0.74632471  0.01301062  1
  Ba2+  Ba7  1  0.00281553  0.74443776  0.51343798  1
  Ba2+  Ba8  1  0.25390677  0.00440571  0.02375827  1
  Ba2+  Ba9  1  0.24645022  0.00448702  0.51061478  1
  Ba2+  Ba10  1  0.24909632  0.25110067  0.00552638  1
  Ba2+  Ba11  1  0.25054026  0.25036156  0.51757581  1
  Ba2+  Ba12  1  0.24735533  0.50119762  -0.00050788  1
  Ba2+  Ba13  1  0.25320772  0.50157894  0.51208909  1
  Ba2+  Ba14  1  0.25230263  0.74364499  0.01911481  1
  Ba2+  Ba15  1  0.24967781  0.74261740  0.50692322  1
  Ba2+  Ba16  1  0.49799532  -0.00737764  0.01604820  1
  Ba2+  Ba17  1  0.50471965  0.00475362  0.52151961  1
  Ba2+  Ba18  1  0.49018371  0.24935320  0.00649016  1
  Ba2+  Ba19  1  0.50277688  0.25260350  0.52207519  1
  Ba2+  Ba20  1  0.49463523  0.50514366  0.00128448  1
  Ba2+  Ba21  1  0.50050523  0.49886742  0.51703821  1
  Ba2+  Ba22  1  0.50232872  0.75314841  0.01180732  1
  Ba2+  Ba23  1  0.50164570  0.74216504  0.51611760  1
  Ba2+  Ba24  1  0.75277172  -0.00993922  0.01080137  1
  Ba2+  Ba25  1  0.74874896  0.00766486  0.51752831  1
  Ba2+  Ba26  1  0.75488185  0.24449279  0.01193097  1
  Ba2+  Ba27  1  0.74973929  0.25163064  0.50527013  1
  Ba2+  Ba28  1  0.75063789  0.50999666  0.00677815  1
  Ba2+  Ba29  1  0.74641999  0.49678437  0.51220975  1
  Ba2+  Ba30  1  0.74971997  0.75575832  0.00587695  1
  Ba2+  Ba31  1  0.74576100  0.74464239  0.52341383  1
  Y3+  Y32  1  -0.00214455  0.00030209  0.25899106  1
  Y3+  Y33  1  -0.00188735  0.00025459  0.75570332  1
  Y3+  Y34  1  -0.00173468  0.24921202  0.25919489  1
  Y3+  Y35  1  0.00072664  0.24853254  0.75606604  1
  Y3+  Y36  1  0.00048937  0.50047916  0.25629922  1
  Y3+  Y37  1  0.00270751  0.50252283  0.75928730  1
  Y3+  Y38  1  0.00002985  0.75013939  0.25510321  1
  Y3+  Y39  1  0.00015036  0.74904912  0.75994399  1
  Y3+  Y40  1  0.24950909  -0.00094363  0.25865049  1
  Y3+  Y41  1  0.24918208  0.00133922  0.75316125  1
  Y3+  Y42  1  0.24935987  0.24987063  0.25701014  1
  Y3+  Y43  1  0.25061491  0.25181707  0.75728934  1
  Y3+  Y44  1  0.25039925  0.50240060  0.25884108  1
  Y3+  Y45  1  0.25024114  0.50070463  0.75706214  1
  Y3+  Y46  1  0.25060824  0.74801939  0.25921014  1
  Y3+  Y47  1  0.24885054  0.74674013  0.75508190  1
  Y3+  Y48  1  0.49993227  -0.00270752  0.25374953  1
  Y3+  Y49  1  0.50292447  -0.00112008  0.75712925  1
  Y3+  Y50  1  0.50072181  0.25144513  0.25686815  1
  Y3+  Y51  1  0.49946485  0.25192437  0.75659341  1
  Y3+  Y52  1  0.49901877  0.50099447  0.26112063  1
  Y3+  Y53  1  0.49930993  0.50006675  0.75509260  1
  Y3+  Y54  1  0.49812021  0.74978436  0.25642849  1
  Y3+  Y55  1  0.50295731  0.74966986  0.75715327  1
  Y3+  Y56  1  0.75247113  -0.00105061  0.25523693  1
  Y3+  Y57  1  0.74982278  -0.00229383  0.75837117  1
  Y3+  Y58  1  0.75153624  0.25002198  0.25996918  1
  Y3+  Y59  1  0.74965116  0.24916112  0.75494092  1
  Y3+  Y60  1  0.74985300  0.49840522  0.25872993  1
  Y3+  Y61  1  0.74815421  0.50148204  0.75706513  1
  Y3+  Y62  1  0.75100044  0.75196103  0.25226349  1
  Y3+  Y63  1  0.74796633  0.75181256  0.76142389  1
  Fe3+  Fe64  1  0.62478412  0.12429694  0.87981200  1
  Fe3+  Fe65  1  0.87631750  0.37476099  0.88112096  1
  Fe3+  Fe66  1  0.37523634  0.62670478  0.87412377  1
  Fe3+  Fe67  1  0.87486368  0.62570409  0.87590316  1
  Fe3+  Fe68  1  0.37316363  0.87523010  0.87517581  1
  Fe3+  Fe69  1  0.87527917  0.12442421  0.87673543  1
  Fe3+  Fe70  1  0.62427894  0.12440919  0.37406555  1
  Fe3+  Fe71  1  0.37682746  0.12515828  0.37636827  1
  Fe3+  Fe72  1  0.37473534  0.12359766  0.87444562  1
  Fe3+  Fe73  1  0.87459982  0.87415490  0.38088056  1
  Fe3+  Fe74  1  0.12553844  0.12570066  0.37517971  1
  Fe3+  Fe75  1  0.12439341  0.62450121  0.37562746  1
  Fe3+  Fe76  1  0.12563814  0.87530273  0.88086890  1
  Fe3+  Fe77  1  0.37502871  0.37451102  0.37863755  1
  Fe3+  Fe78  1  0.37564347  0.87498764  0.38023453  1
  Fe3+  Fe79  1  0.62540519  0.37487738  0.88081848  1
  Fe3+  Fe80  1  0.12552532  0.12326350  0.87610306  1
  Fe3+  Fe81  1  0.87334288  0.62559765  0.37631087  1
  Fe3+  Fe82  1  0.62567038  0.87477953  0.37831977  1
  Fe3+  Fe83  1  0.62540248  0.62552770  0.37594924  1
  Fe3+  Fe84  1  0.87499409  0.87429377  0.63526932  1
  Fe3+  Fe85  1  0.12410235  0.37534569  0.63851326  1
  Fe3+  Fe86  1  0.62450333  0.62477480  0.13679362  1
  Fe3+  Fe87  1  0.87531726  0.37573289  0.64013316  1
  Fe3+  Fe88  1  0.12502629  0.87486643  0.13625312  1
  Fe3+  Fe89  1  0.37517465  0.87475446  0.63360075  1
  Fe3+  Fe90  1  0.37461489  0.37651207  0.13718682  1
  Fe3+  Fe91  1  0.12576290  0.37539596  0.13907781  1
  Fe3+  Fe92  1  0.62474645  0.12466262  0.13346230  1
  Fe3+  Fe93  1  0.62461547  0.37549159  0.13342493  1
  Fe3+  Fe94  1  0.87541427  0.37571343  0.13473436  1
  Fe3+  Fe95  1  0.12440622  0.87479935  0.63511918  1
  Cu2+  Cu96  1  0.87501805  0.37598260  0.36226782  1
  Cu2+  Cu97  1  0.62391798  0.87573129  0.87233807  1
  Cu2+  Cu98  1  0.62435657  0.62509446  0.86465690  1
  Cu2+  Cu99  1  0.12431756  0.87462955  0.36655951  1
  Cu2+  Cu100  1  0.12560414  0.37500536  0.36506832  1
  Cu2+  Cu101  1  0.12451679  0.37433474  0.86347780  1
  Cu2+  Cu102  1  0.37609897  0.62501021  0.37434709  1
  Cu2+  Cu103  1  0.87345273  0.12431807  0.37253498  1
  Cu2+  Cu104  1  0.62407819  0.37479239  0.37294297  1
  Cu2+  Cu105  1  0.37494271  0.37523555  0.86275261  1
  Cu2+  Cu106  1  0.12608231  0.62667627  0.87250936  1
  Cu2+  Cu107  1  0.87660957  0.87550872  0.87181907  1
  Cu2+  Cu108  1  0.37485094  0.62503160  0.64168937  1
  Cu2+  Cu109  1  0.37449112  0.37522868  0.65231976  1
  Cu2+  Cu110  1  0.37527461  0.12467136  0.65126616  1
  Cu2+  Cu111  1  0.12431529  0.12576479  0.65020946  1
  Cu2+  Cu112  1  0.37556355  0.12618667  0.15227235  1
  Cu2+  Cu113  1  0.62508513  0.87434649  0.14171882  1
  Cu2+  Cu114  1  0.87498635  0.12620708  0.64157458  1
  Cu2+  Cu115  1  0.62533842  0.87479491  0.64829278  1
  Cu2+  Cu116  1  0.87503111  0.62470364  0.65318380  1
  Cu2+  Cu117  1  0.62580550  0.37510760  0.64380042  1
  Cu2+  Cu118  1  0.12509233  0.12513209  0.15355462  1
  Cu2+  Cu119  1  0.12439614  0.62453764  0.65174210  1
  Cu2+  Cu120  1  0.87572879  0.87430857  0.14252528  1
  Cu2+  Cu121  1  0.37381245  0.87395036  0.15324708  1
  Cu2+  Cu122  1  0.87454773  0.62405243  0.15019139  1
  Cu2+  Cu123  1  0.87448579  0.12559585  0.15169552  1
  Cu2+  Cu124  1  0.37553471  0.62379958  0.15304350  1
  Cu2+  Cu125  1  0.62559547  0.12552842  0.65603063  1
  Cu2+  Cu126  1  0.62534719  0.62453895  0.65550698  1
  Cu2+  Cu127  1  0.12552801  0.62425903  0.14244774  1
  O2-  O128  1  0.12657464  0.12258991  -0.00404092  1
  O2-  O129  1  0.12585521  0.12661215  0.49593377  1
  O2-  O130  1  0.12598328  0.37477524  0.01883520  1
  O2-  O131  1  0.12331610  0.37451750  0.51864547  1
  O2-  O132  1  0.12661877  0.62595378  0.00736608  1
  O2-  O133  1  0.12349772  0.62381796  0.49651663  1
  O2-  O134  1  0.12681077  0.87640725  0.00717030  1
  O2-  O135  1  0.12362159  0.87460267  0.51515928  1
  O2-  O136  1  0.37355404  0.12307934  -0.00564564  1
  O2-  O137  1  0.37765670  0.12542629  0.49591852  1
  O2-  O138  1  0.37347082  0.37650385  0.01686174  1
  O2-  O139  1  0.37600475  0.37310237  0.49894387  1
  O2-  O140  1  0.37509501  0.62714349  -0.00535072  1
  O2-  O141  1  0.37581391  0.62454999  0.50775585  1
  O2-  O142  1  0.37193370  0.87533584  -0.00492131  1
  O2-  O143  1  0.37641640  0.87566752  0.50629889  1
  O2-  O144  1  0.62432298  0.12430550  0.00597263  1
  O2-  O145  1  0.62376359  0.12557549  0.49419016  1
  O2-  O146  1  0.62457434  0.37521326  0.00760138  1
  O2-  O147  1  0.62507227  0.37446073  0.50776924  1
  O2-  O148  1  0.62323311  0.62463206  0.01621910  1
  O2-  O149  1  0.62641939  0.62458123  0.49621135  1
  O2-  O150  1  0.62384668  0.87568678  0.00657794  1
  O2-  O151  1  0.62574372  0.87562723  0.49787889  1
  O2-  O152  1  0.87664940  0.12466863  -0.00294177  1
  O2-  O153  1  0.87362331  0.12608588  0.50685489  1
  O2-  O154  1  0.87633861  0.37462981  0.00797502  1
  O2-  O155  1  0.87492101  0.37574174  0.51971875  1
  O2-  O156  1  0.87527941  0.62568962  -0.00335704  1
  O2-  O157  1  0.87334510  0.62517641  0.49604721  1
  O2-  O158  1  0.87704467  0.87495468  0.00700042  1
  O2-  O159  1  0.87396894  0.87369581  0.50713366  1
  O2-  O160  1  0.12564907  -0.00066452  0.16354877  1
  O2-  O161  1  0.12419995  -0.00003825  0.66256601  1
  O2-  O162  1  0.12453558  0.25012433  0.16520125  1
  O2-  O163  1  0.12523002  0.25031306  0.66773252  1
  O2-  O164  1  0.12486473  0.49838940  0.16740501  1
  O2-  O165  1  0.12471732  0.50003859  0.66794551  1
  O2-  O166  1  0.12529059  0.75215943  0.16293666  1
  O2-  O167  1  0.12456431  0.75018457  0.66516607  1
  O2-  O168  1  0.37487483  0.00069934  0.16408776  1
  O2-  O169  1  0.37529168  -0.00169223  0.65990357  1
  O2-  O170  1  0.37568964  0.25150190  0.16356175  1
  O2-  O171  1  0.37522591  0.24933074  0.66636306  1
  O2-  O172  1  0.37581574  0.49904836  0.16833372  1
  O2-  O173  1  0.37504991  0.49929760  0.66628665  1
  O2-  O174  1  0.37460628  0.74879566  0.16575350  1
  O2-  O175  1  0.37449101  0.75332837  0.66091125  1
  O2-  O176  1  0.62443745  0.00228182  0.16124598  1
  O2-  O177  1  0.62535478  0.00064988  0.66399531  1
  O2-  O178  1  0.62515387  0.25058519  0.15953013  1
  O2-  O179  1  0.62489284  0.24902280  0.66969222  1
  O2-  O180  1  0.62548790  0.49804035  0.16520533  1
  O2-  O181  1  0.62502657  0.50110504  0.66830265  1
  O2-  O182  1  0.62441162  0.74837421  0.16536662  1
  O2-  O183  1  0.62551811  0.74932543  0.66463869  1
  O2-  O184  1  0.87528151  0.00178389  0.16663368  1
  O2-  O185  1  0.87493378  -0.00294333  0.66113683  1
  O2-  O186  1  0.87453994  0.25201693  0.16322088  1
  O2-  O187  1  0.87500406  0.25205618  0.66950078  1
  O2-  O188  1  0.87410231  0.49762584  0.16306294  1
  O2-  O189  1  0.87513687  0.50022737  0.66960668  1
  O2-  O190  1  0.87571020  0.74799147  0.16490701  1
  O2-  O191  1  0.87501912  0.75097466  0.66228136  1
  O2-  O192  1  -0.00058062  0.12510366  0.16521590  1
  O2-  O193  1  0.00077447  0.12499756  0.66572633  1
  O2-  O194  1  -0.00123830  0.37460117  0.16552980  1
  O2-  O195  1  0.00012452  0.37572780  0.67173784  1
  O2-  O196  1  -0.00165284  0.62424114  0.16440533  1
  O2-  O197  1  -0.00025135  0.62547022  0.66586927  1
  O2-  O198  1  0.00292157  0.87569381  0.16513732  1
  O2-  O199  1  -0.00115217  0.87429748  0.66594374  1
  O2-  O200  1  0.25095454  0.12511672  0.16469439  1
  O2-  O201  1  0.25001470  0.12459432  0.66113730  1
  O2-  O202  1  0.25041710  0.37461011  0.16914620  1
  O2-  O203  1  0.24932510  0.37478312  0.66523770  1
  O2-  O204  1  0.25211756  0.62508330  0.16750278  1
  O2-  O205  1  0.24844213  0.62498802  0.66314725  1
  O2-  O206  1  0.24858728  0.87509065  0.16633837  1
  O2-  O207  1  0.25046181  0.87601502  0.66199231  1
  O2-  O208  1  0.50169826  0.12558296  0.15903437  1
  O2-  O209  1  0.50063194  0.12495746  0.66580457  1
  O2-  O210  1  0.50152237  0.37459366  0.16296959  1
  O2-  O211  1  0.49849559  0.37475806  0.66644286  1
  O2-  O212  1  0.50046342  0.62425334  0.16573610  1
  O2-  O213  1  0.50150335  0.62513887  0.66464814  1
  O2-  O214  1  0.49753769  0.87459730  0.16368570  1
  O2-  O215  1  0.49903075  0.87544593  0.66283057  1
  O2-  O216  1  0.74776480  0.12567016  0.16117207  1
  O2-  O217  1  0.74888575  0.12496104  0.66842936  1
  O2-  O218  1  0.74965393  0.37427486  0.16086262  1
  O2-  O219  1  0.75187448  0.37564970  0.67122323  1
  O2-  O220  1  0.74925397  0.62412952  0.16295544  1
  O2-  O221  1  0.74991042  0.62470399  0.66644351  1
  O2-  O222  1  0.75076514  0.87505389  0.16400821  1
  O2-  O223  1  0.75147677  0.87462625  0.66493774  1
  O2-  O224  1  0.12494461  0.00079383  0.34716529  1
  O2-  O225  1  0.12545380  -0.00080641  0.84386060  1
  O2-  O226  1  0.12491692  0.24954133  0.34644517  1
  O2-  O227  1  0.12501880  0.24870944  0.85020805  1
  O2-  O228  1  0.12390954  0.50035933  0.34800725  1
  O2-  O229  1  0.12520710  0.49880168  0.85163798  1
  O2-  O230  1  0.12454526  0.74891883  0.34628039  1
  O2-  O231  1  0.12566460  0.75344072  0.84809381  1
  O2-  O232  1  0.37528940  -0.00129621  0.34732872  1
  O2-  O233  1  0.37464413  0.00019297  0.84057376  1
  O2-  O234  1  0.37525483  0.24919469  0.34360542  1
  O2-  O235  1  0.37507998  0.24952363  0.84990180  1
  O2-  O236  1  0.37510300  0.49851443  0.34936782  1
  O2-  O237  1  0.37536844  0.50029564  0.84939899  1
  O2-  O238  1  0.37463293  0.75304001  0.35023400  1
  O2-  O239  1  0.37477603  0.75088061  0.84143058  1
  O2-  O240  1  0.62493410  -0.00137397  0.34257537  1
  O2-  O241  1  0.62506958  0.00344454  0.84769465  1
  O2-  O242  1  0.62507483  0.24803352  0.34262034  1
  O2-  O243  1  0.62521130  0.24993534  0.85358742  1
  O2-  O244  1  0.62557650  0.50184677  0.34668938  1
  O2-  O245  1  0.62544436  0.49749487  0.85271572  1
  O2-  O246  1  0.62548830  0.75102205  0.34519127  1
  O2-  O247  1  0.62444765  0.74956229  0.84887305  1
  O2-  O248  1  0.87507800  -0.00359310  0.35008837  1
  O2-  O249  1  0.87492949  0.00257012  0.84374980  1
  O2-  O250  1  0.87435001  0.25174579  0.34852518  1
  O2-  O251  1  0.87505056  0.25068372  0.85054632  1
  O2-  O252  1  0.87507792  0.50092607  0.34653341  1
  O2-  O253  1  0.87447994  0.49855946  0.85142095  1
  O2-  O254  1  0.87508757  0.75117963  0.34673505  1
  O2-  O255  1  0.87507543  0.74870895  0.84569440  1
  O2-  O256  1  0.00097174  0.12515992  0.34880257  1
  O2-  O257  1  0.00031125  0.12489442  0.84614138  1
  O2-  O258  1  0.00009319  0.37461492  0.34988292  1
  O2-  O259  1  -0.00169277  0.37479834  0.85311254  1
  O2-  O260  1  -0.00093709  0.62515700  0.34577886  1
  O2-  O261  1  -0.00111740  0.62516303  0.84851330  1
  O2-  O262  1  -0.00216308  0.87456554  0.34958294  1
  O2-  O263  1  0.00371968  0.87590659  0.84898519  1
  O2-  O264  1  0.25122289  0.12422371  0.34627391  1
  O2-  O265  1  0.25004140  0.12513442  0.84279457  1
  O2-  O266  1  0.25068300  0.37459065  0.34914769  1
  O2-  O267  1  0.24923372  0.37472526  0.84901200  1
  O2-  O268  1  0.24836078  0.62529318  0.34966740  1
  O2-  O269  1  0.25204203  0.62508740  0.84500899  1
  O2-  O270  1  0.25155389  0.87568044  0.35156313  1
  O2-  O271  1  0.24857073  0.87581984  0.84330986  1
  O2-  O272  1  0.49987444  0.12393666  0.33973957  1
  O2-  O273  1  0.50100783  0.12560646  0.84888733  1
  O2-  O274  1  0.49759221  0.37454316  0.34410563  1
  O2-  O275  1  0.50249412  0.37442461  0.85152339  1
  O2-  O276  1  0.50221698  0.62601432  0.34681488  1
  O2-  O277  1  0.49964375  0.62475400  0.84681078  1
  O2-  O278  1  0.49944725  0.87513250  0.34664652  1
  O2-  O279  1  0.49741385  0.87576172  0.84643193  1
  O2-  O280  1  0.74790981  0.12449424  0.34421064  1
  O2-  O281  1  0.74896307  0.12603793  0.85118023  1
  O2-  O282  1  0.75115179  0.37474192  0.34609967  1
  O2-  O283  1  0.75051618  0.37427995  0.85477315  1
  O2-  O284  1  0.75006636  0.62515251  0.34252838  1
  O2-  O285  1  0.74968539  0.62485015  0.84973555  1
  O2-  O286  1  0.75123726  0.87497861  0.34612424  1
  O2-  O287  1  0.75008245  0.87552772  0.84996883  1
