# generated using pymatgen
data_BaYFeCuO5
_symmetry_space_group_name_H-M   'P 1'
_cell_length_a   15.66895355
_cell_length_b   15.66905860
_cell_length_c   15.48087798
_cell_angle_alpha   90.00556206
_cell_angle_beta   90.00505794
_cell_angle_gamma   89.99566219
_symmetry_Int_Tables_number   1
_chemical_formula_structural   BaYFeCuO5
_chemical_formula_sum   'Ba32 Y32 Fe32 Cu32 O160'
_cell_volume   3800.83030770
_cell_formula_units_Z   32
loop_
 _symmetry_equiv_pos_site_id
 _symmetry_equiv_pos_as_xyz
  1  'x, y, z'
loop_
 _atom_type_symbol
 _atom_type_oxidation_number
  Ba2+  2.0
  Y3+  3.0
  Fe3+  3.0
  Cu2+  2.0
  O2-  -2.0
loop_
 _atom_site_type_symbol
 _atom_site_label
 _atom_site_symmetry_multiplicity
 _atom_site_fract_x
 _atom_site_fract_y
 _atom_site_fract_z
 _atom_site_occupancy
  Ba2+  Ba0  1  -0.00080594  0.00082970  0.00178021  1
  Ba2+  Ba1  1  -0.00086868  -0.00008593  0.52627118  1
  Ba2+  Ba2  1  -0.00416369  0.24251809  0.00759008  1
  Ba2+  Ba3  1  0.00069037  0.25230710  0.52215207  1
  Ba2+  Ba4  1  -0.01013598  0.50222624  0.00243214  1
  Ba2+  Ba5  1  0.00292456  0.50029511  0.51674650  1
  Ba2+  Ba6  1  -0.00582050  0.75282956  -0.00269510  1
  Ba2+  Ba7  1  0.00071928  0.74810208  0.52210388  1
  Ba2+  Ba8  1  0.25205342  0.00110010  0.01216777  1
  Ba2+  Ba9  1  0.24309897  0.00347425  0.52123157  1
  Ba2+  Ba10  1  0.25127901  0.23865138  0.01213544  1
  Ba2+  Ba11  1  0.24119566  0.24942810  0.51638142  1
  Ba2+  Ba12  1  0.25438827  0.50439209  0.00177425  1
  Ba2+  Ba13  1  0.24229045  0.50533644  0.50596791  1
  Ba2+  Ba14  1  0.25483269  0.75567687  0.00092967  1
  Ba2+  Ba15  1  0.24482790  0.74187661  0.51044692  1
  Ba2+  Ba16  1  0.49380289  -0.00438231  0.01827782  1
  Ba2+  Ba17  1  0.50118284  -0.00123923  0.51520115  1
  Ba2+  Ba18  1  0.49315500  0.24313206  0.00647439  1
  Ba2+  Ba19  1  0.50427887  0.25455225  0.51029337  1
  Ba2+  Ba20  1  0.50297194  0.51150657  0.00204369  1
  Ba2+  Ba21  1  0.50484452  0.50454457  0.51139554  1
  Ba2+  Ba22  1  0.50327025  0.74960077  0.01396699  1
  Ba2+  Ba23  1  0.50267547  0.74362071  0.51573100  1
  Ba2+  Ba24  1  0.75595690  -0.00383459  0.00577295  1
  Ba2+  Ba25  1  0.75639130  -0.00494861  0.52274781  1
  Ba2+  Ba26  1  0.75978049  0.24830823  0.00191347  1
  Ba2+  Ba27  1  0.75429179  0.25683919  0.51716185  1
  Ba2+  Ba28  1  0.75209762  0.50940097  0.00371796  1
  Ba2+  Ba29  1  0.75036727  0.49941057  0.52336584  1
  Ba2+  Ba30  1  0.74892921  0.74565150  0.00658625  1
  Ba2+  Ba31  1  0.75159575  0.74971731  0.52646364  1
  Y3+  Y32  1  -0.00083738  0.00194983  0.25208669  1
  Y3+  Y33  1  -0.00102976  -0.00122128  0.76029837  1
  Y3+  Y34  1  0.00011214  0.24934784  0.25555616  1
  Y3+  Y35  1  -0.00180101  0.25070977  0.75860799  1
  Y3+  Y36  1  0.00101656  0.50074867  0.25916383  1
  Y3+  Y37  1  -0.00155902  0.50033290  0.75705012  1
  Y3+  Y38  1  -0.00048637  0.74802531  0.25670310  1
  Y3+  Y39  1  -0.00057978  0.75016490  0.75840252  1
  Y3+  Y40  1  0.25048485  0.00119372  0.25439360  1
  Y3+  Y41  1  0.24966804  0.00103326  0.75797010  1
  Y3+  Y42  1  0.24869298  0.24944844  0.25717515  1
  Y3+  Y43  1  0.25002044  0.24867715  0.75656431  1
  Y3+  Y44  1  0.24805222  0.50113466  0.26369995  1
  Y3+  Y45  1  0.24958906  0.50163788  0.75346325  1
  Y3+  Y46  1  0.24984722  0.74822852  0.26157229  1
  Y3+  Y47  1  0.24923870  0.74867974  0.75395337  1
  Y3+  Y48  1  0.49936514  -0.00115764  0.25565894  1
  Y3+  Y49  1  0.49853420  0.00160092  0.75598937  1
  Y3+  Y50  1  0.50069159  0.25074438  0.25862344  1
  Y3+  Y51  1  0.49897526  0.24992371  0.75598678  1
  Y3+  Y52  1  0.50132257  0.50130301  0.26075011  1
  Y3+  Y53  1  0.50147647  0.50239564  0.75559375  1
  Y3+  Y54  1  0.50047828  0.74880654  0.25807021  1
  Y3+  Y55  1  0.50080528  0.74609191  0.75635657  1
  Y3+  Y56  1  0.75075205  -0.00041095  0.25313556  1
  Y3+  Y57  1  0.75281113  -0.00073280  0.75933880  1
  Y3+  Y58  1  0.75042030  0.25062073  0.25685433  1
  Y3+  Y59  1  0.75268925  0.25184994  0.75800334  1
  Y3+  Y60  1  0.74937957  0.50128767  0.25478283  1
  Y3+  Y61  1  0.75070523  0.50132885  0.76057336  1
  Y3+  Y62  1  0.74932467  0.74815327  0.25093363  1
  Y3+  Y63  1  0.75087163  0.74814554  0.76099081  1
  Fe3+  Fe64  1  0.87513587  0.12411854  0.37768927  1
  Fe3+  Fe65  1  0.37445177  0.37518486  0.38044633  1
  Fe3+  Fe66  1  0.12550659  0.62553907  0.87903764  1
  Fe3+  Fe67  1  0.87525456  0.37572670  0.37684225  1
  Fe3+  Fe68  1  0.62394353  0.87503327  0.87575219  1
  Fe3+  Fe69  1  0.62480590  0.37502362  0.87992751  1
  Fe3+  Fe70  1  0.37487575  0.37535748  0.87944434  1
  Fe3+  Fe71  1  0.12503021  0.37481580  0.88039309  1
  Fe3+  Fe72  1  0.87421367  0.62579328  0.37797564  1
  Fe3+  Fe73  1  0.37451693  0.12449636  0.37894546  1
  Fe3+  Fe74  1  0.12559692  0.12447303  0.87546196  1
  Fe3+  Fe75  1  0.62701307  0.12435342  0.37982059  1
  Fe3+  Fe76  1  0.37420052  0.87492577  0.38070799  1
  Fe3+  Fe77  1  0.37585776  0.87490172  0.87291984  1
  Fe3+  Fe78  1  0.62790206  0.62560969  0.37673202  1
  Fe3+  Fe79  1  0.62716620  0.87477943  0.37709164  1
  Fe3+  Fe80  1  0.87518889  0.87464799  0.37629245  1
  Fe3+  Fe81  1  0.12292706  0.12421199  0.37543887  1
  Fe3+  Fe82  1  0.62449445  0.12426572  0.87894172  1
  Fe3+  Fe83  1  0.12289846  0.87621239  0.37785536  1
  Fe3+  Fe84  1  0.87499912  0.37564584  0.13555878  1
  Fe3+  Fe85  1  0.62631742  0.12539491  0.63619411  1
  Fe3+  Fe86  1  0.87550309  0.87387489  0.13524598  1
  Fe3+  Fe87  1  0.12538764  0.37543576  0.13304015  1
  Fe3+  Fe88  1  0.62436296  0.37558517  0.13277793  1
  Fe3+  Fe89  1  0.12488721  0.62525298  0.13380340  1
  Fe3+  Fe90  1  0.37446839  0.37572404  0.63573445  1
  Fe3+  Fe91  1  0.12529408  0.87394999  0.13537138  1
  Fe3+  Fe92  1  0.37506802  0.37607160  0.13537492  1
  Fe3+  Fe93  1  0.37466480  0.87435055  0.63452296  1
  Fe3+  Fe94  1  0.62554424  0.12511236  0.13366351  1
  Fe3+  Fe95  1  0.37390114  0.62489683  0.13986428  1
  Cu2+  Cu96  1  0.12325581  0.37376787  0.37342014  1
  Cu2+  Cu97  1  0.62462924  0.62596860  0.87149305  1
  Cu2+  Cu98  1  0.62713667  0.37565493  0.37429853  1
  Cu2+  Cu99  1  0.87541563  0.62553919  0.87110065  1
  Cu2+  Cu100  1  0.12238832  0.62593660  0.37174627  1
  Cu2+  Cu101  1  0.37474528  0.62524416  0.86100670  1
  Cu2+  Cu102  1  0.87537489  0.37536295  0.86571185  1
  Cu2+  Cu103  1  0.87460622  0.87473208  0.86355375  1
  Cu2+  Cu104  1  0.37532583  0.12425483  0.87105547  1
  Cu2+  Cu105  1  0.37565518  0.62529906  0.37568303  1
  Cu2+  Cu106  1  0.87503497  0.12466069  0.87103778  1
  Cu2+  Cu107  1  0.12603385  0.87488974  0.86386427  1
  Cu2+  Cu108  1  0.62617109  0.62498563  0.65471222  1
  Cu2+  Cu109  1  0.37473682  0.62425524  0.64069980  1
  Cu2+  Cu110  1  0.87604546  0.62475715  0.14079692  1
  Cu2+  Cu111  1  0.12370432  0.12522195  0.65662944  1
  Cu2+  Cu112  1  0.12516812  0.87484403  0.65329776  1
  Cu2+  Cu113  1  0.12406058  0.62467026  0.64633644  1
  Cu2+  Cu114  1  0.62478179  0.87467731  0.14754069  1
  Cu2+  Cu115  1  0.87481674  0.12546597  0.65376890  1
  Cu2+  Cu116  1  0.62472382  0.87510236  0.65223306  1
  Cu2+  Cu117  1  0.37416681  0.87334035  0.15495643  1
  Cu2+  Cu118  1  0.87526820  0.37594221  0.65513538  1
  Cu2+  Cu119  1  0.37499354  0.12564090  0.64616123  1
  Cu2+  Cu120  1  0.87437259  0.12515996  0.14009429  1
  Cu2+  Cu121  1  0.12474094  0.12493275  0.14777214  1
  Cu2+  Cu122  1  0.87509602  0.62477663  0.65433088  1
  Cu2+  Cu123  1  0.37579097  0.12519677  0.14371054  1
  Cu2+  Cu124  1  0.87534986  0.87423864  0.65695816  1
  Cu2+  Cu125  1  0.62505909  0.37508323  0.64417616  1
  Cu2+  Cu126  1  0.12499920  0.37561435  0.64491931  1
  Cu2+  Cu127  1  0.62430043  0.62423731  0.14164151  1
  O2-  O128  1  0.12647698  0.12376440  -0.00359368  1
  O2-  O129  1  0.12173039  0.12435146  0.49564311  1
  O2-  O130  1  0.12627756  0.37508549  0.00683602  1
  O2-  O131  1  0.12400446  0.37398023  0.50741533  1
  O2-  O132  1  0.12692605  0.62571714  0.00754373  1
  O2-  O133  1  0.12170148  0.62550279  0.50834633  1
  O2-  O134  1  0.12700554  0.87354660  0.01522322  1
  O2-  O135  1  0.12201031  0.87711016  0.49793148  1
  O2-  O136  1  0.37570330  0.12367447  0.00710471  1
  O2-  O137  1  0.37431648  0.12395652  0.49860616  1
  O2-  O138  1  0.37545783  0.37573804  0.00753843  1
  O2-  O139  1  0.37405470  0.37444587  0.50788848  1
  O2-  O140  1  0.37352058  0.62590115  0.01923354  1
  O2-  O141  1  0.37594647  0.62486011  0.50828539  1
  O2-  O142  1  0.37629715  0.87489958  -0.00645746  1
  O2-  O143  1  0.37413193  0.87578554  0.50639569  1
  O2-  O144  1  0.62395690  0.12436379  0.00608397  1
  O2-  O145  1  0.62784811  0.12458230  0.50683566  1
  O2-  O146  1  0.62329580  0.37451271  0.00671542  1
  O2-  O147  1  0.62634337  0.37461961  0.50757108  1
  O2-  O148  1  0.62354644  0.62605838  0.00635674  1
  O2-  O149  1  0.62957918  0.62575245  0.49721806  1
  O2-  O150  1  0.62157922  0.87645910  -0.00404729  1
  O2-  O151  1  0.62831345  0.87574545  0.49678176  1
  O2-  O152  1  0.87433435  0.12375462  0.00553396  1
  O2-  O153  1  0.87508679  0.12403340  0.49750423  1
  O2-  O154  1  0.87511929  0.37468850  0.01504177  1
  O2-  O155  1  0.87556363  0.37556750  0.49749412  1
  O2-  O156  1  0.87583789  0.62636793  0.00618334  1
  O2-  O157  1  0.87336939  0.62561349  0.49808507  1
  O2-  O158  1  0.87590792  0.87476850  0.01452657  1
  O2-  O159  1  0.87538613  0.87500844  0.49653723  1
  O2-  O160  1  0.12580166  -0.00033247  0.16188347  1
  O2-  O161  1  0.12475128  0.00038224  0.66434510  1
  O2-  O162  1  0.12598037  0.25147433  0.16027552  1
  O2-  O163  1  0.12507992  0.24899126  0.66731046  1
  O2-  O164  1  0.12666950  0.49962932  0.16330199  1
  O2-  O165  1  0.12474945  0.49995476  0.67026125  1
  O2-  O166  1  0.12604350  0.74830345  0.16557817  1
  O2-  O167  1  0.12497342  0.75099132  0.66716426  1
  O2-  O168  1  0.37560264  -0.00203305  0.16394153  1
  O2-  O169  1  0.37512950  -0.00118896  0.66103045  1
  O2-  O170  1  0.37566227  0.25362296  0.16371199  1
  O2-  O171  1  0.37498538  0.25150380  0.66535031  1
  O2-  O172  1  0.37389820  0.49851397  0.16725677  1
  O2-  O173  1  0.37545766  0.49725472  0.66718681  1
  O2-  O174  1  0.37434781  0.74884683  0.16847211  1
  O2-  O175  1  0.37542149  0.75264001  0.66268474  1
  O2-  O176  1  0.62407933  0.00132091  0.16200158  1
  O2-  O177  1  0.62503902  0.00219153  0.66282062  1
  O2-  O178  1  0.62385781  0.25072369  0.16292572  1
  O2-  O179  1  0.62541752  0.24705555  0.66658372  1
  O2-  O180  1  0.62366794  0.49673577  0.16305726  1
  O2-  O181  1  0.62514093  0.50098845  0.66827108  1
  O2-  O182  1  0.62339219  0.75069872  0.16288676  1
  O2-  O183  1  0.62493028  0.75004070  0.66415721  1
  O2-  O184  1  0.87434146  -0.00194031  0.16313348  1
  O2-  O185  1  0.87485098  -0.00038644  0.66510719  1
  O2-  O186  1  0.87434437  0.25232942  0.16491174  1
  O2-  O187  1  0.87451046  0.25075076  0.66516505  1
  O2-  O188  1  0.87548790  0.49794750  0.16503777  1
  O2-  O189  1  0.87504050  0.50034332  0.66668366  1
  O2-  O190  1  0.87576073  0.75111000  0.16457153  1
  O2-  O191  1  0.87508346  0.74970860  0.66546921  1
  O2-  O192  1  0.00067344  0.12575448  0.16117926  1
  O2-  O193  1  -0.00105670  0.12575308  0.66663687  1
  O2-  O194  1  0.00211601  0.37490888  0.16174287  1
  O2-  O195  1  -0.00111746  0.37502322  0.66845168  1
  O2-  O196  1  0.00392329  0.62390940  0.16254068  1
  O2-  O197  1  -0.00151008  0.62497930  0.66853567  1
  O2-  O198  1  0.00091370  0.87472359  0.16457286  1
  O2-  O199  1  0.00031444  0.87473238  0.66723166  1
  O2-  O200  1  0.24951316  0.12543902  0.16453002  1
  O2-  O201  1  0.24897690  0.12563664  0.66369936  1
  O2-  O202  1  0.24984008  0.37443660  0.16302199  1
  O2-  O203  1  0.25257184  0.37465152  0.66661337  1
  O2-  O204  1  0.24843155  0.62411122  0.16885806  1
  O2-  O205  1  0.24922554  0.62449057  0.66636231  1
  O2-  O206  1  0.24914578  0.87462525  0.16799090  1
  O2-  O207  1  0.25135410  0.87537368  0.66177743  1
  O2-  O208  1  0.50349342  0.12543960  0.16614362  1
  O2-  O209  1  0.50218699  0.12578879  0.66233927  1
  O2-  O210  1  0.49983253  0.37470448  0.16510311  1
  O2-  O211  1  0.49730553  0.37392030  0.66500732  1
  O2-  O212  1  0.49739527  0.62396752  0.16860186  1
  O2-  O213  1  0.50213208  0.62418115  0.66370044  1
  O2-  O214  1  0.49923817  0.87486533  0.16609590  1
  O2-  O215  1  0.49857084  0.87632899  0.65869866  1
  O2-  O216  1  0.74644331  0.12561935  0.16278885  1
  O2-  O217  1  0.74934437  0.12506487  0.66573493  1
  O2-  O218  1  0.74807418  0.37460458  0.16185839  1
  O2-  O219  1  0.75122652  0.37516910  0.66816396  1
  O2-  O220  1  0.74991396  0.62433881  0.16006947  1
  O2-  O221  1  0.75046864  0.62465698  0.66710652  1
  O2-  O222  1  0.75024934  0.87491450  0.16132708  1
  O2-  O223  1  0.74983371  0.87572941  0.66648769  1
  O2-  O224  1  0.12489296  0.00034317  0.34155252  1
  O2-  O225  1  0.12580804  -0.00001161  0.84767818  1
  O2-  O226  1  0.12493481  0.24683333  0.34300191  1
  O2-  O227  1  0.12579528  0.25168935  0.85004994  1
  O2-  O228  1  0.12438977  0.50007223  0.34831320  1
  O2-  O229  1  0.12628829  0.49971959  0.85458349  1
  O2-  O230  1  0.12472710  0.75276949  0.34662408  1
  O2-  O231  1  0.12613993  0.74860013  0.85160443  1
  O2-  O232  1  0.37570395  -0.00086850  0.34655830  1
  O2-  O233  1  0.37553936  -0.00142152  0.84337654  1
  O2-  O234  1  0.37562437  0.24981912  0.34708180  1
  O2-  O235  1  0.37556970  0.25336588  0.85001659  1
  O2-  O236  1  0.37512860  0.49734761  0.35032973  1
  O2-  O237  1  0.37481005  0.49854605  0.85233955  1
  O2-  O238  1  0.37485949  0.75355861  0.35070198  1
  O2-  O239  1  0.37462347  0.74974136  0.84579841  1
  O2-  O240  1  0.62477958  0.00113163  0.34557591  1
  O2-  O241  1  0.62441356  0.00127063  0.84621939  1
  O2-  O242  1  0.62480361  0.24570680  0.34770566  1
  O2-  O243  1  0.62397232  0.25047623  0.85178896  1
  O2-  O244  1  0.62544363  0.50238028  0.34504876  1
  O2-  O245  1  0.62419278  0.49730642  0.85246203  1
  O2-  O246  1  0.62539621  0.75070603  0.34396289  1
  O2-  O247  1  0.62404422  0.75168087  0.84713426  1
  O2-  O248  1  0.87422697  0.00021769  0.34275060  1
  O2-  O249  1  0.87454686  -0.00130720  0.84900529  1
  O2-  O250  1  0.87427251  0.24884924  0.34521857  1
  O2-  O251  1  0.87497087  0.25128506  0.84921738  1
  O2-  O252  1  0.87489221  0.50079683  0.34506935  1
  O2-  O253  1  0.87513514  0.49913236  0.85048920  1
  O2-  O254  1  0.87465195  0.75027134  0.34374206  1
  O2-  O255  1  0.87545810  0.75116334  0.84899960  1
  O2-  O256  1  -0.00125339  0.12454348  0.34192045  1
  O2-  O257  1  0.00197696  0.12509818  0.84951768  1
  O2-  O258  1  -0.00293275  0.37434645  0.34255024  1
  O2-  O259  1  0.00244596  0.37564141  0.85275856  1
  O2-  O260  1  -0.00273282  0.62531037  0.34405509  1
  O2-  O261  1  0.00359920  0.62472897  0.85201188  1
  O2-  O262  1  -0.00088800  0.87565506  0.34231207  1
  O2-  O263  1  0.00012084  0.87504121  0.85202750  1
  O2-  O264  1  0.25025847  0.12483511  0.34618405  1
  O2-  O265  1  0.24874683  0.12566185  0.84645705  1
  O2-  O266  1  0.25269334  0.37413435  0.34832870  1
  O2-  O267  1  0.25000056  0.37568999  0.85152568  1
  O2-  O268  1  0.24907853  0.62492794  0.35155321  1
  O2-  O269  1  0.24849997  0.62448092  0.85024581  1
  O2-  O270  1  0.25046191  0.87592936  0.35031436  1
  O2-  O271  1  0.25147230  0.87431320  0.84459223  1
  O2-  O272  1  0.50083382  0.12467704  0.35015270  1
  O2-  O273  1  0.50294103  0.12619395  0.84660778  1
  O2-  O274  1  0.49742966  0.37370878  0.35049972  1
  O2-  O275  1  0.49986418  0.37472115  0.85024567  1
  O2-  O276  1  0.50301649  0.62535876  0.34995148  1
  O2-  O277  1  0.49816685  0.62414157  0.84734599  1
  O2-  O278  1  0.49967701  0.87600989  0.35020253  1
  O2-  O279  1  0.50001407  0.87536916  0.84001964  1
  O2-  O280  1  0.74959464  0.12443400  0.34495760  1
  O2-  O281  1  0.74660352  0.12573684  0.85038777  1
  O2-  O282  1  0.75277318  0.37419813  0.34279478  1
  O2-  O283  1  0.74801143  0.37405158  0.85263750  1
  O2-  O284  1  0.75068485  0.62557847  0.34049126  1
  O2-  O285  1  0.75006593  0.62506807  0.85079687  1
  O2-  O286  1  0.75028696  0.87608903  0.34133956  1
  O2-  O287  1  0.74884429  0.87582429  0.84979809  1
