# generated using pymatgen
data_BaYFeCuO5
_symmetry_space_group_name_H-M   'P 1'
_cell_length_a   15.66449955
_cell_length_b   15.66439632
_cell_length_c   15.46841365
_cell_angle_alpha   89.99395437
_cell_angle_beta   89.99717012
_cell_angle_gamma   90.00102282
_symmetry_Int_Tables_number   1
_chemical_formula_structural   BaYFeCuO5
_chemical_formula_sum   'Ba32 Y32 Fe32 Cu32 O160'
_cell_volume   3795.56087639
_cell_formula_units_Z   32
loop_
 _symmetry_equiv_pos_site_id
 _symmetry_equiv_pos_as_xyz
  1  'x, y, z'
loop_
 _atom_type_symbol
 _atom_type_oxidation_number
  Ba2+  2.0
  Y3+  3.0
  Fe3+  3.0
  Cu2+  2.0
  O2-  -2.0
loop_
 _atom_site_type_symbol
 _atom_site_label
 _atom_site_symmetry_multiplicity
 _atom_site_fract_x
 _atom_site_fract_y
 _atom_site_fract_z
 _atom_site_occupancy
  Ba2+  Ba0  1  0.00248175  0.00971210  0.01118044  1
  Ba2+  Ba1  1  0.00511356  -0.00715271  0.51762353  1
  Ba2+  Ba2  1  -0.00235235  0.24516889  0.01661345  1
  Ba2+  Ba3  1  0.00319334  0.25751079  0.51682058  1
  Ba2+  Ba4  1  -0.00205602  0.50715968  0.01093528  1
  Ba2+  Ba5  1  -0.00059502  0.49937910  0.51275819  1
  Ba2+  Ba6  1  0.00057570  0.73990484  0.00720570  1
  Ba2+  Ba7  1  0.00163839  0.75081854  0.51486961  1
  Ba2+  Ba8  1  0.25511137  0.00238811  0.00051673  1
  Ba2+  Ba9  1  0.24975267  -0.00370431  0.52268594  1
  Ba2+  Ba10  1  0.25071034  0.24383390  0.00552814  1
  Ba2+  Ba11  1  0.24413753  0.24594532  0.52262570  1
  Ba2+  Ba12  1  0.25227616  0.50816818  0.01048019  1
  Ba2+  Ba13  1  0.24608641  0.50768673  0.51844029  1
  Ba2+  Ba14  1  0.25586292  0.74540058  0.00710515  1
  Ba2+  Ba15  1  0.25130452  0.75029195  0.51945789  1
  Ba2+  Ba16  1  0.49808778  -0.00290620  0.01280147  1
  Ba2+  Ba17  1  0.48835547  -0.00388975  0.51117146  1
  Ba2+  Ba18  1  0.49775160  0.24419580  0.01135853  1
  Ba2+  Ba19  1  0.49842322  0.25132630  0.51475634  1
  Ba2+  Ba20  1  0.49083418  0.50175631  0.01256729  1
  Ba2+  Ba21  1  0.50020651  0.50850864  0.50598855  1
  Ba2+  Ba22  1  0.49275473  0.75490767  0.01188307  1
  Ba2+  Ba23  1  0.48918996  0.74593776  0.50188876  1
  Ba2+  Ba24  1  0.74415493  0.00441214  0.02591885  1
  Ba2+  Ba25  1  0.75707554  -0.00737391  0.50680165  1
  Ba2+  Ba26  1  0.75336015  0.24525278  0.02428109  1
  Ba2+  Ba27  1  0.75366662  0.26136341  0.51050356  1
  Ba2+  Ba28  1  0.75948914  0.50132922  0.01240386  1
  Ba2+  Ba29  1  0.75407050  0.49978047  0.50090583  1
  Ba2+  Ba30  1  0.75103450  0.74874037  0.01198380  1
  Ba2+  Ba31  1  0.75655076  0.74566478  0.49554233  1
  Y3+  Y32  1  0.00084996  0.00015166  0.25636457  1
  Y3+  Y33  1  0.00208758  -0.00086050  0.75735082  1
  Y3+  Y34  1  -0.00029537  0.25076648  0.25577685  1
  Y3+  Y35  1  0.00224894  0.25071945  0.75647448  1
  Y3+  Y36  1  -0.00184828  0.50111499  0.25495546  1
  Y3+  Y37  1  0.00076633  0.50157006  0.76002537  1
  Y3+  Y38  1  -0.00062501  0.74810400  0.25541249  1
  Y3+  Y39  1  0.00095664  0.74841665  0.76100008  1
  Y3+  Y40  1  0.25065471  -0.00207666  0.25430489  1
  Y3+  Y41  1  0.25150928  -0.00028140  0.75969075  1
  Y3+  Y42  1  0.24857506  0.25019136  0.25309683  1
  Y3+  Y43  1  0.24841242  0.24698590  0.75887009  1
  Y3+  Y44  1  0.25075307  0.50334069  0.25323885  1
  Y3+  Y45  1  0.24954049  0.50425596  0.76039258  1
  Y3+  Y46  1  0.25300324  0.74893014  0.25457336  1
  Y3+  Y47  1  0.25246014  0.74899117  0.76149482  1
  Y3+  Y48  1  0.49806184  -0.00386521  0.25821334  1
  Y3+  Y49  1  0.49574251  -0.00161093  0.75669136  1
  Y3+  Y50  1  0.49898383  0.25078541  0.25731050  1
  Y3+  Y51  1  0.49977384  0.24986545  0.75496280  1
  Y3+  Y52  1  0.49646049  0.50292105  0.25818135  1
  Y3+  Y53  1  0.49883439  0.50182999  0.75677382  1
  Y3+  Y54  1  0.49543945  0.74990913  0.25828870  1
  Y3+  Y55  1  0.49543814  0.74988796  0.75827468  1
  Y3+  Y56  1  0.75015861  -0.00173285  0.26133058  1
  Y3+  Y57  1  0.75096992  -0.00274934  0.75226120  1
  Y3+  Y58  1  0.75250981  0.25148379  0.26000619  1
  Y3+  Y59  1  0.75032039  0.25359446  0.75187304  1
  Y3+  Y60  1  0.75398354  0.50100198  0.25852265  1
  Y3+  Y61  1  0.75149416  0.49945914  0.75720846  1
  Y3+  Y62  1  0.75146571  0.74917935  0.25809131  1
  Y3+  Y63  1  0.75186975  0.74928740  0.75898673  1
  Fe3+  Fe64  1  0.62535551  0.87596499  0.87719579  1
  Fe3+  Fe65  1  0.12516637  0.62554781  0.37510058  1
  Fe3+  Fe66  1  0.12567715  0.12466289  0.37676650  1
  Fe3+  Fe67  1  0.87268488  0.12493573  0.87315776  1
  Fe3+  Fe68  1  0.37260129  0.12523276  0.37843746  1
  Fe3+  Fe69  1  0.87725935  0.12526543  0.37984296  1
  Fe3+  Fe70  1  0.62473477  0.62484313  0.88204051  1
  Fe3+  Fe71  1  0.37531349  0.37415318  0.87674428  1
  Fe3+  Fe72  1  0.62359357  0.87327840  0.37966037  1
  Fe3+  Fe73  1  0.12593692  0.37588544  0.37500601  1
  Fe3+  Fe74  1  0.62382458  0.37637106  0.37610931  1
  Fe3+  Fe75  1  0.87417316  0.87644538  0.88087242  1
  Fe3+  Fe76  1  0.37207269  0.37561362  0.37970169  1
  Fe3+  Fe77  1  0.62430811  0.12501606  0.38016139  1
  Fe3+  Fe78  1  0.12484426  0.37499073  0.87959292  1
  Fe3+  Fe79  1  0.62542400  0.37431003  0.88073419  1
  Fe3+  Fe80  1  0.12614185  0.87412037  0.37437615  1
  Fe3+  Fe81  1  0.62640737  0.12458010  0.87326282  1
  Fe3+  Fe82  1  0.87480226  0.37347398  0.87758411  1
  Fe3+  Fe83  1  0.12516187  0.87493260  0.87979356  1
  Fe3+  Fe84  1  0.37388840  0.37648390  0.63549762  1
  Fe3+  Fe85  1  0.12528397  0.37565193  0.13287088  1
  Fe3+  Fe86  1  0.62452400  0.62554512  0.13672951  1
  Fe3+  Fe87  1  0.87540107  0.87543382  0.13526518  1
  Fe3+  Fe88  1  0.62454106  0.87197665  0.63345791  1
  Fe3+  Fe89  1  0.87620152  0.12518814  0.63314125  1
  Fe3+  Fe90  1  0.12584232  0.87473512  0.13233859  1
  Fe3+  Fe91  1  0.62531711  0.12412990  0.63154048  1
  Fe3+  Fe92  1  0.62532135  0.62588880  0.63795851  1
  Fe3+  Fe93  1  0.62443552  0.37546305  0.13524157  1
  Fe3+  Fe94  1  0.87533745  0.62517779  0.64011470  1
  Fe3+  Fe95  1  0.37499498  0.12442603  0.13888095  1
  Cu2+  Cu96  1  0.87832805  0.87464306  0.37237049  1
  Cu2+  Cu97  1  0.37590196  0.87523427  0.87314313  1
  Cu2+  Cu98  1  0.37676599  0.12556627  0.86050502  1
  Cu2+  Cu99  1  0.37191453  0.62469877  0.37188216  1
  Cu2+  Cu100  1  0.37170539  0.87488962  0.37259194  1
  Cu2+  Cu101  1  0.12544880  0.62481040  0.87363647  1
  Cu2+  Cu102  1  0.87374449  0.62467897  0.87338767  1
  Cu2+  Cu103  1  0.87754464  0.37512870  0.37174420  1
  Cu2+  Cu104  1  0.87721336  0.62490102  0.36245122  1
  Cu2+  Cu105  1  0.37690903  0.62445647  0.87222725  1
  Cu2+  Cu106  1  0.12400486  0.12521281  0.87305113  1
  Cu2+  Cu107  1  0.62462941  0.62508334  0.36155257  1
  Cu2+  Cu108  1  0.37484372  0.37469032  0.14819903  1
  Cu2+  Cu109  1  0.12508314  0.62573345  0.14117886  1
  Cu2+  Cu110  1  0.12475169  0.62570923  0.65612216  1
  Cu2+  Cu111  1  0.37475045  0.87371697  0.64438409  1
  Cu2+  Cu112  1  0.12594613  0.12440599  0.14058089  1
  Cu2+  Cu113  1  0.12448475  0.12392568  0.65329083  1
  Cu2+  Cu114  1  0.37461396  0.87532424  0.14194146  1
  Cu2+  Cu115  1  0.37487605  0.12513591  0.65084127  1
  Cu2+  Cu116  1  0.87518696  0.37493233  0.14987547  1
  Cu2+  Cu117  1  0.62391686  0.12505004  0.15828795  1
  Cu2+  Cu118  1  0.12617515  0.37651282  0.65494016  1
  Cu2+  Cu119  1  0.62424706  0.37717299  0.64867822  1
  Cu2+  Cu120  1  0.62470672  0.87414265  0.15372857  1
  Cu2+  Cu121  1  0.37480894  0.62516443  0.64415769  1
  Cu2+  Cu122  1  0.37578545  0.62561818  0.14324369  1
  Cu2+  Cu123  1  0.87536352  0.87249160  0.64167098  1
  Cu2+  Cu124  1  0.87419278  0.62581010  0.14352813  1
  Cu2+  Cu125  1  0.87608377  0.37714688  0.64246541  1
  Cu2+  Cu126  1  0.12558486  0.87360772  0.65808210  1
  Cu2+  Cu127  1  0.87465442  0.12399567  0.15742171  1
  O2-  O128  1  0.12444588  0.12607654  0.00562471  1
  O2-  O129  1  0.12488128  0.12440041  0.49687296  1
  O2-  O130  1  0.12445144  0.37389084  0.00563157  1
  O2-  O131  1  0.12701778  0.37575463  0.49523843  1
  O2-  O132  1  0.12507992  0.62398503  0.00686617  1
  O2-  O133  1  0.12413708  0.62597076  0.49551399  1
  O2-  O134  1  0.12442992  0.87657447  0.00591712  1
  O2-  O135  1  0.12617558  0.87380682  0.49499263  1
  O2-  O136  1  0.37754780  0.12503004  0.01751279  1
  O2-  O137  1  0.37174043  0.12612681  0.49876780  1
  O2-  O138  1  0.37749813  0.37170284  -0.00296653  1
  O2-  O139  1  0.37217504  0.37594730  0.50619788  1
  O2-  O140  1  0.37790235  0.62503116  0.00728940  1
  O2-  O141  1  0.37236143  0.62368736  0.50786273  1
  O2-  O142  1  0.37624078  0.87728172  0.00696351  1
  O2-  O143  1  0.37241081  0.87444288  0.50835377  1
  O2-  O144  1  0.62744084  0.12502087  -0.00676146  1
  O2-  O145  1  0.62390099  0.12588332  0.50531389  1
  O2-  O146  1  0.62567707  0.37206639  0.00636940  1
  O2-  O147  1  0.62324247  0.37643605  0.49657054  1
  O2-  O148  1  0.62447924  0.62511561  0.00890699  1
  O2-  O149  1  0.62702115  0.62548885  0.51767402  1
  O2-  O150  1  0.62708458  0.87957122  -0.00276600  1
  O2-  O151  1  0.62431409  0.87124885  0.50662477  1
  O2-  O152  1  0.87024625  0.12454478  -0.00654904  1
  O2-  O153  1  0.87875998  0.12527268  0.50587401  1
  O2-  O154  1  0.87266114  0.37009641  -0.00237085  1
  O2-  O155  1  0.87714735  0.37663030  0.50679283  1
  O2-  O156  1  0.87272419  0.62564056  0.00833158  1
  O2-  O157  1  0.87623189  0.62506728  0.51905260  1
  O2-  O158  1  0.87241521  0.87880280  0.00704983  1
  O2-  O159  1  0.87732405  0.87340505  0.50709293  1
  O2-  O160  1  0.12437207  -0.00292813  0.16304733  1
  O2-  O161  1  0.12485280  -0.00183144  0.66511535  1
  O2-  O162  1  0.12461047  0.25272821  0.16224249  1
  O2-  O163  1  0.12525531  0.25025611  0.66360809  1
  O2-  O164  1  0.12512633  0.49759859  0.16144974  1
  O2-  O165  1  0.12567679  0.50100011  0.66717490  1
  O2-  O166  1  0.12364379  0.75323774  0.16113691  1
  O2-  O167  1  0.12460806  0.75035155  0.66860188  1
  O2-  O168  1  0.37614115  0.00136827  0.16727204  1
  O2-  O169  1  0.37462300  0.00086164  0.66470012  1
  O2-  O170  1  0.37614471  0.24929595  0.16733693  1
  O2-  O171  1  0.37548097  0.25160522  0.66098502  1
  O2-  O172  1  0.37555513  0.49896859  0.16479027  1
  O2-  O173  1  0.37440039  0.49797358  0.66481004  1
  O2-  O174  1  0.37619919  0.75032926  0.16463472  1
  O2-  O175  1  0.37482002  0.74945246  0.66820473  1
  O2-  O176  1  0.62520329  -0.00020658  0.16900255  1
  O2-  O177  1  0.62665938  -0.00055287  0.65631828  1
  O2-  O178  1  0.62462166  0.25176962  0.16409363  1
  O2-  O179  1  0.62504040  0.24875321  0.66005413  1
  O2-  O180  1  0.62521850  0.49966708  0.15925967  1
  O2-  O181  1  0.62465867  0.50151289  0.67158560  1
  O2-  O182  1  0.62529036  0.74863122  0.16297390  1
  O2-  O183  1  0.62500394  0.75025292  0.67123175  1
  O2-  O184  1  0.87350640  -0.00144536  0.16634101  1
  O2-  O185  1  0.87476291  0.00261552  0.66117486  1
  O2-  O186  1  0.87390256  0.24868787  0.16566783  1
  O2-  O187  1  0.87511421  0.24785624  0.65990067  1
  O2-  O188  1  0.87383452  0.49924213  0.16432592  1
  O2-  O189  1  0.87565883  0.50234092  0.66974898  1
  O2-  O190  1  0.87397972  0.75366678  0.16277185  1
  O2-  O191  1  0.87569658  0.74744508  0.67275792  1
  O2-  O192  1  -0.00103541  0.12477158  0.16185098  1
  O2-  O193  1  -0.00091532  0.12459664  0.66347696  1
  O2-  O194  1  0.00075981  0.37444814  0.16026028  1
  O2-  O195  1  0.00254050  0.37550395  0.66663075  1
  O2-  O196  1  -0.00072301  0.62501171  0.16255584  1
  O2-  O197  1  0.00043021  0.62529390  0.66814372  1
  O2-  O198  1  -0.00070846  0.87652482  0.15849452  1
  O2-  O199  1  0.00224282  0.87461380  0.66835766  1
  O2-  O200  1  0.25172615  0.12553563  0.16372618  1
  O2-  O201  1  0.24891973  0.12485387  0.66642257  1
  O2-  O202  1  0.24885400  0.37455131  0.15951720  1
  O2-  O203  1  0.25150332  0.37466664  0.66533774  1
  O2-  O204  1  0.25058742  0.62527970  0.16169264  1
  O2-  O205  1  0.24836929  0.62553225  0.66751895  1
  O2-  O206  1  0.24784601  0.87504365  0.16009963  1
  O2-  O207  1  0.24850049  0.87460554  0.66886847  1
  O2-  O208  1  0.49945573  0.12528778  0.16929717  1
  O2-  O209  1  0.50273980  0.12469515  0.66112983  1
  O2-  O210  1  0.50175449  0.37517940  0.16479597  1
  O2-  O211  1  0.49776825  0.37520046  0.66265720  1
  O2-  O212  1  0.50284764  0.62454544  0.16670233  1
  O2-  O213  1  0.50135368  0.62460180  0.66641604  1
  O2-  O214  1  0.50095299  0.87515001  0.16761163  1
  O2-  O215  1  0.50307916  0.87523324  0.66370119  1
  O2-  O216  1  0.74892749  0.12482907  0.17032686  1
  O2-  O217  1  0.74994418  0.12543299  0.65488082  1
  O2-  O218  1  0.74844493  0.37413734  0.16474603  1
  O2-  O219  1  0.74876601  0.37621660  0.66372676  1
  O2-  O220  1  0.74680369  0.62528808  0.16612436  1
  O2-  O221  1  0.75009697  0.62502045  0.67022239  1
  O2-  O222  1  0.75137968  0.87594704  0.16664088  1
  O2-  O223  1  0.74675828  0.87393098  0.66308446  1
  O2-  O224  1  0.12504923  0.00083141  0.34375352  1
  O2-  O225  1  0.12414305  -0.00261660  0.84926092  1
  O2-  O226  1  0.12542660  0.24970557  0.34361061  1
  O2-  O227  1  0.12482802  0.25283254  0.84757982  1
  O2-  O228  1  0.12498568  0.50023876  0.34305640  1
  O2-  O229  1  0.12526977  0.49705749  0.85107524  1
  O2-  O230  1  0.12453330  0.74946687  0.34231171  1
  O2-  O231  1  0.12444535  0.75264102  0.85250834  1
  O2-  O232  1  0.37497573  0.00210576  0.34830460  1
  O2-  O233  1  0.37643116  0.00195450  0.84868116  1
  O2-  O234  1  0.37500796  0.25145918  0.34884338  1
  O2-  O235  1  0.37627548  0.25078933  0.84414460  1
  O2-  O236  1  0.37454199  0.49688513  0.34872404  1
  O2-  O237  1  0.37650039  0.49747364  0.84734066  1
  O2-  O238  1  0.37400620  0.74983946  0.34831195  1
  O2-  O239  1  0.37628498  0.74962581  0.85130591  1
  O2-  O240  1  0.62481707  -0.00010575  0.35396178  1
  O2-  O241  1  0.62556289  0.00010212  0.83888201  1
  O2-  O242  1  0.62488139  0.24894978  0.34752749  1
  O2-  O243  1  0.62564639  0.25133913  0.84410740  1
  O2-  O244  1  0.62421942  0.50013552  0.34398074  1
  O2-  O245  1  0.62496564  0.49853645  0.85569808  1
  O2-  O246  1  0.62545969  0.75055128  0.34869297  1
  O2-  O247  1  0.62626910  0.74958761  0.85367129  1
  O2-  O248  1  0.87502765  0.00336409  0.35012207  1
  O2-  O249  1  0.87404155  -0.00153706  0.84364149  1
  O2-  O250  1  0.87475356  0.24687300  0.34952339  1
  O2-  O251  1  0.87387253  0.25045149  0.84056401  1
  O2-  O252  1  0.87581901  0.50133452  0.34831180  1
  O2-  O253  1  0.87399613  0.49715408  0.85060910  1
  O2-  O254  1  0.87524004  0.74858181  0.34614542  1
  O2-  O255  1  0.87372507  0.75354460  0.85525816  1
  O2-  O256  1  0.00018802  0.12528271  0.34505797  1
  O2-  O257  1  -0.00375806  0.12480601  0.84584577  1
  O2-  O258  1  0.00291857  0.37431400  0.34347288  1
  O2-  O259  1  0.00041487  0.37433722  0.84983305  1
  O2-  O260  1  0.00110008  0.62490499  0.34481232  1
  O2-  O261  1  -0.00104507  0.62477278  0.85132160  1
  O2-  O262  1  0.00304343  0.87544681  0.34092360  1
  O2-  O263  1  -0.00114719  0.87580802  0.85312432  1
  O2-  O264  1  0.24960745  0.12586651  0.34262608  1
  O2-  O265  1  0.25212762  0.12547467  0.85131535  1
  O2-  O266  1  0.25062394  0.37469281  0.34211401  1
  O2-  O267  1  0.24934765  0.37403497  0.84976579  1
  O2-  O268  1  0.24757738  0.62433549  0.34308404  1
  O2-  O269  1  0.25125632  0.62452291  0.85141066  1
  O2-  O270  1  0.24767111  0.87522917  0.34099614  1
  O2-  O271  1  0.24842146  0.87584494  0.85323646  1
  O2-  O272  1  0.50053154  0.12590886  0.35162293  1
  O2-  O273  1  0.50209540  0.12605744  0.84407541  1
  O2-  O274  1  0.49763546  0.37481188  0.34877645  1
  O2-  O275  1  0.50242905  0.37380779  0.84682749  1
  O2-  O276  1  0.49930390  0.62462266  0.35075526  1
  O2-  O277  1  0.50418561  0.62437567  0.84827392  1
  O2-  O278  1  0.50149356  0.87456328  0.35196411  1
  O2-  O279  1  0.50215486  0.87542119  0.84633928  1
  O2-  O280  1  0.74953130  0.12451711  0.35527271  1
  O2-  O281  1  0.74987410  0.12499036  0.83500110  1
  O2-  O282  1  0.74858066  0.37554893  0.34888085  1
  O2-  O283  1  0.74839180  0.37441585  0.84628602  1
  O2-  O284  1  0.75151324  0.62476212  0.35059710  1
  O2-  O285  1  0.74640552  0.62432573  0.85094513  1
  O2-  O286  1  0.74729531  0.87489616  0.35206141  1
  O2-  O287  1  0.75088866  0.87571552  0.84474668  1
