# generated using pymatgen
data_BaYFeCuO5
_symmetry_space_group_name_H-M   'P 1'
_cell_length_a   15.64995856
_cell_length_b   15.64864768
_cell_length_c   15.44360216
_cell_angle_alpha   89.99853854
_cell_angle_beta   89.99900844
_cell_angle_gamma   90.00208730
_symmetry_Int_Tables_number   1
_chemical_formula_structural   BaYFeCuO5
_chemical_formula_sum   'Ba32 Y32 Fe32 Cu32 O160'
_cell_volume   3782.14878312
_cell_formula_units_Z   32
loop_
 _symmetry_equiv_pos_site_id
 _symmetry_equiv_pos_as_xyz
  1  'x, y, z'
loop_
 _atom_type_symbol
 _atom_type_oxidation_number
  Ba2+  2.0
  Y3+  3.0
  Fe3+  3.0
  Cu2+  2.0
  O2-  -2.0
loop_
 _atom_site_type_symbol
 _atom_site_label
 _atom_site_symmetry_multiplicity
 _atom_site_fract_x
 _atom_site_fract_y
 _atom_site_fract_z
 _atom_site_occupancy
  Ba2+  Ba0  1  0.00044115  0.00931891  0.01778414  1
  Ba2+  Ba1  1  0.00100460  0.00817798  0.50577597  1
  Ba2+  Ba2  1  0.00614131  0.24850087  0.01667519  1
  Ba2+  Ba3  1  -0.00199012  0.24931658  0.51175439  1
  Ba2+  Ba4  1  0.00259946  0.49497992  0.01070752  1
  Ba2+  Ba5  1  -0.00668831  0.49635245  0.51735413  1
  Ba2+  Ba6  1  -0.00405074  0.74640068  0.01171823  1
  Ba2+  Ba7  1  -0.00371180  0.74659805  0.51110474  1
  Ba2+  Ba8  1  0.25679712  0.00667782  0.01579785  1
  Ba2+  Ba9  1  0.24990558  0.00849594  0.50613819  1
  Ba2+  Ba10  1  0.24719564  0.24636939  0.01254776  1
  Ba2+  Ba11  1  0.25569792  0.25090964  0.50675316  1
  Ba2+  Ba12  1  0.25100172  0.49818648  0.00651763  1
  Ba2+  Ba13  1  0.25672727  0.49269287  0.51690647  1
  Ba2+  Ba14  1  0.26099560  0.74843043  0.01136240  1
  Ba2+  Ba15  1  0.25058337  0.74972731  0.51679245  1
  Ba2+  Ba16  1  0.49411945  0.00576496  0.01716903  1
  Ba2+  Ba17  1  0.50297069  0.00971027  0.51026606  1
  Ba2+  Ba18  1  0.50060059  0.24383165  0.00696858  1
  Ba2+  Ba19  1  0.49820489  0.24982552  0.51204940  1
  Ba2+  Ba20  1  0.50180617  0.50434458  -0.00384173  1
  Ba2+  Ba21  1  0.50067597  0.49813594  0.51761542  1
  Ba2+  Ba22  1  0.49480898  0.74413893  0.00681509  1
  Ba2+  Ba23  1  0.50593067  0.74318435  0.51605532  1
  Ba2+  Ba24  1  0.74875149  0.00824636  0.01836206  1
  Ba2+  Ba25  1  0.74608925  0.00951733  0.50986597  1
  Ba2+  Ba26  1  0.74561329  0.24661624  0.01255486  1
  Ba2+  Ba27  1  0.74903264  0.24820624  0.51636151  1
  Ba2+  Ba28  1  0.74511904  0.50135596  0.00080980  1
  Ba2+  Ba29  1  0.74850483  0.50216960  0.51645262  1
  Ba2+  Ba30  1  0.74758365  0.74275345  0.00686341  1
  Ba2+  Ba31  1  0.74596280  0.74050168  0.51035317  1
  Y3+  Y32  1  -0.00022969  0.00442364  0.25984404  1
  Y3+  Y33  1  0.00017464  0.00016936  0.75310665  1
  Y3+  Y34  1  0.00141659  0.24866927  0.25726267  1
  Y3+  Y35  1  0.00056361  0.25211301  0.75608980  1
  Y3+  Y36  1  -0.00101025  0.49971736  0.25578220  1
  Y3+  Y37  1  0.00032074  0.49678475  0.75726625  1
  Y3+  Y38  1  -0.00219347  0.74779881  0.25858712  1
  Y3+  Y39  1  -0.00018641  0.75037793  0.75449993  1
  Y3+  Y40  1  0.25264563  0.00415926  0.25819225  1
  Y3+  Y41  1  0.25168080  0.00143592  0.75500294  1
  Y3+  Y42  1  0.25130828  0.24906775  0.25861753  1
  Y3+  Y43  1  0.25190139  0.25136765  0.75761314  1
  Y3+  Y44  1  0.25151202  0.49755314  0.25530829  1
  Y3+  Y45  1  0.25181719  0.49685381  0.75929908  1
  Y3+  Y46  1  0.25287149  0.74947277  0.25490176  1
  Y3+  Y47  1  0.25159915  0.74942665  0.75765499  1
  Y3+  Y48  1  0.49840903  0.00427802  0.25953399  1
  Y3+  Y49  1  0.50011933  0.00260421  0.75362451  1
  Y3+  Y50  1  0.49777469  0.24819996  0.26128790  1
  Y3+  Y51  1  0.49934034  0.24987540  0.75508442  1
  Y3+  Y52  1  0.49877556  0.50006623  0.26023842  1
  Y3+  Y53  1  0.50033351  0.49970949  0.75694335  1
  Y3+  Y54  1  0.49929991  0.74846419  0.25700409  1
  Y3+  Y55  1  0.50119380  0.74710353  0.75723852  1
  Y3+  Y56  1  0.74924844  0.00425148  0.26077315  1
  Y3+  Y57  1  0.74830804  0.00145436  0.75166882  1
  Y3+  Y58  1  0.74935008  0.24715298  0.25969897  1
  Y3+  Y59  1  0.74856830  0.25044169  0.75398212  1
  Y3+  Y60  1  0.75026753  0.50265647  0.26029967  1
  Y3+  Y61  1  0.74772860  0.49933530  0.75503152  1
  Y3+  Y62  1  0.75003348  0.74647991  0.26072345  1
  Y3+  Y63  1  0.74797893  0.74847444  0.75387365  1
  Fe3+  Fe64  1  0.62500192  0.87590309  0.87980693  1
  Fe3+  Fe65  1  0.37602906  0.87639664  0.87585597  1
  Fe3+  Fe66  1  0.37451636  0.62444250  0.37853320  1
  Fe3+  Fe67  1  0.37588141  0.37317203  0.87931331  1
  Fe3+  Fe68  1  0.87498942  0.12487750  0.87553744  1
  Fe3+  Fe69  1  0.87423718  0.87639399  0.87959892  1
  Fe3+  Fe70  1  0.12501029  0.87593327  0.88023678  1
  Fe3+  Fe71  1  0.12509092  0.37543550  0.37726745  1
  Fe3+  Fe72  1  0.87424004  0.37326350  0.87914259  1
  Fe3+  Fe73  1  0.62454135  0.37547578  0.37869817  1
  Fe3+  Fe74  1  0.37557473  0.87486967  0.37964669  1
  Fe3+  Fe75  1  0.12522551  0.62522017  0.87867700  1
  Fe3+  Fe76  1  0.12546597  0.87475166  0.37724117  1
  Fe3+  Fe77  1  0.12545154  0.12458672  0.87583175  1
  Fe3+  Fe78  1  0.62472937  0.12410006  0.87477794  1
  Fe3+  Fe79  1  0.87533169  0.62469325  0.87570770  1
  Fe3+  Fe80  1  0.62443106  0.87479488  0.37803095  1
  Fe3+  Fe81  1  0.87445227  0.37482029  0.37612735  1
  Fe3+  Fe82  1  0.87417454  0.87547364  0.37890909  1
  Fe3+  Fe83  1  0.12555618  0.62369420  0.37928261  1
  Fe3+  Fe84  1  0.62383183  0.87539852  0.13489357  1
  Fe3+  Fe85  1  0.87357782  0.37476691  0.13473408  1
  Fe3+  Fe86  1  0.37641625  0.37483144  0.13529986  1
  Fe3+  Fe87  1  0.87402268  0.87538205  0.63369771  1
  Fe3+  Fe88  1  0.62411796  0.37487930  0.13716775  1
  Fe3+  Fe89  1  0.87386663  0.87520879  0.13553306  1
  Fe3+  Fe90  1  0.12591612  0.87557597  0.13441976  1
  Fe3+  Fe91  1  0.12591595  0.12641336  0.63774860  1
  Fe3+  Fe92  1  0.12553439  0.62490984  0.13485870  1
  Fe3+  Fe93  1  0.37613082  0.87539615  0.63433551  1
  Fe3+  Fe94  1  0.62448377  0.62388073  0.13896875  1
  Fe3+  Fe95  1  0.12551550  0.62347163  0.63613275  1
  Cu2+  Cu96  1  0.87567147  0.62371460  0.37451864  1
  Cu2+  Cu97  1  0.62444362  0.12652461  0.37199201  1
  Cu2+  Cu98  1  0.37507075  0.12430769  0.87054253  1
  Cu2+  Cu99  1  0.37503350  0.12579428  0.37384371  1
  Cu2+  Cu100  1  0.37489371  0.37558546  0.37210670  1
  Cu2+  Cu101  1  0.62526189  0.37365880  0.86491517  1
  Cu2+  Cu102  1  0.62391494  0.62421665  0.37278641  1
  Cu2+  Cu103  1  0.62565701  0.62549414  0.86127806  1
  Cu2+  Cu104  1  0.12478358  0.37380387  0.87463241  1
  Cu2+  Cu105  1  0.37449668  0.62497180  0.87100532  1
  Cu2+  Cu106  1  0.87502955  0.12673785  0.37362911  1
  Cu2+  Cu107  1  0.12546457  0.12622493  0.36437790  1
  Cu2+  Cu108  1  0.37461766  0.62452259  0.65215809  1
  Cu2+  Cu109  1  0.37614495  0.62305636  0.14171849  1
  Cu2+  Cu110  1  0.87564992  0.12558300  0.64173689  1
  Cu2+  Cu111  1  0.87454843  0.37466270  0.65189927  1
  Cu2+  Cu112  1  0.62418191  0.12556649  0.15389530  1
  Cu2+  Cu113  1  0.87423917  0.62452279  0.14882651  1
  Cu2+  Cu114  1  0.12568422  0.37484990  0.14156142  1
  Cu2+  Cu115  1  0.37557581  0.37428577  0.64461520  1
  Cu2+  Cu116  1  0.87515856  0.62441351  0.64366972  1
  Cu2+  Cu117  1  0.62463836  0.87500350  0.64602026  1
  Cu2+  Cu118  1  0.37529887  0.12712734  0.14412164  1
  Cu2+  Cu119  1  0.12569420  0.12461518  0.15401151  1
  Cu2+  Cu120  1  0.37593631  0.87551868  0.15180738  1
  Cu2+  Cu121  1  0.62456429  0.62380090  0.64486609  1
  Cu2+  Cu122  1  0.37454905  0.12587236  0.64255715  1
  Cu2+  Cu123  1  0.62449752  0.37477629  0.64984014  1
  Cu2+  Cu124  1  0.62425960  0.12624452  0.64285896  1
  Cu2+  Cu125  1  0.12573378  0.37472554  0.64876686  1
  Cu2+  Cu126  1  0.12547000  0.87517531  0.64623548  1
  Cu2+  Cu127  1  0.87472423  0.12567300  0.15251906  1
  O2-  O128  1  0.12468941  0.12288018  -0.00309133  1
  O2-  O129  1  0.12524528  0.12653479  0.51638966  1
  O2-  O130  1  0.12434031  0.37465155  0.00733161  1
  O2-  O131  1  0.12392772  0.37744063  0.49787744  1
  O2-  O132  1  0.12462013  0.62659763  0.00635267  1
  O2-  O133  1  0.12556691  0.62369612  0.50656916  1
  O2-  O134  1  0.12516094  0.87589560  0.00643718  1
  O2-  O135  1  0.12470493  0.87290495  0.49737224  1
  O2-  O136  1  0.37524063  0.12548461  0.00777192  1
  O2-  O137  1  0.37407217  0.12541073  0.50769999  1
  O2-  O138  1  0.37672834  0.37379720  0.00778000  1
  O2-  O139  1  0.37542260  0.37564122  0.50841902  1
  O2-  O140  1  0.37478156  0.62446504  0.00627809  1
  O2-  O141  1  0.37313720  0.62534827  0.49898921  1
  O2-  O142  1  0.37581781  0.87646692  -0.00343191  1
  O2-  O143  1  0.37525330  0.87410368  0.50586552  1
  O2-  O144  1  0.62554007  0.12271499  -0.00414170  1
  O2-  O145  1  0.62495483  0.12717431  0.50692134  1
  O2-  O146  1  0.62460711  0.37578465  0.01663301  1
  O2-  O147  1  0.62619774  0.37563006  0.49945572  1
  O2-  O148  1  0.62522109  0.62492108  0.01775462  1
  O2-  O149  1  0.62427784  0.62357096  0.50868442  1
  O2-  O150  1  0.62460987  0.87596406  0.00654304  1
  O2-  O151  1  0.62551651  0.87395177  0.49847340  1
  O2-  O152  1  0.87441854  0.12421789  -0.00375621  1
  O2-  O153  1  0.87618363  0.12572222  0.50674452  1
  O2-  O154  1  0.87384416  0.37354726  0.00623004  1
  O2-  O155  1  0.87468129  0.37508177  0.49678849  1
  O2-  O156  1  0.87525470  0.62617030  -0.00353306  1
  O2-  O157  1  0.87634157  0.62442655  0.50759146  1
  O2-  O158  1  0.87446584  0.87606365  0.00610288  1
  O2-  O159  1  0.87450086  0.87501113  0.50588348  1
  O2-  O160  1  0.12467819  -0.00225445  0.16418242  1
  O2-  O161  1  0.12496680  0.00037386  0.66449777  1
  O2-  O162  1  0.12483642  0.24849531  0.16418876  1
  O2-  O163  1  0.12513549  0.25047208  0.66596828  1
  O2-  O164  1  0.12432306  0.50326585  0.16221003  1
  O2-  O165  1  0.12513542  0.50074369  0.66593808  1
  O2-  O166  1  0.12463767  0.75076341  0.16179476  1
  O2-  O167  1  0.12518986  0.74832623  0.66426549  1
  O2-  O168  1  0.37510670  -0.00003848  0.16692465  1
  O2-  O169  1  0.37498285  -0.00228827  0.66125532  1
  O2-  O170  1  0.37488062  0.25326342  0.16547990  1
  O2-  O171  1  0.37468921  0.24996185  0.66753877  1
  O2-  O172  1  0.37519632  0.49678852  0.16413523  1
  O2-  O173  1  0.37443979  0.50107413  0.66804019  1
  O2-  O174  1  0.37524827  0.75065125  0.16437186  1
  O2-  O175  1  0.37442563  0.75098289  0.66287717  1
  O2-  O176  1  0.62469580  -0.00082409  0.16312546  1
  O2-  O177  1  0.62484713  -0.00053470  0.66347061  1
  O2-  O178  1  0.62556991  0.25006240  0.16422362  1
  O2-  O179  1  0.62500757  0.25144852  0.66568369  1
  O2-  O180  1  0.62572123  0.49958317  0.16807027  1
  O2-  O181  1  0.62473260  0.49838869  0.66684168  1
  O2-  O182  1  0.62548169  0.75122471  0.16435771  1
  O2-  O183  1  0.62505544  0.75039129  0.66663401  1
  O2-  O184  1  0.87532140  -0.00168277  0.16465396  1
  O2-  O185  1  0.87533607  -0.00266569  0.66288969  1
  O2-  O186  1  0.87466997  0.25098728  0.16093490  1
  O2-  O187  1  0.87534884  0.25123527  0.66569801  1
  O2-  O188  1  0.87497131  0.49852702  0.16078876  1
  O2-  O189  1  0.87579350  0.49848303  0.66782114  1
  O2-  O190  1  0.87481446  0.75218378  0.16389189  1
  O2-  O191  1  0.87560118  0.75284588  0.66449515  1
  O2-  O192  1  0.00008870  0.12396402  0.16363025  1
  O2-  O193  1  0.00232046  0.12490883  0.66577429  1
  O2-  O194  1  -0.00300728  0.37526695  0.16137073  1
  O2-  O195  1  0.00003240  0.37545390  0.66517418  1
  O2-  O196  1  0.00106866  0.62661665  0.16270564  1
  O2-  O197  1  0.00313362  0.62508302  0.66425231  1
  O2-  O198  1  -0.00002262  0.87428047  0.15956002  1
  O2-  O199  1  -0.00179552  0.87420556  0.66477868  1
  O2-  O200  1  0.24931547  0.12466115  0.16575027  1
  O2-  O201  1  0.24837619  0.12475673  0.66704023  1
  O2-  O202  1  0.25253968  0.37557575  0.16255250  1
  O2-  O203  1  0.24948346  0.37568847  0.66795330  1
  O2-  O204  1  0.24765603  0.62593007  0.16336461  1
  O2-  O205  1  0.24811052  0.62515644  0.66456305  1
  O2-  O206  1  0.24884273  0.87446729  0.16214201  1
  O2-  O207  1  0.25236176  0.87387437  0.66393144  1
  O2-  O208  1  0.50076776  0.12536479  0.16685193  1
  O2-  O209  1  0.49964219  0.12534082  0.66462653  1
  O2-  O210  1  0.49970996  0.37470636  0.16702584  1
  O2-  O211  1  0.50091558  0.37529429  0.66728730  1
  O2-  O212  1  0.50209499  0.62530547  0.16786821  1
  O2-  O213  1  0.49843444  0.62478332  0.66637939  1
  O2-  O214  1  0.50174032  0.87520883  0.16340705  1
  O2-  O215  1  0.49842170  0.87405799  0.66356900  1
  O2-  O216  1  0.74977189  0.12390349  0.16437171  1
  O2-  O217  1  0.75003008  0.12499362  0.66355091  1
  O2-  O218  1  0.75053392  0.37461263  0.16356265  1
  O2-  O219  1  0.74977068  0.37526538  0.66553817  1
  O2-  O220  1  0.74911709  0.62596006  0.16704579  1
  O2-  O221  1  0.75028013  0.62475928  0.66572885  1
  O2-  O222  1  0.74948088  0.87571891  0.16023637  1
  O2-  O223  1  0.75134850  0.87472012  0.66514153  1
  O2-  O224  1  0.12485225  -0.00046569  0.34867186  1
  O2-  O225  1  0.12409584  -0.00206750  0.84641360  1
  O2-  O226  1  0.12478919  0.25100000  0.34812329  1
  O2-  O227  1  0.12434292  0.24751170  0.84776093  1
  O2-  O228  1  0.12534630  0.50119477  0.34487154  1
  O2-  O229  1  0.12437522  0.50266669  0.85164108  1
  O2-  O230  1  0.12477874  0.74891667  0.34604181  1
  O2-  O231  1  0.12378601  0.75115896  0.85007748  1
  O2-  O232  1  0.37430990  -0.00263927  0.35130085  1
  O2-  O233  1  0.37493933  -0.00198448  0.84304472  1
  O2-  O234  1  0.37432801  0.25041814  0.34929001  1
  O2-  O235  1  0.37547354  0.25137621  0.85091281  1
  O2-  O236  1  0.37319839  0.50211385  0.34596381  1
  O2-  O237  1  0.37491230  0.49704297  0.85220001  1
  O2-  O238  1  0.37394760  0.75107819  0.34741749  1
  O2-  O239  1  0.37466628  0.75242343  0.84608679  1
  O2-  O240  1  0.62498400  -0.00173453  0.34701121  1
  O2-  O241  1  0.62600742  -0.00164197  0.84551874  1
  O2-  O242  1  0.62483172  0.25240120  0.34642511  1
  O2-  O243  1  0.62571729  0.24839090  0.84875594  1
  O2-  O244  1  0.62503074  0.49869410  0.34726614  1
  O2-  O245  1  0.62599298  0.49997045  0.85178641  1
  O2-  O246  1  0.62504014  0.75147708  0.34636422  1
  O2-  O247  1  0.62612049  0.75231992  0.85125178  1
  O2-  O248  1  0.87556419  -0.00240344  0.34967502  1
  O2-  O249  1  0.87514348  -0.00158315  0.84573330  1
  O2-  O250  1  0.87572135  0.25248771  0.34398667  1
  O2-  O251  1  0.87467618  0.24990916  0.84846057  1
  O2-  O252  1  0.87623313  0.49778872  0.34370979  1
  O2-  O253  1  0.87524785  0.49903820  0.85134711  1
  O2-  O254  1  0.87594290  0.75294601  0.34884082  1
  O2-  O255  1  0.87577607  0.75182384  0.84864814  1
  O2-  O256  1  0.00156720  0.12497609  0.34827393  1
  O2-  O257  1  -0.00052964  0.12331089  0.84571452  1
  O2-  O258  1  0.00072321  0.37570312  0.34342503  1
  O2-  O259  1  -0.00361746  0.37506215  0.84938776  1
  O2-  O260  1  0.00381259  0.62555710  0.34758638  1
  O2-  O261  1  0.00068180  0.62623923  0.84721424  1
  O2-  O262  1  -0.00086937  0.87467174  0.34578840  1
  O2-  O263  1  -0.00030175  0.87446874  0.85084948  1
  O2-  O264  1  0.24908415  0.12478318  0.34954065  1
  O2-  O265  1  0.24859763  0.12329055  0.84787070  1
  O2-  O266  1  0.24835619  0.37568156  0.34626310  1
  O2-  O267  1  0.25282715  0.37481377  0.85161867  1
  O2-  O268  1  0.24855539  0.62622568  0.34640327  1
  O2-  O269  1  0.24664837  0.62631124  0.84895051  1
  O2-  O270  1  0.25114529  0.87426468  0.34696627  1
  O2-  O271  1  0.24812403  0.87439035  0.84834559  1
  O2-  O272  1  0.49962769  0.12473056  0.35031899  1
  O2-  O273  1  0.50165748  0.12371687  0.84701022  1
  O2-  O274  1  0.50082786  0.37594027  0.34853856  1
  O2-  O275  1  0.49921794  0.37476556  0.85171098  1
  O2-  O276  1  0.49734354  0.62596530  0.34849734  1
  O2-  O277  1  0.50179811  0.62577933  0.85064254  1
  O2-  O278  1  0.49834778  0.87459745  0.34754300  1
  O2-  O279  1  0.50217238  0.87485795  0.84780407  1
  O2-  O280  1  0.74958730  0.12490227  0.34899243  1
  O2-  O281  1  0.75030844  0.12370191  0.84470114  1
  O2-  O282  1  0.74981717  0.37540082  0.34436691  1
  O2-  O283  1  0.75173221  0.37485425  0.85063874  1
  O2-  O284  1  0.74994357  0.62548345  0.35011822  1
  O2-  O285  1  0.75117650  0.62597764  0.84859463  1
  O2-  O286  1  0.75098358  0.87497835  0.34574493  1
  O2-  O287  1  0.75025832  0.87475659  0.85123747  1
