# generated using pymatgen
data_BaYFeCuO5
_symmetry_space_group_name_H-M   'P 1'
_cell_length_a   15.67037650
_cell_length_b   15.66980672
_cell_length_c   15.47818416
_cell_angle_alpha   89.99727479
_cell_angle_beta   89.99162767
_cell_angle_gamma   90.00182775
_symmetry_Int_Tables_number   1
_chemical_formula_structural   BaYFeCuO5
_chemical_formula_sum   'Ba32 Y32 Fe32 Cu32 O160'
_cell_volume   3800.69548600
_cell_formula_units_Z   32
loop_
 _symmetry_equiv_pos_site_id
 _symmetry_equiv_pos_as_xyz
  1  'x, y, z'
loop_
 _atom_type_symbol
 _atom_type_oxidation_number
  Ba2+  2.0
  Y3+  3.0
  Fe3+  3.0
  Cu2+  2.0
  O2-  -2.0
loop_
 _atom_site_type_symbol
 _atom_site_label
 _atom_site_symmetry_multiplicity
 _atom_site_fract_x
 _atom_site_fract_y
 _atom_site_fract_z
 _atom_site_occupancy
  Ba2+  Ba0  1  0.00308638  -0.00429096  0.01246099  1
  Ba2+  Ba1  1  0.00618554  0.00606048  0.49888318  1
  Ba2+  Ba2  1  -0.00072470  0.25163797  0.01858619  1
  Ba2+  Ba3  1  0.00253480  0.25073361  0.50557656  1
  Ba2+  Ba4  1  0.00143572  0.50415876  0.01516171  1
  Ba2+  Ba5  1  0.00672088  0.49437603  0.52112983  1
  Ba2+  Ba6  1  0.00482418  0.74609169  0.01088245  1
  Ba2+  Ba7  1  0.01132097  0.75020369  0.51772003  1
  Ba2+  Ba8  1  0.24214749  -0.00642947  -0.00098942  1
  Ba2+  Ba9  1  0.25119445  -0.00088168  0.51996173  1
  Ba2+  Ba10  1  0.24739593  0.25823342  0.00749873  1
  Ba2+  Ba11  1  0.25224887  0.25346832  0.51180864  1
  Ba2+  Ba12  1  0.25044909  0.50295082  0.01230782  1
  Ba2+  Ba13  1  0.25356112  0.50028085  0.51786927  1
  Ba2+  Ba14  1  0.24499841  0.74568846  0.00181458  1
  Ba2+  Ba15  1  0.25289958  0.74747524  0.52330544  1
  Ba2+  Ba16  1  0.49543101  -0.00328651  0.00243449  1
  Ba2+  Ba17  1  0.49320273  0.00384360  0.52477850  1
  Ba2+  Ba18  1  0.50026018  0.26235499  0.00704357  1
  Ba2+  Ba19  1  0.49170963  0.24911979  0.51886794  1
  Ba2+  Ba20  1  0.49272029  0.49541318  0.00664576  1
  Ba2+  Ba21  1  0.48949687  0.50318012  0.51073533  1
  Ba2+  Ba22  1  0.48880318  0.74614005  0.00226792  1
  Ba2+  Ba23  1  0.49125840  0.74327910  0.51689497  1
  Ba2+  Ba24  1  0.76100107  0.00117594  0.01853018  1
  Ba2+  Ba25  1  0.74961868  0.00846759  0.50623821  1
  Ba2+  Ba26  1  0.75291081  0.25758224  0.01694586  1
  Ba2+  Ba27  1  0.75387957  0.24743900  0.51087401  1
  Ba2+  Ba28  1  0.75504353  0.49598432  0.01208678  1
  Ba2+  Ba29  1  0.74938948  0.49887812  0.51638575  1
  Ba2+  Ba30  1  0.76224444  0.74547679  0.01147458  1
  Ba2+  Ba31  1  0.74521708  0.74627014  0.51146602  1
  Y3+  Y32  1  0.00060532  0.00032839  0.25562390  1
  Y3+  Y33  1  0.00414311  -0.00067592  0.75979367  1
  Y3+  Y34  1  0.00026372  0.24936473  0.25828449  1
  Y3+  Y35  1  0.00171260  0.25135897  0.75614625  1
  Y3+  Y36  1  0.00187013  0.50077060  0.25264932  1
  Y3+  Y37  1  0.00143269  0.50129325  0.75844370  1
  Y3+  Y38  1  0.00227374  0.74939920  0.25204348  1
  Y3+  Y39  1  0.00401443  0.74822191  0.76134993  1
  Y3+  Y40  1  0.24756200  -0.00060492  0.25544553  1
  Y3+  Y41  1  0.24840826  -0.00290063  0.76123455  1
  Y3+  Y42  1  0.25120057  0.25353683  0.25675458  1
  Y3+  Y43  1  0.25099953  0.25290223  0.75839391  1
  Y3+  Y44  1  0.25318146  0.50057463  0.25540382  1
  Y3+  Y45  1  0.25193017  0.50119732  0.75994641  1
  Y3+  Y46  1  0.24980604  0.74678523  0.25315608  1
  Y3+  Y47  1  0.24933297  0.74825121  0.76176697  1
  Y3+  Y48  1  0.49959266  -0.00039537  0.25469068  1
  Y3+  Y49  1  0.49808464  0.00019673  0.75951668  1
  Y3+  Y50  1  0.49837054  0.25560745  0.25535943  1
  Y3+  Y51  1  0.49884483  0.25366107  0.75984594  1
  Y3+  Y52  1  0.49514934  0.49931886  0.25531452  1
  Y3+  Y53  1  0.49690507  0.49944875  0.75950785  1
  Y3+  Y54  1  0.49684656  0.74657692  0.25672428  1
  Y3+  Y55  1  0.49616018  0.74707544  0.75862274  1
  Y3+  Y56  1  0.75267288  0.00102944  0.25808546  1
  Y3+  Y57  1  0.74925094  0.00144723  0.75587120  1
  Y3+  Y58  1  0.75078566  0.25130191  0.25598068  1
  Y3+  Y59  1  0.74823919  0.25185573  0.75679673  1
  Y3+  Y60  1  0.74997863  0.49946976  0.25388159  1
  Y3+  Y61  1  0.74935350  0.49929221  0.75925996  1
  Y3+  Y62  1  0.75188812  0.74861425  0.25613311  1
  Y3+  Y63  1  0.75041185  0.74662968  0.75758887  1
  Fe3+  Fe64  1  0.37347956  0.12599133  0.87986876  1
  Fe3+  Fe65  1  0.87526272  0.87469665  0.87465633  1
  Fe3+  Fe66  1  0.12629082  0.62467520  0.37672307  1
  Fe3+  Fe67  1  0.62218833  0.12612995  0.37596290  1
  Fe3+  Fe68  1  0.87695822  0.62456934  0.37994616  1
  Fe3+  Fe69  1  0.87524787  0.37630261  0.37674164  1
  Fe3+  Fe70  1  0.62653398  0.87396823  0.87959436  1
  Fe3+  Fe71  1  0.37442945  0.87456911  0.37713998  1
  Fe3+  Fe72  1  0.62635043  0.12577934  0.88036891  1
  Fe3+  Fe73  1  0.87584497  0.87426161  0.38018973  1
  Fe3+  Fe74  1  0.62290294  0.87504824  0.37993374  1
  Fe3+  Fe75  1  0.12703882  0.87419747  0.37646497  1
  Fe3+  Fe76  1  0.87622682  0.12585747  0.87746692  1
  Fe3+  Fe77  1  0.62354535  0.37556717  0.37991812  1
  Fe3+  Fe78  1  0.12409866  0.37554207  0.87677010  1
  Fe3+  Fe79  1  0.12648587  0.37612525  0.37549877  1
  Fe3+  Fe80  1  0.62536088  0.62379009  0.87980103  1
  Fe3+  Fe81  1  0.87577036  0.37507800  0.87461715  1
  Fe3+  Fe82  1  0.62420830  0.62423430  0.37707325  1
  Fe3+  Fe83  1  0.37435593  0.12470432  0.37438455  1
  Fe3+  Fe84  1  0.87647096  0.87592165  0.63327207  1
  Fe3+  Fe85  1  0.62382850  0.37537428  0.63556014  1
  Fe3+  Fe86  1  0.62466927  0.12551727  0.13323449  1
  Fe3+  Fe87  1  0.87630726  0.12504687  0.63771865  1
  Fe3+  Fe88  1  0.62396734  0.62451739  0.13361588  1
  Fe3+  Fe89  1  0.87586396  0.62477340  0.63525225  1
  Fe3+  Fe90  1  0.62531620  0.87361151  0.13327141  1
  Fe3+  Fe91  1  0.12596920  0.12555843  0.13680450  1
  Fe3+  Fe92  1  0.37351496  0.87477406  0.13512313  1
  Fe3+  Fe93  1  0.12629100  0.12561178  0.63982837  1
  Fe3+  Fe94  1  0.62433815  0.87455235  0.63548805  1
  Fe3+  Fe95  1  0.37444771  0.12528199  0.13231726  1
  Cu2+  Cu96  1  0.37413947  0.62385319  0.87283962  1
  Cu2+  Cu97  1  0.87495526  0.12564436  0.36238209  1
  Cu2+  Cu98  1  0.12423667  0.12642530  0.86846071  1
  Cu2+  Cu99  1  0.12461825  0.62314221  0.87126471  1
  Cu2+  Cu100  1  0.87547544  0.62409375  0.87117574  1
  Cu2+  Cu101  1  0.62577079  0.37563483  0.87339256  1
  Cu2+  Cu102  1  0.12371322  0.87375836  0.87205168  1
  Cu2+  Cu103  1  0.12672074  0.12557566  0.36208022  1
  Cu2+  Cu104  1  0.37486384  0.37575961  0.37303439  1
  Cu2+  Cu105  1  0.37404586  0.37526642  0.87202046  1
  Cu2+  Cu106  1  0.37479659  0.87467615  0.86472128  1
  Cu2+  Cu107  1  0.37351464  0.62546732  0.37082342  1
  Cu2+  Cu108  1  0.62449790  0.62424508  0.65206852  1
  Cu2+  Cu109  1  0.12560018  0.87450574  0.14117820  1
  Cu2+  Cu110  1  0.87551093  0.12557949  0.15275195  1
  Cu2+  Cu111  1  0.12620723  0.62455611  0.14257641  1
  Cu2+  Cu112  1  0.12580035  0.37479266  0.65269604  1
  Cu2+  Cu113  1  0.12521648  0.37501548  0.15006518  1
  Cu2+  Cu114  1  0.87557414  0.62459028  0.14195840  1
  Cu2+  Cu115  1  0.37449130  0.37553242  0.64428371  1
  Cu2+  Cu116  1  0.87605578  0.37530326  0.15391053  1
  Cu2+  Cu117  1  0.37423761  0.62425098  0.64778625  1
  Cu2+  Cu118  1  0.12489399  0.87524901  0.65307670  1
  Cu2+  Cu119  1  0.62455962  0.37646499  0.14143072  1
  Cu2+  Cu120  1  0.12525433  0.62445598  0.65327607  1
  Cu2+  Cu121  1  0.37485758  0.62517494  0.14044710  1
  Cu2+  Cu122  1  0.87545194  0.87444141  0.15393433  1
  Cu2+  Cu123  1  0.37402638  0.37505852  0.14161151  1
  Cu2+  Cu124  1  0.37384954  0.12532092  0.65950239  1
  Cu2+  Cu125  1  0.62411418  0.12553368  0.65230957  1
  Cu2+  Cu126  1  0.37457342  0.87434965  0.65665109  1
  Cu2+  Cu127  1  0.87520822  0.37468107  0.64946426  1
  O2-  O128  1  0.12326758  0.12529026  0.01634714  1
  O2-  O129  1  0.12705206  0.12496359  0.51924286  1
  O2-  O130  1  0.12133500  0.37505561  -0.00285223  1
  O2-  O131  1  0.12609131  0.37479959  0.49598817  1
  O2-  O132  1  0.12429962  0.62382510  0.00642913  1
  O2-  O133  1  0.12570148  0.62510311  0.49719841  1
  O2-  O134  1  0.12303646  0.87436710  0.00708392  1
  O2-  O135  1  0.12716204  0.87539283  0.49677694  1
  O2-  O136  1  0.37399962  0.12528870  0.00652547  1
  O2-  O137  1  0.37515501  0.12327239  0.49478856  1
  O2-  O138  1  0.37373458  0.37400679  0.00725264  1
  O2-  O139  1  0.37511052  0.37447240  0.50840790  1
  O2-  O140  1  0.37482851  0.62479087  0.00685320  1
  O2-  O141  1  0.37319114  0.62567477  0.50840744  1
  O2-  O142  1  0.37517000  0.87604533  0.01459564  1
  O2-  O143  1  0.37587256  0.87634289  0.49722900  1
  O2-  O144  1  0.62797139  0.12500363  0.00645284  1
  O2-  O145  1  0.62121440  0.12412759  0.49603182  1
  O2-  O146  1  0.62718847  0.37542932  0.00701198  1
  O2-  O147  1  0.62381222  0.37420079  0.50646677  1
  O2-  O148  1  0.62604345  0.62526328  0.00675579  1
  O2-  O149  1  0.62526495  0.62572371  0.49739853  1
  O2-  O150  1  0.62757891  0.87378636  0.00635501  1
  O2-  O151  1  0.62184933  0.87606169  0.50606913  1
  O2-  O152  1  0.87468809  0.12611651  -0.00255350  1
  O2-  O153  1  0.87603261  0.12408071  0.51700485  1
  O2-  O154  1  0.87631284  0.37431803  -0.00494585  1
  O2-  O155  1  0.87426775  0.37561323  0.49678784  1
  O2-  O156  1  0.87505816  0.62434012  0.00675500  1
  O2-  O157  1  0.87585887  0.62484512  0.50613181  1
  O2-  O158  1  0.87372053  0.87524945  -0.00496065  1
  O2-  O159  1  0.87611696  0.87610489  0.50643769  1
  O2-  O160  1  0.12438963  0.00212954  0.16611394  1
  O2-  O161  1  0.12532898  0.00027381  0.66855442  1
  O2-  O162  1  0.12464150  0.24967703  0.16570837  1
  O2-  O163  1  0.12601541  0.24992588  0.66600335  1
  O2-  O164  1  0.12495643  0.49877855  0.16293963  1
  O2-  O165  1  0.12374844  0.49912227  0.66248650  1
  O2-  O166  1  0.12486871  0.74909071  0.16381271  1
  O2-  O167  1  0.12463081  0.75047418  0.66460124  1
  O2-  O168  1  0.37634812  0.00126011  0.16273032  1
  O2-  O169  1  0.37596612  -0.00021346  0.66786643  1
  O2-  O170  1  0.37642166  0.24650779  0.16316736  1
  O2-  O171  1  0.37529338  0.24927248  0.66667949  1
  O2-  O172  1  0.37487195  0.50013809  0.16439559  1
  O2-  O173  1  0.37548851  0.50035938  0.66654724  1
  O2-  O174  1  0.37666184  0.75216288  0.16550060  1
  O2-  O175  1  0.37529593  0.75003994  0.66661602  1
  O2-  O176  1  0.62654453  -0.00060558  0.16068722  1
  O2-  O177  1  0.62408516  -0.00181918  0.66621033  1
  O2-  O178  1  0.62477583  0.24697302  0.16337833  1
  O2-  O179  1  0.62469986  0.25157921  0.66345327  1
  O2-  O180  1  0.62591126  0.50320403  0.16503963  1
  O2-  O181  1  0.62551987  0.49844996  0.66246964  1
  O2-  O182  1  0.62524548  0.75052835  0.16354055  1
  O2-  O183  1  0.62616274  0.75165824  0.66418191  1
  O2-  O184  1  0.87373226  -0.00058107  0.16565334  1
  O2-  O185  1  0.87405140  -0.00109861  0.66517571  1
  O2-  O186  1  0.87450875  0.25083437  0.16480463  1
  O2-  O187  1  0.87374311  0.24920340  0.66386071  1
  O2-  O188  1  0.87433694  0.49879470  0.16576487  1
  O2-  O189  1  0.87491628  0.50147223  0.66043537  1
  O2-  O190  1  0.87446402  0.75090462  0.16851954  1
  O2-  O191  1  0.87302335  0.75050226  0.65892384  1
  O2-  O192  1  0.00032347  0.12531679  0.16748076  1
  O2-  O193  1  0.00041996  0.12487347  0.66757814  1
  O2-  O194  1  0.00008688  0.37479686  0.16489774  1
  O2-  O195  1  0.00050037  0.37383105  0.66087999  1
  O2-  O196  1  0.00121498  0.62489558  0.16478368  1
  O2-  O197  1  -0.00146523  0.62606970  0.66270396  1
  O2-  O198  1  -0.00103454  0.87552815  0.16633111  1
  O2-  O199  1  -0.00221123  0.87442420  0.66231793  1
  O2-  O200  1  0.25162481  0.12499387  0.16302356  1
  O2-  O201  1  0.24970339  0.12402993  0.67048677  1
  O2-  O202  1  0.24885139  0.37411623  0.16368525  1
  O2-  O203  1  0.24908379  0.37515297  0.66705490  1
  O2-  O204  1  0.24994120  0.62514492  0.16276932  1
  O2-  O205  1  0.24817220  0.62481200  0.66801067  1
  O2-  O206  1  0.25184131  0.87596467  0.16515734  1
  O2-  O207  1  0.24994578  0.87557087  0.66630625  1
  O2-  O208  1  0.50052308  0.12259971  0.15698392  1
  O2-  O209  1  0.49876315  0.12461202  0.66961228  1
  O2-  O210  1  0.49931604  0.37573264  0.16543108  1
  O2-  O211  1  0.50245980  0.37460611  0.66662281  1
  O2-  O212  1  0.50263793  0.62560830  0.16321914  1
  O2-  O213  1  0.50096838  0.62546713  0.66842096  1
  O2-  O214  1  0.50181952  0.87611952  0.16238729  1
  O2-  O215  1  0.50161663  0.87475385  0.66664773  1
  O2-  O216  1  0.74864034  0.12444481  0.16384552  1
  O2-  O217  1  0.75064797  0.12409769  0.66437669  1
  O2-  O218  1  0.75160138  0.37491231  0.16586231  1
  O2-  O219  1  0.74774653  0.37486220  0.66169211  1
  O2-  O220  1  0.74687921  0.62651835  0.16484667  1
  O2-  O221  1  0.75196744  0.62489107  0.66299839  1
  O2-  O222  1  0.74782556  0.87472633  0.16693973  1
  O2-  O223  1  0.75000510  0.87602066  0.65780484  1
  O2-  O224  1  0.12434293  -0.00043241  0.34760595  1
  O2-  O225  1  0.12463056  0.00105824  0.85158158  1
  O2-  O226  1  0.12539575  0.25044052  0.34791725  1
  O2-  O227  1  0.12420230  0.25114717  0.84730203  1
  O2-  O228  1  0.12394672  0.50055076  0.34402228  1
  O2-  O229  1  0.12441729  0.49776847  0.84529555  1
  O2-  O230  1  0.12431934  0.75015481  0.34439756  1
  O2-  O231  1  0.12435971  0.74889643  0.84945740  1
  O2-  O232  1  0.37638968  -0.00082818  0.34172749  1
  O2-  O233  1  0.37561923  0.00167518  0.85229438  1
  O2-  O234  1  0.37572813  0.24867146  0.34578992  1
  O2-  O235  1  0.37602900  0.24716125  0.85009686  1
  O2-  O236  1  0.37579194  0.50079966  0.34836079  1
  O2-  O237  1  0.37537377  0.49956533  0.84889270  1
  O2-  O238  1  0.37590286  0.75185114  0.34631212  1
  O2-  O239  1  0.37591779  0.75096752  0.85030937  1
  O2-  O240  1  0.62489665  -0.00155512  0.34523140  1
  O2-  O241  1  0.62573691  -0.00024176  0.85186842  1
  O2-  O242  1  0.62507509  0.25168468  0.34711133  1
  O2-  O243  1  0.62465739  0.24640000  0.84826158  1
  O2-  O244  1  0.62594747  0.49906520  0.34859493  1
  O2-  O245  1  0.62575407  0.50290590  0.84730109  1
  O2-  O246  1  0.62652326  0.75171817  0.34784544  1
  O2-  O247  1  0.62575318  0.75018389  0.85019222  1
  O2-  O248  1  0.87438379  -0.00179366  0.35117740  1
  O2-  O249  1  0.87351707  0.00048177  0.84533952  1
  O2-  O250  1  0.87363462  0.25119611  0.34824039  1
  O2-  O251  1  0.87466870  0.24949560  0.84369844  1
  O2-  O252  1  0.87431392  0.50174423  0.34793075  1
  O2-  O253  1  0.87392427  0.49801311  0.84408185  1
  O2-  O254  1  0.87306782  0.74995170  0.35238060  1
  O2-  O255  1  0.87368871  0.75162087  0.84325756  1
  O2-  O256  1  0.00065538  0.12514252  0.35200013  1
  O2-  O257  1  -0.00079095  0.12441725  0.84693786  1
  O2-  O258  1  -0.00012626  0.37459338  0.34667514  1
  O2-  O259  1  -0.00052820  0.37494983  0.84232360  1
  O2-  O260  1  -0.00130135  0.62605596  0.34727364  1
  O2-  O261  1  -0.00007730  0.62447848  0.84637823  1
  O2-  O262  1  -0.00106451  0.87520399  0.35014663  1
  O2-  O263  1  -0.00201485  0.87536387  0.84484108  1
  O2-  O264  1  0.25128278  0.12444586  0.34373856  1
  O2-  O265  1  0.25087103  0.12492250  0.85416886  1
  O2-  O266  1  0.24897657  0.37513971  0.34572814  1
  O2-  O267  1  0.24832817  0.37386396  0.84980550  1
  O2-  O268  1  0.24808140  0.62531592  0.34423825  1
  O2-  O269  1  0.24982942  0.62489293  0.85115736  1
  O2-  O270  1  0.25019773  0.87570351  0.34411069  1
  O2-  O271  1  0.25038679  0.87481117  0.85127374  1
  O2-  O272  1  0.50006572  0.12483990  0.33827511  1
  O2-  O273  1  0.50057444  0.12301871  0.85524395  1
  O2-  O274  1  0.50267121  0.37550922  0.34841813  1
  O2-  O275  1  0.49972887  0.37507183  0.85055730  1
  O2-  O276  1  0.50178458  0.62587982  0.34586166  1
  O2-  O277  1  0.50260892  0.62570472  0.85215399  1
  O2-  O278  1  0.50141020  0.87478395  0.34437999  1
  O2-  O279  1  0.50325927  0.87535435  0.85251232  1
  O2-  O280  1  0.74770855  0.12428368  0.34781717  1
  O2-  O281  1  0.74924475  0.12449817  0.84627018  1
  O2-  O282  1  0.74859647  0.37547146  0.34873553  1
  O2-  O283  1  0.75180115  0.37421863  0.84457814  1
  O2-  O284  1  0.75159816  0.62568961  0.34827347  1
  O2-  O285  1  0.74737332  0.62579889  0.84746182  1
  O2-  O286  1  0.74962788  0.87583507  0.35344438  1
  O2-  O287  1  0.74814590  0.87493788  0.84179259  1
