# generated using pymatgen
data_BaYFeCuO5
_symmetry_space_group_name_H-M   'P 1'
_cell_length_a   15.66933530
_cell_length_b   15.67121546
_cell_length_c   15.47659676
_cell_angle_alpha   90.00687242
_cell_angle_beta   90.00102370
_cell_angle_gamma   90.00828120
_symmetry_Int_Tables_number   1
_chemical_formula_structural   BaYFeCuO5
_chemical_formula_sum   'Ba32 Y32 Fe32 Cu32 O160'
_cell_volume   3800.39480016
_cell_formula_units_Z   32
loop_
 _symmetry_equiv_pos_site_id
 _symmetry_equiv_pos_as_xyz
  1  'x, y, z'
loop_
 _atom_type_symbol
 _atom_type_oxidation_number
  Ba2+  2.0
  Y3+  3.0
  Fe3+  3.0
  Cu2+  2.0
  O2-  -2.0
loop_
 _atom_site_type_symbol
 _atom_site_label
 _atom_site_symmetry_multiplicity
 _atom_site_fract_x
 _atom_site_fract_y
 _atom_site_fract_z
 _atom_site_occupancy
  Ba2+  Ba0  1  -0.00494434  0.00761178  0.01510309  1
  Ba2+  Ba1  1  -0.00672286  0.00597846  0.51692884  1
  Ba2+  Ba2  1  -0.00155627  0.24919938  0.01365163  1
  Ba2+  Ba3  1  -0.00946791  0.24570895  0.51088825  1
  Ba2+  Ba4  1  -0.00273138  0.49992953  0.01184909  1
  Ba2+  Ba5  1  -0.00475608  0.49573913  0.51067185  1
  Ba2+  Ba6  1  -0.00514601  0.74255390  0.01530579  1
  Ba2+  Ba7  1  -0.00082879  0.75128450  0.51716896  1
  Ba2+  Ba8  1  0.25575419  0.00898882  0.00636503  1
  Ba2+  Ba9  1  0.25612161  0.00511074  0.51753923  1
  Ba2+  Ba10  1  0.25160239  0.25026205  0.02276360  1
  Ba2+  Ba11  1  0.25167238  0.23897757  0.51031779  1
  Ba2+  Ba12  1  0.24845566  0.49718384  0.01973139  1
  Ba2+  Ba13  1  0.24549158  0.50325515  0.51079530  1
  Ba2+  Ba14  1  0.25413892  0.74544315  -0.00098369  1
  Ba2+  Ba15  1  0.24996167  0.75208358  0.51678358  1
  Ba2+  Ba16  1  0.49490163  0.00839838  -0.00304486  1
  Ba2+  Ba17  1  0.49813189  0.00903208  0.51175493  1
  Ba2+  Ba18  1  0.49741039  0.25048960  0.01438091  1
  Ba2+  Ba19  1  0.50777826  0.24401913  0.50710933  1
  Ba2+  Ba20  1  0.50114155  0.49702097  0.01973241  1
  Ba2+  Ba21  1  0.51104111  0.49687963  0.51124772  1
  Ba2+  Ba22  1  0.49662322  0.74520993  -0.00018501  1
  Ba2+  Ba23  1  0.50061144  0.75187198  0.51684693  1
  Ba2+  Ba24  1  0.75562059  0.00740111  0.00738374  1
  Ba2+  Ba25  1  0.75254780  0.00940201  0.51149772  1
  Ba2+  Ba26  1  0.75210600  0.24919678  -0.00006973  1
  Ba2+  Ba27  1  0.74958052  0.24905859  0.50631226  1
  Ba2+  Ba28  1  0.75147050  0.50043353  0.01287950  1
  Ba2+  Ba29  1  0.74767373  0.48965976  0.51086095  1
  Ba2+  Ba30  1  0.75499640  0.74287187  0.01544203  1
  Ba2+  Ba31  1  0.75032019  0.75111744  0.51739476  1
  Y3+  Y32  1  -0.00290539  0.00210533  0.25412455  1
  Y3+  Y33  1  -0.00248678  0.00327881  0.75739856  1
  Y3+  Y34  1  -0.00249528  0.24827135  0.25898069  1
  Y3+  Y35  1  -0.00473835  0.24900541  0.75612072  1
  Y3+  Y36  1  -0.00116220  0.49909350  0.25690536  1
  Y3+  Y37  1  -0.00322615  0.49912496  0.75651096  1
  Y3+  Y38  1  -0.00159647  0.74945898  0.25322306  1
  Y3+  Y39  1  -0.00103287  0.74893246  0.75802376  1
  Y3+  Y40  1  0.25157016  0.00332032  0.25559270  1
  Y3+  Y41  1  0.25369073  0.00229622  0.75793551  1
  Y3+  Y42  1  0.25128838  0.24729819  0.25735397  1
  Y3+  Y43  1  0.25133635  0.24681290  0.75519783  1
  Y3+  Y44  1  0.24857193  0.49827472  0.25801394  1
  Y3+  Y45  1  0.24887629  0.50032065  0.75443084  1
  Y3+  Y46  1  0.24848792  0.75040527  0.25612715  1
  Y3+  Y47  1  0.25136058  0.75112441  0.75690758  1
  Y3+  Y48  1  0.49991358  0.00416242  0.25927421  1
  Y3+  Y49  1  0.49819800  0.00401233  0.75734994  1
  Y3+  Y50  1  0.50128353  0.24857451  0.26158820  1
  Y3+  Y51  1  0.50205046  0.24712525  0.75561980  1
  Y3+  Y52  1  0.50333709  0.49652695  0.25913705  1
  Y3+  Y53  1  0.50305715  0.49868224  0.75417451  1
  Y3+  Y54  1  0.50198223  0.74994271  0.25657363  1
  Y3+  Y55  1  0.49887936  0.75150162  0.75780895  1
  Y3+  Y56  1  0.75171182  0.00283998  0.25780155  1
  Y3+  Y57  1  0.75088564  0.00476466  0.75815223  1
  Y3+  Y58  1  0.74984441  0.24936087  0.26309273  1
  Y3+  Y59  1  0.75056967  0.24914063  0.75395327  1
  Y3+  Y60  1  0.74931170  0.49713224  0.25938969  1
  Y3+  Y61  1  0.75113992  0.49738885  0.75580486  1
  Y3+  Y62  1  0.75141047  0.74923051  0.25352794  1
  Y3+  Y63  1  0.75068467  0.74917696  0.75925854  1
  Fe3+  Fe64  1  0.37488418  0.87502239  0.37876901  1
  Fe3+  Fe65  1  0.62571628  0.87591951  0.37994530  1
  Fe3+  Fe66  1  0.87552713  0.87500437  0.87772838  1
  Fe3+  Fe67  1  0.62497338  0.37436339  0.87631628  1
  Fe3+  Fe68  1  0.87454373  0.62515364  0.37917047  1
  Fe3+  Fe69  1  0.62610805  0.62626238  0.37782395  1
  Fe3+  Fe70  1  0.12490417  0.87610183  0.87903773  1
  Fe3+  Fe71  1  0.37547218  0.62531457  0.38025409  1
  Fe3+  Fe72  1  0.62511876  0.62342691  0.87556025  1
  Fe3+  Fe73  1  0.37487387  0.37431251  0.38051640  1
  Fe3+  Fe74  1  0.12436266  0.87635341  0.37929357  1
  Fe3+  Fe75  1  0.62541683  0.87640065  0.87974893  1
  Fe3+  Fe76  1  0.12479339  0.37416476  0.87500972  1
  Fe3+  Fe77  1  0.12431407  0.37333625  0.37966248  1
  Fe3+  Fe78  1  0.87523620  0.87477539  0.37673101  1
  Fe3+  Fe79  1  0.12485510  0.62341610  0.87496662  1
  Fe3+  Fe80  1  0.12401239  0.62630792  0.37762216  1
  Fe3+  Fe81  1  0.37452732  0.37552957  0.87436284  1
  Fe3+  Fe82  1  0.12490736  0.12697843  0.87615151  1
  Fe3+  Fe83  1  0.12420049  0.12297805  0.37679546  1
  Fe3+  Fe84  1  0.12556402  0.87576257  0.13257674  1
  Fe3+  Fe85  1  0.37537450  0.62491806  0.14039284  1
  Fe3+  Fe86  1  0.62465962  0.87613906  0.13337136  1
  Fe3+  Fe87  1  0.12436108  0.87722635  0.63623402  1
  Fe3+  Fe88  1  0.12436697  0.37309765  0.63340396  1
  Fe3+  Fe89  1  0.37614751  0.87559749  0.13602232  1
  Fe3+  Fe90  1  0.87368312  0.37363749  0.14026439  1
  Fe3+  Fe91  1  0.87418986  0.62461815  0.63544464  1
  Fe3+  Fe92  1  0.37569394  0.37370989  0.63234357  1
  Fe3+  Fe93  1  0.37578225  0.62441742  0.63500165  1
  Fe3+  Fe94  1  0.62548370  0.12607298  0.13830943  1
  Fe3+  Fe95  1  0.62553922  0.87691717  0.63700310  1
  Cu2+  Cu96  1  0.87497297  0.37502484  0.86276287  1
  Cu2+  Cu97  1  0.87545407  0.12401930  0.37142780  1
  Cu2+  Cu98  1  0.37465388  0.12441212  0.37214005  1
  Cu2+  Cu99  1  0.87566334  0.12612609  0.87216942  1
  Cu2+  Cu100  1  0.62587724  0.12351313  0.37273280  1
  Cu2+  Cu101  1  0.62512115  0.12606154  0.86503411  1
  Cu2+  Cu102  1  0.87547829  0.37457166  0.37398441  1
  Cu2+  Cu103  1  0.37535623  0.62233476  0.85794073  1
  Cu2+  Cu104  1  0.37445045  0.12883629  0.87058889  1
  Cu2+  Cu105  1  0.87459624  0.62407047  0.87118425  1
  Cu2+  Cu106  1  0.37496396  0.87581075  0.86437436  1
  Cu2+  Cu107  1  0.62537526  0.37385156  0.37322315  1
  Cu2+  Cu108  1  0.37548367  0.37476983  0.15755778  1
  Cu2+  Cu109  1  0.12426744  0.62521780  0.64843015  1
  Cu2+  Cu110  1  0.62564004  0.12484334  0.64412959  1
  Cu2+  Cu111  1  0.87430363  0.87551442  0.65181359  1
  Cu2+  Cu112  1  0.87387481  0.12544186  0.64448972  1
  Cu2+  Cu113  1  0.87421557  0.87547644  0.14654451  1
  Cu2+  Cu114  1  0.12413361  0.37403016  0.15510871  1
  Cu2+  Cu115  1  0.12448956  0.12504010  0.64998495  1
  Cu2+  Cu116  1  0.37616068  0.12589282  0.64353939  1
  Cu2+  Cu117  1  0.37563490  0.87575941  0.65109667  1
  Cu2+  Cu118  1  0.12476891  0.12488707  0.15092271  1
  Cu2+  Cu119  1  0.12547433  0.62485907  0.15103065  1
  Cu2+  Cu120  1  0.62532058  0.37345586  0.64234836  1
  Cu2+  Cu121  1  0.62459469  0.62444397  0.15157239  1
  Cu2+  Cu122  1  0.87441942  0.37400126  0.64194567  1
  Cu2+  Cu123  1  0.87326017  0.12696932  0.14412494  1
  Cu2+  Cu124  1  0.87465127  0.62252886  0.14525813  1
  Cu2+  Cu125  1  0.37678115  0.12520196  0.14396585  1
  Cu2+  Cu126  1  0.62564214  0.62556880  0.65000986  1
  Cu2+  Cu127  1  0.62573433  0.37348321  0.15226415  1
  O2-  O128  1  0.12600077  0.12791969  -0.00350107  1
  O2-  O129  1  0.12448088  0.12025752  0.49694507  1
  O2-  O130  1  0.12689890  0.37536095  -0.00527159  1
  O2-  O131  1  0.12446069  0.37398967  0.50569698  1
  O2-  O132  1  0.12660958  0.62273164  -0.00446664  1
  O2-  O133  1  0.12455025  0.62885248  0.49746621  1
  O2-  O134  1  0.12595729  0.87459385  0.00530651  1
  O2-  O135  1  0.12450005  0.87633210  0.50570651  1
  O2-  O136  1  0.37505167  0.12822851  0.00796500  1
  O2-  O137  1  0.37485783  0.12462709  0.50733378  1
  O2-  O138  1  0.37352420  0.37772310  -0.00537985  1
  O2-  O139  1  0.37468328  0.37467733  0.50611485  1
  O2-  O140  1  0.37475785  0.62345846  0.01988380  1
  O2-  O141  1  0.37534845  0.62684565  0.50642349  1
  O2-  O142  1  0.37551976  0.87335251  0.01589298  1
  O2-  O143  1  0.37436140  0.87371461  0.49883660  1
  O2-  O144  1  0.62448820  0.12600423  0.01767238  1
  O2-  O145  1  0.62597238  0.12273693  0.50849102  1
  O2-  O146  1  0.62357773  0.37644774  -0.00349477  1
  O2-  O147  1  0.62457123  0.37398873  0.50721245  1
  O2-  O148  1  0.62334019  0.62310197  -0.00391672  1
  O2-  O149  1  0.62571495  0.62922118  0.49774454  1
  O2-  O150  1  0.62403886  0.87517129  0.00673260  1
  O2-  O151  1  0.62555841  0.87543997  0.50755424  1
  O2-  O152  1  0.87519936  0.12732378  0.00770684  1
  O2-  O153  1  0.87471304  0.12411639  0.50734326  1
  O2-  O154  1  0.87449574  0.37515767  0.01944728  1
  O2-  O155  1  0.87603288  0.37538768  0.50791234  1
  O2-  O156  1  0.87519829  0.62303837  0.00670469  1
  O2-  O157  1  0.87449997  0.62654269  0.50655797  1
  O2-  O158  1  0.87606317  0.87322820  -0.00182874  1
  O2-  O159  1  0.87567949  0.87340347  0.49667425  1
  O2-  O160  1  0.12540187  -0.00155277  0.16055680  1
  O2-  O161  1  0.12454482  -0.00119995  0.66541519  1
  O2-  O162  1  0.12519985  0.24915752  0.16737885  1
  O2-  O163  1  0.12638433  0.25067305  0.65914088  1
  O2-  O164  1  0.12559528  0.49949802  0.16768261  1
  O2-  O165  1  0.12550524  0.49812175  0.65793020  1
  O2-  O166  1  0.12508400  0.75236317  0.16282748  1
  O2-  O167  1  0.12500674  0.75277908  0.66355533  1
  O2-  O168  1  0.37539187  -0.00185548  0.16581796  1
  O2-  O169  1  0.37552962  -0.00025953  0.66678760  1
  O2-  O170  1  0.37512514  0.25145589  0.16749052  1
  O2-  O171  1  0.37406311  0.25284201  0.66187553  1
  O2-  O172  1  0.37454914  0.50018746  0.17088789  1
  O2-  O173  1  0.37380609  0.50007261  0.65601451  1
  O2-  O174  1  0.37524047  0.75061655  0.16897608  1
  O2-  O175  1  0.37504297  0.74827605  0.66361650  1
  O2-  O176  1  0.62534767  -0.00112631  0.16576976  1
  O2-  O177  1  0.62515766  -0.00254547  0.66760688  1
  O2-  O178  1  0.62416143  0.24967699  0.16881555  1
  O2-  O179  1  0.62470830  0.24949635  0.66553491  1
  O2-  O180  1  0.62469531  0.49886286  0.16606593  1
  O2-  O181  1  0.62523422  0.50148631  0.66068301  1
  O2-  O182  1  0.62452442  0.75187541  0.16245674  1
  O2-  O183  1  0.62453545  0.75214973  0.66441728  1
  O2-  O184  1  0.87395881  -0.00000999  0.16307756  1
  O2-  O185  1  0.87475475  -0.00087277  0.66693266  1
  O2-  O186  1  0.87523357  0.25159560  0.17076255  1
  O2-  O187  1  0.87472336  0.24969169  0.66528111  1
  O2-  O188  1  0.87485843  0.49753088  0.17074085  1
  O2-  O189  1  0.87514427  0.50254757  0.66170637  1
  O2-  O190  1  0.87516009  0.74981311  0.16395205  1
  O2-  O191  1  0.87548583  0.74866332  0.66264182  1
  O2-  O192  1  0.00040298  0.12461866  0.16334707  1
  O2-  O193  1  0.00032064  0.12467101  0.66443562  1
  O2-  O194  1  -0.00034607  0.37501012  0.16701793  1
  O2-  O195  1  0.00296933  0.37478237  0.66305548  1
  O2-  O196  1  0.00165232  0.62447571  0.16537598  1
  O2-  O197  1  -0.00180366  0.62583537  0.66178803  1
  O2-  O198  1  0.00160086  0.87494358  0.16190838  1
  O2-  O199  1  0.00079944  0.87510121  0.66170927  1
  O2-  O200  1  0.24951329  0.12489800  0.16472845  1
  O2-  O201  1  0.24935120  0.12371135  0.66323369  1
  O2-  O202  1  0.24917668  0.37512676  0.16752411  1
  O2-  O203  1  0.24992545  0.37600117  0.65766525  1
  O2-  O204  1  0.25079849  0.62487415  0.16951894  1
  O2-  O205  1  0.25138656  0.62601411  0.66010890  1
  O2-  O206  1  0.24947810  0.87466509  0.16622863  1
  O2-  O207  1  0.24865345  0.87535146  0.66236825  1
  O2-  O208  1  0.50243279  0.12502267  0.16998009  1
  O2-  O209  1  0.50026733  0.12460003  0.66562858  1
  O2-  O210  1  0.50054504  0.37570570  0.16674134  1
  O2-  O211  1  0.49699516  0.37625528  0.66185285  1
  O2-  O212  1  0.49938683  0.62445535  0.16958977  1
  O2-  O213  1  0.49840884  0.62538845  0.66135933  1
  O2-  O214  1  0.50133888  0.87438047  0.16815551  1
  O2-  O215  1  0.50165240  0.87450330  0.66417112  1
  O2-  O216  1  0.74780981  0.12501118  0.16922419  1
  O2-  O217  1  0.74999019  0.12420019  0.66701863  1
  O2-  O218  1  0.74985808  0.37500369  0.16899207  1
  O2-  O219  1  0.74983690  0.37518756  0.66606768  1
  O2-  O220  1  0.74816337  0.62488488  0.16569144  1
  O2-  O221  1  0.75180423  0.62676144  0.66335626  1
  O2-  O222  1  0.74793248  0.87395884  0.16303792  1
  O2-  O223  1  0.74872479  0.87397133  0.66444979  1
  O2-  O224  1  0.12473955  -0.00253981  0.34351862  1
  O2-  O225  1  0.12598693  -0.00072853  0.84953025  1
  O2-  O226  1  0.12596596  0.25004595  0.35144384  1
  O2-  O227  1  0.12430341  0.25075666  0.84080316  1
  O2-  O228  1  0.12539465  0.49980514  0.35202265  1
  O2-  O229  1  0.12469775  0.49942583  0.84034610  1
  O2-  O230  1  0.12515002  0.75149649  0.34620616  1
  O2-  O231  1  0.12605980  0.75128988  0.84812935  1
  O2-  O232  1  0.37482528  -0.00266808  0.34634020  1
  O2-  O233  1  0.37464727  0.00120789  0.85106406  1
  O2-  O234  1  0.37353546  0.25230465  0.35165619  1
  O2-  O235  1  0.37471816  0.25298404  0.84280767  1
  O2-  O236  1  0.37416290  0.50067532  0.35437140  1
  O2-  O237  1  0.37482325  0.49850806  0.83760867  1
  O2-  O238  1  0.37435870  0.74881489  0.34847048  1
  O2-  O239  1  0.37481700  0.74873784  0.84911385  1
  O2-  O240  1  0.62477385  -0.00378793  0.34832818  1
  O2-  O241  1  0.62439773  -0.00042687  0.85243909  1
  O2-  O242  1  0.62502263  0.24877597  0.35156713  1
  O2-  O243  1  0.62541042  0.25037331  0.84798069  1
  O2-  O244  1  0.62474905  0.50257293  0.34976562  1
  O2-  O245  1  0.62529362  0.49921230  0.84210712  1
  O2-  O246  1  0.62537740  0.75133713  0.34592880  1
  O2-  O247  1  0.62398203  0.75159317  0.84872010  1
  O2-  O248  1  0.87591875  -0.00274111  0.34533772  1
  O2-  O249  1  0.87534385  -0.00164512  0.84909153  1
  O2-  O250  1  0.87571901  0.24934278  0.35228323  1
  O2-  O251  1  0.87520232  0.25176054  0.84889937  1
  O2-  O252  1  0.87583744  0.50331880  0.35288767  1
  O2-  O253  1  0.87506631  0.49813760  0.84519865  1
  O2-  O254  1  0.87527982  0.74887968  0.34630678  1
  O2-  O255  1  0.87513001  0.75223084  0.84481092  1
  O2-  O256  1  0.00184673  0.12377231  0.34553813  1
  O2-  O257  1  0.00166059  0.12503531  0.84640925  1
  O2-  O258  1  0.00340799  0.37535101  0.34972046  1
  O2-  O259  1  -0.00067221  0.37577641  0.84639927  1
  O2-  O260  1  -0.00073765  0.62613750  0.34814822  1
  O2-  O261  1  0.00195084  0.62515781  0.84448080  1
  O2-  O262  1  0.00136726  0.87332502  0.34650547  1
  O2-  O263  1  0.00191137  0.87476811  0.84557323  1
  O2-  O264  1  0.24794689  0.12362281  0.34694755  1
  O2-  O265  1  0.24825656  0.12567758  0.84504520  1
  O2-  O266  1  0.24936585  0.37621768  0.35216430  1
  O2-  O267  1  0.24925616  0.37587895  0.83921654  1
  O2-  O268  1  0.25072244  0.62550523  0.35113766  1
  O2-  O269  1  0.24944186  0.62522032  0.84351763  1
  O2-  O270  1  0.24841751  0.87360589  0.34912247  1
  O2-  O271  1  0.24857178  0.87418065  0.84813709  1
  O2-  O272  1  0.50001733  0.12411076  0.35173021  1
  O2-  O273  1  0.50072509  0.12571738  0.84889506  1
  O2-  O274  1  0.49709651  0.37550153  0.35126355  1
  O2-  O275  1  0.50062684  0.37552306  0.84334964  1
  O2-  O276  1  0.49896925  0.62615721  0.35101042  1
  O2-  O277  1  0.50083260  0.62538296  0.84445564  1
  O2-  O278  1  0.50109978  0.87299620  0.35071133  1
  O2-  O279  1  0.50143960  0.87492599  0.85007666  1
  O2-  O280  1  0.75048734  0.12311510  0.35070688  1
  O2-  O281  1  0.74950569  0.12505732  0.85064165  1
  O2-  O282  1  0.75039482  0.37539162  0.35132296  1
  O2-  O283  1  0.75038228  0.37509454  0.84928552  1
  O2-  O284  1  0.75124150  0.62629161  0.34852248  1
  O2-  O285  1  0.74776982  0.62562096  0.84578147  1
  O2-  O286  1  0.74933172  0.87392032  0.34770038  1
  O2-  O287  1  0.74858237  0.87524012  0.84888918  1
