# generated using pymatgen
data_BaYFeCuO5
_symmetry_space_group_name_H-M   'P 1'
_cell_length_a   15.66422523
_cell_length_b   15.66400447
_cell_length_c   15.47190735
_cell_angle_alpha   89.99229846
_cell_angle_beta   89.99885850
_cell_angle_gamma   89.99297517
_symmetry_Int_Tables_number   1
_chemical_formula_structural   BaYFeCuO5
_chemical_formula_sum   'Ba32 Y32 Fe32 Cu32 O160'
_cell_volume   3796.25665396
_cell_formula_units_Z   32
loop_
 _symmetry_equiv_pos_site_id
 _symmetry_equiv_pos_as_xyz
  1  'x, y, z'
loop_
 _atom_type_symbol
 _atom_type_oxidation_number
  Ba2+  2.0
  Y3+  3.0
  Fe3+  3.0
  Cu2+  2.0
  O2-  -2.0
loop_
 _atom_site_type_symbol
 _atom_site_label
 _atom_site_symmetry_multiplicity
 _atom_site_fract_x
 _atom_site_fract_y
 _atom_site_fract_z
 _atom_site_occupancy
  Ba2+  Ba0  1  0.00236777  0.00033261  0.01792787  1
  Ba2+  Ba1  1  0.00042063  -0.00029248  0.52435782  1
  Ba2+  Ba2  1  -0.00381101  0.24526380  0.01213473  1
  Ba2+  Ba3  1  0.00430137  0.24439209  0.51402055  1
  Ba2+  Ba4  1  -0.00555613  0.50231350  0.00477876  1
  Ba2+  Ba5  1  0.01067982  0.50151737  0.50136981  1
  Ba2+  Ba6  1  0.00195594  0.75180070  0.01836587  1
  Ba2+  Ba7  1  0.00703667  0.75273908  0.51502185  1
  Ba2+  Ba8  1  0.24700572  -0.00073201  0.01217824  1
  Ba2+  Ba9  1  0.25182923  -0.00415191  0.51217321  1
  Ba2+  Ba10  1  0.24693530  0.23894497  0.00250142  1
  Ba2+  Ba11  1  0.24622824  0.24536024  0.50104775  1
  Ba2+  Ba12  1  0.25082824  0.51211190  0.01195782  1
  Ba2+  Ba13  1  0.24816053  0.50960162  0.50268436  1
  Ba2+  Ba14  1  0.25087343  0.75058943  0.02310701  1
  Ba2+  Ba15  1  0.25323412  0.74920472  0.51075282  1
  Ba2+  Ba16  1  0.49720111  0.00378121  0.00560649  1
  Ba2+  Ba17  1  0.49566790  -0.00853925  0.50137404  1
  Ba2+  Ba18  1  0.50309516  0.23966952  0.00208510  1
  Ba2+  Ba19  1  0.49905332  0.24934035  0.50734991  1
  Ba2+  Ba20  1  0.49831402  0.51155150  0.01166970  1
  Ba2+  Ba21  1  0.50016645  0.50820512  0.51765351  1
  Ba2+  Ba22  1  0.49321718  0.74627864  0.01731454  1
  Ba2+  Ba23  1  0.49635800  0.75322196  0.51121910  1
  Ba2+  Ba24  1  0.75250891  0.00449456  0.01673328  1
  Ba2+  Ba25  1  0.75207074  -0.00596977  0.51673706  1
  Ba2+  Ba26  1  0.75472735  0.24629987  0.01187476  1
  Ba2+  Ba27  1  0.75087276  0.24824734  0.51724104  1
  Ba2+  Ba28  1  0.75632432  0.50142107  0.00514660  1
  Ba2+  Ba29  1  0.74118495  0.50029742  0.51789831  1
  Ba2+  Ba30  1  0.75381795  0.74642328  0.01153886  1
  Ba2+  Ba31  1  0.74333428  0.75653023  0.51448689  1
  Y3+  Y32  1  0.00060190  -0.00012635  0.25152572  1
  Y3+  Y33  1  0.00162746  0.00035529  0.75666861  1
  Y3+  Y34  1  0.00000808  0.25036536  0.25426890  1
  Y3+  Y35  1  0.00008575  0.24880342  0.76071472  1
  Y3+  Y36  1  0.00222210  0.49953064  0.25727101  1
  Y3+  Y37  1  -0.00041636  0.50058673  0.75808515  1
  Y3+  Y38  1  0.00256746  0.74984736  0.25780493  1
  Y3+  Y39  1  0.00170449  0.75039761  0.75352413  1
  Y3+  Y40  1  0.25158356  -0.00205594  0.25704012  1
  Y3+  Y41  1  0.24900426  -0.00037761  0.75760850  1
  Y3+  Y42  1  0.24840744  0.24903583  0.25720370  1
  Y3+  Y43  1  0.24880111  0.24701323  0.76079483  1
  Y3+  Y44  1  0.24937813  0.50389360  0.26023707  1
  Y3+  Y45  1  0.25134286  0.50446926  0.75660922  1
  Y3+  Y46  1  0.25200234  0.74893131  0.26123155  1
  Y3+  Y47  1  0.25207041  0.74953489  0.75194501  1
  Y3+  Y48  1  0.49939447  -0.00254990  0.25848022  1
  Y3+  Y49  1  0.49996101  -0.00150983  0.75688657  1
  Y3+  Y50  1  0.50043344  0.24782141  0.25735291  1
  Y3+  Y51  1  0.50113746  0.24829304  0.76021136  1
  Y3+  Y52  1  0.49803957  0.50354899  0.25725625  1
  Y3+  Y53  1  0.49888845  0.50273275  0.75754928  1
  Y3+  Y54  1  0.49691401  0.75099798  0.26061400  1
  Y3+  Y55  1  0.49772194  0.74995758  0.75296897  1
  Y3+  Y56  1  0.74856756  -0.00030499  0.25578161  1
  Y3+  Y57  1  0.74929542  -0.00088236  0.75653641  1
  Y3+  Y58  1  0.75079579  0.24925238  0.25309461  1
  Y3+  Y59  1  0.75019539  0.24997696  0.76035705  1
  Y3+  Y60  1  0.75030258  0.49930427  0.25453525  1
  Y3+  Y61  1  0.75038644  0.49952633  0.75926210  1
  Y3+  Y62  1  0.74865145  0.75189816  0.25739078  1
  Y3+  Y63  1  0.74882375  0.75150352  0.75402497  1
  Fe3+  Fe64  1  0.12391768  0.12301035  0.37483466  1
  Fe3+  Fe65  1  0.12531920  0.62761851  0.87626813  1
  Fe3+  Fe66  1  0.87539111  0.12416646  0.37619694  1
  Fe3+  Fe67  1  0.62466722  0.62709062  0.87598451  1
  Fe3+  Fe68  1  0.62472947  0.87470001  0.87998650  1
  Fe3+  Fe69  1  0.37484471  0.37553749  0.38022760  1
  Fe3+  Fe70  1  0.12509643  0.37569640  0.88129480  1
  Fe3+  Fe71  1  0.87522433  0.12314098  0.87468207  1
  Fe3+  Fe72  1  0.62485621  0.37539109  0.87983882  1
  Fe3+  Fe73  1  0.12534359  0.87394331  0.87575621  1
  Fe3+  Fe74  1  0.37445344  0.37577044  0.88179666  1
  Fe3+  Fe75  1  0.62522369  0.37493994  0.37675887  1
  Fe3+  Fe76  1  0.87576596  0.87569806  0.37601670  1
  Fe3+  Fe77  1  0.37414262  0.87366991  0.87719815  1
  Fe3+  Fe78  1  0.62562737  0.12414955  0.37947392  1
  Fe3+  Fe79  1  0.87564523  0.87390212  0.87631724  1
  Fe3+  Fe80  1  0.62538832  0.62566191  0.37592730  1
  Fe3+  Fe81  1  0.87506244  0.37453466  0.38043526  1
  Fe3+  Fe82  1  0.12455346  0.87602492  0.37585513  1
  Fe3+  Fe83  1  0.87440673  0.62523549  0.38084100  1
  Fe3+  Fe84  1  0.62410174  0.87440169  0.13459550  1
  Fe3+  Fe85  1  0.37428371  0.37450417  0.63663260  1
  Fe3+  Fe86  1  0.87546569  0.62503703  0.14057354  1
  Fe3+  Fe87  1  0.87586654  0.37492416  0.63553490  1
  Fe3+  Fe88  1  0.37508904  0.12464337  0.14021121  1
  Fe3+  Fe89  1  0.62405973  0.37560370  0.13355331  1
  Fe3+  Fe90  1  0.12580278  0.37568622  0.13496807  1
  Fe3+  Fe91  1  0.37457420  0.37491458  0.13478262  1
  Fe3+  Fe92  1  0.87514615  0.62496855  0.63389334  1
  Fe3+  Fe93  1  0.12666085  0.37498532  0.63895143  1
  Fe3+  Fe94  1  0.62432572  0.12434301  0.63583420  1
  Fe3+  Fe95  1  0.37463191  0.12501737  0.63834548  1
  Cu2+  Cu96  1  0.87552631  0.37484190  0.87366034  1
  Cu2+  Cu97  1  0.62665516  0.12306481  0.87263668  1
  Cu2+  Cu98  1  0.37418464  0.87486925  0.37149556  1
  Cu2+  Cu99  1  0.62553493  0.87513847  0.37165502  1
  Cu2+  Cu100  1  0.87536174  0.62692992  0.85877195  1
  Cu2+  Cu101  1  0.37448504  0.62696326  0.87106371  1
  Cu2+  Cu102  1  0.37488592  0.12489070  0.36537271  1
  Cu2+  Cu103  1  0.37487328  0.12353544  0.86302669  1
  Cu2+  Cu104  1  0.12497151  0.37414952  0.36304918  1
  Cu2+  Cu105  1  0.12436399  0.62656784  0.37194898  1
  Cu2+  Cu106  1  0.12364684  0.12294415  0.87332456  1
  Cu2+  Cu107  1  0.37590797  0.62521490  0.37313321  1
  Cu2+  Cu108  1  0.12491905  0.62413707  0.64176936  1
  Cu2+  Cu109  1  0.37479898  0.87606860  0.64279799  1
  Cu2+  Cu110  1  0.12589191  0.87546323  0.64946805  1
  Cu2+  Cu111  1  0.37526058  0.87513861  0.15109117  1
  Cu2+  Cu112  1  0.12597052  0.12525260  0.14126109  1
  Cu2+  Cu113  1  0.87503123  0.12460647  0.15165050  1
  Cu2+  Cu114  1  0.37482977  0.62497571  0.64139868  1
  Cu2+  Cu115  1  0.12563484  0.12564760  0.65340687  1
  Cu2+  Cu116  1  0.87484525  0.12544522  0.65114470  1
  Cu2+  Cu117  1  0.62415327  0.37413574  0.65286431  1
  Cu2+  Cu118  1  0.62336994  0.87596689  0.64204578  1
  Cu2+  Cu119  1  0.12492303  0.62488511  0.15287580  1
  Cu2+  Cu120  1  0.62539354  0.62533327  0.65247721  1
  Cu2+  Cu121  1  0.87561791  0.37581306  0.14043844  1
  Cu2+  Cu122  1  0.87548008  0.87472108  0.65053107  1
  Cu2+  Cu123  1  0.87471455  0.87439543  0.14874807  1
  Cu2+  Cu124  1  0.62381678  0.12469117  0.14170782  1
  Cu2+  Cu125  1  0.62511234  0.62547295  0.15083309  1
  Cu2+  Cu126  1  0.37449153  0.62522536  0.14652933  1
  Cu2+  Cu127  1  0.12585594  0.87449335  0.15109728  1
  O2-  O128  1  0.12404792  0.12373669  0.00730273  1
  O2-  O129  1  0.12344179  0.12376079  0.49553626  1
  O2-  O130  1  0.12513549  0.37601979  0.00803029  1
  O2-  O131  1  0.12653129  0.37308841  0.51856073  1
  O2-  O132  1  0.12423770  0.62834942  -0.00322804  1
  O2-  O133  1  0.12378471  0.62490182  0.50677346  1
  O2-  O134  1  0.12525624  0.87293182  -0.00383201  1
  O2-  O135  1  0.12324313  0.87815779  0.49614875  1
  O2-  O136  1  0.37523684  0.12536494  0.01909669  1
  O2-  O137  1  0.37493541  0.12689165  0.51817779  1
  O2-  O138  1  0.37490418  0.37482493  0.00853096  1
  O2-  O139  1  0.37473264  0.37493720  0.50873266  1
  O2-  O140  1  0.37393267  0.62615631  0.00755689  1
  O2-  O141  1  0.37621022  0.62398330  0.50750122  1
  O2-  O142  1  0.37411698  0.87405790  -0.00240056  1
  O2-  O143  1  0.37389134  0.87550181  0.50710015  1
  O2-  O144  1  0.62593574  0.12401052  0.00749692  1
  O2-  O145  1  0.62515089  0.12516975  0.50731042  1
  O2-  O146  1  0.62452380  0.37549760  0.00640354  1
  O2-  O147  1  0.62575607  0.37356557  0.49670970  1
  O2-  O148  1  0.62567532  0.62697666  -0.00373053  1
  O2-  O149  1  0.62639038  0.62456907  0.49640129  1
  O2-  O150  1  0.62477672  0.87418244  0.00598186  1
  O2-  O151  1  0.62527945  0.87669891  0.50661369  1
  O2-  O152  1  0.87515638  0.12319569  -0.00424224  1
  O2-  O153  1  0.87550317  0.12500333  0.49615775  1
  O2-  O154  1  0.87513368  0.37583028  0.00704387  1
  O2-  O155  1  0.87480412  0.37433654  0.50713564  1
  O2-  O156  1  0.87595666  0.62559823  0.01930171  1
  O2-  O157  1  0.87360649  0.62382642  0.50696623  1
  O2-  O158  1  0.87529805  0.87341379  -0.00352748  1
  O2-  O159  1  0.87600434  0.87635739  0.49631580  1
  O2-  O160  1  0.12527678  -0.00142235  0.16111874  1
  O2-  O161  1  0.12514283  0.00084634  0.66362218  1
  O2-  O162  1  0.12551578  0.25305573  0.16392871  1
  O2-  O163  1  0.12463031  0.25111648  0.67054502  1
  O2-  O164  1  0.12618882  0.49852187  0.16469648  1
  O2-  O165  1  0.12496415  0.49746746  0.67023393  1
  O2-  O166  1  0.12456891  0.74985872  0.16472723  1
  O2-  O167  1  0.12444631  0.75112908  0.65984785  1
  O2-  O168  1  0.37551028  -0.00024198  0.16531953  1
  O2-  O169  1  0.37476865  0.00244597  0.66716024  1
  O2-  O170  1  0.37540925  0.25187248  0.16860402  1
  O2-  O171  1  0.37554728  0.25069529  0.66908871  1
  O2-  O172  1  0.37467205  0.49720115  0.16569808  1
  O2-  O173  1  0.37559518  0.49700580  0.66642010  1
  O2-  O174  1  0.37500225  0.75121607  0.16649854  1
  O2-  O175  1  0.37535666  0.75034328  0.66129494  1
  O2-  O176  1  0.62504741  -0.00322841  0.16381575  1
  O2-  O177  1  0.62534743  0.00337416  0.66512052  1
  O2-  O178  1  0.62398891  0.25316012  0.16463076  1
  O2-  O179  1  0.62486067  0.24777080  0.66571046  1
  O2-  O180  1  0.62433929  0.49875453  0.16236264  1
  O2-  O181  1  0.62519268  0.49939012  0.66534472  1
  O2-  O182  1  0.62537394  0.75133521  0.16203580  1
  O2-  O183  1  0.62542920  0.74939256  0.66306757  1
  O2-  O184  1  0.87416675  0.00023403  0.16086182  1
  O2-  O185  1  0.87472985  0.00023036  0.66270363  1
  O2-  O186  1  0.87488853  0.24815809  0.16451665  1
  O2-  O187  1  0.87493114  0.25219731  0.66324776  1
  O2-  O188  1  0.87515648  0.50226339  0.17075973  1
  O2-  O189  1  0.87398807  0.49926932  0.66366263  1
  O2-  O190  1  0.87517084  0.74907680  0.16818717  1
  O2-  O191  1  0.87448022  0.74834216  0.65922981  1
  O2-  O192  1  -0.00167000  0.12561533  0.16206752  1
  O2-  O193  1  0.00028118  0.12640928  0.66277454  1
  O2-  O194  1  0.00325589  0.37552991  0.16534816  1
  O2-  O195  1  -0.00119498  0.37487703  0.66524993  1
  O2-  O196  1  0.00036755  0.62443141  0.16774026  1
  O2-  O197  1  -0.00328149  0.62376034  0.66220105  1
  O2-  O198  1  0.00019852  0.87455653  0.16129991  1
  O2-  O199  1  0.00049350  0.87519153  0.66239821  1
  O2-  O200  1  0.25224945  0.12574362  0.16800790  1
  O2-  O201  1  0.25024445  0.12664286  0.66770122  1
  O2-  O202  1  0.25056363  0.37499543  0.16409144  1
  O2-  O203  1  0.25170960  0.37409296  0.66983351  1
  O2-  O204  1  0.24866859  0.62474969  0.16708924  1
  O2-  O205  1  0.24970057  0.62391770  0.66421404  1
  O2-  O206  1  0.25035581  0.87475943  0.16517453  1
  O2-  O207  1  0.24883101  0.87593582  0.66383728  1
  O2-  O208  1  0.49771443  0.12525625  0.17048234  1
  O2-  O209  1  0.50090441  0.12616940  0.66706361  1
  O2-  O210  1  0.49933374  0.37559092  0.16300354  1
  O2-  O211  1  0.49802687  0.37404723  0.66586300  1
  O2-  O212  1  0.50083402  0.62449611  0.16449719  1
  O2-  O213  1  0.50183710  0.62384905  0.66495446  1
  O2-  O214  1  0.50143948  0.87438304  0.16406917  1
  O2-  O215  1  0.49928806  0.87583790  0.66733292  1
  O2-  O216  1  0.75171525  0.12559865  0.16431920  1
  O2-  O217  1  0.74846126  0.12602569  0.66111532  1
  O2-  O218  1  0.74690715  0.37515212  0.16301336  1
  O2-  O219  1  0.75168605  0.37459281  0.66311728  1
  O2-  O220  1  0.75012186  0.62486996  0.16603542  1
  O2-  O221  1  0.75176830  0.62404213  0.66309277  1
  O2-  O222  1  0.74822423  0.87451205  0.16183582  1
  O2-  O223  1  0.75113633  0.87540647  0.66510411  1
  O2-  O224  1  0.12453775  0.00037550  0.34157379  1
  O2-  O225  1  0.12478686  -0.00271468  0.84642236  1
  O2-  O226  1  0.12489307  0.24869987  0.34687215  1
  O2-  O227  1  0.12508179  0.25229979  0.85364559  1
  O2-  O228  1  0.12475935  0.49864811  0.34939751  1
  O2-  O229  1  0.12536187  0.49993580  0.85151597  1
  O2-  O230  1  0.12399830  0.75231453  0.34758266  1
  O2-  O231  1  0.12475458  0.75036936  0.84075571  1
  O2-  O232  1  0.37563894  0.00139893  0.34826207  1
  O2-  O233  1  0.37581266  -0.00119701  0.84879366  1
  O2-  O234  1  0.37546402  0.25199366  0.35234520  1
  O2-  O235  1  0.37529752  0.25122903  0.85298556  1
  O2-  O236  1  0.37522924  0.49705098  0.34979875  1
  O2-  O237  1  0.37501092  0.49746806  0.85069419  1
  O2-  O238  1  0.37521646  0.74985834  0.34981857  1
  O2-  O239  1  0.37553040  0.75209467  0.84290305  1
  O2-  O240  1  0.62510833  0.00344946  0.34779436  1
  O2-  O241  1  0.62507295  -0.00388779  0.84826061  1
  O2-  O242  1  0.62512250  0.24899470  0.34774442  1
  O2-  O243  1  0.62485657  0.25253967  0.85062591  1
  O2-  O244  1  0.62554992  0.49925533  0.34423506  1
  O2-  O245  1  0.62467099  0.49935024  0.84948133  1
  O2-  O246  1  0.62638125  0.74829674  0.34528766  1
  O2-  O247  1  0.62532384  0.75188430  0.84561397  1
  O2-  O248  1  0.87460951  0.00081869  0.34253189  1
  O2-  O249  1  0.87454536  -0.00180628  0.84418153  1
  O2-  O250  1  0.87455132  0.25116581  0.34770779  1
  O2-  O251  1  0.87483176  0.24815970  0.84692679  1
  O2-  O252  1  0.87468206  0.49892263  0.35363303  1
  O2-  O253  1  0.87490676  0.50236921  0.84844824  1
  O2-  O254  1  0.87425107  0.74893295  0.34996412  1
  O2-  O255  1  0.87436437  0.75098757  0.84246282  1
  O2-  O256  1  -0.00052634  0.12608172  0.34291113  1
  O2-  O257  1  -0.00196704  0.12448449  0.84524025  1
  O2-  O258  1  -0.00210427  0.37496224  0.35039361  1
  O2-  O259  1  0.00352286  0.37639015  0.84872287  1
  O2-  O260  1  -0.00387313  0.62388794  0.35040100  1
  O2-  O261  1  0.00080108  0.62472237  0.84487762  1
  O2-  O262  1  -0.00053978  0.87542051  0.34253572  1
  O2-  O263  1  0.00005981  0.87393343  0.84424430  1
  O2-  O264  1  0.24938431  0.12600766  0.34929418  1
  O2-  O265  1  0.25090511  0.12492405  0.85102464  1
  O2-  O266  1  0.25162010  0.37417134  0.35005385  1
  O2-  O267  1  0.25011747  0.37448783  0.85339927  1
  O2-  O268  1  0.24998515  0.62437211  0.35094905  1
  O2-  O269  1  0.24841683  0.62500313  0.84599507  1
  O2-  O270  1  0.24816801  0.87578038  0.34822493  1
  O2-  O271  1  0.25004037  0.87496483  0.84494142  1
  O2-  O272  1  0.50155901  0.12638415  0.35363677  1
  O2-  O273  1  0.49931395  0.12506218  0.85045953  1
  O2-  O274  1  0.49965948  0.37396338  0.34737536  1
  O2-  O275  1  0.49974735  0.37448336  0.85183746  1
  O2-  O276  1  0.50204327  0.62417506  0.34686692  1
  O2-  O277  1  0.50141820  0.62469641  0.84727276  1
  O2-  O278  1  0.49973796  0.87528255  0.34851408  1
  O2-  O279  1  0.50105647  0.87522973  0.84995891  1
  O2-  O280  1  0.74934033  0.12596307  0.34726613  1
  O2-  O281  1  0.75208392  0.12452938  0.84392706  1
  O2-  O282  1  0.75110768  0.37449364  0.34659505  1
  O2-  O283  1  0.74692576  0.37581337  0.84852150  1
  O2-  O284  1  0.75165957  0.62368282  0.34692782  1
  O2-  O285  1  0.74942916  0.62493462  0.84671494  1
  O2-  O286  1  0.75236802  0.87561038  0.34455373  1
  O2-  O287  1  0.74880880  0.87416676  0.84819403  1
