# generated using pymatgen
data_BaYFeCuO5
_symmetry_space_group_name_H-M   'P 1'
_cell_length_a   15.67928103
_cell_length_b   15.67924212
_cell_length_c   15.51283396
_cell_angle_alpha   90.01038760
_cell_angle_beta   89.99894569
_cell_angle_gamma   90.00761468
_symmetry_Int_Tables_number   1
_chemical_formula_structural   BaYFeCuO5
_chemical_formula_sum   'Ba32 Y32 Fe32 Cu32 O160'
_cell_volume   3813.66326959
_cell_formula_units_Z   32
loop_
 _symmetry_equiv_pos_site_id
 _symmetry_equiv_pos_as_xyz
  1  'x, y, z'
loop_
 _atom_type_symbol
 _atom_type_oxidation_number
  Ba2+  2.0
  Y3+  3.0
  Fe3+  3.0
  Cu2+  2.0
  O2-  -2.0
loop_
 _atom_site_type_symbol
 _atom_site_label
 _atom_site_symmetry_multiplicity
 _atom_site_fract_x
 _atom_site_fract_y
 _atom_site_fract_z
 _atom_site_occupancy
  Ba2+  Ba0  1  -0.00764791  -0.00027250  0.00558865  1
  Ba2+  Ba1  1  0.00351243  0.00279467  0.51290440  1
  Ba2+  Ba2  1  -0.00569408  0.25182168  0.01847539  1
  Ba2+  Ba3  1  0.00947400  0.24669164  0.51052494  1
  Ba2+  Ba4  1  -0.00404119  0.49557932  0.02371262  1
  Ba2+  Ba5  1  0.00812078  0.50073966  0.50522358  1
  Ba2+  Ba6  1  -0.00464920  0.75343873  0.01284870  1
  Ba2+  Ba7  1  0.00024270  0.75127360  0.50696915  1
  Ba2+  Ba8  1  0.24850865  0.00085918  0.00718923  1
  Ba2+  Ba9  1  0.24763037  0.00384295  0.51316594  1
  Ba2+  Ba10  1  0.25490087  0.25666612  0.00654190  1
  Ba2+  Ba11  1  0.24912658  0.25211791  0.51192632  1
  Ba2+  Ba12  1  0.25505274  0.49401049  0.01739785  1
  Ba2+  Ba13  1  0.25177327  0.49366229  0.50596335  1
  Ba2+  Ba14  1  0.24939698  0.74911152  0.01605522  1
  Ba2+  Ba15  1  0.25103355  0.75010258  0.50540061  1
  Ba2+  Ba16  1  0.50620205  0.00415180  0.01298972  1
  Ba2+  Ba17  1  0.49948259  0.00042947  0.50594522  1
  Ba2+  Ba18  1  0.49405821  0.24934462  0.00487487  1
  Ba2+  Ba19  1  0.49709918  0.25108165  0.52228797  1
  Ba2+  Ba20  1  0.49363004  0.50055958  0.00673394  1
  Ba2+  Ba21  1  0.49691680  0.49822154  0.52224277  1
  Ba2+  Ba22  1  0.50450984  0.74586676  0.01100637  1
  Ba2+  Ba23  1  0.50008452  0.74980596  0.50646778  1
  Ba2+  Ba24  1  0.75269030  0.00256956  0.01219179  1
  Ba2+  Ba25  1  0.74960868  -0.00098181  0.50538666  1
  Ba2+  Ba26  1  0.75577715  0.24364488  0.01499287  1
  Ba2+  Ba27  1  0.74410045  0.24512064  0.52221756  1
  Ba2+  Ba28  1  0.75434633  0.50356253  0.01186848  1
  Ba2+  Ba29  1  0.74463166  0.50434192  0.52179390  1
  Ba2+  Ba30  1  0.75129602  0.75081031  0.00582441  1
  Ba2+  Ba31  1  0.74895614  0.75091027  0.50630342  1
  Y3+  Y32  1  0.00002392  0.00104789  0.25834075  1
  Y3+  Y33  1  -0.00060861  0.00292707  0.75698345  1
  Y3+  Y34  1  0.00185773  0.24994554  0.25970572  1
  Y3+  Y35  1  0.00103726  0.24755108  0.75395006  1
  Y3+  Y36  1  0.00197052  0.49767615  0.26005171  1
  Y3+  Y37  1  0.00072157  0.49961816  0.75180429  1
  Y3+  Y38  1  0.00028927  0.75054527  0.25875079  1
  Y3+  Y39  1  -0.00094379  0.75070035  0.75645541  1
  Y3+  Y40  1  0.24856253  0.00042374  0.25868529  1
  Y3+  Y41  1  0.24871960  0.00337375  0.75704826  1
  Y3+  Y42  1  0.24916098  0.25344691  0.26068866  1
  Y3+  Y43  1  0.25123439  0.25105312  0.75516324  1
  Y3+  Y44  1  0.25049018  0.49551836  0.25945326  1
  Y3+  Y45  1  0.25196818  0.49651564  0.75450586  1
  Y3+  Y46  1  0.25002972  0.74959613  0.25675878  1
  Y3+  Y47  1  0.24968020  0.74995180  0.75727467  1
  Y3+  Y48  1  0.50214667  -0.00151407  0.25695154  1
  Y3+  Y49  1  0.49865539  0.00308255  0.75812885  1
  Y3+  Y50  1  0.49817753  0.25139291  0.25520789  1
  Y3+  Y51  1  0.49659196  0.25138855  0.75832042  1
  Y3+  Y52  1  0.49614596  0.49771317  0.25515533  1
  Y3+  Y53  1  0.49841974  0.49917098  0.75782679  1
  Y3+  Y54  1  0.50014468  0.75167437  0.25705281  1
  Y3+  Y55  1  0.50080815  0.74724166  0.75793729  1
  Y3+  Y56  1  0.74941814  -0.00060931  0.25643363  1
  Y3+  Y57  1  0.75302584  0.00240379  0.75888865  1
  Y3+  Y58  1  0.75124361  0.24777063  0.25367583  1
  Y3+  Y59  1  0.75053872  0.24800062  0.75715514  1
  Y3+  Y60  1  0.75129388  0.49938173  0.25582178  1
  Y3+  Y61  1  0.74796268  0.50199045  0.75618742  1
  Y3+  Y62  1  0.74965922  0.75246659  0.25854764  1
  Y3+  Y63  1  0.75014971  0.74819526  0.75718857  1
  Fe3+  Fe64  1  0.12413517  0.87450199  0.87836199  1
  Fe3+  Fe65  1  0.87651950  0.62404209  0.87559315  1
  Fe3+  Fe66  1  0.62455278  0.37477673  0.37670563  1
  Fe3+  Fe67  1  0.12521409  0.87553909  0.37602692  1
  Fe3+  Fe68  1  0.62427029  0.12632408  0.37464812  1
  Fe3+  Fe69  1  0.87320870  0.37385189  0.38033620  1
  Fe3+  Fe70  1  0.12451716  0.12704494  0.88009345  1
  Fe3+  Fe71  1  0.37529865  0.62408317  0.37540786  1
  Fe3+  Fe72  1  0.37359046  0.62514878  0.87720381  1
  Fe3+  Fe73  1  0.87580995  0.37508525  0.87373071  1
  Fe3+  Fe74  1  0.87489499  0.12512263  0.37800288  1
  Fe3+  Fe75  1  0.62581230  0.87524896  0.87815259  1
  Fe3+  Fe76  1  0.62405476  0.62336713  0.37561006  1
  Fe3+  Fe77  1  0.12435615  0.62321983  0.88107559  1
  Fe3+  Fe78  1  0.62572363  0.37562207  0.87880751  1
  Fe3+  Fe79  1  0.87473115  0.62446365  0.37728552  1
  Fe3+  Fe80  1  0.37490390  0.12548340  0.37684486  1
  Fe3+  Fe81  1  0.37551090  0.87552555  0.88078509  1
  Fe3+  Fe82  1  0.12392740  0.37593094  0.87698471  1
  Fe3+  Fe83  1  0.62529609  0.12601024  0.87606707  1
  Fe3+  Fe84  1  0.87504747  0.87492690  0.14080575  1
  Fe3+  Fe85  1  0.37467778  0.87509498  0.63927350  1
  Fe3+  Fe86  1  0.62459261  0.87594599  0.63930960  1
  Fe3+  Fe87  1  0.12490237  0.62422933  0.13618993  1
  Fe3+  Fe88  1  0.37520932  0.87540340  0.13538058  1
  Fe3+  Fe89  1  0.87512158  0.87529674  0.63837427  1
  Fe3+  Fe90  1  0.12505537  0.12538211  0.13532226  1
  Fe3+  Fe91  1  0.12638706  0.62572696  0.63718117  1
  Fe3+  Fe92  1  0.87531627  0.37490370  0.63286031  1
  Fe3+  Fe93  1  0.62540383  0.62448976  0.13693163  1
  Fe3+  Fe94  1  0.62524852  0.37418382  0.13232954  1
  Fe3+  Fe95  1  0.37435749  0.12516052  0.13739647  1
  Cu2+  Cu96  1  0.62489487  0.87491958  0.36365561  1
  Cu2+  Cu97  1  0.37402984  0.12493950  0.86611533  1
  Cu2+  Cu98  1  0.37476668  0.87545180  0.36141450  1
  Cu2+  Cu99  1  0.12562071  0.12480644  0.37141801  1
  Cu2+  Cu100  1  0.87526118  0.87554585  0.36521334  1
  Cu2+  Cu101  1  0.87502529  0.87504531  0.86194344  1
  Cu2+  Cu102  1  0.87586986  0.12647993  0.87272112  1
  Cu2+  Cu103  1  0.12582795  0.62501627  0.36131730  1
  Cu2+  Cu104  1  0.37418664  0.37569257  0.87136890  1
  Cu2+  Cu105  1  0.37694990  0.37403078  0.37294150  1
  Cu2+  Cu106  1  0.62517547  0.62440282  0.86514622  1
  Cu2+  Cu107  1  0.12510846  0.37423781  0.37327051  1
  Cu2+  Cu108  1  0.87553143  0.62559884  0.64710211  1
  Cu2+  Cu109  1  0.62390720  0.62626580  0.65311510  1
  Cu2+  Cu110  1  0.12522508  0.37400584  0.15151384  1
  Cu2+  Cu111  1  0.12476298  0.87562038  0.14901785  1
  Cu2+  Cu112  1  0.62535202  0.87455345  0.14890471  1
  Cu2+  Cu113  1  0.62421434  0.12374505  0.65416685  1
  Cu2+  Cu114  1  0.37456803  0.37477966  0.64250848  1
  Cu2+  Cu115  1  0.37490860  0.62486628  0.15092705  1
  Cu2+  Cu116  1  0.87486880  0.12476295  0.64730364  1
  Cu2+  Cu117  1  0.62509217  0.37472358  0.65438655  1
  Cu2+  Cu118  1  0.87531807  0.62544763  0.15434259  1
  Cu2+  Cu119  1  0.12570258  0.12531504  0.64333365  1
  Cu2+  Cu120  1  0.87457811  0.37466562  0.15472131  1
  Cu2+  Cu121  1  0.37435965  0.62562979  0.65178407  1
  Cu2+  Cu122  1  0.37498108  0.12457481  0.65242999  1
  Cu2+  Cu123  1  0.12520944  0.87526262  0.65396640  1
  Cu2+  Cu124  1  0.37546931  0.37390285  0.14238620  1
  Cu2+  Cu125  1  0.12528202  0.37494991  0.64180221  1
  Cu2+  Cu126  1  0.87605819  0.12386956  0.14435465  1
  Cu2+  Cu127  1  0.62472195  0.12526470  0.14996794  1
  O2-  O128  1  0.12389942  0.12659636  0.00735422  1
  O2-  O129  1  0.12618823  0.12362793  0.50737797  1
  O2-  O130  1  0.12245750  0.37605423  -0.00316547  1
  O2-  O131  1  0.12511548  0.37543887  0.50658687  1
  O2-  O132  1  0.12332637  0.62314937  0.00697831  1
  O2-  O133  1  0.12646559  0.62754092  0.51699582  1
  O2-  O134  1  0.12409414  0.87385383  -0.00191331  1
  O2-  O135  1  0.12614968  0.87487961  0.49620372  1
  O2-  O136  1  0.37369593  0.12388933  0.01704992  1
  O2-  O137  1  0.37623060  0.12457349  0.49707494  1
  O2-  O138  1  0.37535174  0.37541490  0.00683159  1
  O2-  O139  1  0.37700230  0.37453346  0.50773615  1
  O2-  O140  1  0.37368044  0.62586876  -0.00259761  1
  O2-  O141  1  0.37614596  0.62555080  0.49553781  1
  O2-  O142  1  0.37538470  0.87520798  0.00741702  1
  O2-  O143  1  0.37612054  0.87463234  0.51929046  1
  O2-  O144  1  0.62625610  0.12554497  -0.00385626  1
  O2-  O145  1  0.62367286  0.12591267  0.49435800  1
  O2-  O146  1  0.62666376  0.37526384  0.00537629  1
  O2-  O147  1  0.62478165  0.37477127  0.49619972  1
  O2-  O148  1  0.62694693  0.62546116  0.01656829  1
  O2-  O149  1  0.62333947  0.62342038  0.49551842  1
  O2-  O150  1  0.62590989  0.87469886  -0.00163970  1
  O2-  O151  1  0.62392742  0.87525992  0.51910575  1
  O2-  O152  1  0.87619115  0.12518495  0.00721637  1
  O2-  O153  1  0.87309782  0.12533473  0.49807903  1
  O2-  O154  1  0.87574592  0.37620276  -0.00624429  1
  O2-  O155  1  0.87247008  0.37431777  0.50531784  1
  O2-  O156  1  0.87703026  0.62330061  -0.00439249  1
  O2-  O157  1  0.87337803  0.62484536  0.49731759  1
  O2-  O158  1  0.87445782  0.87450564  0.01981249  1
  O2-  O159  1  0.87382362  0.87472789  0.51832960  1
  O2-  O160  1  0.12525089  0.00174241  0.16241137  1
  O2-  O161  1  0.12499726  -0.00070653  0.66804721  1
  O2-  O162  1  0.12498212  0.24883362  0.16382801  1
  O2-  O163  1  0.12521087  0.25019105  0.66545976  1
  O2-  O164  1  0.12470865  0.50045549  0.16379505  1
  O2-  O165  1  0.12504201  0.50187284  0.66566516  1
  O2-  O166  1  0.12525892  0.74812858  0.16167880  1
  O2-  O167  1  0.12564974  0.74967330  0.66965736  1
  O2-  O168  1  0.37499734  -0.00115356  0.16506954  1
  O2-  O169  1  0.37461542  -0.00032858  0.66902698  1
  O2-  O170  1  0.37470099  0.24790657  0.16558739  1
  O2-  O171  1  0.37538518  0.24828489  0.66582920  1
  O2-  O172  1  0.37466674  0.50041764  0.16377153  1
  O2-  O173  1  0.37556431  0.50154844  0.66449989  1
  O2-  O174  1  0.37500300  0.75207071  0.16290862  1
  O2-  O175  1  0.37440804  0.75086543  0.66873041  1
  O2-  O176  1  0.62495631  0.00023052  0.16411253  1
  O2-  O177  1  0.62409546  -0.00042027  0.66768513  1
  O2-  O178  1  0.62634927  0.25149374  0.15961355  1
  O2-  O179  1  0.62510867  0.24873205  0.66470646  1
  O2-  O180  1  0.62624469  0.49842440  0.16215223  1
  O2-  O181  1  0.62445585  0.50123615  0.66499751  1
  O2-  O182  1  0.62463755  0.74849554  0.16756539  1
  O2-  O183  1  0.62455770  0.75096072  0.66722258  1
  O2-  O184  1  0.87553445  -0.00187807  0.16802535  1
  O2-  O185  1  0.87558672  -0.00010768  0.66765599  1
  O2-  O186  1  0.87498547  0.25050375  0.16403311  1
  O2-  O187  1  0.87382053  0.25119742  0.66120060  1
  O2-  O188  1  0.87542649  0.50013230  0.16473377  1
  O2-  O189  1  0.87485256  0.49880097  0.65996721  1
  O2-  O190  1  0.87543419  0.75037922  0.16771156  1
  O2-  O191  1  0.87493645  0.75078620  0.66748367  1
  O2-  O192  1  0.00313147  0.12540950  0.16549138  1
  O2-  O193  1  -0.00094987  0.12506817  0.66503485  1
  O2-  O194  1  -0.00081233  0.37467803  0.16714438  1
  O2-  O195  1  -0.00279825  0.37497312  0.65975198  1
  O2-  O196  1  0.00150388  0.62475036  0.16404455  1
  O2-  O197  1  0.00116987  0.62599200  0.66554650  1
  O2-  O198  1  0.00026545  0.87425092  0.16682289  1
  O2-  O199  1  0.00028106  0.87491922  0.66548682  1
  O2-  O200  1  0.24866300  0.12413684  0.16441810  1
  O2-  O201  1  0.25137284  0.12456805  0.66814289  1
  O2-  O202  1  0.24942413  0.37466113  0.16628722  1
  O2-  O203  1  0.24992833  0.37488419  0.66546746  1
  O2-  O204  1  0.24868791  0.62523811  0.16069199  1
  O2-  O205  1  0.24986217  0.62580417  0.66899489  1
  O2-  O206  1  0.25129885  0.87503577  0.16063206  1
  O2-  O207  1  0.25004477  0.87572199  0.66940826  1
  O2-  O208  1  0.49951944  0.12445230  0.16282314  1
  O2-  O209  1  0.49982111  0.12476056  0.66639259  1
  O2-  O210  1  0.50324662  0.37469050  0.16073885  1
  O2-  O211  1  0.50151186  0.37496711  0.66847220  1
  O2-  O212  1  0.50018504  0.62453955  0.16240129  1
  O2-  O213  1  0.49892626  0.62572742  0.66622835  1
  O2-  O214  1  0.49870566  0.87507613  0.16158756  1
  O2-  O215  1  0.49986214  0.87511744  0.67151629  1
  O2-  O216  1  0.74903010  0.12414486  0.16311897  1
  O2-  O217  1  0.74927409  0.12459062  0.66423372  1
  O2-  O218  1  0.74894305  0.37521357  0.16181066  1
  O2-  O219  1  0.75111905  0.37564367  0.66276973  1
  O2-  O220  1  0.75005098  0.62469282  0.16517587  1
  O2-  O221  1  0.74967349  0.62512217  0.66394511  1
  O2-  O222  1  0.75029537  0.87466275  0.16755613  1
  O2-  O223  1  0.74968400  0.87538144  0.66870323  1
  O2-  O224  1  0.12515899  -0.00157194  0.34496202  1
  O2-  O225  1  0.12544451  0.00111149  0.85185210  1
  O2-  O226  1  0.12451338  0.24966337  0.34763939  1
  O2-  O227  1  0.12478326  0.24983077  0.84821171  1
  O2-  O228  1  0.12509988  0.50104165  0.34836270  1
  O2-  O229  1  0.12494906  0.50146391  0.84657291  1
  O2-  O230  1  0.12531175  0.75071265  0.34515232  1
  O2-  O231  1  0.12394540  0.74831220  0.85129563  1
  O2-  O232  1  0.37536326  0.00010970  0.34705042  1
  O2-  O233  1  0.37383746  -0.00201429  0.85193970  1
  O2-  O234  1  0.37594948  0.24825268  0.34588807  1
  O2-  O235  1  0.37449770  0.24932938  0.84990834  1
  O2-  O236  1  0.37518282  0.50082546  0.34610334  1
  O2-  O237  1  0.37429466  0.50230924  0.84660657  1
  O2-  O238  1  0.37498811  0.74996699  0.34655170  1
  O2-  O239  1  0.37494552  0.75141277  0.84977244  1
  O2-  O240  1  0.62497060  0.00012146  0.34808811  1
  O2-  O241  1  0.62488641  0.00010648  0.84752454  1
  O2-  O242  1  0.62554184  0.25009038  0.34096707  1
  O2-  O243  1  0.62484312  0.25183055  0.84804433  1
  O2-  O244  1  0.62559049  0.49963934  0.34192050  1
  O2-  O245  1  0.62564374  0.49838049  0.84952308  1
  O2-  O246  1  0.62456281  0.74956037  0.35000895  1
  O2-  O247  1  0.62509759  0.75069705  0.84881494  1
  O2-  O248  1  0.87440230  0.00053457  0.34918160  1
  O2-  O249  1  0.87533078  -0.00094651  0.85079387  1
  O2-  O250  1  0.87448212  0.25064629  0.34646888  1
  O2-  O251  1  0.87555056  0.25252630  0.84343453  1
  O2-  O252  1  0.87454591  0.49849684  0.34779659  1
  O2-  O253  1  0.87494714  0.49997801  0.84099931  1
  O2-  O254  1  0.87534070  0.74954634  0.34957688  1
  O2-  O255  1  0.87560203  0.74899718  0.84930871  1
  O2-  O256  1  -0.00183243  0.12495508  0.34801502  1
  O2-  O257  1  0.00344664  0.12514003  0.84822739  1
  O2-  O258  1  -0.00378025  0.37526820  0.35163147  1
  O2-  O259  1  0.00065276  0.37587396  0.84020696  1
  O2-  O260  1  -0.00037653  0.62429160  0.34826757  1
  O2-  O261  1  0.00158001  0.62448901  0.84626465  1
  O2-  O262  1  0.00050212  0.87462841  0.34800564  1
  O2-  O263  1  0.00028454  0.87525495  0.84795059  1
  O2-  O264  1  0.25169946  0.12431232  0.34596577  1
  O2-  O265  1  0.24767660  0.12516695  0.85247493  1
  O2-  O266  1  0.25068740  0.37481832  0.35040656  1
  O2-  O267  1  0.24772302  0.37520736  0.84757266  1
  O2-  O268  1  0.25084116  0.62555216  0.34474158  1
  O2-  O269  1  0.24779438  0.62654005  0.85033024  1
  O2-  O270  1  0.24942334  0.87430844  0.34410255  1
  O2-  O271  1  0.25061992  0.87426016  0.85171238  1
  O2-  O272  1  0.50027768  0.12407046  0.34284836  1
  O2-  O273  1  0.49997381  0.12531176  0.84961572  1
  O2-  O274  1  0.50240219  0.37484730  0.34201401  1
  O2-  O275  1  0.50217533  0.37569878  0.85243295  1
  O2-  O276  1  0.50021145  0.62542295  0.34209485  1
  O2-  O277  1  0.49910004  0.62526498  0.85004781  1
  O2-  O278  1  0.49954765  0.87492115  0.34651064  1
  O2-  O279  1  0.49900465  0.87525589  0.85193791  1
  O2-  O280  1  0.74985542  0.12480404  0.34435475  1
  O2-  O281  1  0.74860399  0.12598729  0.84648993  1
  O2-  O282  1  0.75096978  0.37474999  0.34424770  1
  O2-  O283  1  0.74919931  0.37548150  0.84612605  1
  O2-  O284  1  0.74970923  0.62505354  0.34522058  1
  O2-  O285  1  0.75126262  0.62473366  0.84744116  1
  O2-  O286  1  0.75038066  0.87465685  0.35072362  1
  O2-  O287  1  0.75025186  0.87447315  0.84944366  1
