# generated using pymatgen
data_BaYFeCuO5
_symmetry_space_group_name_H-M   'P 1'
_cell_length_a   15.67034197
_cell_length_b   15.67008382
_cell_length_c   15.47824282
_cell_angle_alpha   90.00428596
_cell_angle_beta   90.00293729
_cell_angle_gamma   89.99514278
_symmetry_Int_Tables_number   1
_chemical_formula_structural   BaYFeCuO5
_chemical_formula_sum   'Ba32 Y32 Fe32 Cu32 O160'
_cell_volume   3800.76874257
_cell_formula_units_Z   32
loop_
 _symmetry_equiv_pos_site_id
 _symmetry_equiv_pos_as_xyz
  1  'x, y, z'
loop_
 _atom_type_symbol
 _atom_type_oxidation_number
  Ba2+  2.0
  Y3+  3.0
  Fe3+  3.0
  Cu2+  2.0
  O2-  -2.0
loop_
 _atom_site_type_symbol
 _atom_site_label
 _atom_site_symmetry_multiplicity
 _atom_site_fract_x
 _atom_site_fract_y
 _atom_site_fract_z
 _atom_site_occupancy
  Ba2+  Ba0  1  -0.00356082  -0.00666073  0.01616957  1
  Ba2+  Ba1  1  -0.00158327  -0.00052414  0.50654926  1
  Ba2+  Ba2  1  -0.00754525  0.25366249  0.01214928  1
  Ba2+  Ba3  1  -0.00020346  0.24185334  0.51656718  1
  Ba2+  Ba4  1  -0.00525713  0.50437396  0.01077179  1
  Ba2+  Ba5  1  -0.00103995  0.50078553  0.51700397  1
  Ba2+  Ba6  1  -0.00083205  0.74960020  0.01704885  1
  Ba2+  Ba7  1  -0.00209306  0.75806601  0.50547965  1
  Ba2+  Ba8  1  0.25010535  -0.01221493  0.00637922  1
  Ba2+  Ba9  1  0.24277256  -0.00571903  0.51825212  1
  Ba2+  Ba10  1  0.24533081  0.25417183  0.00170968  1
  Ba2+  Ba11  1  0.24045777  0.24816028  0.51926824  1
  Ba2+  Ba12  1  0.24571991  0.50657438  0.00135004  1
  Ba2+  Ba13  1  0.24560807  0.49680116  0.51223811  1
  Ba2+  Ba14  1  0.24954803  0.75467059  0.00687481  1
  Ba2+  Ba15  1  0.24749531  0.76066052  0.51259248  1
  Ba2+  Ba16  1  0.50384812  -0.00764821  0.01752350  1
  Ba2+  Ba17  1  0.50875816  -0.00402625  0.51062642  1
  Ba2+  Ba18  1  0.51165425  0.24936867  0.01879546  1
  Ba2+  Ba19  1  0.51238268  0.24875623  0.50629535  1
  Ba2+  Ba20  1  0.50579121  0.50564293  -0.00049316  1
  Ba2+  Ba21  1  0.51009686  0.49873594  0.51136252  1
  Ba2+  Ba22  1  0.49830132  0.75194296  -0.00034234  1
  Ba2+  Ba23  1  0.50595833  0.75638235  0.51605506  1
  Ba2+  Ba24  1  0.75015695  0.00005408  0.02752634  1
  Ba2+  Ba25  1  0.74929451  0.00110703  0.50127384  1
  Ba2+  Ba26  1  0.75089873  0.25017025  0.02865819  1
  Ba2+  Ba27  1  0.74657465  0.24227953  0.50605093  1
  Ba2+  Ba28  1  0.75321969  0.50279351  0.01220203  1
  Ba2+  Ba29  1  0.74536117  0.50232533  0.51678844  1
  Ba2+  Ba30  1  0.75239536  0.74807516  0.01115297  1
  Ba2+  Ba31  1  0.74837688  0.75368301  0.51229464  1
  Y3+  Y32  1  -0.00168009  -0.00332591  0.25867170  1
  Y3+  Y33  1  0.00080538  -0.00063676  0.75574995  1
  Y3+  Y34  1  -0.00408158  0.24822632  0.25782980  1
  Y3+  Y35  1  -0.00013628  0.24883550  0.75567627  1
  Y3+  Y36  1  -0.00223604  0.50254801  0.25449818  1
  Y3+  Y37  1  -0.00204720  0.50066061  0.75878720  1
  Y3+  Y38  1  0.00032272  0.75219610  0.25556134  1
  Y3+  Y39  1  -0.00147194  0.75107395  0.75891039  1
  Y3+  Y40  1  0.24933064  -0.00459000  0.25447943  1
  Y3+  Y41  1  0.24915350  -0.00442385  0.75967641  1
  Y3+  Y42  1  0.25079904  0.24958344  0.25566449  1
  Y3+  Y43  1  0.24787655  0.24977465  0.75857776  1
  Y3+  Y44  1  0.24960619  0.50159852  0.25797525  1
  Y3+  Y45  1  0.24896606  0.50007132  0.75792195  1
  Y3+  Y46  1  0.24809917  0.75310951  0.25486501  1
  Y3+  Y47  1  0.25074746  0.75476895  0.76052913  1
  Y3+  Y48  1  0.50286310  -0.00163299  0.25861642  1
  Y3+  Y49  1  0.50070946  -0.00272695  0.75519649  1
  Y3+  Y50  1  0.50453574  0.24980300  0.26098291  1
  Y3+  Y51  1  0.50315725  0.24895833  0.75348567  1
  Y3+  Y52  1  0.50237920  0.49860920  0.25957622  1
  Y3+  Y53  1  0.50290854  0.50187906  0.75604753  1
  Y3+  Y54  1  0.50032820  0.75381604  0.25666074  1
  Y3+  Y55  1  0.50068754  0.75166100  0.75770507  1
  Y3+  Y56  1  0.75012593  -0.00025457  0.26271727  1
  Y3+  Y57  1  0.74889728  0.00105523  0.75009369  1
  Y3+  Y58  1  0.74919931  0.24811097  0.26301513  1
  Y3+  Y59  1  0.74914633  0.24773857  0.74908392  1
  Y3+  Y60  1  0.75037650  0.49878448  0.25714384  1
  Y3+  Y61  1  0.74988748  0.50362332  0.75648320  1
  Y3+  Y62  1  0.75142413  0.75266042  0.25779568  1
  Y3+  Y63  1  0.74962639  0.74763448  0.75651732  1
  Fe3+  Fe64  1  0.37508790  0.62582023  0.38251622  1
  Fe3+  Fe65  1  0.87291480  0.37382965  0.87410996  1
  Fe3+  Fe66  1  0.87513977  0.37532411  0.37993165  1
  Fe3+  Fe67  1  0.87496166  0.62536829  0.37835135  1
  Fe3+  Fe68  1  0.37457100  0.37409675  0.38124802  1
  Fe3+  Fe69  1  0.62769955  0.37379221  0.87512381  1
  Fe3+  Fe70  1  0.12330947  0.12410050  0.87993473  1
  Fe3+  Fe71  1  0.62527937  0.62623233  0.37760758  1
  Fe3+  Fe72  1  0.37413041  0.12400938  0.38032899  1
  Fe3+  Fe73  1  0.37472058  0.87552144  0.37787548  1
  Fe3+  Fe74  1  0.87251966  0.12453425  0.87654433  1
  Fe3+  Fe75  1  0.62760504  0.87618323  0.87607186  1
  Fe3+  Fe76  1  0.12494016  0.62600750  0.38001691  1
  Fe3+  Fe77  1  0.12347771  0.37440673  0.37671175  1
  Fe3+  Fe78  1  0.12579267  0.12382062  0.37402586  1
  Fe3+  Fe79  1  0.62700140  0.12460156  0.87662833  1
  Fe3+  Fe80  1  0.37682101  0.37476672  0.87906100  1
  Fe3+  Fe81  1  0.87353800  0.87604262  0.87693111  1
  Fe3+  Fe82  1  0.12347167  0.62653594  0.87531653  1
  Fe3+  Fe83  1  0.37712021  0.12462401  0.88030964  1
  Fe3+  Fe84  1  0.12454813  0.37598600  0.13645035  1
  Fe3+  Fe85  1  0.62457085  0.62599156  0.13871064  1
  Fe3+  Fe86  1  0.37481168  0.62602369  0.63517887  1
  Fe3+  Fe87  1  0.37615261  0.37611902  0.13458378  1
  Fe3+  Fe88  1  0.37526002  0.12469739  0.13382302  1
  Fe3+  Fe89  1  0.87469614  0.87508502  0.63754207  1
  Fe3+  Fe90  1  0.87433074  0.37454448  0.63413162  1
  Fe3+  Fe91  1  0.37490429  0.12351100  0.63451230  1
  Fe3+  Fe92  1  0.37562289  0.37424935  0.63523610  1
  Fe3+  Fe93  1  0.12450395  0.12478035  0.13354151  1
  Fe3+  Fe94  1  0.37565927  0.62537002  0.13831386  1
  Fe3+  Fe95  1  0.12445558  0.62697512  0.63575195  1
  Cu2+  Cu96  1  0.37487672  0.62504994  0.86093755  1
  Cu2+  Cu97  1  0.12335676  0.37504220  0.86381873  1
  Cu2+  Cu98  1  0.62445678  0.12354436  0.37110247  1
  Cu2+  Cu99  1  0.87464059  0.62570297  0.87205597  1
  Cu2+  Cu100  1  0.62661487  0.37617058  0.37359420  1
  Cu2+  Cu101  1  0.87636618  0.12417958  0.37320580  1
  Cu2+  Cu102  1  0.62516545  0.87364484  0.37240712  1
  Cu2+  Cu103  1  0.62555471  0.62560839  0.86244853  1
  Cu2+  Cu104  1  0.12267647  0.87516055  0.87267382  1
  Cu2+  Cu105  1  0.87526430  0.87401329  0.36412980  1
  Cu2+  Cu106  1  0.37674197  0.87593159  0.87249718  1
  Cu2+  Cu107  1  0.12536895  0.87512381  0.37129004  1
  Cu2+  Cu108  1  0.37515458  0.87509682  0.65055673  1
  Cu2+  Cu109  1  0.62460979  0.62601196  0.65095240  1
  Cu2+  Cu110  1  0.87524079  0.12445264  0.15454111  1
  Cu2+  Cu111  1  0.12348131  0.87420251  0.64476090  1
  Cu2+  Cu112  1  0.87425114  0.62578926  0.14302058  1
  Cu2+  Cu113  1  0.12562508  0.62492376  0.15236721  1
  Cu2+  Cu114  1  0.12459212  0.87478900  0.14132988  1
  Cu2+  Cu115  1  0.87533213  0.12349480  0.63958906  1
  Cu2+  Cu116  1  0.62563863  0.87409233  0.15253491  1
  Cu2+  Cu117  1  0.62420837  0.12347902  0.64069530  1
  Cu2+  Cu118  1  0.62497556  0.12434744  0.15641431  1
  Cu2+  Cu119  1  0.62536659  0.37478760  0.64110370  1
  Cu2+  Cu120  1  0.12571938  0.12353500  0.65560625  1
  Cu2+  Cu121  1  0.62520833  0.37618629  0.15391626  1
  Cu2+  Cu122  1  0.87428618  0.87492001  0.15314366  1
  Cu2+  Cu123  1  0.62603846  0.87499862  0.64302597  1
  Cu2+  Cu124  1  0.87459957  0.37509508  0.15498719  1
  Cu2+  Cu125  1  0.12442297  0.37566255  0.65283782  1
  Cu2+  Cu126  1  0.37579609  0.87433897  0.14227977  1
  Cu2+  Cu127  1  0.87546589  0.62579540  0.64742373  1
  O2-  O128  1  0.12386305  0.12565295  0.00655321  1
  O2-  O129  1  0.12673473  0.12489918  0.49453607  1
  O2-  O130  1  0.12568706  0.37640613  0.01621209  1
  O2-  O131  1  0.12498621  0.37370063  0.49685432  1
  O2-  O132  1  0.12425834  0.62480829  -0.00381770  1
  O2-  O133  1  0.12499154  0.62554520  0.50707817  1
  O2-  O134  1  0.12335896  0.87434991  0.00752920  1
  O2-  O135  1  0.12439281  0.87535480  0.50686344  1
  O2-  O136  1  0.37721331  0.12594773  0.00667176  1
  O2-  O137  1  0.37268164  0.12495901  0.50665055  1
  O2-  O138  1  0.37677980  0.37578018  0.00715250  1
  O2-  O139  1  0.37321504  0.37330313  0.50781107  1
  O2-  O140  1  0.37608341  0.62314758  0.01817607  1
  O2-  O141  1  0.37434311  0.62520738  0.50817714  1
  O2-  O142  1  0.37706186  0.87482650  0.00652131  1
  O2-  O143  1  0.37383168  0.87648348  0.49826604  1
  O2-  O144  1  0.62764045  0.12570813  -0.00349709  1
  O2-  O145  1  0.62350498  0.12360746  0.50560738  1
  O2-  O146  1  0.62724269  0.37352830  -0.00463104  1
  O2-  O147  1  0.62521858  0.37613966  0.50664673  1
  O2-  O148  1  0.62378862  0.62531437  0.01821677  1
  O2-  O149  1  0.62476475  0.62610165  0.49850207  1
  O2-  O150  1  0.62770867  0.87609763  -0.00334338  1
  O2-  O151  1  0.62595687  0.87386018  0.50617335  1
  O2-  O152  1  0.87188305  0.12654664  -0.00356841  1
  O2-  O153  1  0.87721662  0.12452889  0.50587929  1
  O2-  O154  1  0.87210072  0.37355205  -0.00548972  1
  O2-  O155  1  0.87664294  0.37551907  0.50610547  1
  O2-  O156  1  0.87475494  0.62477185  0.00762537  1
  O2-  O157  1  0.87600072  0.62373406  0.49830716  1
  O2-  O158  1  0.87232603  0.87622374  -0.00235854  1
  O2-  O159  1  0.87544987  0.87534838  0.51645762  1
  O2-  O160  1  0.12549801  0.00354412  0.16202165  1
  O2-  O161  1  0.12608982  -0.00019212  0.66727241  1
  O2-  O162  1  0.12659480  0.24942701  0.16242693  1
  O2-  O163  1  0.12670155  0.24969492  0.66482368  1
  O2-  O164  1  0.12578921  0.49888447  0.16905599  1
  O2-  O165  1  0.12622713  0.50233694  0.66154478  1
  O2-  O166  1  0.12536624  0.74868934  0.16644948  1
  O2-  O167  1  0.12624027  0.74755269  0.66415898  1
  O2-  O168  1  0.37511568  0.00324955  0.16275069  1
  O2-  O169  1  0.37374033  0.00103913  0.66349180  1
  O2-  O170  1  0.37481230  0.25060770  0.16246741  1
  O2-  O171  1  0.37335824  0.24976885  0.66368452  1
  O2-  O172  1  0.37526680  0.49836136  0.17005461  1
  O2-  O173  1  0.37426910  0.49989393  0.66173957  1
  O2-  O174  1  0.37471399  0.74825232  0.16866575  1
  O2-  O175  1  0.37417475  0.74867407  0.66272058  1
  O2-  O176  1  0.62433236  -0.00080790  0.16528250  1
  O2-  O177  1  0.62347344  -0.00047140  0.66344970  1
  O2-  O178  1  0.62455748  0.25083812  0.16632686  1
  O2-  O179  1  0.62350201  0.24903724  0.66193829  1
  O2-  O180  1  0.62376305  0.50053981  0.16724751  1
  O2-  O181  1  0.62419069  0.50152003  0.66488918  1
  O2-  O182  1  0.62463066  0.74990392  0.16688428  1
  O2-  O183  1  0.62416127  0.74920541  0.66576582  1
  O2-  O184  1  0.87552304  -0.00005554  0.16549433  1
  O2-  O185  1  0.87609551  -0.00147498  0.66520751  1
  O2-  O186  1  0.87450977  0.25000734  0.16668504  1
  O2-  O187  1  0.87629856  0.25159461  0.66022342  1
  O2-  O188  1  0.87534345  0.49890770  0.16578222  1
  O2-  O189  1  0.87548478  0.49912085  0.66243760  1
  O2-  O190  1  0.87502602  0.75144449  0.16649147  1
  O2-  O191  1  0.87518543  0.74998240  0.66566768  1
  O2-  O192  1  0.00146293  0.12683299  0.16105838  1
  O2-  O193  1  0.00253080  0.12522956  0.66602050  1
  O2-  O194  1  0.00046380  0.37448943  0.16511056  1
  O2-  O195  1  -0.00131891  0.37525306  0.66202997  1
  O2-  O196  1  0.00131536  0.62470647  0.16483432  1
  O2-  O197  1  0.00218741  0.62435692  0.66259376  1
  O2-  O198  1  -0.00143591  0.87480788  0.16477146  1
  O2-  O199  1  -0.00191672  0.87421008  0.66700128  1
  O2-  O200  1  0.25043403  0.12691270  0.16055627  1
  O2-  O201  1  0.25181346  0.12539057  0.66733357  1
  O2-  O202  1  0.25186023  0.37516061  0.16505557  1
  O2-  O203  1  0.25169921  0.37487186  0.66562782  1
  O2-  O204  1  0.25116883  0.62356640  0.16948227  1
  O2-  O205  1  0.25049726  0.62375238  0.66172531  1
  O2-  O206  1  0.25023275  0.87488831  0.16360444  1
  O2-  O207  1  0.25044366  0.87512511  0.66724624  1
  O2-  O208  1  0.49853515  0.12647679  0.16498452  1
  O2-  O209  1  0.49590796  0.12513567  0.66420085  1
  O2-  O210  1  0.49792567  0.37421306  0.16602511  1
  O2-  O211  1  0.49686945  0.37493071  0.66397036  1
  O2-  O212  1  0.49993040  0.62426112  0.17193059  1
  O2-  O213  1  0.49733860  0.62459208  0.66302435  1
  O2-  O214  1  0.50156148  0.87548390  0.16549506  1
  O2-  O215  1  0.49928056  0.87477673  0.66435777  1
  O2-  O216  1  0.74985871  0.12495498  0.16768685  1
  O2-  O217  1  0.74958354  0.12473139  0.65944595  1
  O2-  O218  1  0.75013896  0.37556846  0.16646920  1
  O2-  O219  1  0.75259857  0.37525697  0.65915504  1
  O2-  O220  1  0.74784196  0.62453733  0.16695653  1
  O2-  O221  1  0.74967433  0.62480929  0.66277413  1
  O2-  O222  1  0.74993250  0.87524155  0.16661386  1
  O2-  O223  1  0.75164570  0.87418973  0.66384180  1
  O2-  O224  1  0.12660182  0.00092897  0.34419207  1
  O2-  O225  1  0.12567407  0.00306852  0.85068297  1
  O2-  O226  1  0.12591228  0.25043098  0.34280371  1
  O2-  O227  1  0.12544121  0.24799192  0.84999829  1
  O2-  O228  1  0.12619350  0.50096281  0.35106127  1
  O2-  O229  1  0.12554440  0.50062157  0.84518847  1
  O2-  O230  1  0.12557280  0.74714630  0.35075844  1
  O2-  O231  1  0.12504407  0.74933681  0.84583176  1
  O2-  O232  1  0.37387177  0.00120042  0.34672948  1
  O2-  O233  1  0.37515220  0.00426221  0.84806987  1
  O2-  O234  1  0.37397528  0.25026539  0.34881059  1
  O2-  O235  1  0.37481692  0.25026852  0.84947831  1
  O2-  O236  1  0.37329226  0.49952123  0.35440235  1
  O2-  O237  1  0.37486744  0.49743923  0.84797481  1
  O2-  O238  1  0.37440711  0.74834425  0.35085832  1
  O2-  O239  1  0.37553171  0.74918827  0.84771784  1
  O2-  O240  1  0.62437799  -0.00100403  0.34929995  1
  O2-  O241  1  0.62450453  0.00100404  0.84340964  1
  O2-  O242  1  0.62450244  0.24986827  0.35065297  1
  O2-  O243  1  0.62447672  0.24957341  0.84189213  1
  O2-  O244  1  0.62460640  0.50262986  0.34814169  1
  O2-  O245  1  0.62434041  0.49973594  0.84832399  1
  O2-  O246  1  0.62362271  0.74771862  0.34686164  1
  O2-  O247  1  0.62463696  0.75015939  0.84924855  1
  O2-  O248  1  0.87584685  -0.00281426  0.34997347  1
  O2-  O249  1  0.87465500  0.00101930  0.84445928  1
  O2-  O250  1  0.87622928  0.25277905  0.35080081  1
  O2-  O251  1  0.87491055  0.24903941  0.84097326  1
  O2-  O252  1  0.87599787  0.49967884  0.34832055  1
  O2-  O253  1  0.87461387  0.49831756  0.84625623  1
  O2-  O254  1  0.87651599  0.74950981  0.34947428  1
  O2-  O255  1  0.87437504  0.75193757  0.84781107  1
  O2-  O256  1  0.00257358  0.12468413  0.34422217  1
  O2-  O257  1  0.00007859  0.12578201  0.84935353  1
  O2-  O258  1  -0.00060879  0.37573519  0.34680985  1
  O2-  O259  1  -0.00187105  0.37431459  0.84571534  1
  O2-  O260  1  0.00131013  0.62442027  0.34862404  1
  O2-  O261  1  0.00090133  0.62431282  0.84502541  1
  O2-  O262  1  -0.00100051  0.87459071  0.34893134  1
  O2-  O263  1  -0.00268523  0.87605986  0.84750383  1
  O2-  O264  1  0.25175026  0.12617638  0.34317127  1
  O2-  O265  1  0.25034665  0.12717187  0.85400977  1
  O2-  O266  1  0.25063223  0.37475361  0.34758740  1
  O2-  O267  1  0.25197128  0.37454649  0.85167745  1
  O2-  O268  1  0.25031568  0.62366253  0.35295409  1
  O2-  O269  1  0.24935765  0.62399548  0.84580610  1
  O2-  O270  1  0.25214821  0.87449499  0.34507774  1
  O2-  O271  1  0.24983736  0.87540236  0.85162148  1
  O2-  O272  1  0.49573074  0.12577180  0.34980240  1
  O2-  O273  1  0.49998975  0.12661507  0.84715894  1
  O2-  O274  1  0.49627836  0.37500913  0.35099068  1
  O2-  O275  1  0.50011513  0.37505844  0.84706580  1
  O2-  O276  1  0.49770190  0.62315668  0.35181865  1
  O2-  O277  1  0.49942670  0.62394775  0.84822527  1
  O2-  O278  1  0.49711876  0.87534686  0.34713917  1
  O2-  O279  1  0.50324513  0.87518689  0.84687821  1
  O2-  O280  1  0.75041126  0.12460753  0.35182761  1
  O2-  O281  1  0.74938104  0.12555182  0.83953086  1
  O2-  O282  1  0.75363512  0.37549494  0.35025765  1
  O2-  O283  1  0.74941188  0.37496021  0.83891236  1
  O2-  O284  1  0.75072989  0.62529775  0.34753042  1
  O2-  O285  1  0.74908936  0.62465482  0.84727231  1
  O2-  O286  1  0.75198432  0.87389123  0.35076179  1
  O2-  O287  1  0.74978873  0.87525501  0.84198597  1
