# generated using pymatgen
data_BaYFeCuO5
_symmetry_space_group_name_H-M   'P 1'
_cell_length_a   15.67879354
_cell_length_b   15.67548687
_cell_length_c   15.50086782
_cell_angle_alpha   90.00292101
_cell_angle_beta   89.99871540
_cell_angle_gamma   89.99810065
_symmetry_Int_Tables_number   1
_chemical_formula_structural   BaYFeCuO5
_chemical_formula_sum   'Ba32 Y32 Fe32 Cu32 O160'
_cell_volume   3809.69047308
_cell_formula_units_Z   32
loop_
 _symmetry_equiv_pos_site_id
 _symmetry_equiv_pos_as_xyz
  1  'x, y, z'
loop_
 _atom_type_symbol
 _atom_type_oxidation_number
  Ba2+  2.0
  Y3+  3.0
  Fe3+  3.0
  Cu2+  2.0
  O2-  -2.0
loop_
 _atom_site_type_symbol
 _atom_site_label
 _atom_site_symmetry_multiplicity
 _atom_site_fract_x
 _atom_site_fract_y
 _atom_site_fract_z
 _atom_site_occupancy
  Ba2+  Ba0  1  0.00469607  -0.00142191  0.01288785  1
  Ba2+  Ba1  1  -0.00069433  -0.00579785  0.51535763  1
  Ba2+  Ba2  1  0.00043853  0.24737481  0.01945467  1
  Ba2+  Ba3  1  -0.00373239  0.24453603  0.51153179  1
  Ba2+  Ba4  1  0.00765795  0.49816995  0.00791779  1
  Ba2+  Ba5  1  -0.00534844  0.50600488  0.51217905  1
  Ba2+  Ba6  1  0.01005312  0.75463494  0.00299431  1
  Ba2+  Ba7  1  -0.00108068  0.75460781  0.51634527  1
  Ba2+  Ba8  1  0.24880586  -0.00449563  0.01756860  1
  Ba2+  Ba9  1  0.24250750  0.00014998  0.51556667  1
  Ba2+  Ba10  1  0.24504408  0.24388926  0.02208085  1
  Ba2+  Ba11  1  0.25430968  0.24558400  0.51890498  1
  Ba2+  Ba12  1  0.24305398  0.50769240  0.00697688  1
  Ba2+  Ba13  1  0.25750133  0.50626048  0.51584945  1
  Ba2+  Ba14  1  0.24651444  0.75450924  0.00119341  1
  Ba2+  Ba15  1  0.24538453  0.74618784  0.51216711  1
  Ba2+  Ba16  1  0.49392228  0.00443488  0.01273071  1
  Ba2+  Ba17  1  0.50051882  -0.00117029  0.51706716  1
  Ba2+  Ba18  1  0.50574843  0.24285705  0.00558339  1
  Ba2+  Ba19  1  0.49648834  0.25590001  0.52288632  1
  Ba2+  Ba20  1  0.49854240  0.49893511  -0.00205961  1
  Ba2+  Ba21  1  0.49918902  0.50271376  0.52284754  1
  Ba2+  Ba22  1  0.48805698  0.75406850  0.00254677  1
  Ba2+  Ba23  1  0.50227911  0.74253549  0.51839331  1
  Ba2+  Ba24  1  0.75283623  0.00878716  0.00857314  1
  Ba2+  Ba25  1  0.75701399  -0.00718432  0.51620303  1
  Ba2+  Ba26  1  0.74926710  0.24710063  0.00007124  1
  Ba2+  Ba27  1  0.75328876  0.25515290  0.51049632  1
  Ba2+  Ba28  1  0.75231657  0.48986536  -0.00252639  1
  Ba2+  Ba29  1  0.74751403  0.50259775  0.51986577  1
  Ba2+  Ba30  1  0.75565128  0.75572113  0.00319579  1
  Ba2+  Ba31  1  0.75212853  0.75075379  0.52422415  1
  Y3+  Y32  1  0.00126640  -0.00302961  0.25989965  1
  Y3+  Y33  1  0.00096213  -0.00337192  0.75439537  1
  Y3+  Y34  1  -0.00032385  0.24945890  0.25854640  1
  Y3+  Y35  1  -0.00050259  0.24822308  0.75435878  1
  Y3+  Y36  1  0.00153818  0.50042978  0.25591084  1
  Y3+  Y37  1  0.00196605  0.50260847  0.75887973  1
  Y3+  Y38  1  0.00315174  0.75269353  0.25861786  1
  Y3+  Y39  1  0.00317525  0.75248816  0.75794148  1
  Y3+  Y40  1  0.24879554  -0.00352341  0.25654122  1
  Y3+  Y41  1  0.24813928  -0.00285792  0.75614923  1
  Y3+  Y42  1  0.24888657  0.24898394  0.25685659  1
  Y3+  Y43  1  0.25103609  0.24833739  0.75287889  1
  Y3+  Y44  1  0.24864625  0.50250910  0.25663968  1
  Y3+  Y45  1  0.25053808  0.50494009  0.75801777  1
  Y3+  Y46  1  0.24818629  0.75123512  0.25642937  1
  Y3+  Y47  1  0.24816614  0.75002798  0.75927541  1
  Y3+  Y48  1  0.49902923  0.00005315  0.25359781  1
  Y3+  Y49  1  0.49983574  0.00004311  0.75965073  1
  Y3+  Y50  1  0.50025493  0.24753905  0.25363633  1
  Y3+  Y51  1  0.50129169  0.24995522  0.75912014  1
  Y3+  Y52  1  0.49807236  0.50179311  0.25771918  1
  Y3+  Y53  1  0.49840903  0.50059012  0.75754409  1
  Y3+  Y54  1  0.49625784  0.75031508  0.25731648  1
  Y3+  Y55  1  0.49676238  0.75022942  0.75917112  1
  Y3+  Y56  1  0.75038259  0.00076526  0.25685653  1
  Y3+  Y57  1  0.75218791  -0.00049773  0.75776061  1
  Y3+  Y58  1  0.74992032  0.24815146  0.25537491  1
  Y3+  Y59  1  0.74892728  0.24973729  0.75901776  1
  Y3+  Y60  1  0.75124056  0.49864072  0.25743417  1
  Y3+  Y61  1  0.74941714  0.49859527  0.75971888  1
  Y3+  Y62  1  0.75154551  0.75200846  0.25712107  1
  Y3+  Y63  1  0.75213271  0.75235206  0.75877279  1
  Fe3+  Fe64  1  0.37245979  0.37362712  0.87877978  1
  Fe3+  Fe65  1  0.12547776  0.37262378  0.87489417  1
  Fe3+  Fe66  1  0.62504700  0.62536571  0.37540494  1
  Fe3+  Fe67  1  0.62483217  0.87709450  0.87955148  1
  Fe3+  Fe68  1  0.37302514  0.12458638  0.87511039  1
  Fe3+  Fe69  1  0.12502454  0.37531126  0.38056466  1
  Fe3+  Fe70  1  0.62495075  0.62604686  0.87981995  1
  Fe3+  Fe71  1  0.12539047  0.12425258  0.37715429  1
  Fe3+  Fe72  1  0.87756719  0.12468344  0.87448222  1
  Fe3+  Fe73  1  0.37548743  0.37529394  0.37600990  1
  Fe3+  Fe74  1  0.37575576  0.12448951  0.37692947  1
  Fe3+  Fe75  1  0.87685730  0.62518861  0.87974074  1
  Fe3+  Fe76  1  0.37470870  0.87411160  0.38081094  1
  Fe3+  Fe77  1  0.62423818  0.37548505  0.37756747  1
  Fe3+  Fe78  1  0.12544295  0.12447677  0.87380779  1
  Fe3+  Fe79  1  0.87420820  0.12405349  0.37723119  1
  Fe3+  Fe80  1  0.12493250  0.62517406  0.37769406  1
  Fe3+  Fe81  1  0.62493299  0.87423688  0.37757323  1
  Fe3+  Fe82  1  0.62436577  0.12487635  0.38074084  1
  Fe3+  Fe83  1  0.87394297  0.62581235  0.37567179  1
  Fe3+  Fe84  1  0.12552935  0.37616148  0.63348418  1
  Fe3+  Fe85  1  0.87609807  0.62518104  0.13291738  1
  Fe3+  Fe86  1  0.87580240  0.87564877  0.13668475  1
  Fe3+  Fe87  1  0.37472515  0.87438830  0.63611802  1
  Fe3+  Fe88  1  0.62636738  0.12464673  0.63570766  1
  Fe3+  Fe89  1  0.62442302  0.87509655  0.13328801  1
  Fe3+  Fe90  1  0.37400324  0.37499782  0.13265510  1
  Fe3+  Fe91  1  0.62437967  0.37526736  0.13558362  1
  Fe3+  Fe92  1  0.87521878  0.37435940  0.13777979  1
  Fe3+  Fe93  1  0.87531480  0.37562359  0.63977618  1
  Fe3+  Fe94  1  0.62545225  0.62513126  0.13149140  1
  Fe3+  Fe95  1  0.37396213  0.62539891  0.13614706  1
  Cu2+  Cu96  1  0.62507662  0.12381099  0.87069928  1
  Cu2+  Cu97  1  0.37515532  0.62515469  0.37316596  1
  Cu2+  Cu98  1  0.87449425  0.87411739  0.37240810  1
  Cu2+  Cu99  1  0.87731930  0.37403436  0.86236518  1
  Cu2+  Cu100  1  0.62414715  0.37481812  0.86332320  1
  Cu2+  Cu101  1  0.12546065  0.87688990  0.86999852  1
  Cu2+  Cu102  1  0.87480369  0.37543269  0.36392999  1
  Cu2+  Cu103  1  0.87615240  0.87610624  0.86606212  1
  Cu2+  Cu104  1  0.12512338  0.87469055  0.37460119  1
  Cu2+  Cu105  1  0.37445107  0.62529974  0.86532720  1
  Cu2+  Cu106  1  0.37373601  0.87680851  0.87148842  1
  Cu2+  Cu107  1  0.12500046  0.62575925  0.87155937  1
  Cu2+  Cu108  1  0.37397940  0.12499654  0.15086292  1
  Cu2+  Cu109  1  0.37607892  0.12356751  0.65056673  1
  Cu2+  Cu110  1  0.87446175  0.12507471  0.65011792  1
  Cu2+  Cu111  1  0.37429085  0.87411241  0.14236059  1
  Cu2+  Cu112  1  0.12504627  0.87429492  0.14396083  1
  Cu2+  Cu113  1  0.37451541  0.37567604  0.65488486  1
  Cu2+  Cu114  1  0.62555594  0.12474253  0.14029130  1
  Cu2+  Cu115  1  0.12526562  0.37501781  0.15221593  1
  Cu2+  Cu116  1  0.62559051  0.62558048  0.65986533  1
  Cu2+  Cu117  1  0.12552772  0.87391308  0.64226052  1
  Cu2+  Cu118  1  0.12440435  0.62646459  0.14178768  1
  Cu2+  Cu119  1  0.12432990  0.12364755  0.15515210  1
  Cu2+  Cu120  1  0.12440142  0.12527143  0.64808986  1
  Cu2+  Cu121  1  0.87544681  0.62485120  0.65818272  1
  Cu2+  Cu122  1  0.37462471  0.62648036  0.64499990  1
  Cu2+  Cu123  1  0.87549336  0.87425368  0.64614500  1
  Cu2+  Cu124  1  0.62460101  0.87506134  0.65461667  1
  Cu2+  Cu125  1  0.87558780  0.12454742  0.15294853  1
  Cu2+  Cu126  1  0.62513209  0.37518897  0.65501117  1
  Cu2+  Cu127  1  0.12456644  0.62469247  0.65110340  1
  O2-  O128  1  0.12471993  0.12614632  -0.00636066  1
  O2-  O129  1  0.12544978  0.12650779  0.49715998  1
  O2-  O130  1  0.12575437  0.37070027  -0.00501572  1
  O2-  O131  1  0.12540848  0.37648019  0.50614090  1
  O2-  O132  1  0.12390453  0.62537220  0.00657253  1
  O2-  O133  1  0.12399490  0.62263311  0.49784243  1
  O2-  O134  1  0.12564237  0.87709827  0.00777299  1
  O2-  O135  1  0.12538273  0.87452997  0.50824166  1
  O2-  O136  1  0.37215993  0.12616894  -0.00470865  1
  O2-  O137  1  0.37845803  0.12630659  0.49656385  1
  O2-  O138  1  0.37205500  0.37341048  0.00555487  1
  O2-  O139  1  0.37712306  0.37560217  0.49587699  1
  O2-  O140  1  0.37503526  0.62403973  0.01586257  1
  O2-  O141  1  0.37683714  0.62498796  0.50867580  1
  O2-  O142  1  0.37397912  0.87680590  0.00680401  1
  O2-  O143  1  0.37655815  0.87388321  0.50749699  1
  O2-  O144  1  0.62566788  0.12474331  0.00668009  1
  O2-  O145  1  0.62494478  0.12527197  0.50644080  1
  O2-  O146  1  0.62538999  0.37431811  0.01545612  1
  O2-  O147  1  0.62320466  0.37737070  0.49743719  1
  O2-  O148  1  0.62431990  0.62454702  0.00632134  1
  O2-  O149  1  0.62651854  0.62514847  0.49536088  1
  O2-  O150  1  0.62472353  0.87756480  0.00651399  1
  O2-  O151  1  0.62490621  0.87252366  0.49732343  1
  O2-  O152  1  0.87818733  0.12637258  -0.00524512  1
  O2-  O153  1  0.87219413  0.12529375  0.49737396  1
  O2-  O154  1  0.87625132  0.37310082  0.01781016  1
  O2-  O155  1  0.87318213  0.37791028  0.51917068  1
  O2-  O156  1  0.87676632  0.62421186  0.00666965  1
  O2-  O157  1  0.87131281  0.62505915  0.49581886  1
  O2-  O158  1  0.87604990  0.87688171  0.01637626  1
  O2-  O159  1  0.87381334  0.87263622  0.50809367  1
  O2-  O160  1  0.12488440  0.00044266  0.16601893  1
  O2-  O161  1  0.12522254  0.00146889  0.66254490  1
  O2-  O162  1  0.12497783  0.24916513  0.16587465  1
  O2-  O163  1  0.12493787  0.25203996  0.65837216  1
  O2-  O164  1  0.12435718  0.49906660  0.16385176  1
  O2-  O165  1  0.12572265  0.49843925  0.66523961  1
  O2-  O166  1  0.12486789  0.75046600  0.16695949  1
  O2-  O167  1  0.12470811  0.74790091  0.66685252  1
  O2-  O168  1  0.37515827  0.00124107  0.16559690  1
  O2-  O169  1  0.37583555  -0.00197377  0.66094724  1
  O2-  O170  1  0.37432992  0.25161704  0.16177950  1
  O2-  O171  1  0.37662160  0.24971847  0.66276970  1
  O2-  O172  1  0.37490543  0.49885818  0.16334428  1
  O2-  O173  1  0.37505182  0.49985841  0.66839685  1
  O2-  O174  1  0.37527705  0.74764410  0.16782385  1
  O2-  O175  1  0.37640767  0.75291944  0.66661887  1
  O2-  O176  1  0.62457035  -0.00325506  0.16518629  1
  O2-  O177  1  0.62578134  0.00133637  0.66168628  1
  O2-  O178  1  0.62442175  0.25258879  0.16799677  1
  O2-  O179  1  0.62459147  0.24850247  0.66256810  1
  O2-  O180  1  0.62475402  0.50112438  0.16326358  1
  O2-  O181  1  0.62546200  0.50051360  0.66815194  1
  O2-  O182  1  0.62621378  0.74953250  0.15837704  1
  O2-  O183  1  0.62514532  0.75027704  0.67038034  1
  O2-  O184  1  0.87442608  0.00000753  0.16539842  1
  O2-  O185  1  0.87408472  0.00106076  0.66367936  1
  O2-  O186  1  0.87550350  0.24973028  0.16700669  1
  O2-  O187  1  0.87467519  0.25088594  0.66342734  1
  O2-  O188  1  0.87510027  0.50072975  0.16374443  1
  O2-  O189  1  0.87449251  0.49960589  0.67042783  1
  O2-  O190  1  0.87316238  0.74919139  0.16187171  1
  O2-  O191  1  0.87476490  0.74831363  0.67011056  1
  O2-  O192  1  0.00036647  0.12534462  0.16611031  1
  O2-  O193  1  -0.00074352  0.12582298  0.66041854  1
  O2-  O194  1  -0.00018825  0.37431294  0.16801388  1
  O2-  O195  1  0.00172473  0.37585762  0.66230937  1
  O2-  O196  1  -0.00319479  0.62490461  0.16411767  1
  O2-  O197  1  0.00004201  0.62366446  0.66509032  1
  O2-  O198  1  -0.00192987  0.87508307  0.16809065  1
  O2-  O199  1  0.00039126  0.87425934  0.66468452  1
  O2-  O200  1  0.24917634  0.12520238  0.16449029  1
  O2-  O201  1  0.25062796  0.12592876  0.65944323  1
  O2-  O202  1  0.25130844  0.37460804  0.16349328  1
  O2-  O203  1  0.24868563  0.37468127  0.66036389  1
  O2-  O204  1  0.25111799  0.62409760  0.16659316  1
  O2-  O205  1  0.24856685  0.62523132  0.66506742  1
  O2-  O206  1  0.24999825  0.87497454  0.16728493  1
  O2-  O207  1  0.25251494  0.87439984  0.66253358  1
  O2-  O208  1  0.49821085  0.12493546  0.16335580  1
  O2-  O209  1  0.50283232  0.12420703  0.66450851  1
  O2-  O210  1  0.49800171  0.37520690  0.16050929  1
  O2-  O211  1  0.49971994  0.37610121  0.66749324  1
  O2-  O212  1  0.50141629  0.62501951  0.16361914  1
  O2-  O213  1  0.50156240  0.62506367  0.66852050  1
  O2-  O214  1  0.50256876  0.87399581  0.16297306  1
  O2-  O215  1  0.49877285  0.87539676  0.66555782  1
  O2-  O216  1  0.75144913  0.12484717  0.16559577  1
  O2-  O217  1  0.74824619  0.12544511  0.66506958  1
  O2-  O218  1  0.75002794  0.37518745  0.16708555  1
  O2-  O219  1  0.75049288  0.37556056  0.66891064  1
  O2-  O220  1  0.75009416  0.62425620  0.15871316  1
  O2-  O221  1  0.74999693  0.62522177  0.67072782  1
  O2-  O222  1  0.74894821  0.87514357  0.16283458  1
  O2-  O223  1  0.74891505  0.87408812  0.66891413  1
  O2-  O224  1  0.12557231  0.00144339  0.34832064  1
  O2-  O225  1  0.12494582  0.00184880  0.84438961  1
  O2-  O226  1  0.12505192  0.25121103  0.34890469  1
  O2-  O227  1  0.12579079  0.24912625  0.83898239  1
  O2-  O228  1  0.12473060  0.49842802  0.34637470  1
  O2-  O229  1  0.12551099  0.49816810  0.84886207  1
  O2-  O230  1  0.12498713  0.74838241  0.34839865  1
  O2-  O231  1  0.12546356  0.75113051  0.85061556  1
  O2-  O232  1  0.37610828  -0.00096340  0.34884953  1
  O2-  O233  1  0.37534331  0.00220468  0.84331081  1
  O2-  O234  1  0.37540738  0.24964428  0.34309856  1
  O2-  O235  1  0.37440660  0.25086080  0.84556642  1
  O2-  O236  1  0.37463507  0.49791418  0.34395023  1
  O2-  O237  1  0.37487154  0.49818071  0.85276190  1
  O2-  O238  1  0.37607919  0.75275490  0.34990837  1
  O2-  O239  1  0.37499904  0.74943873  0.85052060  1
  O2-  O240  1  0.62435395  0.00142138  0.34879972  1
  O2-  O241  1  0.62492487  -0.00251294  0.84590715  1
  O2-  O242  1  0.62470222  0.24840989  0.34959468  1
  O2-  O243  1  0.62512726  0.25092231  0.84707087  1
  O2-  O244  1  0.62526144  0.50000806  0.34274885  1
  O2-  O245  1  0.62452987  0.50201098  0.85295259  1
  O2-  O246  1  0.62438771  0.74995212  0.34044970  1
  O2-  O247  1  0.62621419  0.75051188  0.85546782  1
  O2-  O248  1  0.87370452  0.00172634  0.34703396  1
  O2-  O249  1  0.87545805  0.00045268  0.84614469  1
  O2-  O250  1  0.87402045  0.24926310  0.34893262  1
  O2-  O251  1  0.87532054  0.24968980  0.84462768  1
  O2-  O252  1  0.87461823  0.50078542  0.34501900  1
  O2-  O253  1  0.87548533  0.50091327  0.85349538  1
  O2-  O254  1  0.87443547  0.74789666  0.34277970  1
  O2-  O255  1  0.87403572  0.74910528  0.85468096  1
  O2-  O256  1  -0.00010018  0.12581601  0.34818872  1
  O2-  O257  1  0.00087154  0.12533634  0.84144939  1
  O2-  O258  1  0.00151709  0.37497605  0.35202498  1
  O2-  O259  1  0.00191290  0.37467608  0.84364333  1
  O2-  O260  1  -0.00002591  0.62368256  0.34565396  1
  O2-  O261  1  -0.00243799  0.62519175  0.84910188  1
  O2-  O262  1  0.00003348  0.87486710  0.35041733  1
  O2-  O263  1  -0.00041317  0.87506792  0.84800205  1
  O2-  O264  1  0.25071818  0.12547855  0.34635915  1
  O2-  O265  1  0.24983047  0.12524372  0.84055790  1
  O2-  O266  1  0.24868676  0.37449486  0.34733000  1
  O2-  O267  1  0.25103977  0.37465154  0.84364276  1
  O2-  O268  1  0.24810514  0.62427433  0.34811447  1
  O2-  O269  1  0.25096678  0.62514232  0.84868530  1
  O2-  O270  1  0.25307515  0.87499944  0.35061004  1
  O2-  O271  1  0.24965089  0.87551387  0.84581713  1
  O2-  O272  1  0.50145115  0.12458816  0.34518806  1
  O2-  O273  1  0.49807667  0.12576091  0.84791527  1
  O2-  O274  1  0.50042016  0.37468790  0.34067143  1
  O2-  O275  1  0.49685362  0.37442511  0.85262902  1
  O2-  O276  1  0.50181246  0.62483780  0.34438206  1
  O2-  O277  1  0.50175048  0.62576160  0.85261874  1
  O2-  O278  1  0.49912824  0.87547899  0.34590920  1
  O2-  O279  1  0.50270251  0.87460809  0.85006092  1
  O2-  O280  1  0.74753308  0.12529969  0.34772799  1
  O2-  O281  1  0.75221362  0.12509636  0.84827401  1
  O2-  O282  1  0.74877239  0.37466022  0.34738468  1
  O2-  O283  1  0.75068097  0.37497942  0.85295180  1
  O2-  O284  1  0.74927676  0.62495936  0.33966002  1
  O2-  O285  1  0.75034843  0.62435137  0.85540213  1
  O2-  O286  1  0.74728134  0.87506902  0.34359825  1
  O2-  O287  1  0.74884061  0.87557121  0.85291304  1
