# generated using pymatgen
data_BaYFeCuO5
_symmetry_space_group_name_H-M   'P 1'
_cell_length_a   15.67614508
_cell_length_b   15.67640597
_cell_length_c   15.49755140
_cell_angle_alpha   89.99556335
_cell_angle_beta   89.99807362
_cell_angle_gamma   90.00029039
_symmetry_Int_Tables_number   1
_chemical_formula_structural   BaYFeCuO5
_chemical_formula_sum   'Ba32 Y32 Fe32 Cu32 O160'
_cell_volume   3808.45527557
_cell_formula_units_Z   32
loop_
 _symmetry_equiv_pos_site_id
 _symmetry_equiv_pos_as_xyz
  1  'x, y, z'
loop_
 _atom_type_symbol
 _atom_type_oxidation_number
  Ba2+  2.0
  Y3+  3.0
  Fe3+  3.0
  Cu2+  2.0
  O2-  -2.0
loop_
 _atom_site_type_symbol
 _atom_site_label
 _atom_site_symmetry_multiplicity
 _atom_site_fract_x
 _atom_site_fract_y
 _atom_site_fract_z
 _atom_site_occupancy
  Ba2+  Ba0  1  0.00669459  0.00475634  0.02184585  1
  Ba2+  Ba1  1  -0.00785054  -0.00299156  0.50117894  1
  Ba2+  Ba2  1  -0.00532907  0.24778523  0.01662608  1
  Ba2+  Ba3  1  -0.00462924  0.25717241  0.50809339  1
  Ba2+  Ba4  1  -0.00879084  0.49723488  0.00119250  1
  Ba2+  Ba5  1  -0.00610388  0.49610715  0.51392029  1
  Ba2+  Ba6  1  0.00126237  0.75145738  0.00580429  1
  Ba2+  Ba7  1  -0.00939248  0.74933652  0.50733321  1
  Ba2+  Ba8  1  0.25243212  -0.00027222  0.02873996  1
  Ba2+  Ba9  1  0.24516895  -0.00327202  0.51022800  1
  Ba2+  Ba10  1  0.25523538  0.24423577  0.02435506  1
  Ba2+  Ba11  1  0.24988421  0.26213141  0.50713880  1
  Ba2+  Ba12  1  0.25974263  0.50035112  0.01870925  1
  Ba2+  Ba13  1  0.25699503  0.49481773  0.50700387  1
  Ba2+  Ba14  1  0.25634119  0.75623623  0.02443612  1
  Ba2+  Ba15  1  0.25278469  0.74486589  0.51055215  1
  Ba2+  Ba16  1  0.49945314  0.00098751  0.02313299  1
  Ba2+  Ba17  1  0.51292395  0.00260968  0.50329815  1
  Ba2+  Ba18  1  0.49741630  0.24285780  0.01728481  1
  Ba2+  Ba19  1  0.50769135  0.25719930  0.50676960  1
  Ba2+  Ba20  1  0.49654024  0.50503873  0.02292357  1
  Ba2+  Ba21  1  0.50030561  0.49690542  0.51124297  1
  Ba2+  Ba22  1  0.49823140  0.75146229  0.02797626  1
  Ba2+  Ba23  1  0.50464855  0.74165058  0.50736537  1
  Ba2+  Ba24  1  0.74196600  0.00541993  0.01445956  1
  Ba2+  Ba25  1  0.74989228  0.00243065  0.49096874  1
  Ba2+  Ba26  1  0.75286830  0.24621255  0.01134723  1
  Ba2+  Ba27  1  0.74516452  0.25135078  0.50708032  1
  Ba2+  Ba28  1  0.75473870  0.49998965  0.00517142  1
  Ba2+  Ba29  1  0.74925622  0.49948149  0.52024117  1
  Ba2+  Ba30  1  0.74287541  0.74675411  0.01154143  1
  Ba2+  Ba31  1  0.75229869  0.74730846  0.49944935  1
  Y3+  Y32  1  -0.00219411  0.00185764  0.25788952  1
  Y3+  Y33  1  0.00081056  -0.00079890  0.75567863  1
  Y3+  Y34  1  -0.00216712  0.25123891  0.25700385  1
  Y3+  Y35  1  -0.00070383  0.25325822  0.75797153  1
  Y3+  Y36  1  -0.00150956  0.49833177  0.25781779  1
  Y3+  Y37  1  -0.00304574  0.49892088  0.75780871  1
  Y3+  Y38  1  -0.00195891  0.74920710  0.25927803  1
  Y3+  Y39  1  -0.00100485  0.74849831  0.75633734  1
  Y3+  Y40  1  0.24951677  0.00040578  0.26017277  1
  Y3+  Y41  1  0.24944545  -0.00116412  0.75175037  1
  Y3+  Y42  1  0.25058794  0.25328307  0.26188385  1
  Y3+  Y43  1  0.25030641  0.25351435  0.75208361  1
  Y3+  Y44  1  0.25249025  0.49846111  0.26294324  1
  Y3+  Y45  1  0.25167328  0.49846297  0.75118492  1
  Y3+  Y46  1  0.25168133  0.74859389  0.26106376  1
  Y3+  Y47  1  0.25002644  0.74888784  0.75205558  1
  Y3+  Y48  1  0.50452040  0.00148970  0.25884396  1
  Y3+  Y49  1  0.50296133  0.00298560  0.75547554  1
  Y3+  Y50  1  0.50219953  0.25116471  0.26082457  1
  Y3+  Y51  1  0.50294620  0.25000633  0.75339501  1
  Y3+  Y52  1  0.49841707  0.49906320  0.26193680  1
  Y3+  Y53  1  0.50033778  0.49858400  0.75121965  1
  Y3+  Y54  1  0.50128207  0.74895252  0.26072810  1
  Y3+  Y55  1  0.49977461  0.74768983  0.75191379  1
  Y3+  Y56  1  0.74816293  0.00287686  0.25644258  1
  Y3+  Y57  1  0.74685676  0.00329816  0.75977685  1
  Y3+  Y58  1  0.74885425  0.24872153  0.25638375  1
  Y3+  Y59  1  0.74715833  0.25080840  0.75950482  1
  Y3+  Y60  1  0.75024615  0.49913309  0.25578785  1
  Y3+  Y61  1  0.75152130  0.49893608  0.75937854  1
  Y3+  Y62  1  0.74939006  0.75015296  0.25795822  1
  Y3+  Y63  1  0.75114847  0.74607043  0.75777117  1
  Fe3+  Fe64  1  0.12734030  0.62465132  0.87989988  1
  Fe3+  Fe65  1  0.87602415  0.12386996  0.87782817  1
  Fe3+  Fe66  1  0.12705577  0.37462203  0.88078748  1
  Fe3+  Fe67  1  0.87433500  0.87604411  0.88211924  1
  Fe3+  Fe68  1  0.37556965  0.87530548  0.87350551  1
  Fe3+  Fe69  1  0.12750617  0.87552956  0.87618535  1
  Fe3+  Fe70  1  0.37539194  0.37452375  0.87637641  1
  Fe3+  Fe71  1  0.37387570  0.12418156  0.87310962  1
  Fe3+  Fe72  1  0.62668012  0.62255239  0.37561965  1
  Fe3+  Fe73  1  0.62281765  0.37463396  0.88077296  1
  Fe3+  Fe74  1  0.62211029  0.62489397  0.87661522  1
  Fe3+  Fe75  1  0.12356833  0.12672387  0.37936869  1
  Fe3+  Fe76  1  0.37505806  0.62566411  0.87439819  1
  Fe3+  Fe77  1  0.87272695  0.37582084  0.37473611  1
  Fe3+  Fe78  1  0.12756240  0.12494837  0.87509400  1
  Fe3+  Fe79  1  0.12372041  0.87391579  0.37774506  1
  Fe3+  Fe80  1  0.62229450  0.87455345  0.87808078  1
  Fe3+  Fe81  1  0.12343214  0.62302954  0.37994839  1
  Fe3+  Fe82  1  0.37565977  0.12552748  0.38011741  1
  Fe3+  Fe83  1  0.37668990  0.87517286  0.37964917  1
  Fe3+  Fe84  1  0.87500310  0.62514447  0.13723536  1
  Fe3+  Fe85  1  0.12345353  0.62381690  0.63486140  1
  Fe3+  Fe86  1  0.62803505  0.87460536  0.63587451  1
  Fe3+  Fe87  1  0.87342192  0.12544207  0.63713830  1
  Fe3+  Fe88  1  0.87436740  0.87561669  0.13584073  1
  Fe3+  Fe89  1  0.62459041  0.37549238  0.13510524  1
  Fe3+  Fe90  1  0.12509311  0.62481297  0.13547179  1
  Fe3+  Fe91  1  0.37629685  0.12569137  0.63075484  1
  Fe3+  Fe92  1  0.87272877  0.87566813  0.63994544  1
  Fe3+  Fe93  1  0.12523393  0.37564252  0.13521777  1
  Fe3+  Fe94  1  0.12302431  0.12591007  0.63214991  1
  Fe3+  Fe95  1  0.37685409  0.87526901  0.63139371  1
  Cu2+  Cu96  1  0.37561865  0.62482317  0.37389806  1
  Cu2+  Cu97  1  0.12297390  0.37601718  0.37262618  1
  Cu2+  Cu98  1  0.87494507  0.12669154  0.36286791  1
  Cu2+  Cu99  1  0.87464509  0.87527774  0.35901566  1
  Cu2+  Cu100  1  0.62263263  0.12531034  0.87432349  1
  Cu2+  Cu101  1  0.37664950  0.37453739  0.37233213  1
  Cu2+  Cu102  1  0.87457609  0.37306882  0.87356053  1
  Cu2+  Cu103  1  0.87464680  0.62333437  0.37206580  1
  Cu2+  Cu104  1  0.62674235  0.37625528  0.36956199  1
  Cu2+  Cu105  1  0.62586699  0.87418984  0.36313960  1
  Cu2+  Cu106  1  0.87532870  0.62612100  0.86514837  1
  Cu2+  Cu107  1  0.62572445  0.12685892  0.37145490  1
  Cu2+  Cu108  1  0.12427714  0.87434303  0.15609540  1
  Cu2+  Cu109  1  0.62697041  0.12499433  0.64121773  1
  Cu2+  Cu110  1  0.12365060  0.37573793  0.64034564  1
  Cu2+  Cu111  1  0.62509080  0.62411221  0.15280659  1
  Cu2+  Cu112  1  0.37581034  0.87578556  0.16114773  1
  Cu2+  Cu113  1  0.87378244  0.37394168  0.65530417  1
  Cu2+  Cu114  1  0.37465858  0.62509959  0.15846771  1
  Cu2+  Cu115  1  0.37527698  0.12525089  0.16119890  1
  Cu2+  Cu116  1  0.37569509  0.62422618  0.63804705  1
  Cu2+  Cu117  1  0.12542022  0.12635369  0.15802345  1
  Cu2+  Cu118  1  0.87443563  0.62474288  0.64220373  1
  Cu2+  Cu119  1  0.62455865  0.12644290  0.14351119  1
  Cu2+  Cu120  1  0.62565302  0.87477684  0.15384854  1
  Cu2+  Cu121  1  0.62652524  0.62473154  0.65073974  1
  Cu2+  Cu122  1  0.12318221  0.87407832  0.64437472  1
  Cu2+  Cu123  1  0.87463514  0.37515648  0.14100170  1
  Cu2+  Cu124  1  0.87470131  0.12472634  0.15189910  1
  Cu2+  Cu125  1  0.37534446  0.37451318  0.15487812  1
  Cu2+  Cu126  1  0.37650919  0.37414068  0.64155288  1
  Cu2+  Cu127  1  0.62626004  0.37497129  0.64291760  1
  O2-  O128  1  0.13066152  0.12286943  -0.00513902  1
  O2-  O129  1  0.12121616  0.12634788  0.50551434  1
  O2-  O130  1  0.12849173  0.37372814  0.00696766  1
  O2-  O131  1  0.12223098  0.37639082  0.50689199  1
  O2-  O132  1  0.12785357  0.62629601  0.00734286  1
  O2-  O133  1  0.12238918  0.62343801  0.50694321  1
  O2-  O134  1  0.13062911  0.87677073  -0.00421274  1
  O2-  O135  1  0.12133384  0.87402318  0.49731349  1
  O2-  O136  1  0.37208239  0.12192626  -0.00665595  1
  O2-  O137  1  0.37612834  0.12530365  0.50521630  1
  O2-  O138  1  0.37373550  0.37424388  -0.00377978  1
  O2-  O139  1  0.37661816  0.37399329  0.50617977  1
  O2-  O140  1  0.37419438  0.62772570  -0.00559424  1
  O2-  O141  1  0.37536622  0.62597225  0.50596435  1
  O2-  O142  1  0.37448517  0.87636208  -0.00648048  1
  O2-  O143  1  0.37653100  0.87507463  0.50521975  1
  O2-  O144  1  0.62170571  0.12500682  0.00827688  1
  O2-  O145  1  0.62757802  0.12515488  0.50619455  1
  O2-  O146  1  0.62108504  0.37488761  0.00708852  1
  O2-  O147  1  0.62796790  0.37713735  0.50730045  1
  O2-  O148  1  0.61903855  0.62722441  -0.00349054  1
  O2-  O149  1  0.62795456  0.62294352  0.49632195  1
  O2-  O150  1  0.61883408  0.87380369  -0.00190489  1
  O2-  O151  1  0.63105135  0.87487759  0.51607945  1
  O2-  O152  1  0.87803790  0.12198584  -0.00136896  1
  O2-  O153  1  0.87444381  0.12469338  0.51709138  1
  O2-  O154  1  0.87576551  0.37376754  0.00682199  1
  O2-  O155  1  0.87242664  0.37564646  0.49557091  1
  O2-  O156  1  0.87659837  0.62760673  0.01705525  1
  O2-  O157  1  0.87481776  0.62427832  0.50791614  1
  O2-  O158  1  0.87613609  0.87635717  0.00824671  1
  O2-  O159  1  0.87220598  0.87567756  0.51978865  1
  O2-  O160  1  0.12552217  0.00045460  0.16818302  1
  O2-  O161  1  0.12396423  0.00188687  0.65870644  1
  O2-  O162  1  0.12588211  0.25215811  0.16402326  1
  O2-  O163  1  0.12433580  0.24690449  0.66403972  1
  O2-  O164  1  0.12639498  0.50041734  0.16064064  1
  O2-  O165  1  0.12359128  0.50257196  0.66861644  1
  O2-  O166  1  0.12515119  0.74788799  0.16402529  1
  O2-  O167  1  0.12408939  0.74781368  0.66349650  1
  O2-  O168  1  0.37418534  0.00034116  0.16982396  1
  O2-  O169  1  0.37446276  -0.00010940  0.65759054  1
  O2-  O170  1  0.37453349  0.24956553  0.16593165  1
  O2-  O171  1  0.37440851  0.24638919  0.66309163  1
  O2-  O172  1  0.37346582  0.50010061  0.16435300  1
  O2-  O173  1  0.37538467  0.49948955  0.66439293  1
  O2-  O174  1  0.37462185  0.75072027  0.16776168  1
  O2-  O175  1  0.37473667  0.75325961  0.66026977  1
  O2-  O176  1  0.62514326  -0.00053958  0.16587565  1
  O2-  O177  1  0.62559323  -0.00191728  0.66658400  1
  O2-  O178  1  0.62349676  0.25346867  0.16462816  1
  O2-  O179  1  0.62605804  0.24979796  0.66605384  1
  O2-  O180  1  0.62413536  0.49859528  0.16054408  1
  O2-  O181  1  0.62606037  0.50171560  0.66652535  1
  O2-  O182  1  0.62466359  0.74940895  0.16608093  1
  O2-  O183  1  0.62627167  0.74956315  0.66346218  1
  O2-  O184  1  0.87527646  -0.00134769  0.16464844  1
  O2-  O185  1  0.87519419  0.00053763  0.66890429  1
  O2-  O186  1  0.87622798  0.24872333  0.16339671  1
  O2-  O187  1  0.87545069  0.25024678  0.66590199  1
  O2-  O188  1  0.87584483  0.50206834  0.16371477  1
  O2-  O189  1  0.87491501  0.49714384  0.66674584  1
  O2-  O190  1  0.87576031  0.75117508  0.16620456  1
  O2-  O191  1  0.87511740  0.75177940  0.66859808  1
  O2-  O192  1  0.00054455  0.12461757  0.16487378  1
  O2-  O193  1  0.00020466  0.12493712  0.66541707  1
  O2-  O194  1  0.00325150  0.37555531  0.16303038  1
  O2-  O195  1  -0.00295485  0.37505016  0.66723394  1
  O2-  O196  1  0.00148180  0.62539168  0.16605362  1
  O2-  O197  1  0.00183107  0.62482868  0.66727532  1
  O2-  O198  1  -0.00168339  0.87525295  0.16256441  1
  O2-  O199  1  -0.00158996  0.87468476  0.66958537  1
  O2-  O200  1  0.25048370  0.12500902  0.17117342  1
  O2-  O201  1  0.24937060  0.12386808  0.65324061  1
  O2-  O202  1  0.24903472  0.37489862  0.16641120  1
  O2-  O203  1  0.25041973  0.37524215  0.66150027  1
  O2-  O204  1  0.24842882  0.62600446  0.16688845  1
  O2-  O205  1  0.24693493  0.62489074  0.65995952  1
  O2-  O206  1  0.24972332  0.87482774  0.16949168  1
  O2-  O207  1  0.25120989  0.87516471  0.65523358  1
  O2-  O208  1  0.49868368  0.12470745  0.16799003  1
  O2-  O209  1  0.49825842  0.12423465  0.66001149  1
  O2-  O210  1  0.50041248  0.37566984  0.16488996  1
  O2-  O211  1  0.50079393  0.37443597  0.66327341  1
  O2-  O212  1  0.49938406  0.62505217  0.16604995  1
  O2-  O213  1  0.50266051  0.62523662  0.65901970  1
  O2-  O214  1  0.50053253  0.87551498  0.16828218  1
  O2-  O215  1  0.50029216  0.87467229  0.65928337  1
  O2-  O216  1  0.75057582  0.12540207  0.16332295  1
  O2-  O217  1  0.75193694  0.12549151  0.67206426  1
  O2-  O218  1  0.74733757  0.37524636  0.16005519  1
  O2-  O219  1  0.75161167  0.37510089  0.67059846  1
  O2-  O220  1  0.75050214  0.62573932  0.16275524  1
  O2-  O221  1  0.74901606  0.62379009  0.66966556  1
  O2-  O222  1  0.75158295  0.87458374  0.16079229  1
  O2-  O223  1  0.75006560  0.87468286  0.67693785  1
  O2-  O224  1  0.12421062  0.00107032  0.35210498  1
  O2-  O225  1  0.12639237  -0.00070564  0.83997998  1
  O2-  O226  1  0.12485063  0.24756820  0.34883672  1
  O2-  O227  1  0.12634917  0.25139458  0.84689939  1
  O2-  O228  1  0.12393221  0.50277878  0.34512991  1
  O2-  O229  1  0.12556844  0.50007184  0.85438685  1
  O2-  O230  1  0.12444552  0.74883117  0.34828577  1
  O2-  O231  1  0.12538148  0.74888123  0.84727611  1
  O2-  O232  1  0.37439621  0.00004245  0.35334147  1
  O2-  O233  1  0.37376282  -0.00070287  0.83788410  1
  O2-  O234  1  0.37426553  0.24695486  0.34975702  1
  O2-  O235  1  0.37369505  0.25044324  0.84399573  1
  O2-  O236  1  0.37491533  0.49977209  0.34896747  1
  O2-  O237  1  0.37385109  0.49996303  0.84564386  1
  O2-  O238  1  0.37443715  0.75340676  0.35113958  1
  O2-  O239  1  0.37410966  0.74988781  0.84019585  1
  O2-  O240  1  0.62606465  -0.00113974  0.34985990  1
  O2-  O241  1  0.62375581  -0.00202080  0.84710932  1
  O2-  O242  1  0.62588556  0.25103522  0.34793515  1
  O2-  O243  1  0.62325891  0.25273923  0.84950019  1
  O2-  O244  1  0.62565248  0.50102470  0.34251488  1
  O2-  O245  1  0.62446572  0.49908524  0.84973721  1
  O2-  O246  1  0.62604923  0.74929822  0.34936652  1
  O2-  O247  1  0.62437580  0.74981747  0.84338236  1
  O2-  O248  1  0.87562234  0.00085410  0.34978280  1
  O2-  O249  1  0.87600325  -0.00171839  0.84708104  1
  O2-  O250  1  0.87490717  0.25094618  0.34650735  1
  O2-  O251  1  0.87641194  0.24675777  0.84747954  1
  O2-  O252  1  0.87534804  0.49848970  0.34361782  1
  O2-  O253  1  0.87559913  0.50133412  0.85126544  1
  O2-  O254  1  0.87555939  0.75089448  0.34929308  1
  O2-  O255  1  0.87619898  0.75293127  0.85119728  1
  O2-  O256  1  0.00124398  0.12509374  0.34931399  1
  O2-  O257  1  0.00218893  0.12401728  0.84564803  1
  O2-  O258  1  -0.00287534  0.37478548  0.34533253  1
  O2-  O259  1  0.00407480  0.37533712  0.85123729  1
  O2-  O260  1  0.00182716  0.62565506  0.34891879  1
  O2-  O261  1  0.00279905  0.62540244  0.85260991  1
  O2-  O262  1  0.00027321  0.87506857  0.34602723  1
  O2-  O263  1  0.00026527  0.87461525  0.85206122  1
  O2-  O264  1  0.24931435  0.12401555  0.35502554  1
  O2-  O265  1  0.24981470  0.12496667  0.83421643  1
  O2-  O266  1  0.24965227  0.37545184  0.35067581  1
  O2-  O267  1  0.24917543  0.37572008  0.84299062  1
  O2-  O268  1  0.24681609  0.62524362  0.35198957  1
  O2-  O269  1  0.24911807  0.62510319  0.84210379  1
  O2-  O270  1  0.25033314  0.87544949  0.35261074  1
  O2-  O271  1  0.25039015  0.87406060  0.83673100  1
  O2-  O272  1  0.49805401  0.12453698  0.35130410  1
  O2-  O273  1  0.49669096  0.12505229  0.84212586  1
  O2-  O274  1  0.50142089  0.37468681  0.34921236  1
  O2-  O275  1  0.50007413  0.37516098  0.84489628  1
  O2-  O276  1  0.50230850  0.62551936  0.34908536  1
  O2-  O277  1  0.49875046  0.62452544  0.83953045  1
  O2-  O278  1  0.49897463  0.87559640  0.35235043  1
  O2-  O279  1  0.49895442  0.87481903  0.83879230  1
  O2-  O280  1  0.75131542  0.12512815  0.34658774  1
  O2-  O281  1  0.75122129  0.12407622  0.85344245  1
  O2-  O282  1  0.75136170  0.37495361  0.34197105  1
  O2-  O283  1  0.74653232  0.37474804  0.85458643  1
  O2-  O284  1  0.74940955  0.62552379  0.34432310  1
  O2-  O285  1  0.74889505  0.62545317  0.85296606  1
  O2-  O286  1  0.75102734  0.87512293  0.34568452  1
  O2-  O287  1  0.75024793  0.87516313  0.85757634  1
