# generated using pymatgen
data_BaYFeCuO5
_symmetry_space_group_name_H-M   'P 1'
_cell_length_a   15.67927241
_cell_length_b   15.68360592
_cell_length_c   15.52627554
_cell_angle_alpha   90.01189822
_cell_angle_beta   89.99068952
_cell_angle_gamma   89.99666906
_symmetry_Int_Tables_number   1
_chemical_formula_structural   BaYFeCuO5
_chemical_formula_sum   'Ba32 Y32 Fe32 Cu32 O160'
_cell_volume   3818.02792232
_cell_formula_units_Z   32
loop_
 _symmetry_equiv_pos_site_id
 _symmetry_equiv_pos_as_xyz
  1  'x, y, z'
loop_
 _atom_type_symbol
 _atom_type_oxidation_number
  Ba2+  2.0
  Y3+  3.0
  Fe3+  3.0
  Cu2+  2.0
  O2-  -2.0
loop_
 _atom_site_type_symbol
 _atom_site_label
 _atom_site_symmetry_multiplicity
 _atom_site_fract_x
 _atom_site_fract_y
 _atom_site_fract_z
 _atom_site_occupancy
  Ba2+  Ba0  1  -0.00646693  -0.00429985  0.01600273  1
  Ba2+  Ba1  1  -0.00716895  -0.00111843  0.50649855  1
  Ba2+  Ba2  1  -0.00431243  0.25388142  0.01182254  1
  Ba2+  Ba3  1  -0.00678838  0.24198044  0.50710068  1
  Ba2+  Ba4  1  -0.00492841  0.49617879  0.00083472  1
  Ba2+  Ba5  1  -0.00344712  0.50521202  0.50162223  1
  Ba2+  Ba6  1  -0.00680197  0.75542027  0.00666846  1
  Ba2+  Ba7  1  -0.00287544  0.75514027  0.49978170  1
  Ba2+  Ba8  1  0.25578082  -0.00179807  0.01137775  1
  Ba2+  Ba9  1  0.24360438  0.00259867  0.50177177  1
  Ba2+  Ba10  1  0.25598008  0.25436816  0.02394934  1
  Ba2+  Ba11  1  0.25626490  0.24833504  0.50553553  1
  Ba2+  Ba12  1  0.25608149  0.49540554  0.02383871  1
  Ba2+  Ba13  1  0.25552034  0.50138783  0.50767090  1
  Ba2+  Ba14  1  0.25564184  0.75238828  0.01112847  1
  Ba2+  Ba15  1  0.24317591  0.74711100  0.50008724  1
  Ba2+  Ba16  1  0.50452176  -0.00135672  0.01089628  1
  Ba2+  Ba17  1  0.50648242  0.00369219  0.51247802  1
  Ba2+  Ba18  1  0.50126003  0.25050318  0.02739793  1
  Ba2+  Ba19  1  0.49993652  0.25176580  0.51032315  1
  Ba2+  Ba20  1  0.50124979  0.49910460  0.02717213  1
  Ba2+  Ba21  1  0.49546058  0.49393219  0.51363227  1
  Ba2+  Ba22  1  0.50461968  0.75168342  0.01129656  1
  Ba2+  Ba23  1  0.50058220  0.75008293  0.51691511  1
  Ba2+  Ba24  1  0.74853407  -0.00334967  0.01616933  1
  Ba2+  Ba25  1  0.75474917  -0.00008172  0.51785487  1
  Ba2+  Ba26  1  0.74699987  0.24930576  0.01789977  1
  Ba2+  Ba27  1  0.75171880  0.24524066  0.51213677  1
  Ba2+  Ba28  1  0.74778632  0.49960023  0.00564425  1
  Ba2+  Ba29  1  0.75397183  0.49591076  0.51234565  1
  Ba2+  Ba30  1  0.74858763  0.75595356  0.00564286  1
  Ba2+  Ba31  1  0.75708332  0.75684531  0.51897510  1
  Y3+  Y32  1  -0.00400988  -0.00212695  0.25780609  1
  Y3+  Y33  1  -0.00315652  0.00014119  0.75699341  1
  Y3+  Y34  1  -0.00281483  0.24882224  0.25871633  1
  Y3+  Y35  1  -0.00080193  0.24747913  0.75632549  1
  Y3+  Y36  1  0.00058421  0.49999745  0.25799087  1
  Y3+  Y37  1  -0.00229154  0.50076762  0.75950375  1
  Y3+  Y38  1  -0.00053158  0.75418302  0.25658614  1
  Y3+  Y39  1  -0.00473609  0.75117019  0.76006057  1
  Y3+  Y40  1  0.24937028  0.00044135  0.25657008  1
  Y3+  Y41  1  0.25008146  0.00037011  0.75838869  1
  Y3+  Y42  1  0.25240453  0.25080744  0.26039418  1
  Y3+  Y43  1  0.25058533  0.25021457  0.75307985  1
  Y3+  Y44  1  0.25042272  0.49916207  0.26067169  1
  Y3+  Y45  1  0.25198982  0.49963157  0.75313918  1
  Y3+  Y46  1  0.24725441  0.75032662  0.25699524  1
  Y3+  Y47  1  0.25162297  0.74966929  0.75808886  1
  Y3+  Y48  1  0.50156438  0.00147602  0.25564896  1
  Y3+  Y49  1  0.50291364  -0.00173124  0.75802865  1
  Y3+  Y50  1  0.49858885  0.24948800  0.26101834  1
  Y3+  Y51  1  0.50132270  0.25084850  0.75008663  1
  Y3+  Y52  1  0.49952363  0.49932055  0.25988820  1
  Y3+  Y53  1  0.49926512  0.49853078  0.75015403  1
  Y3+  Y54  1  0.50213553  0.74965907  0.25496992  1
  Y3+  Y55  1  0.50118896  0.75248095  0.75872821  1
  Y3+  Y56  1  0.75235461  -0.00078062  0.25606167  1
  Y3+  Y57  1  0.75053116  -0.00220661  0.75779041  1
  Y3+  Y58  1  0.75124284  0.24734351  0.25892579  1
  Y3+  Y59  1  0.74974345  0.24831013  0.75371575  1
  Y3+  Y60  1  0.74864256  0.49988110  0.25729018  1
  Y3+  Y61  1  0.75184852  0.49986205  0.75720828  1
  Y3+  Y62  1  0.75022212  0.75389342  0.25371045  1
  Y3+  Y63  1  0.75216301  0.75327833  0.76049596  1
  Fe3+  Fe64  1  0.62394362  0.62369324  0.87426499  1
  Fe3+  Fe65  1  0.87379622  0.12553635  0.87828804  1
  Fe3+  Fe66  1  0.87341192  0.62640934  0.37608729  1
  Fe3+  Fe67  1  0.12373668  0.37470787  0.37989801  1
  Fe3+  Fe68  1  0.62354064  0.37409580  0.87405529  1
  Fe3+  Fe69  1  0.62606142  0.37487679  0.37754075  1
  Fe3+  Fe70  1  0.37648065  0.62299697  0.87635102  1
  Fe3+  Fe71  1  0.62435792  0.12620197  0.87570412  1
  Fe3+  Fe72  1  0.37640244  0.12697614  0.87712090  1
  Fe3+  Fe73  1  0.62593731  0.12385928  0.37630133  1
  Fe3+  Fe74  1  0.12554381  0.87560430  0.88004073  1
  Fe3+  Fe75  1  0.12689045  0.37436596  0.87709906  1
  Fe3+  Fe76  1  0.62592689  0.87474190  0.37772655  1
  Fe3+  Fe77  1  0.37560008  0.87568014  0.37999025  1
  Fe3+  Fe78  1  0.12585402  0.12587325  0.88123133  1
  Fe3+  Fe79  1  0.37669957  0.37446529  0.87394249  1
  Fe3+  Fe80  1  0.37573412  0.62646839  0.37659220  1
  Fe3+  Fe81  1  0.12588152  0.62418676  0.88171347  1
  Fe3+  Fe82  1  0.62612573  0.62620446  0.38033198  1
  Fe3+  Fe83  1  0.12370620  0.12469030  0.37507872  1
  Fe3+  Fe84  1  0.37481900  0.12306966  0.63583541  1
  Fe3+  Fe85  1  0.12439882  0.12528123  0.13527343  1
  Fe3+  Fe86  1  0.62654885  0.62496887  0.63405971  1
  Fe3+  Fe87  1  0.37389437  0.87501627  0.63471651  1
  Fe3+  Fe88  1  0.12388104  0.37425721  0.63322395  1
  Fe3+  Fe89  1  0.87415785  0.37578979  0.14020416  1
  Fe3+  Fe90  1  0.37570441  0.87485007  0.14015076  1
  Fe3+  Fe91  1  0.87666187  0.37477453  0.63829401  1
  Fe3+  Fe92  1  0.12338979  0.62608438  0.63863478  1
  Fe3+  Fe93  1  0.12394047  0.87504489  0.63923820  1
  Fe3+  Fe94  1  0.87423036  0.62510511  0.13649366  1
  Fe3+  Fe95  1  0.12411267  0.62481522  0.13524200  1
  Cu2+  Cu96  1  0.87393140  0.37304177  0.86178095  1
  Cu2+  Cu97  1  0.87412081  0.62495289  0.86806585  1
  Cu2+  Cu98  1  0.12390959  0.62543319  0.36212225  1
  Cu2+  Cu99  1  0.87378972  0.12376778  0.37162697  1
  Cu2+  Cu100  1  0.87461546  0.87696243  0.87285243  1
  Cu2+  Cu101  1  0.37521896  0.87530092  0.86273752  1
  Cu2+  Cu102  1  0.87321316  0.87516505  0.37045754  1
  Cu2+  Cu103  1  0.37563479  0.12342739  0.36477022  1
  Cu2+  Cu104  1  0.62504388  0.87580178  0.87212454  1
  Cu2+  Cu105  1  0.37546153  0.37521233  0.37299529  1
  Cu2+  Cu106  1  0.87447831  0.37518567  0.36418974  1
  Cu2+  Cu107  1  0.12439441  0.87594128  0.36124376  1
  Cu2+  Cu108  1  0.37512235  0.62544348  0.15390502  1
  Cu2+  Cu109  1  0.62472243  0.87524043  0.14239402  1
  Cu2+  Cu110  1  0.12481624  0.12404700  0.65080960  1
  Cu2+  Cu111  1  0.37503625  0.12462097  0.15349402  1
  Cu2+  Cu112  1  0.62584481  0.62503121  0.15251175  1
  Cu2+  Cu113  1  0.37465957  0.62646539  0.64772506  1
  Cu2+  Cu114  1  0.62533465  0.12413521  0.64939549  1
  Cu2+  Cu115  1  0.62547004  0.87443780  0.65106225  1
  Cu2+  Cu116  1  0.12517159  0.87528594  0.14782042  1
  Cu2+  Cu117  1  0.62659912  0.37510299  0.64568504  1
  Cu2+  Cu118  1  0.37565301  0.37517566  0.15943163  1
  Cu2+  Cu119  1  0.87452667  0.87472962  0.14298612  1
  Cu2+  Cu120  1  0.37386062  0.37419204  0.63849914  1
  Cu2+  Cu121  1  0.62534029  0.12502542  0.15300005  1
  Cu2+  Cu122  1  0.87496911  0.12513769  0.14928317  1
  Cu2+  Cu123  1  0.87538918  0.12404818  0.64367108  1
  Cu2+  Cu124  1  0.87574397  0.62555844  0.65306558  1
  Cu2+  Cu125  1  0.87619949  0.87517497  0.64540346  1
  Cu2+  Cu126  1  0.12412993  0.37498946  0.15403254  1
  Cu2+  Cu127  1  0.62556451  0.37466019  0.15688206  1
  O2-  O128  1  0.12631141  0.12759410  0.00656174  1
  O2-  O129  1  0.12426898  0.12451006  0.49510619  1
  O2-  O130  1  0.12911319  0.37447984  -0.00335829  1
  O2-  O131  1  0.12309393  0.37491541  0.50676344  1
  O2-  O132  1  0.12636140  0.62260767  0.00793321  1
  O2-  O133  1  0.12262173  0.62712914  0.51869672  1
  O2-  O134  1  0.12812207  0.87581897  0.00013085  1
  O2-  O135  1  0.12427701  0.87406937  0.51936396  1
  O2-  O136  1  0.37653395  0.12882099  -0.00328475  1
  O2-  O137  1  0.37359787  0.12082409  0.51571688  1
  O2-  O138  1  0.37696345  0.37501337  -0.00628549  1
  O2-  O139  1  0.37365196  0.37497835  0.50534210  1
  O2-  O140  1  0.37695862  0.62131190  -0.00427767  1
  O2-  O141  1  0.37440719  0.62773099  0.49667401  1
  O2-  O142  1  0.37570967  0.87476857  0.01940715  1
  O2-  O143  1  0.37415702  0.87503317  0.50750713  1
  O2-  O144  1  0.62284680  0.12839168  -0.00445728  1
  O2-  O145  1  0.62620402  0.12413368  0.49628738  1
  O2-  O146  1  0.62206038  0.37472016  -0.00624010  1
  O2-  O147  1  0.62631922  0.37519279  0.49734923  1
  O2-  O148  1  0.62207276  0.62152075  -0.00588903  1
  O2-  O149  1  0.62676591  0.62624253  0.50525838  1
  O2-  O150  1  0.62339053  0.87519097  0.00700629  1
  O2-  O151  1  0.62568404  0.87393636  0.49739447  1
  O2-  O152  1  0.87405949  0.12748649  -0.00165905  1
  O2-  O153  1  0.87442372  0.12371534  0.50677801  1
  O2-  O154  1  0.87387153  0.37569012  0.01988062  1
  O2-  O155  1  0.87779168  0.37602905  0.51820770  1
  O2-  O156  1  0.87444420  0.62262801  0.01627689  1
  O2-  O157  1  0.87447547  0.62643247  0.49630114  1
  O2-  O158  1  0.87397171  0.87571134  0.00781852  1
  O2-  O159  1  0.87535835  0.87506813  0.50746878  1
  O2-  O160  1  0.12581199  0.00227533  0.16102240  1
  O2-  O161  1  0.12610336  -0.00077717  0.66893193  1
  O2-  O162  1  0.12501681  0.24868805  0.16427919  1
  O2-  O163  1  0.12417738  0.25048052  0.66097303  1
  O2-  O164  1  0.12568280  0.50149263  0.16672979  1
  O2-  O165  1  0.12487031  0.49919219  0.66434980  1
  O2-  O166  1  0.12505455  0.74797539  0.16336556  1
  O2-  O167  1  0.12493323  0.75030678  0.67325073  1
  O2-  O168  1  0.37424625  -0.00023885  0.16630676  1
  O2-  O169  1  0.37453062  -0.00209619  0.66688516  1
  O2-  O170  1  0.37451674  0.25009314  0.16681234  1
  O2-  O171  1  0.37471893  0.24746401  0.66088615  1
  O2-  O172  1  0.37474943  0.50047033  0.16648700  1
  O2-  O173  1  0.37320881  0.50142385  0.65966261  1
  O2-  O174  1  0.37451483  0.74993107  0.16672683  1
  O2-  O175  1  0.37544545  0.75229282  0.66516904  1
  O2-  O176  1  0.62423313  0.00176976  0.16393799  1
  O2-  O177  1  0.62531925  -0.00114151  0.66479716  1
  O2-  O178  1  0.62482615  0.24979684  0.16536411  1
  O2-  O179  1  0.62511611  0.24987846  0.65936383  1
  O2-  O180  1  0.62479666  0.49975214  0.16740432  1
  O2-  O181  1  0.62625108  0.50191816  0.65910074  1
  O2-  O182  1  0.62447291  0.74881208  0.16529284  1
  O2-  O183  1  0.62477913  0.74787700  0.66421099  1
  O2-  O184  1  0.87504302  0.00118812  0.16420486  1
  O2-  O185  1  0.87509017  -0.00007764  0.66610784  1
  O2-  O186  1  0.87535238  0.25064580  0.16704527  1
  O2-  O187  1  0.87659191  0.25077246  0.66401425  1
  O2-  O188  1  0.87472659  0.50073428  0.17011762  1
  O2-  O189  1  0.87601080  0.49968567  0.66673513  1
  O2-  O190  1  0.87558031  0.74796723  0.16559442  1
  O2-  O191  1  0.87547151  0.74922234  0.66814001  1
  O2-  O192  1  0.00148041  0.12551621  0.16213038  1
  O2-  O193  1  0.00145503  0.12414330  0.66871992  1
  O2-  O194  1  -0.00112552  0.37540945  0.16810501  1
  O2-  O195  1  0.00198919  0.37520622  0.66991620  1
  O2-  O196  1  0.00094052  0.62396646  0.16430152  1
  O2-  O197  1  0.00048039  0.62481798  0.67271805  1
  O2-  O198  1  0.00083416  0.87536329  0.16477552  1
  O2-  O199  1  0.00141387  0.87518295  0.67060295  1
  O2-  O200  1  0.24841771  0.12554868  0.16390132  1
  O2-  O201  1  0.25075996  0.12423325  0.66709331  1
  O2-  O202  1  0.25004722  0.37532680  0.16700249  1
  O2-  O203  1  0.24610359  0.37454324  0.66123292  1
  O2-  O204  1  0.24783038  0.62487450  0.16379934  1
  O2-  O205  1  0.24893850  0.62597721  0.66666851  1
  O2-  O206  1  0.25100800  0.87475431  0.16921240  1
  O2-  O207  1  0.25087535  0.87442998  0.66613919  1
  O2-  O208  1  0.49980722  0.12519148  0.16609449  1
  O2-  O209  1  0.49988307  0.12337286  0.66127163  1
  O2-  O210  1  0.50064608  0.37536827  0.16675078  1
  O2-  O211  1  0.50142078  0.37572973  0.65749744  1
  O2-  O212  1  0.50084610  0.62496599  0.16653860  1
  O2-  O213  1  0.50153091  0.62445606  0.65662365  1
  O2-  O214  1  0.49853478  0.87477066  0.16928450  1
  O2-  O215  1  0.49849143  0.87482289  0.66086723  1
  O2-  O216  1  0.75007672  0.12569525  0.16320267  1
  O2-  O217  1  0.74850246  0.12501195  0.66388644  1
  O2-  O218  1  0.75005009  0.37487282  0.16668923  1
  O2-  O219  1  0.75168326  0.37513861  0.66503138  1
  O2-  O220  1  0.75022634  0.62445962  0.16547413  1
  O2-  O221  1  0.74970426  0.62496010  0.66152563  1
  O2-  O222  1  0.74969594  0.87507515  0.16328849  1
  O2-  O223  1  0.74956385  0.87422048  0.66562880  1
  O2-  O224  1  0.12555071  0.00044416  0.34476618  1
  O2-  O225  1  0.12642400  0.00222512  0.85109232  1
  O2-  O226  1  0.12438951  0.25123854  0.34800545  1
  O2-  O227  1  0.12594322  0.24893910  0.84450444  1
  O2-  O228  1  0.12403664  0.49819114  0.35157947  1
  O2-  O229  1  0.12444426  0.50069983  0.84718686  1
  O2-  O230  1  0.12460930  0.75127006  0.34830622  1
  O2-  O231  1  0.12662483  0.74803786  0.85430831  1
  O2-  O232  1  0.37432685  -0.00283364  0.34908786  1
  O2-  O233  1  0.37459528  0.00117829  0.84918038  1
  O2-  O234  1  0.37463036  0.24832661  0.35087751  1
  O2-  O235  1  0.37423804  0.25048970  0.83967608  1
  O2-  O236  1  0.37460179  0.50297571  0.34876792  1
  O2-  O237  1  0.37534229  0.49910542  0.83975268  1
  O2-  O238  1  0.37394101  0.75169506  0.34822339  1
  O2-  O239  1  0.37462174  0.74891695  0.84849906  1
  O2-  O240  1  0.62399270  -0.00075696  0.34523471  1
  O2-  O241  1  0.62393344  0.00220761  0.84760157  1
  O2-  O242  1  0.62518685  0.24968623  0.34739666  1
  O2-  O243  1  0.62481270  0.25023189  0.84001449  1
  O2-  O244  1  0.62522137  0.50203008  0.35026561  1
  O2-  O245  1  0.62492061  0.49904239  0.84004794  1
  O2-  O246  1  0.62477011  0.74896317  0.34706106  1
  O2-  O247  1  0.62468450  0.74835355  0.84781418  1
  O2-  O248  1  0.87487437  -0.00105150  0.34727433  1
  O2-  O249  1  0.87593104  0.00306514  0.84735594  1
  O2-  O250  1  0.87502022  0.25129189  0.34981413  1
  O2-  O251  1  0.87549024  0.24851504  0.84479482  1
  O2-  O252  1  0.87524408  0.50113493  0.34992075  1
  O2-  O253  1  0.87531100  0.49841464  0.84995446  1
  O2-  O254  1  0.87511561  0.74905301  0.34606821  1
  O2-  O255  1  0.87474922  0.75001574  0.85171839  1
  O2-  O256  1  0.00060272  0.12497513  0.34524113  1
  O2-  O257  1  0.00197429  0.12619838  0.85157964  1
  O2-  O258  1  0.00083115  0.37532321  0.35092615  1
  O2-  O259  1  0.00070368  0.37426886  0.85229696  1
  O2-  O260  1  -0.00069081  0.62514423  0.34691201  1
  O2-  O261  1  0.00165237  0.62437179  0.85554517  1
  O2-  O262  1  0.00041606  0.87515701  0.34866283  1
  O2-  O263  1  0.00258383  0.87499626  0.85112444  1
  O2-  O264  1  0.24940595  0.12475645  0.34731638  1
  O2-  O265  1  0.24939089  0.12539986  0.84858046  1
  O2-  O266  1  0.24661162  0.37513696  0.35129524  1
  O2-  O267  1  0.25069753  0.37540565  0.84117934  1
  O2-  O268  1  0.24958412  0.62592875  0.34822141  1
  O2-  O269  1  0.24964645  0.62378367  0.84799075  1
  O2-  O270  1  0.25116397  0.87489499  0.35289048  1
  O2-  O271  1  0.24932772  0.87505846  0.84724354  1
  O2-  O272  1  0.50077186  0.12427873  0.34891942  1
  O2-  O273  1  0.49975871  0.12557167  0.84125614  1
  O2-  O274  1  0.50244984  0.37561742  0.34881140  1
  O2-  O275  1  0.49962279  0.37463277  0.83739957  1
  O2-  O276  1  0.50192786  0.62605794  0.34945765  1
  O2-  O277  1  0.49961697  0.62487344  0.83844986  1
  O2-  O278  1  0.49940143  0.87413332  0.35047862  1
  O2-  O279  1  0.49841356  0.87465778  0.84532436  1
  O2-  O280  1  0.74824636  0.12453811  0.34542715  1
  O2-  O281  1  0.74946280  0.12563309  0.84535234  1
  O2-  O282  1  0.74953889  0.37599537  0.34773455  1
  O2-  O283  1  0.74931290  0.37507725  0.84711022  1
  O2-  O284  1  0.74823805  0.62506239  0.34683924  1
  O2-  O285  1  0.74925146  0.62381876  0.84573823  1
  O2-  O286  1  0.74758006  0.87454410  0.34444812  1
  O2-  O287  1  0.75031801  0.87561351  0.84881976  1
