# generated using pymatgen
data_BaYFeCuO5
_symmetry_space_group_name_H-M   'P 1'
_cell_length_a   15.67419434
_cell_length_b   15.67188662
_cell_length_c   15.49244186
_cell_angle_alpha   89.99978193
_cell_angle_beta   89.99524840
_cell_angle_gamma   90.00718792
_symmetry_Int_Tables_number   1
_chemical_formula_structural   BaYFeCuO5
_chemical_formula_sum   'Ba32 Y32 Fe32 Cu32 O160'
_cell_volume   3805.62839229
_cell_formula_units_Z   32
loop_
 _symmetry_equiv_pos_site_id
 _symmetry_equiv_pos_as_xyz
  1  'x, y, z'
loop_
 _atom_type_symbol
 _atom_type_oxidation_number
  Ba2+  2.0
  Y3+  3.0
  Fe3+  3.0
  Cu2+  2.0
  O2-  -2.0
loop_
 _atom_site_type_symbol
 _atom_site_label
 _atom_site_symmetry_multiplicity
 _atom_site_fract_x
 _atom_site_fract_y
 _atom_site_fract_z
 _atom_site_occupancy
  Ba2+  Ba0  1  -0.00363178  0.00270951  0.00309585  1
  Ba2+  Ba1  1  -0.00026890  0.00400946  0.51591750  1
  Ba2+  Ba2  1  -0.00633998  0.25335738  -0.00493263  1
  Ba2+  Ba3  1  0.00096966  0.24709436  0.51021319  1
  Ba2+  Ba4  1  0.00364602  0.50174054  0.00110802  1
  Ba2+  Ba5  1  0.00018877  0.49788462  0.52046618  1
  Ba2+  Ba6  1  0.00605872  0.74364203  0.00702271  1
  Ba2+  Ba7  1  -0.00095643  0.75072682  0.52586365  1
  Ba2+  Ba8  1  0.24975966  -0.00966293  -0.00407816  1
  Ba2+  Ba9  1  0.24745912  0.00108884  0.52096102  1
  Ba2+  Ba10  1  0.24427775  0.25494048  0.00157804  1
  Ba2+  Ba11  1  0.24029465  0.24610528  0.51031373  1
  Ba2+  Ba12  1  0.24240867  0.50725996  0.00732009  1
  Ba2+  Ba13  1  0.24305432  0.50264016  0.51614235  1
  Ba2+  Ba14  1  0.24707215  0.74692238  0.00184477  1
  Ba2+  Ba15  1  0.25049358  0.75085965  0.52571322  1
  Ba2+  Ba16  1  0.50697568  -0.00668031  0.00712539  1
  Ba2+  Ba17  1  0.49989924  -0.00083577  0.51801483  1
  Ba2+  Ba18  1  0.50521914  0.24447401  0.01135682  1
  Ba2+  Ba19  1  0.50513021  0.24530522  0.52274798  1
  Ba2+  Ba20  1  0.49481905  0.50533069  0.01214396  1
  Ba2+  Ba21  1  0.50639941  0.50728892  0.51580892  1
  Ba2+  Ba22  1  0.49722249  0.75708863  0.00573430  1
  Ba2+  Ba23  1  0.50274179  0.74841893  0.51114927  1
  Ba2+  Ba24  1  0.74684024  0.00398176  0.01363586  1
  Ba2+  Ba25  1  0.75337358  0.00209065  0.51103521  1
  Ba2+  Ba26  1  0.75756136  0.24349795  0.00756983  1
  Ba2+  Ba27  1  0.75320722  0.24784114  0.52097957  1
  Ba2+  Ba28  1  0.76022313  0.49934153  0.00725612  1
  Ba2+  Ba29  1  0.74934854  0.50226541  0.52128336  1
  Ba2+  Ba30  1  0.74815884  0.75323470  0.01167285  1
  Ba2+  Ba31  1  0.74801123  0.74801146  0.51077537  1
  Y3+  Y32  1  -0.00190573  0.00358268  0.26008496  1
  Y3+  Y33  1  -0.00113540  0.00130924  0.75587584  1
  Y3+  Y34  1  -0.00017685  0.24786099  0.26292329  1
  Y3+  Y35  1  -0.00158558  0.25052044  0.75383812  1
  Y3+  Y36  1  0.00139848  0.50067622  0.25736978  1
  Y3+  Y37  1  0.00146341  0.49842200  0.75725555  1
  Y3+  Y38  1  -0.00009329  0.74789228  0.25322560  1
  Y3+  Y39  1  0.00191114  0.75001417  0.75933184  1
  Y3+  Y40  1  0.24832327  0.00083018  0.25943657  1
  Y3+  Y41  1  0.24920833  -0.00182095  0.75534476  1
  Y3+  Y42  1  0.24633010  0.25017197  0.26180876  1
  Y3+  Y43  1  0.24684138  0.25011707  0.75357221  1
  Y3+  Y44  1  0.24787385  0.50088043  0.25731500  1
  Y3+  Y45  1  0.24623015  0.50095056  0.75656778  1
  Y3+  Y46  1  0.24963281  0.74756607  0.25364342  1
  Y3+  Y47  1  0.24856015  0.75112502  0.75928930  1
  Y3+  Y48  1  0.50310984  -0.00225966  0.25548675  1
  Y3+  Y49  1  0.49985567  -0.00225597  0.75918556  1
  Y3+  Y50  1  0.50042879  0.24919425  0.25552439  1
  Y3+  Y51  1  0.50116274  0.24901078  0.75698967  1
  Y3+  Y52  1  0.49995241  0.50252896  0.25849029  1
  Y3+  Y53  1  0.50130845  0.50179516  0.75457686  1
  Y3+  Y54  1  0.50231545  0.75027115  0.25736586  1
  Y3+  Y55  1  0.49979436  0.75162538  0.75710918  1
  Y3+  Y56  1  0.75009225  0.00089714  0.25568726  1
  Y3+  Y57  1  0.75236581  0.00107592  0.75872698  1
  Y3+  Y58  1  0.75280318  0.24618613  0.25673425  1
  Y3+  Y59  1  0.75385682  0.24920582  0.75726058  1
  Y3+  Y60  1  0.75061480  0.50211367  0.25801517  1
  Y3+  Y61  1  0.75132200  0.49973367  0.75511351  1
  Y3+  Y62  1  0.74768119  0.75060813  0.25724663  1
  Y3+  Y63  1  0.75004590  0.75048943  0.75687851  1
  Fe3+  Fe64  1  0.12463814  0.87384066  0.37818134  1
  Fe3+  Fe65  1  0.12432024  0.12513244  0.87824289  1
  Fe3+  Fe66  1  0.87551509  0.87425685  0.37662891  1
  Fe3+  Fe67  1  0.62568890  0.37542009  0.87952151  1
  Fe3+  Fe68  1  0.62561294  0.37459117  0.37667142  1
  Fe3+  Fe69  1  0.12415674  0.62670481  0.37785714  1
  Fe3+  Fe70  1  0.37490978  0.12463955  0.87911862  1
  Fe3+  Fe71  1  0.37587173  0.12434983  0.37735425  1
  Fe3+  Fe72  1  0.62517996  0.62527200  0.87926091  1
  Fe3+  Fe73  1  0.37487020  0.62504464  0.87480141  1
  Fe3+  Fe74  1  0.62507128  0.12464699  0.37583420  1
  Fe3+  Fe75  1  0.37456309  0.87484288  0.37819544  1
  Fe3+  Fe76  1  0.87435489  0.37544320  0.37898827  1
  Fe3+  Fe77  1  0.37491198  0.37536509  0.87872972  1
  Fe3+  Fe78  1  0.37521246  0.37481921  0.38071466  1
  Fe3+  Fe79  1  0.87520238  0.62517052  0.87579155  1
  Fe3+  Fe80  1  0.87490581  0.87516469  0.87933153  1
  Fe3+  Fe81  1  0.37423133  0.62580639  0.37733923  1
  Fe3+  Fe82  1  0.87545629  0.62548337  0.37721156  1
  Fe3+  Fe83  1  0.62606739  0.12466037  0.87569717  1
  Fe3+  Fe84  1  0.37351332  0.12413722  0.13250239  1
  Fe3+  Fe85  1  0.62502286  0.62486879  0.13387629  1
  Fe3+  Fe86  1  0.12368407  0.37409525  0.13824750  1
  Fe3+  Fe87  1  0.62613679  0.37466416  0.13287583  1
  Fe3+  Fe88  1  0.12444287  0.12541572  0.13424685  1
  Fe3+  Fe89  1  0.12464602  0.87574928  0.13565471  1
  Fe3+  Fe90  1  0.37395584  0.87470023  0.13709051  1
  Fe3+  Fe91  1  0.37475814  0.37526550  0.63505965  1
  Fe3+  Fe92  1  0.87657506  0.37473730  0.13818945  1
  Fe3+  Fe93  1  0.37384051  0.37499954  0.13372390  1
  Fe3+  Fe94  1  0.87571840  0.87498545  0.13435437  1
  Fe3+  Fe95  1  0.62630492  0.87565980  0.63956447  1
  Cu2+  Cu96  1  0.12421129  0.37614731  0.37529489  1
  Cu2+  Cu97  1  0.62653971  0.87483215  0.87275207  1
  Cu2+  Cu98  1  0.37496636  0.87494548  0.86206418  1
  Cu2+  Cu99  1  0.87478309  0.37573715  0.86110961  1
  Cu2+  Cu100  1  0.87509829  0.12478363  0.87161713  1
  Cu2+  Cu101  1  0.62565429  0.62490452  0.37178706  1
  Cu2+  Cu102  1  0.12484425  0.62484446  0.86933443  1
  Cu2+  Cu103  1  0.12358690  0.87567657  0.86375807  1
  Cu2+  Cu104  1  0.87415738  0.12453291  0.37361437  1
  Cu2+  Cu105  1  0.12466830  0.12337330  0.37351584  1
  Cu2+  Cu106  1  0.12513831  0.37444371  0.86176182  1
  Cu2+  Cu107  1  0.62528093  0.87534271  0.36357664  1
  Cu2+  Cu108  1  0.87530206  0.12461975  0.64333133  1
  Cu2+  Cu109  1  0.87495311  0.62452981  0.14730225  1
  Cu2+  Cu110  1  0.87499129  0.37517495  0.65003288  1
  Cu2+  Cu111  1  0.37490900  0.12522659  0.65373135  1
  Cu2+  Cu112  1  0.12418867  0.12478315  0.64526833  1
  Cu2+  Cu113  1  0.87702619  0.12542077  0.14166816  1
  Cu2+  Cu114  1  0.12471175  0.62427427  0.14123795  1
  Cu2+  Cu115  1  0.62526058  0.37454196  0.65352186  1
  Cu2+  Cu116  1  0.12454402  0.62555124  0.65398034  1
  Cu2+  Cu117  1  0.37498731  0.62502136  0.65239370  1
  Cu2+  Cu118  1  0.37541022  0.87487801  0.65237257  1
  Cu2+  Cu119  1  0.12426951  0.87520504  0.65374954  1
  Cu2+  Cu120  1  0.12440219  0.37456312  0.64260476  1
  Cu2+  Cu121  1  0.87476785  0.87493951  0.65326758  1
  Cu2+  Cu122  1  0.37495719  0.62493246  0.14918637  1
  Cu2+  Cu123  1  0.62530162  0.87474811  0.14143389  1
  Cu2+  Cu124  1  0.87523896  0.62557550  0.65315001  1
  Cu2+  Cu125  1  0.62482045  0.12540776  0.14924082  1
  Cu2+  Cu126  1  0.62585931  0.12388972  0.65573820  1
  Cu2+  Cu127  1  0.62551874  0.62666222  0.64514595  1
  O2-  O128  1  0.12510809  0.12587829  0.00684571  1
  O2-  O129  1  0.12542728  0.12310278  0.50894983  1
  O2-  O130  1  0.12416481  0.37380814  0.01788966  1
  O2-  O131  1  0.12536650  0.37607113  0.50846615  1
  O2-  O132  1  0.12518286  0.62475128  0.00545266  1
  O2-  O133  1  0.12446249  0.62783311  0.49781532  1
  O2-  O134  1  0.12531499  0.87582140  0.01564076  1
  O2-  O135  1  0.12511354  0.87304038  0.49813333  1
  O2-  O136  1  0.37404488  0.12440508  0.00593498  1
  O2-  O137  1  0.37700546  0.12527630  0.49699443  1
  O2-  O138  1  0.37403061  0.37551679  0.00613359  1
  O2-  O139  1  0.37675141  0.37404459  0.50638294  1
  O2-  O140  1  0.37461643  0.62393651  -0.00481505  1
  O2-  O141  1  0.37457216  0.62562029  0.49707123  1
  O2-  O142  1  0.37398181  0.87577727  0.01654143  1
  O2-  O143  1  0.37466803  0.87525061  0.49822909  1
  O2-  O144  1  0.62492091  0.12582104  -0.00352672  1
  O2-  O145  1  0.62368044  0.12504701  0.49573735  1
  O2-  O146  1  0.62531034  0.37521036  0.00590769  1
  O2-  O147  1  0.62418461  0.37467750  0.49648564  1
  O2-  O148  1  0.62455380  0.62421951  0.00584626  1
  O2-  O149  1  0.62552133  0.62550045  0.50697149  1
  O2-  O150  1  0.62553598  0.87383494  0.00765360  1
  O2-  O151  1  0.62524787  0.87516352  0.51915419  1
  O2-  O152  1  0.87646429  0.12494493  0.00700168  1
  O2-  O153  1  0.87398435  0.12453763  0.50840289  1
  O2-  O154  1  0.87686636  0.37525966  0.01753809  1
  O2-  O155  1  0.87213920  0.37651732  0.49935393  1
  O2-  O156  1  0.87533961  0.62461764  -0.00384080  1
  O2-  O157  1  0.87533483  0.62589640  0.49706384  1
  O2-  O158  1  0.87536105  0.87510829  0.00656439  1
  O2-  O159  1  0.87543673  0.87354628  0.49669307  1
  O2-  O160  1  0.12577886  0.00147235  0.16424936  1
  O2-  O161  1  0.12515323  -0.00130273  0.66774411  1
  O2-  O162  1  0.12640028  0.24904333  0.16754319  1
  O2-  O163  1  0.12533422  0.24983943  0.66720924  1
  O2-  O164  1  0.12566945  0.49766024  0.16585463  1
  O2-  O165  1  0.12512905  0.50146240  0.66516652  1
  O2-  O166  1  0.12525991  0.75141205  0.16177899  1
  O2-  O167  1  0.12513735  0.75036714  0.66669097  1
  O2-  O168  1  0.37423802  0.00162247  0.16389025  1
  O2-  O169  1  0.37487905  0.00068654  0.66661280  1
  O2-  O170  1  0.37513281  0.24998558  0.16029009  1
  O2-  O171  1  0.37588965  0.25183795  0.66709852  1
  O2-  O172  1  0.37581021  0.49761570  0.16251597  1
  O2-  O173  1  0.37612221  0.49855775  0.66295545  1
  O2-  O174  1  0.37482738  0.74993946  0.16310160  1
  O2-  O175  1  0.37546067  0.74944429  0.66587347  1
  O2-  O176  1  0.62460272  0.00163680  0.16320192  1
  O2-  O177  1  0.62488817  -0.00048740  0.66806497  1
  O2-  O178  1  0.62403551  0.25199341  0.16034835  1
  O2-  O179  1  0.62440929  0.24892566  0.66623592  1
  O2-  O180  1  0.62367211  0.49921991  0.15989121  1
  O2-  O181  1  0.62489862  0.49947643  0.66729629  1
  O2-  O182  1  0.62491495  0.74646258  0.16312039  1
  O2-  O183  1  0.62506756  0.75250362  0.66977126  1
  O2-  O184  1  0.87594242  -0.00229950  0.16234757  1
  O2-  O185  1  0.87500731  -0.00133538  0.66737474  1
  O2-  O186  1  0.87493077  0.25169425  0.16754110  1
  O2-  O187  1  0.87461287  0.25112916  0.66600302  1
  O2-  O188  1  0.87450420  0.49923339  0.16538426  1
  O2-  O189  1  0.87428935  0.50048687  0.66431819  1
  O2-  O190  1  0.87486057  0.75090314  0.15925326  1
  O2-  O191  1  0.87466052  0.75016691  0.66700043  1
  O2-  O192  1  0.00384077  0.12540143  0.16667098  1
  O2-  O193  1  -0.00033382  0.12476773  0.66774679  1
  O2-  O194  1  0.00055676  0.37444270  0.17034217  1
  O2-  O195  1  -0.00130813  0.37531396  0.66591040  1
  O2-  O196  1  -0.00121023  0.62442821  0.16329605  1
  O2-  O197  1  -0.00011816  0.62553444  0.66541579  1
  O2-  O198  1  -0.00045365  0.87484020  0.16307120  1
  O2-  O199  1  -0.00083168  0.87499282  0.66697827  1
  O2-  O200  1  0.24981183  0.12617181  0.16273905  1
  O2-  O201  1  0.25081173  0.12531954  0.66868829  1
  O2-  O202  1  0.25084337  0.37424830  0.16593484  1
  O2-  O203  1  0.25303598  0.37506897  0.66474087  1
  O2-  O204  1  0.25128928  0.62342178  0.16389029  1
  O2-  O205  1  0.24979445  0.62445837  0.66484858  1
  O2-  O206  1  0.24960542  0.87569392  0.16728414  1
  O2-  O207  1  0.25040257  0.87538492  0.66540532  1
  O2-  O208  1  0.49748200  0.12592031  0.15890702  1
  O2-  O209  1  0.50038687  0.12536633  0.66714195  1
  O2-  O210  1  0.49986882  0.37438640  0.15873599  1
  O2-  O211  1  0.49873126  0.37454825  0.66635722  1
  O2-  O212  1  0.50155602  0.62364648  0.16187050  1
  O2-  O213  1  0.49931272  0.62492005  0.66683589  1
  O2-  O214  1  0.49785085  0.87499559  0.16546427  1
  O2-  O215  1  0.50053782  0.87580358  0.66757125  1
  O2-  O216  1  0.74926625  0.12508392  0.16255428  1
  O2-  O217  1  0.74934245  0.12500711  0.66638475  1
  O2-  O218  1  0.74875059  0.37550020  0.16139791  1
  O2-  O219  1  0.74949260  0.37501245  0.66655239  1
  O2-  O220  1  0.74798003  0.62368120  0.16053448  1
  O2-  O221  1  0.75126337  0.62532128  0.66726424  1
  O2-  O222  1  0.75287110  0.87494312  0.16222306  1
  O2-  O223  1  0.75022521  0.87531001  0.66861268  1
  O2-  O224  1  0.12497174  -0.00245582  0.34541634  1
  O2-  O225  1  0.12537265  0.00218546  0.85166534  1
  O2-  O226  1  0.12541861  0.24957005  0.35053255  1
  O2-  O227  1  0.12633788  0.24855881  0.85092309  1
  O2-  O228  1  0.12564999  0.50316897  0.34673058  1
  O2-  O229  1  0.12571996  0.49779135  0.84870646  1
  O2-  O230  1  0.12505434  0.74972638  0.34089958  1
  O2-  O231  1  0.12509857  0.75175220  0.85038844  1
  O2-  O232  1  0.37563636  -0.00040193  0.34415755  1
  O2-  O233  1  0.37470617  0.00185246  0.85155629  1
  O2-  O234  1  0.37575085  0.25106529  0.34466130  1
  O2-  O235  1  0.37540782  0.24988455  0.85256006  1
  O2-  O236  1  0.37541893  0.49887466  0.34666512  1
  O2-  O237  1  0.37612253  0.49842391  0.84694570  1
  O2-  O238  1  0.37529651  0.75024991  0.34378446  1
  O2-  O239  1  0.37521027  0.74976753  0.84929757  1
  O2-  O240  1  0.62471315  0.00036811  0.34600179  1
  O2-  O241  1  0.62472902  0.00152543  0.84914727  1
  O2-  O242  1  0.62387017  0.25015354  0.34163715  1
  O2-  O243  1  0.62398550  0.25159211  0.84982127  1
  O2-  O244  1  0.62416483  0.49748357  0.34235932  1
  O2-  O245  1  0.62378021  0.49993271  0.85162119  1
  O2-  O246  1  0.62486301  0.75168918  0.34708948  1
  O2-  O247  1  0.62497882  0.74691478  0.85203912  1
  O2-  O248  1  0.87417063  -0.00191793  0.34555383  1
  O2-  O249  1  0.87546571  -0.00218822  0.85094729  1
  O2-  O250  1  0.87436243  0.25127359  0.34864407  1
  O2-  O251  1  0.87495524  0.25182194  0.85012128  1
  O2-  O252  1  0.87442819  0.50065513  0.34500150  1
  O2-  O253  1  0.87434284  0.50047896  0.84792492  1
  O2-  O254  1  0.87452292  0.74980351  0.34121443  1
  O2-  O255  1  0.87492925  0.75065505  0.84969840  1
  O2-  O256  1  -0.00061741  0.12430704  0.35015130  1
  O2-  O257  1  0.00248557  0.12566003  0.85147455  1
  O2-  O258  1  -0.00232298  0.37545262  0.34959113  1
  O2-  O259  1  0.00014229  0.37504315  0.85043560  1
  O2-  O260  1  -0.00007880  0.62572907  0.34404594  1
  O2-  O261  1  -0.00129755  0.62449231  0.84831913  1
  O2-  O262  1  0.00010195  0.87461298  0.34299391  1
  O2-  O263  1  -0.00221072  0.87523985  0.85148626  1
  O2-  O264  1  0.25264704  0.12526362  0.34529303  1
  O2-  O265  1  0.25038357  0.12565924  0.85325310  1
  O2-  O266  1  0.25346444  0.37465788  0.34962374  1
  O2-  O267  1  0.25253710  0.37423384  0.84976151  1
  O2-  O268  1  0.25006028  0.62487257  0.34467056  1
  O2-  O269  1  0.25134193  0.62426851  0.84738879  1
  O2-  O270  1  0.24996803  0.87511188  0.34496334  1
  O2-  O271  1  0.24945284  0.87569275  0.85045970  1
  O2-  O272  1  0.49996099  0.12531422  0.34051553  1
  O2-  O273  1  0.49862815  0.12586457  0.85039432  1
  O2-  O274  1  0.49849158  0.37485931  0.34295565  1
  O2-  O275  1  0.50009682  0.37465519  0.85146087  1
  O2-  O276  1  0.49782782  0.62466385  0.34530983  1
  O2-  O277  1  0.50123670  0.62427623  0.84904275  1
  O2-  O278  1  0.49978702  0.87472973  0.34724543  1
  O2-  O279  1  0.49952668  0.87498535  0.85057937  1
  O2-  O280  1  0.74777892  0.12462933  0.34513635  1
  O2-  O281  1  0.74908847  0.12598582  0.84850906  1
  O2-  O282  1  0.74991194  0.37496857  0.34217170  1
  O2-  O283  1  0.74762635  0.37576460  0.85155364  1
  O2-  O284  1  0.75182436  0.62556400  0.34388307  1
  O2-  O285  1  0.74860480  0.62407457  0.84969947  1
  O2-  O286  1  0.75012076  0.87447567  0.34586908  1
  O2-  O287  1  0.75323767  0.87457702  0.85076300  1
