# generated using pymatgen
data_BaYFeCuO5
_symmetry_space_group_name_H-M   'P 1'
_cell_length_a   15.64960641
_cell_length_b   15.65262558
_cell_length_c   15.43992551
_cell_angle_alpha   90.00046828
_cell_angle_beta   89.99455260
_cell_angle_gamma   90.00044981
_symmetry_Int_Tables_number   1
_chemical_formula_structural   BaYFeCuO5
_chemical_formula_sum   'Ba32 Y32 Fe32 Cu32 O160'
_cell_volume   3782.12444981
_cell_formula_units_Z   32
loop_
 _symmetry_equiv_pos_site_id
 _symmetry_equiv_pos_as_xyz
  1  'x, y, z'
loop_
 _atom_type_symbol
 _atom_type_oxidation_number
  Ba2+  2.0
  Y3+  3.0
  Fe3+  3.0
  Cu2+  2.0
  O2-  -2.0
loop_
 _atom_site_type_symbol
 _atom_site_label
 _atom_site_symmetry_multiplicity
 _atom_site_fract_x
 _atom_site_fract_y
 _atom_site_fract_z
 _atom_site_occupancy
  Ba2+  Ba0  1  -0.00160732  -0.00312777  0.01231567  1
  Ba2+  Ba1  1  0.00408925  0.00545851  0.51268314  1
  Ba2+  Ba2  1  -0.00179841  0.25299400  0.01102227  1
  Ba2+  Ba3  1  -0.00514737  0.24517222  0.52264008  1
  Ba2+  Ba4  1  0.00810074  0.49461810  0.01509116  1
  Ba2+  Ba5  1  -0.00100788  0.49837324  0.51545800  1
  Ba2+  Ba6  1  0.00847545  0.75525526  0.01582075  1
  Ba2+  Ba7  1  0.00793962  0.75122654  0.50640109  1
  Ba2+  Ba8  1  0.25214201  -0.00845772  0.01128093  1
  Ba2+  Ba9  1  0.25457716  0.00400210  0.51175516  1
  Ba2+  Ba10  1  0.25196844  0.25828325  0.01065383  1
  Ba2+  Ba11  1  0.25695619  0.24269225  0.51588142  1
  Ba2+  Ba12  1  0.24914545  0.49649132  0.00583704  1
  Ba2+  Ba13  1  0.25084311  0.49965692  0.51608606  1
  Ba2+  Ba14  1  0.24921149  0.75386210  0.00637929  1
  Ba2+  Ba15  1  0.24828521  0.75525383  0.51154128  1
  Ba2+  Ba16  1  0.48905746  -0.00230769  0.01296985  1
  Ba2+  Ba17  1  0.50202655  0.00400565  0.51152862  1
  Ba2+  Ba18  1  0.48926925  0.25213878  0.01266713  1
  Ba2+  Ba19  1  0.50304867  0.24629894  0.51114927  1
  Ba2+  Ba20  1  0.48762939  0.49864481  0.00162983  1
  Ba2+  Ba21  1  0.50791055  0.49492380  0.51147069  1
  Ba2+  Ba22  1  0.48755619  0.75145161  0.00169677  1
  Ba2+  Ba23  1  0.50661842  0.75532525  0.51179312  1
  Ba2+  Ba24  1  0.76013110  0.00253777  0.01152514  1
  Ba2+  Ba25  1  0.74084962  0.00539951  0.51072099  1
  Ba2+  Ba26  1  0.76034534  0.24736100  0.01115009  1
  Ba2+  Ba27  1  0.74458458  0.24926930  0.51685462  1
  Ba2+  Ba28  1  0.75469217  0.49589465  0.01172373  1
  Ba2+  Ba29  1  0.74157768  0.49421430  0.51101216  1
  Ba2+  Ba30  1  0.75460512  0.75422098  0.01226568  1
  Ba2+  Ba31  1  0.73802985  0.75069381  0.50649519  1
  Y3+  Y32  1  0.00055024  -0.00109368  0.25450391  1
  Y3+  Y33  1  0.00003708  0.00227388  0.76027762  1
  Y3+  Y34  1  -0.00056684  0.25012680  0.25155455  1
  Y3+  Y35  1  -0.00105568  0.24828185  0.76008826  1
  Y3+  Y36  1  0.00162712  0.49857439  0.25475668  1
  Y3+  Y37  1  0.00161167  0.49877396  0.75615561  1
  Y3+  Y38  1  0.00272039  0.75240558  0.25646733  1
  Y3+  Y39  1  0.00236904  0.75068003  0.75678695  1
  Y3+  Y40  1  0.25176825  -0.00054812  0.25659745  1
  Y3+  Y41  1  0.25185679  -0.00064377  0.75804457  1
  Y3+  Y42  1  0.25295272  0.24956388  0.25453169  1
  Y3+  Y43  1  0.25170711  0.25030356  0.75800910  1
  Y3+  Y44  1  0.24962868  0.49796576  0.25444717  1
  Y3+  Y45  1  0.25155305  0.49816539  0.75918686  1
  Y3+  Y46  1  0.24873361  0.75297475  0.25567943  1
  Y3+  Y47  1  0.25159647  0.75220629  0.75936410  1
  Y3+  Y48  1  0.49898593  0.00164674  0.26091511  1
  Y3+  Y49  1  0.49874248  -0.00047901  0.75452173  1
  Y3+  Y50  1  0.49903801  0.24874416  0.26006380  1
  Y3+  Y51  1  0.49881115  0.25022381  0.75463036  1
  Y3+  Y52  1  0.50097024  0.49881885  0.26010193  1
  Y3+  Y53  1  0.49882316  0.49831008  0.75562244  1
  Y3+  Y54  1  0.50075743  0.75093713  0.26036228  1
  Y3+  Y55  1  0.49877269  0.75174873  0.75569469  1
  Y3+  Y56  1  0.74907844  0.00077750  0.25796249  1
  Y3+  Y57  1  0.74879615  0.00246655  0.75665804  1
  Y3+  Y58  1  0.74902272  0.24914074  0.25718473  1
  Y3+  Y59  1  0.75001854  0.24843279  0.75635501  1
  Y3+  Y60  1  0.74784207  0.49907961  0.26020455  1
  Y3+  Y61  1  0.74767300  0.49878994  0.75375081  1
  Y3+  Y62  1  0.74788681  0.75099869  0.26042799  1
  Y3+  Y63  1  0.74667920  0.75025948  0.75455814  1
  Fe3+  Fe64  1  0.62438370  0.12506368  0.88133153  1
  Fe3+  Fe65  1  0.12548265  0.62493649  0.87605607  1
  Fe3+  Fe66  1  0.87540511  0.87606591  0.37999902  1
  Fe3+  Fe67  1  0.87536327  0.12566389  0.37579669  1
  Fe3+  Fe68  1  0.37464217  0.37446772  0.37905714  1
  Fe3+  Fe69  1  0.12481056  0.37255888  0.37970078  1
  Fe3+  Fe70  1  0.37469244  0.87563970  0.37844439  1
  Fe3+  Fe71  1  0.87558273  0.62518766  0.87857103  1
  Fe3+  Fe72  1  0.87531525  0.87417533  0.87517463  1
  Fe3+  Fe73  1  0.12551277  0.12493656  0.87973920  1
  Fe3+  Fe74  1  0.12594622  0.62402078  0.37697857  1
  Fe3+  Fe75  1  0.37478893  0.12490975  0.87738408  1
  Fe3+  Fe76  1  0.87513213  0.62468313  0.37893917  1
  Fe3+  Fe77  1  0.62465181  0.87580784  0.88038370  1
  Fe3+  Fe78  1  0.62446772  0.62487175  0.88053101  1
  Fe3+  Fe79  1  0.87537068  0.37375004  0.37715467  1
  Fe3+  Fe80  1  0.37525494  0.62487049  0.38094210  1
  Fe3+  Fe81  1  0.87525182  0.37594200  0.87487095  1
  Fe3+  Fe82  1  0.12510464  0.12582642  0.37544148  1
  Fe3+  Fe83  1  0.62459252  0.37416044  0.88006111  1
  Fe3+  Fe84  1  0.12521168  0.87652543  0.63890154  1
  Fe3+  Fe85  1  0.87423679  0.87583868  0.63384256  1
  Fe3+  Fe86  1  0.62377729  0.62505712  0.13390372  1
  Fe3+  Fe87  1  0.12541806  0.37336155  0.63575420  1
  Fe3+  Fe88  1  0.62421798  0.37509620  0.13419103  1
  Fe3+  Fe89  1  0.62401154  0.87493236  0.13479476  1
  Fe3+  Fe90  1  0.87440191  0.62559662  0.63375303  1
  Fe3+  Fe91  1  0.87600222  0.62530290  0.13531808  1
  Fe3+  Fe92  1  0.12658814  0.12484558  0.13393629  1
  Fe3+  Fe93  1  0.37528200  0.62547252  0.63592774  1
  Fe3+  Fe94  1  0.62419624  0.12488188  0.13430855  1
  Fe3+  Fe95  1  0.37416448  0.62521836  0.13924224  1
  Cu2+  Cu96  1  0.37502012  0.87589517  0.87049709  1
  Cu2+  Cu97  1  0.37468208  0.12540442  0.37142964  1
  Cu2+  Cu98  1  0.37493253  0.62498833  0.86108070  1
  Cu2+  Cu99  1  0.12522263  0.87648320  0.36486098  1
  Cu2+  Cu100  1  0.12468651  0.37439085  0.87036323  1
  Cu2+  Cu101  1  0.62479365  0.87668233  0.37131059  1
  Cu2+  Cu102  1  0.62527084  0.12582476  0.36992529  1
  Cu2+  Cu103  1  0.87478802  0.12475335  0.87259146  1
  Cu2+  Cu104  1  0.62425378  0.62441429  0.37315956  1
  Cu2+  Cu105  1  0.62516580  0.37328152  0.37027147  1
  Cu2+  Cu106  1  0.37496396  0.37409047  0.87018841  1
  Cu2+  Cu107  1  0.12475681  0.87547295  0.87167621  1
  Cu2+  Cu108  1  0.37499202  0.37482591  0.64694569  1
  Cu2+  Cu109  1  0.37568367  0.12454006  0.64355529  1
  Cu2+  Cu110  1  0.12554863  0.62520404  0.65002903  1
  Cu2+  Cu111  1  0.37618657  0.87379463  0.14654948  1
  Cu2+  Cu112  1  0.87403233  0.87404145  0.15362683  1
  Cu2+  Cu113  1  0.12620291  0.37420962  0.14204420  1
  Cu2+  Cu114  1  0.87534475  0.12453961  0.14162712  1
  Cu2+  Cu115  1  0.12602384  0.62513125  0.14994400  1
  Cu2+  Cu116  1  0.62404773  0.62490847  0.64357593  1
  Cu2+  Cu117  1  0.87477474  0.37472976  0.65006780  1
  Cu2+  Cu118  1  0.62431196  0.12508189  0.64605010  1
  Cu2+  Cu119  1  0.12541212  0.12488121  0.65411752  1
  Cu2+  Cu120  1  0.62499123  0.87617443  0.64445217  1
  Cu2+  Cu121  1  0.12627668  0.87591951  0.14263672  1
  Cu2+  Cu122  1  0.62443216  0.37369487  0.64526129  1
  Cu2+  Cu123  1  0.37532931  0.12465429  0.14926980  1
  Cu2+  Cu124  1  0.87458801  0.12402710  0.65226027  1
  Cu2+  Cu125  1  0.37497421  0.87516354  0.64772892  1
  Cu2+  Cu126  1  0.87392997  0.37599894  0.15152103  1
  Cu2+  Cu127  1  0.37615874  0.37631029  0.14525153  1
  O2-  O128  1  0.12608711  0.12488513  0.00652098  1
  O2-  O129  1  0.12359824  0.12712557  0.49608269  1
  O2-  O130  1  0.12480538  0.37485575  0.00621821  1
  O2-  O131  1  0.12454425  0.37256129  0.50588965  1
  O2-  O132  1  0.12459248  0.62463551  -0.00330291  1
  O2-  O133  1  0.12394655  0.62335454  0.49743182  1
  O2-  O134  1  0.12442126  0.87540276  0.00744245  1
  O2-  O135  1  0.12478538  0.87670476  0.51743127  1
  O2-  O136  1  0.37397394  0.12482765  -0.00194231  1
  O2-  O137  1  0.37568618  0.12453240  0.50737965  1
  O2-  O138  1  0.37452761  0.37637868  0.00647132  1
  O2-  O139  1  0.37373358  0.37531472  0.49964322  1
  O2-  O140  1  0.37278002  0.62516582  0.01826147  1
  O2-  O141  1  0.37565758  0.62518844  0.50765283  1
  O2-  O142  1  0.37479216  0.87347552  0.00684322  1
  O2-  O143  1  0.37453607  0.87511352  0.49937647  1
  O2-  O144  1  0.62448341  0.12449239  0.00752995  1
  O2-  O145  1  0.62510195  0.12632063  0.50764249  1
  O2-  O146  1  0.62495687  0.37610470  0.00706126  1
  O2-  O147  1  0.62537213  0.37287810  0.50783049  1
  O2-  O148  1  0.62456517  0.62511598  0.00754308  1
  O2-  O149  1  0.62503339  0.62433045  0.50742934  1
  O2-  O150  1  0.62506578  0.87422016  0.00742038  1
  O2-  O151  1  0.62566351  0.87670688  0.50718569  1
  O2-  O152  1  0.87600249  0.12446052  0.00707685  1
  O2-  O153  1  0.87561944  0.12536881  0.49630625  1
  O2-  O154  1  0.87612018  0.37793957  -0.00409707  1
  O2-  O155  1  0.87588153  0.37383431  0.49748401  1
  O2-  O156  1  0.87647412  0.62553511  0.00591620  1
  O2-  O157  1  0.87459394  0.62480553  0.50591693  1
  O2-  O158  1  0.87603088  0.87226761  -0.00360223  1
  O2-  O159  1  0.87500294  0.87601465  0.50681782  1
  O2-  O160  1  0.12564541  0.00274148  0.16318931  1
  O2-  O161  1  0.12387214  0.00003541  0.66801374  1
  O2-  O162  1  0.12540774  0.24730681  0.16148560  1
  O2-  O163  1  0.12453122  0.25072755  0.66430272  1
  O2-  O164  1  0.12498608  0.50040899  0.16581197  1
  O2-  O165  1  0.12440324  0.49819722  0.66079331  1
  O2-  O166  1  0.12480653  0.74969266  0.16602438  1
  O2-  O167  1  0.12455009  0.75106136  0.66483322  1
  O2-  O168  1  0.37622585  0.00024914  0.16466459  1
  O2-  O169  1  0.37496764  -0.00133971  0.66541639  1
  O2-  O170  1  0.37645276  0.24954114  0.16328137  1
  O2-  O171  1  0.37463302  0.25104345  0.66527589  1
  O2-  O172  1  0.37590935  0.50225726  0.16973438  1
  O2-  O173  1  0.37456103  0.50137546  0.66284403  1
  O2-  O174  1  0.37607639  0.74791623  0.17020389  1
  O2-  O175  1  0.37472915  0.74888890  0.66310106  1
  O2-  O176  1  0.62523346  -0.00039181  0.16102711  1
  O2-  O177  1  0.62524010  0.00036343  0.66823429  1
  O2-  O178  1  0.62499058  0.25029177  0.15930937  1
  O2-  O179  1  0.62538470  0.24946818  0.66906214  1
  O2-  O180  1  0.62616634  0.50088258  0.16333454  1
  O2-  O181  1  0.62483698  0.49962500  0.66717168  1
  O2-  O182  1  0.62587527  0.74926465  0.16393780  1
  O2-  O183  1  0.62491833  0.75046809  0.66723934  1
  O2-  O184  1  0.87399533  -0.00211993  0.16515950  1
  O2-  O185  1  0.87526123  -0.00167665  0.66328832  1
  O2-  O186  1  0.87435387  0.25193796  0.16097186  1
  O2-  O187  1  0.87471265  0.24916030  0.66483144  1
  O2-  O188  1  0.87428277  0.50269875  0.16417896  1
  O2-  O189  1  0.87507772  0.50209253  0.66163792  1
  O2-  O190  1  0.87434844  0.74745844  0.16689452  1
  O2-  O191  1  0.87507451  0.75021865  0.66103195  1
  O2-  O192  1  0.00272262  0.12457495  0.16124228  1
  O2-  O193  1  -0.00023882  0.12501857  0.66562139  1
  O2-  O194  1  -0.00171188  0.37578439  0.16451850  1
  O2-  O195  1  0.00147830  0.37496679  0.66140811  1
  O2-  O196  1  -0.00061905  0.62511560  0.16221460  1
  O2-  O197  1  -0.00180016  0.62528071  0.66179729  1
  O2-  O198  1  -0.00154031  0.87446542  0.16581854  1
  O2-  O199  1  -0.00156588  0.87464556  0.66304757  1
  O2-  O200  1  0.24983669  0.12518735  0.16321041  1
  O2-  O201  1  0.24920114  0.12460320  0.66479383  1
  O2-  O202  1  0.25141135  0.37519294  0.16665259  1
  O2-  O203  1  0.24787755  0.37492646  0.66249879  1
  O2-  O204  1  0.24983428  0.62503348  0.16842090  1
  O2-  O205  1  0.25163089  0.62505088  0.66167574  1
  O2-  O206  1  0.25160259  0.87472576  0.16572940  1
  O2-  O207  1  0.24929601  0.87520359  0.66570678  1
  O2-  O208  1  0.50201245  0.12481194  0.16360145  1
  O2-  O209  1  0.49954526  0.12494663  0.66790488  1
  O2-  O210  1  0.50358041  0.37612337  0.16435556  1
  O2-  O211  1  0.49867890  0.37516152  0.66747392  1
  O2-  O212  1  0.50212346  0.62491489  0.16558993  1
  O2-  O213  1  0.49667268  0.62508319  0.66752702  1
  O2-  O214  1  0.50333868  0.87408814  0.16410216  1
  O2-  O215  1  0.49894303  0.87459814  0.66689414  1
  O2-  O216  1  0.74663820  0.12479305  0.16254535  1
  O2-  O217  1  0.75110990  0.12464208  0.66786096  1
  O2-  O218  1  0.74743501  0.37632668  0.16155838  1
  O2-  O219  1  0.75134427  0.37511301  0.66726244  1
  O2-  O220  1  0.74922165  0.62545498  0.15922516  1
  O2-  O221  1  0.75295811  0.62537961  0.66719916  1
  O2-  O222  1  0.74724613  0.87358764  0.16277015  1
  O2-  O223  1  0.75316702  0.87464229  0.66646518  1
  O2-  O224  1  0.12399136  0.00105987  0.34640628  1
  O2-  O225  1  0.12460610  0.00274273  0.85088522  1
  O2-  O226  1  0.12456857  0.25171179  0.34333493  1
  O2-  O227  1  0.12438789  0.24696820  0.84900540  1
  O2-  O228  1  0.12424341  0.49775335  0.34892291  1
  O2-  O229  1  0.12469281  0.50170195  0.84443494  1
  O2-  O230  1  0.12452806  0.74958102  0.35002472  1
  O2-  O231  1  0.12473384  0.74841848  0.84669860  1
  O2-  O232  1  0.37451620  -0.00101070  0.34798179  1
  O2-  O233  1  0.37567508  0.00223151  0.84743415  1
  O2-  O234  1  0.37410142  0.25174324  0.34666958  1
  O2-  O235  1  0.37564710  0.24770453  0.84732546  1
  O2-  O236  1  0.37450533  0.50051919  0.35094663  1
  O2-  O237  1  0.37541778  0.50057297  0.84735784  1
  O2-  O238  1  0.37422685  0.74897258  0.35169862  1
  O2-  O239  1  0.37580110  0.74934657  0.84767376  1
  O2-  O240  1  0.62574484  0.00073581  0.34593513  1
  O2-  O241  1  0.62598571  -0.00016785  0.85270157  1
  O2-  O242  1  0.62558555  0.24979669  0.34375751  1
  O2-  O243  1  0.62551435  0.25007865  0.85346265  1
  O2-  O244  1  0.62544814  0.49921613  0.34783109  1
  O2-  O245  1  0.62546616  0.50048116  0.85203475  1
  O2-  O246  1  0.62551234  0.75041787  0.34856545  1
  O2-  O247  1  0.62528738  0.74948907  0.85210780  1
  O2-  O248  1  0.87577853  -0.00077201  0.34812707  1
  O2-  O249  1  0.87360119  -0.00228497  0.84710210  1
  O2-  O250  1  0.87578680  0.25005116  0.34253053  1
  O2-  O251  1  0.87419796  0.25202769  0.84866785  1
  O2-  O252  1  0.87597122  0.50077968  0.34837421  1
  O2-  O253  1  0.87394401  0.50221712  0.84566796  1
  O2-  O254  1  0.87568652  0.74994779  0.35285061  1
  O2-  O255  1  0.87381922  0.74798366  0.84498110  1
  O2-  O256  1  -0.00026002  0.12522055  0.34253483  1
  O2-  O257  1  0.00191820  0.12479263  0.85035906  1
  O2-  O258  1  0.00134737  0.37537586  0.34728170  1
  O2-  O259  1  -0.00217269  0.37609169  0.84400980  1
  O2-  O260  1  -0.00057620  0.62503431  0.34695943  1
  O2-  O261  1  -0.00171681  0.62507616  0.84556132  1
  O2-  O262  1  -0.00156892  0.87443485  0.35046717  1
  O2-  O263  1  -0.00207197  0.87403400  0.84430256  1
  O2-  O264  1  0.24799431  0.12551622  0.34633053  1
  O2-  O265  1  0.24950538  0.12518576  0.84777376  1
  O2-  O266  1  0.24829976  0.37525001  0.34930488  1
  O2-  O267  1  0.25019216  0.37478980  0.84682617  1
  O2-  O268  1  0.25081980  0.62413152  0.35067816  1
  O2-  O269  1  0.25025759  0.62478209  0.84600268  1
  O2-  O270  1  0.25040079  0.87513721  0.34859576  1
  O2-  O271  1  0.25019500  0.87502721  0.84894565  1
  O2-  O272  1  0.49977404  0.12551442  0.34786283  1
  O2-  O273  1  0.50171110  0.12483099  0.85042000  1
  O2-  O274  1  0.49794520  0.37510455  0.34725614  1
  O2-  O275  1  0.50339877  0.37553962  0.85120335  1
  O2-  O276  1  0.49618381  0.62487034  0.34819475  1
  O2-  O277  1  0.50159590  0.62489918  0.85282052  1
  O2-  O278  1  0.49759727  0.87471782  0.34647046  1
  O2-  O279  1  0.50348311  0.87465509  0.85106169  1
  O2-  O280  1  0.75258292  0.12481888  0.34461503  1
  O2-  O281  1  0.74664867  0.12489675  0.85170022  1
  O2-  O282  1  0.75243407  0.37538818  0.34491972  1
  O2-  O283  1  0.74821556  0.37658356  0.84991075  1
  O2-  O284  1  0.75398507  0.62522653  0.34529654  1
  O2-  O285  1  0.74962042  0.62527308  0.85278982  1
  O2-  O286  1  0.75375324  0.87458032  0.34741553  1
  O2-  O287  1  0.74802697  0.87308701  0.84952459  1
