# generated using pymatgen
data_BaYFeCuO5
_symmetry_space_group_name_H-M   'P 1'
_cell_length_a   15.67940046
_cell_length_b   15.67986866
_cell_length_c   15.51084567
_cell_angle_alpha   90.00228446
_cell_angle_beta   89.99698550
_cell_angle_gamma   90.00530064
_symmetry_Int_Tables_number   1
_chemical_formula_structural   BaYFeCuO5
_chemical_formula_sum   'Ba32 Y32 Fe32 Cu32 O160'
_cell_volume   3813.35596228
_cell_formula_units_Z   32
loop_
 _symmetry_equiv_pos_site_id
 _symmetry_equiv_pos_as_xyz
  1  'x, y, z'
loop_
 _atom_type_symbol
 _atom_type_oxidation_number
  Ba2+  2.0
  Y3+  3.0
  Fe3+  3.0
  Cu2+  2.0
  O2-  -2.0
loop_
 _atom_site_type_symbol
 _atom_site_label
 _atom_site_symmetry_multiplicity
 _atom_site_fract_x
 _atom_site_fract_y
 _atom_site_fract_z
 _atom_site_occupancy
  Ba2+  Ba0  1  -0.00021649  0.00054205  0.02297692  1
  Ba2+  Ba1  1  -0.00238461  0.00249156  0.49564508  1
  Ba2+  Ba2  1  0.00284596  0.24985372  0.01565016  1
  Ba2+  Ba3  1  0.00203758  0.25153409  0.51276970  1
  Ba2+  Ba4  1  0.00316421  0.50051091  0.01668405  1
  Ba2+  Ba5  1  0.00192646  0.48797015  0.51100993  1
  Ba2+  Ba6  1  -0.00063493  0.74821806  0.02421031  1
  Ba2+  Ba7  1  -0.00095840  0.75882952  0.49710994  1
  Ba2+  Ba8  1  0.24177075  0.00466349  0.00657849  1
  Ba2+  Ba9  1  0.24172793  0.00287817  0.50714118  1
  Ba2+  Ba10  1  0.23997791  0.24668670  0.00213325  1
  Ba2+  Ba11  1  0.24427192  0.25664813  0.51804209  1
  Ba2+  Ba12  1  0.23990565  0.50379797  0.00203406  1
  Ba2+  Ba13  1  0.25386674  0.49191146  0.51989385  1
  Ba2+  Ba14  1  0.24166331  0.74472687  0.00650005  1
  Ba2+  Ba15  1  0.25238707  0.74773673  0.50715993  1
  Ba2+  Ba16  1  0.50844182  0.00364257  0.00633899  1
  Ba2+  Ba17  1  0.51060968  -0.00032644  0.51282265  1
  Ba2+  Ba18  1  0.50254620  0.23953621  0.00208515  1
  Ba2+  Ba19  1  0.50363823  0.25603155  0.52535901  1
  Ba2+  Ba20  1  0.49984216  0.50911600  0.00532936  1
  Ba2+  Ba21  1  0.50088379  0.50032695  0.52294465  1
  Ba2+  Ba22  1  0.50620846  0.74829171  0.01334387  1
  Ba2+  Ba23  1  0.50763108  0.74464563  0.51087898  1
  Ba2+  Ba24  1  0.75064418  -0.00057890  0.02321169  1
  Ba2+  Ba25  1  0.74926934  -0.00155724  0.50052558  1
  Ba2+  Ba26  1  0.75424200  0.24320477  0.01536944  1
  Ba2+  Ba27  1  0.75041408  0.25059096  0.51834228  1
  Ba2+  Ba28  1  0.75675381  0.50566565  0.02204271  1
  Ba2+  Ba29  1  0.74336212  0.49720555  0.51494417  1
  Ba2+  Ba30  1  0.75250619  0.75126742  0.02917256  1
  Ba2+  Ba31  1  0.74178825  0.75327303  0.50267942  1
  Y3+  Y32  1  -0.00076039  0.00057965  0.25795029  1
  Y3+  Y33  1  0.00071531  0.00195466  0.75740134  1
  Y3+  Y34  1  0.00094428  0.25066744  0.25488461  1
  Y3+  Y35  1  0.00257453  0.25111366  0.75867254  1
  Y3+  Y36  1  0.00195881  0.49734246  0.25531209  1
  Y3+  Y37  1  0.00214278  0.49760197  0.75825376  1
  Y3+  Y38  1  0.00067025  0.75145317  0.25871375  1
  Y3+  Y39  1  0.00028722  0.74879019  0.75647211  1
  Y3+  Y40  1  0.24772286  0.00034898  0.25689368  1
  Y3+  Y41  1  0.24903212  0.00262146  0.75957293  1
  Y3+  Y42  1  0.24642318  0.25186458  0.25432921  1
  Y3+  Y43  1  0.24616432  0.25002045  0.76101741  1
  Y3+  Y44  1  0.24636336  0.49811268  0.25539207  1
  Y3+  Y45  1  0.24839652  0.50003534  0.76101676  1
  Y3+  Y46  1  0.24803458  0.75025427  0.25759535  1
  Y3+  Y47  1  0.25055198  0.74703769  0.75910355  1
  Y3+  Y48  1  0.50300154  -0.00008428  0.25679337  1
  Y3+  Y49  1  0.50269224  0.00081637  0.75886310  1
  Y3+  Y50  1  0.50033437  0.24901953  0.25215231  1
  Y3+  Y51  1  0.50112937  0.24750798  0.76203888  1
  Y3+  Y52  1  0.50105170  0.50168858  0.25568064  1
  Y3+  Y53  1  0.49889392  0.50227949  0.75761115  1
  Y3+  Y54  1  0.50329289  0.75016623  0.26067178  1
  Y3+  Y55  1  0.50073669  0.74885889  0.75437760  1
  Y3+  Y56  1  0.75030115  -0.00033294  0.25923249  1
  Y3+  Y57  1  0.74767886  0.00043907  0.75500848  1
  Y3+  Y58  1  0.75250131  0.24816613  0.25358543  1
  Y3+  Y59  1  0.74956042  0.24906121  0.75846478  1
  Y3+  Y60  1  0.75044037  0.50141172  0.25783727  1
  Y3+  Y61  1  0.75042011  0.49960805  0.75344518  1
  Y3+  Y62  1  0.74775231  0.75121042  0.26319924  1
  Y3+  Y63  1  0.74830145  0.75021472  0.75027634  1
  Fe3+  Fe64  1  0.37479945  0.37499377  0.87961105  1
  Fe3+  Fe65  1  0.87507166  0.62360441  0.37942602  1
  Fe3+  Fe66  1  0.12506270  0.12752284  0.37565974  1
  Fe3+  Fe67  1  0.87413619  0.87406460  0.87715341  1
  Fe3+  Fe68  1  0.37569076  0.87607989  0.38092272  1
  Fe3+  Fe69  1  0.37566066  0.37428257  0.37517201  1
  Fe3+  Fe70  1  0.62679111  0.37602014  0.87974638  1
  Fe3+  Fe71  1  0.12553736  0.62305691  0.38037709  1
  Fe3+  Fe72  1  0.87464253  0.62642342  0.87495222  1
  Fe3+  Fe73  1  0.12222316  0.87425500  0.87774068  1
  Fe3+  Fe74  1  0.37545199  0.87468199  0.88047712  1
  Fe3+  Fe75  1  0.87460135  0.37364561  0.37533094  1
  Fe3+  Fe76  1  0.62406673  0.37431672  0.37337121  1
  Fe3+  Fe77  1  0.62494517  0.12818147  0.37612523  1
  Fe3+  Fe78  1  0.87480841  0.37578553  0.87772347  1
  Fe3+  Fe79  1  0.37565300  0.12711716  0.38134986  1
  Fe3+  Fe80  1  0.62815449  0.62630973  0.87535037  1
  Fe3+  Fe81  1  0.62799838  0.87372084  0.87645840  1
  Fe3+  Fe82  1  0.87521809  0.12323992  0.87774778  1
  Fe3+  Fe83  1  0.37513718  0.62264798  0.37780086  1
  Fe3+  Fe84  1  0.87520002  0.87581505  0.63460193  1
  Fe3+  Fe85  1  0.37446974  0.37528656  0.13054199  1
  Fe3+  Fe86  1  0.87592868  0.62457446  0.63097684  1
  Fe3+  Fe87  1  0.37412835  0.62588602  0.13696640  1
  Fe3+  Fe88  1  0.37439088  0.12535280  0.63600023  1
  Fe3+  Fe89  1  0.37497534  0.87543489  0.63535789  1
  Fe3+  Fe90  1  0.37490936  0.87504336  0.13480160  1
  Fe3+  Fe91  1  0.37418539  0.12414659  0.13604505  1
  Fe3+  Fe92  1  0.87558303  0.12461967  0.63655674  1
  Fe3+  Fe93  1  0.62493843  0.37528818  0.13162260  1
  Fe3+  Fe94  1  0.12462852  0.62474415  0.63413199  1
  Fe3+  Fe95  1  0.12489279  0.87558040  0.63687039  1
  Cu2+  Cu96  1  0.12560878  0.37482546  0.37137814  1
  Cu2+  Cu97  1  0.62327850  0.87611254  0.37188214  1
  Cu2+  Cu98  1  0.12199814  0.12386144  0.87199864  1
  Cu2+  Cu99  1  0.62825493  0.12376120  0.87279029  1
  Cu2+  Cu100  1  0.87450531  0.87519369  0.36347184  1
  Cu2+  Cu101  1  0.37569718  0.62636851  0.86469152  1
  Cu2+  Cu102  1  0.12209243  0.62589594  0.87082249  1
  Cu2+  Cu103  1  0.12656067  0.87530599  0.36334826  1
  Cu2+  Cu104  1  0.87461038  0.12654889  0.36341727  1
  Cu2+  Cu105  1  0.12320249  0.37530275  0.87280228  1
  Cu2+  Cu106  1  0.62422295  0.62256034  0.37302205  1
  Cu2+  Cu107  1  0.37453937  0.12365153  0.86447243  1
  Cu2+  Cu108  1  0.87506838  0.37442136  0.65109468  1
  Cu2+  Cu109  1  0.12556194  0.37496362  0.14044834  1
  Cu2+  Cu110  1  0.12573968  0.87505901  0.15292161  1
  Cu2+  Cu111  1  0.62532845  0.62464533  0.64168409  1
  Cu2+  Cu112  1  0.62531327  0.12511918  0.65183371  1
  Cu2+  Cu113  1  0.62448758  0.87483944  0.15473764  1
  Cu2+  Cu114  1  0.62497120  0.12486073  0.14222179  1
  Cu2+  Cu115  1  0.37396247  0.62487358  0.65156889  1
  Cu2+  Cu116  1  0.37482036  0.37405085  0.65936165  1
  Cu2+  Cu117  1  0.12455470  0.12489771  0.65163760  1
  Cu2+  Cu118  1  0.12520815  0.62516301  0.14594795  1
  Cu2+  Cu119  1  0.62464938  0.87534239  0.64124820  1
  Cu2+  Cu120  1  0.62501861  0.62504376  0.15410530  1
  Cu2+  Cu121  1  0.87559263  0.62547520  0.15881425  1
  Cu2+  Cu122  1  0.62465002  0.37458325  0.65817507  1
  Cu2+  Cu123  1  0.87499052  0.37503249  0.14866922  1
  Cu2+  Cu124  1  0.87502778  0.87484474  0.15833199  1
  Cu2+  Cu125  1  0.12498390  0.37508600  0.64625180  1
  Cu2+  Cu126  1  0.12529947  0.12483048  0.14436030  1
  Cu2+  Cu127  1  0.87572549  0.12448504  0.15256299  1
  O2-  O128  1  0.12249591  0.12312203  0.00728958  1
  O2-  O129  1  0.12593082  0.12799207  0.49635297  1
  O2-  O130  1  0.12419151  0.37601059  0.00675644  1
  O2-  O131  1  0.12610774  0.37464693  0.50737238  1
  O2-  O132  1  0.12206459  0.62687997  0.00717251  1
  O2-  O133  1  0.12660522  0.62317593  0.50724102  1
  O2-  O134  1  0.12129059  0.87351684  -0.00208941  1
  O2-  O135  1  0.12700413  0.87574694  0.51682725  1
  O2-  O136  1  0.37436292  0.12100809  0.01621175  1
  O2-  O137  1  0.37623345  0.12828234  0.50727851  1
  O2-  O138  1  0.37451666  0.37523620  0.00581137  1
  O2-  O139  1  0.37795695  0.37442369  0.49485658  1
  O2-  O140  1  0.37467980  0.62901884  0.01674742  1
  O2-  O141  1  0.37495335  0.62040611  0.49760407  1
  O2-  O142  1  0.37520653  0.87473668  0.00782718  1
  O2-  O143  1  0.37530810  0.87597331  0.50805607  1
  O2-  O144  1  0.62730062  0.12338841  0.00679913  1
  O2-  O145  1  0.62333835  0.13074405  0.49607422  1
  O2-  O146  1  0.62692101  0.37699270  0.00517194  1
  O2-  O147  1  0.62293416  0.37387795  0.49311098  1
  O2-  O148  1  0.62928924  0.62766100  -0.00468443  1
  O2-  O149  1  0.62414850  0.62160962  0.50627322  1
  O2-  O150  1  0.62905992  0.87262666  -0.00357917  1
  O2-  O151  1  0.62292920  0.87587889  0.50653183  1
  O2-  O152  1  0.87534857  0.12201803  -0.00195671  1
  O2-  O153  1  0.87467436  0.12530896  0.51647561  1
  O2-  O154  1  0.87395271  0.37749086  -0.00240610  1
  O2-  O155  1  0.87279311  0.37313233  0.49529434  1
  O2-  O156  1  0.87408537  0.62765239  -0.00548543  1
  O2-  O157  1  0.87551472  0.62340492  0.50528695  1
  O2-  O158  1  0.87387800  0.87276837  -0.00323703  1
  O2-  O159  1  0.87599426  0.87740378  0.51462470  1
  O2-  O160  1  0.12619155  -0.00104770  0.16676079  1
  O2-  O161  1  0.12637160  -0.00055440  0.66585152  1
  O2-  O162  1  0.12550561  0.24989459  0.16208848  1
  O2-  O163  1  0.12578497  0.24877774  0.66721346  1
  O2-  O164  1  0.12513662  0.50002821  0.16497173  1
  O2-  O165  1  0.12544921  0.50298776  0.66468293  1
  O2-  O166  1  0.12506977  0.75113767  0.16985610  1
  O2-  O167  1  0.12589686  0.74876192  0.66258782  1
  O2-  O168  1  0.37488847  -0.00211454  0.16981462  1
  O2-  O169  1  0.37430825  0.00073508  0.66147018  1
  O2-  O170  1  0.37600260  0.25115518  0.16133652  1
  O2-  O171  1  0.37516815  0.24803877  0.66643590  1
  O2-  O172  1  0.37592927  0.49934047  0.16069336  1
  O2-  O173  1  0.37486436  0.49902207  0.66721592  1
  O2-  O174  1  0.37551527  0.75173010  0.16928267  1
  O2-  O175  1  0.37402813  0.75188267  0.66133849  1
  O2-  O176  1  0.62476780  -0.00122084  0.16696938  1
  O2-  O177  1  0.62379898  0.00119532  0.66376806  1
  O2-  O178  1  0.62394221  0.25295895  0.15820466  1
  O2-  O179  1  0.62401421  0.25029339  0.66825200  1
  O2-  O180  1  0.62473595  0.49885750  0.15997051  1
  O2-  O181  1  0.62411241  0.49859347  0.66656559  1
  O2-  O182  1  0.62440324  0.74982629  0.16848526  1
  O2-  O183  1  0.62400662  0.74975511  0.66102893  1
  O2-  O184  1  0.87486858  -0.00057282  0.16669966  1
  O2-  O185  1  0.87541849  0.00012918  0.66715917  1
  O2-  O186  1  0.87508874  0.24969587  0.16040810  1
  O2-  O187  1  0.87454097  0.24979373  0.66680609  1
  O2-  O188  1  0.87500596  0.50076687  0.16443039  1
  O2-  O189  1  0.87537976  0.50058552  0.66022640  1
  O2-  O190  1  0.87557965  0.75008508  0.16978317  1
  O2-  O191  1  0.87616885  0.74880935  0.65985052  1
  O2-  O192  1  -0.00078943  0.12408280  0.16678305  1
  O2-  O193  1  0.00011342  0.12533528  0.66394527  1
  O2-  O194  1  -0.00126104  0.37525442  0.16562459  1
  O2-  O195  1  -0.00046729  0.37472900  0.66366435  1
  O2-  O196  1  -0.00069712  0.62555735  0.17011628  1
  O2-  O197  1  0.00030338  0.62474345  0.65918772  1
  O2-  O198  1  0.00042058  0.87494695  0.16717444  1
  O2-  O199  1  0.00050638  0.87446260  0.66491670  1
  O2-  O200  1  0.25209073  0.12449469  0.16896047  1
  O2-  O201  1  0.25109451  0.12506269  0.66387683  1
  O2-  O202  1  0.25368442  0.37526106  0.16405454  1
  O2-  O203  1  0.25063643  0.37495705  0.66878278  1
  O2-  O204  1  0.25180144  0.62597925  0.16890440  1
  O2-  O205  1  0.24807642  0.62491140  0.66484138  1
  O2-  O206  1  0.25216394  0.87453387  0.16503497  1
  O2-  O207  1  0.25118103  0.87509837  0.66807283  1
  O2-  O208  1  0.49775620  0.12405270  0.16554703  1
  O2-  O209  1  0.49856482  0.12508695  0.66548989  1
  O2-  O210  1  0.49980878  0.37561511  0.15789196  1
  O2-  O211  1  0.49982953  0.37446749  0.67035923  1
  O2-  O212  1  0.49939467  0.62573140  0.16341937  1
  O2-  O213  1  0.49828091  0.62480770  0.66667011  1
  O2-  O214  1  0.49853555  0.87499541  0.16233424  1
  O2-  O215  1  0.49635993  0.87569553  0.66709071  1
  O2-  O216  1  0.75139403  0.12472567  0.16501496  1
  O2-  O217  1  0.74998999  0.12576351  0.66368330  1
  O2-  O218  1  0.74824871  0.37553058  0.16112379  1
  O2-  O219  1  0.74936965  0.37476476  0.66294459  1
  O2-  O220  1  0.74993461  0.62544876  0.16742461  1
  O2-  O221  1  0.75365437  0.62427503  0.65889050  1
  O2-  O222  1  0.74941766  0.87431981  0.16736102  1
  O2-  O223  1  0.75199239  0.87469341  0.66204967  1
  O2-  O224  1  0.12597454  0.00131014  0.34981894  1
  O2-  O225  1  0.12509769  -0.00289236  0.84630911  1
  O2-  O226  1  0.12553488  0.24883402  0.34338046  1
  O2-  O227  1  0.12448333  0.24973073  0.85063619  1
  O2-  O228  1  0.12498868  0.50257493  0.34766367  1
  O2-  O229  1  0.12465684  0.50045042  0.84792894  1
  O2-  O230  1  0.12670816  0.74834044  0.35395128  1
  O2-  O231  1  0.12520338  0.75217226  0.84301294  1
  O2-  O232  1  0.37520103  0.00183751  0.35486973  1
  O2-  O233  1  0.37510610  -0.00303534  0.84641891  1
  O2-  O234  1  0.37506609  0.24870214  0.34319391  1
  O2-  O235  1  0.37567819  0.25090008  0.85173328  1
  O2-  O236  1  0.37476884  0.49923430  0.34098149  1
  O2-  O237  1  0.37558482  0.49902441  0.85207979  1
  O2-  O238  1  0.37415715  0.75065773  0.35371228  1
  O2-  O239  1  0.37536758  0.75270227  0.84610936  1
  O2-  O240  1  0.62380143  0.00346359  0.34980078  1
  O2-  O241  1  0.62508485  -0.00306535  0.84573449  1
  O2-  O242  1  0.62475227  0.25034361  0.33787813  1
  O2-  O243  1  0.62494431  0.25298087  0.85216974  1
  O2-  O244  1  0.62448499  0.49699047  0.34169460  1
  O2-  O245  1  0.62462436  0.49972212  0.84886683  1
  O2-  O246  1  0.62379741  0.75004711  0.35263545  1
  O2-  O247  1  0.62498569  0.74999190  0.84082357  1
  O2-  O248  1  0.87497674  0.00020847  0.35109182  1
  O2-  O249  1  0.87482260  -0.00138647  0.84523463  1
  O2-  O250  1  0.87479401  0.25100827  0.34274410  1
  O2-  O251  1  0.87398285  0.25019663  0.84883554  1
  O2-  O252  1  0.87572899  0.50056381  0.34696752  1
  O2-  O253  1  0.87427557  0.50052936  0.84276962  1
  O2-  O254  1  0.87504825  0.74829952  0.35365141  1
  O2-  O255  1  0.87441308  0.75032467  0.83924970  1
  O2-  O256  1  0.00003157  0.12513584  0.34972399  1
  O2-  O257  1  -0.00287523  0.12457573  0.84402566  1
  O2-  O258  1  -0.00118478  0.37503793  0.34856670  1
  O2-  O259  1  -0.00243843  0.37544909  0.84572805  1
  O2-  O260  1  0.00074615  0.62595650  0.35459570  1
  O2-  O261  1  -0.00301989  0.62523235  0.84053605  1
  O2-  O262  1  0.00061382  0.87473537  0.35234414  1
  O2-  O263  1  -0.00126820  0.87401458  0.84268337  1
  O2-  O264  1  0.25190567  0.12487965  0.34986958  1
  O2-  O265  1  0.25002690  0.12409680  0.84890066  1
  O2-  O266  1  0.25187157  0.37472059  0.34558946  1
  O2-  O267  1  0.25219747  0.37503989  0.85232058  1
  O2-  O268  1  0.24907043  0.62504856  0.34949845  1
  O2-  O269  1  0.25093690  0.62584135  0.85011658  1
  O2-  O270  1  0.25347776  0.87592113  0.34930976  1
  O2-  O271  1  0.25086221  0.87442381  0.85239632  1
  O2-  O272  1  0.49849119  0.12619397  0.34607146  1
  O2-  O273  1  0.49992106  0.12380944  0.85061083  1
  O2-  O274  1  0.49949929  0.37415030  0.33815893  1
  O2-  O275  1  0.50048349  0.37515885  0.85464786  1
  O2-  O276  1  0.49743371  0.62459975  0.34449260  1
  O2-  O277  1  0.50179831  0.62570900  0.84991766  1
  O2-  O278  1  0.49583010  0.87589503  0.34619958  1
  O2-  O279  1  0.49992311  0.87480331  0.85156080  1
  O2-  O280  1  0.74959633  0.12584803  0.34787178  1
  O2-  O281  1  0.75283558  0.12453518  0.84410267  1
  O2-  O282  1  0.74972830  0.37510811  0.34281775  1
  O2-  O283  1  0.74897872  0.37589232  0.84521141  1
  O2-  O284  1  0.75277307  0.62406419  0.35132132  1
  O2-  O285  1  0.75003604  0.62482745  0.83837465  1
  O2-  O286  1  0.74996829  0.87568910  0.35121924  1
  O2-  O287  1  0.75040276  0.87410443  0.84042078  1
