# generated using pymatgen
data_BaYFeCuO5
_symmetry_space_group_name_H-M   'P 1'
_cell_length_a   15.67314944
_cell_length_b   15.67622468
_cell_length_c   15.50470328
_cell_angle_alpha   89.99852053
_cell_angle_beta   89.99774051
_cell_angle_gamma   90.00529965
_symmetry_Int_Tables_number   1
_chemical_formula_structural   BaYFeCuO5
_chemical_formula_sum   'Ba32 Y32 Fe32 Cu32 O160'
_cell_volume   3809.44064276
_cell_formula_units_Z   32
loop_
 _symmetry_equiv_pos_site_id
 _symmetry_equiv_pos_as_xyz
  1  'x, y, z'
loop_
 _atom_type_symbol
 _atom_type_oxidation_number
  Ba2+  2.0
  Y3+  3.0
  Fe3+  3.0
  Cu2+  2.0
  O2-  -2.0
loop_
 _atom_site_type_symbol
 _atom_site_label
 _atom_site_symmetry_multiplicity
 _atom_site_fract_x
 _atom_site_fract_y
 _atom_site_fract_z
 _atom_site_occupancy
  Ba2+  Ba0  1  -0.00215477  0.00239788  0.00248048  1
  Ba2+  Ba1  1  -0.00038963  0.00156841  0.49484921  1
  Ba2+  Ba2  1  0.00130589  0.24245191  0.00683975  1
  Ba2+  Ba3  1  0.00686953  0.24599713  0.49564088  1
  Ba2+  Ba4  1  0.00904504  0.50040967  0.01891947  1
  Ba2+  Ba5  1  0.01057055  0.49702925  0.51188371  1
  Ba2+  Ba6  1  0.00490105  0.75494732  0.01108573  1
  Ba2+  Ba7  1  0.00357691  0.75641912  0.51290268  1
  Ba2+  Ba8  1  0.25187636  0.00114510  0.00093542  1
  Ba2+  Ba9  1  0.25076837  0.00097326  0.51885679  1
  Ba2+  Ba10  1  0.24900364  0.24328240  0.00638780  1
  Ba2+  Ba11  1  0.24895890  0.25065746  0.51327869  1
  Ba2+  Ba12  1  0.24764665  0.50505780  0.02268922  1
  Ba2+  Ba13  1  0.24607907  0.49235472  0.51468274  1
  Ba2+  Ba14  1  0.25201987  0.75015027  0.01658472  1
  Ba2+  Ba15  1  0.24690243  0.75547403  0.52119563  1
  Ba2+  Ba16  1  0.49963404  -0.00172069  0.01534762  1
  Ba2+  Ba17  1  0.49951614  -0.00024110  0.51888697  1
  Ba2+  Ba18  1  0.50114367  0.24346247  0.01510356  1
  Ba2+  Ba19  1  0.49845628  0.24928665  0.51931570  1
  Ba2+  Ba20  1  0.50407470  0.50704867  0.01605769  1
  Ba2+  Ba21  1  0.50437563  0.49738451  0.51656383  1
  Ba2+  Ba22  1  0.50322100  0.75079415  0.01607378  1
  Ba2+  Ba23  1  0.50536455  0.75326474  0.51728334  1
  Ba2+  Ba24  1  0.74942211  -0.00097284  0.01685735  1
  Ba2+  Ba25  1  0.75027889  0.00097970  0.49358947  1
  Ba2+  Ba26  1  0.74809928  0.24338757  0.01658465  1
  Ba2+  Ba27  1  0.74529584  0.24360955  0.49972644  1
  Ba2+  Ba28  1  0.73932768  0.50270190  0.01236462  1
  Ba2+  Ba29  1  0.73934274  0.50175351  0.51136997  1
  Ba2+  Ba30  1  0.74091827  0.75422101  0.01072405  1
  Ba2+  Ba31  1  0.74373282  0.75396003  0.50757647  1
  Y3+  Y32  1  -0.00363795  0.00110245  0.25619799  1
  Y3+  Y33  1  0.00054190  0.00076852  0.76269322  1
  Y3+  Y34  1  0.00125702  0.24895781  0.25734718  1
  Y3+  Y35  1  -0.00000500  0.24880607  0.75989545  1
  Y3+  Y36  1  0.00219509  0.49854703  0.25960677  1
  Y3+  Y37  1  0.00092444  0.49895915  0.75445381  1
  Y3+  Y38  1  -0.00206650  0.75168568  0.25760344  1
  Y3+  Y39  1  0.00122689  0.75101433  0.75681499  1
  Y3+  Y40  1  0.25297774  0.00127545  0.25461348  1
  Y3+  Y41  1  0.25104950  0.00074344  0.76026298  1
  Y3+  Y42  1  0.24889791  0.25000761  0.25719332  1
  Y3+  Y43  1  0.25145966  0.24849798  0.75785016  1
  Y3+  Y44  1  0.24916250  0.49942011  0.25827208  1
  Y3+  Y45  1  0.24896271  0.49796062  0.75218987  1
  Y3+  Y46  1  0.25227338  0.74964114  0.25512834  1
  Y3+  Y47  1  0.24872263  0.75229753  0.75576255  1
  Y3+  Y48  1  0.50019369  0.00032283  0.25214658  1
  Y3+  Y49  1  0.49880969  -0.00130854  0.76067057  1
  Y3+  Y50  1  0.50042398  0.24747866  0.25334062  1
  Y3+  Y51  1  0.49770535  0.24926503  0.75844979  1
  Y3+  Y52  1  0.50207974  0.50310010  0.25634091  1
  Y3+  Y53  1  0.50235748  0.50069717  0.75519319  1
  Y3+  Y54  1  0.50183213  0.74972953  0.25462641  1
  Y3+  Y55  1  0.50399725  0.75035970  0.75786255  1
  Y3+  Y56  1  0.75094842  0.00022097  0.25390669  1
  Y3+  Y57  1  0.74948440  -0.00131857  0.76278057  1
  Y3+  Y58  1  0.74943202  0.24669593  0.25534795  1
  Y3+  Y59  1  0.75064447  0.24933865  0.75967534  1
  Y3+  Y60  1  0.74681205  0.50182416  0.25807739  1
  Y3+  Y61  1  0.74723002  0.50158139  0.75691620  1
  Y3+  Y62  1  0.74797155  0.75187526  0.25636441  1
  Y3+  Y63  1  0.74551417  0.74960207  0.75905009  1
  Fe3+  Fe64  1  0.12619861  0.62654639  0.37701239  1
  Fe3+  Fe65  1  0.37554671  0.87311123  0.87636705  1
  Fe3+  Fe66  1  0.87485672  0.37603592  0.88148447  1
  Fe3+  Fe67  1  0.62415483  0.37465656  0.87798697  1
  Fe3+  Fe68  1  0.37545339  0.87522114  0.37678428  1
  Fe3+  Fe69  1  0.37601054  0.62569365  0.38045961  1
  Fe3+  Fe70  1  0.37605192  0.37472311  0.37576263  1
  Fe3+  Fe71  1  0.87502009  0.62449051  0.88028079  1
  Fe3+  Fe72  1  0.37459285  0.62426957  0.87465307  1
  Fe3+  Fe73  1  0.12603312  0.62469177  0.87419092  1
  Fe3+  Fe74  1  0.87431617  0.37540157  0.37940010  1
  Fe3+  Fe75  1  0.87454533  0.62548297  0.38024780  1
  Fe3+  Fe76  1  0.37571936  0.12472693  0.37645568  1
  Fe3+  Fe77  1  0.87437119  0.87346242  0.87936232  1
  Fe3+  Fe78  1  0.62327298  0.37357342  0.37448706  1
  Fe3+  Fe79  1  0.12595758  0.37558998  0.87744772  1
  Fe3+  Fe80  1  0.62336997  0.87651548  0.37447270  1
  Fe3+  Fe81  1  0.37492186  0.37639831  0.87970969  1
  Fe3+  Fe82  1  0.12667375  0.87624409  0.37540952  1
  Fe3+  Fe83  1  0.62471667  0.12407029  0.87810096  1
  Fe3+  Fe84  1  0.87487974  0.62575624  0.13487950  1
  Fe3+  Fe85  1  0.87408595  0.87738259  0.63796051  1
  Fe3+  Fe86  1  0.37480242  0.62522566  0.63384613  1
  Fe3+  Fe87  1  0.62631706  0.12356685  0.63962590  1
  Fe3+  Fe88  1  0.12520843  0.12417998  0.13946895  1
  Fe3+  Fe89  1  0.87477513  0.12409058  0.63807270  1
  Fe3+  Fe90  1  0.37525702  0.37503111  0.13378204  1
  Fe3+  Fe91  1  0.87429426  0.37303616  0.63347087  1
  Fe3+  Fe92  1  0.87489294  0.37531391  0.13547006  1
  Fe3+  Fe93  1  0.87491904  0.62543251  0.63394110  1
  Fe3+  Fe94  1  0.12526972  0.87650744  0.13763791  1
  Fe3+  Fe95  1  0.12347474  0.12429544  0.64100343  1
  Cu2+  Cu96  1  0.87455154  0.87470191  0.36300231  1
  Cu2+  Cu97  1  0.37620878  0.12529015  0.87410412  1
  Cu2+  Cu98  1  0.12687944  0.12388668  0.36084577  1
  Cu2+  Cu99  1  0.62401584  0.62469387  0.87148611  1
  Cu2+  Cu100  1  0.62311629  0.12445450  0.35959096  1
  Cu2+  Cu101  1  0.62420607  0.87484838  0.87388552  1
  Cu2+  Cu102  1  0.87475703  0.12594882  0.36167307  1
  Cu2+  Cu103  1  0.87359637  0.12559357  0.87644265  1
  Cu2+  Cu104  1  0.62409769  0.62613688  0.37307135  1
  Cu2+  Cu105  1  0.12555524  0.87444728  0.86499066  1
  Cu2+  Cu106  1  0.12533169  0.12536984  0.86441157  1
  Cu2+  Cu107  1  0.12637270  0.37449931  0.37169909  1
  Cu2+  Cu108  1  0.37549667  0.87485972  0.65183171  1
  Cu2+  Cu109  1  0.12413433  0.62607703  0.15473937  1
  Cu2+  Cu110  1  0.62591115  0.62597158  0.14509700  1
  Cu2+  Cu111  1  0.87617400  0.12496677  0.14243411  1
  Cu2+  Cu112  1  0.87545228  0.87461864  0.14768298  1
  Cu2+  Cu113  1  0.12453271  0.62524134  0.64816942  1
  Cu2+  Cu114  1  0.62498810  0.87546707  0.14221421  1
  Cu2+  Cu115  1  0.62619640  0.37300132  0.65265746  1
  Cu2+  Cu116  1  0.12517120  0.37414635  0.15034980  1
  Cu2+  Cu117  1  0.12342508  0.37145837  0.64325479  1
  Cu2+  Cu118  1  0.62517801  0.12446543  0.15039996  1
  Cu2+  Cu119  1  0.37502723  0.12443359  0.65305468  1
  Cu2+  Cu120  1  0.62574135  0.62573729  0.64125260  1
  Cu2+  Cu121  1  0.12350261  0.87751161  0.65460644  1
  Cu2+  Cu122  1  0.37372834  0.12508474  0.13970339  1
  Cu2+  Cu123  1  0.37535721  0.37467332  0.65131488  1
  Cu2+  Cu124  1  0.37521666  0.62478488  0.15227260  1
  Cu2+  Cu125  1  0.37478260  0.87480669  0.14816408  1
  Cu2+  Cu126  1  0.62505098  0.37496052  0.14882855  1
  Cu2+  Cu127  1  0.62632542  0.87673732  0.65362756  1
  O2-  O128  1  0.12486691  0.12373009  0.01857460  1
  O2-  O129  1  0.12402515  0.12372160  0.52059541  1
  O2-  O130  1  0.12651846  0.37852321  -0.00289954  1
  O2-  O131  1  0.12495525  0.37249084  0.50689125  1
  O2-  O132  1  0.12612769  0.62457679  -0.00563057  1
  O2-  O133  1  0.12564208  0.62721992  0.49705859  1
  O2-  O134  1  0.12536196  0.87577034  0.01720163  1
  O2-  O135  1  0.12648986  0.87642148  0.49588563  1
  O2-  O136  1  0.37435742  0.12568049  0.00634392  1
  O2-  O137  1  0.37592484  0.12475026  0.49685265  1
  O2-  O138  1  0.37399736  0.37776342  0.00532061  1
  O2-  O139  1  0.37654973  0.37379256  0.49548595  1
  O2-  O140  1  0.37343040  0.62440665  -0.00540048  1
  O2-  O141  1  0.37512990  0.62510307  0.50587820  1
  O2-  O142  1  0.37448222  0.87150570  -0.00339232  1
  O2-  O143  1  0.37474885  0.87608694  0.49632411  1
  O2-  O144  1  0.62514698  0.12498003  -0.00110834  1
  O2-  O145  1  0.62568199  0.12344790  0.51925801  1
  O2-  O146  1  0.62424868  0.37551413  -0.00246865  1
  O2-  O147  1  0.62346594  0.37229696  0.49498856  1
  O2-  O148  1  0.62461243  0.62478505  0.00684178  1
  O2-  O149  1  0.62486052  0.62578343  0.50740608  1
  O2-  O150  1  0.62393456  0.87558992  0.00781187  1
  O2-  O151  1  0.62389996  0.87748571  0.49500330  1
  O2-  O152  1  0.87499444  0.12636559  0.00866689  1
  O2-  O153  1  0.87521632  0.12440590  0.51844595  1
  O2-  O154  1  0.87571028  0.37700881  0.00766131  1
  O2-  O155  1  0.87436319  0.37368248  0.50646065  1
  O2-  O156  1  0.87585505  0.62447075  0.00697348  1
  O2-  O157  1  0.87519019  0.62533441  0.50700979  1
  O2-  O158  1  0.87555829  0.87182337  -0.00027954  1
  O2-  O159  1  0.87496759  0.87804972  0.51778114  1
  O2-  O160  1  0.12503078  -0.00035406  0.16906959  1
  O2-  O161  1  0.12497795  0.00140655  0.67183659  1
  O2-  O162  1  0.12465413  0.24969790  0.16607785  1
  O2-  O163  1  0.12472180  0.24716493  0.67121377  1
  O2-  O164  1  0.12409931  0.50064210  0.16446883  1
  O2-  O165  1  0.12334106  0.49946755  0.66031960  1
  O2-  O166  1  0.12449066  0.75079887  0.16483999  1
  O2-  O167  1  0.12371401  0.75161950  0.66171945  1
  O2-  O168  1  0.37487346  -0.00086255  0.16287219  1
  O2-  O169  1  0.37510832  -0.00119746  0.66676331  1
  O2-  O170  1  0.37484935  0.25335595  0.16150695  1
  O2-  O171  1  0.37522136  0.25040953  0.66687523  1
  O2-  O172  1  0.37502566  0.49877380  0.16434875  1
  O2-  O173  1  0.37471181  0.50112415  0.65994443  1
  O2-  O174  1  0.37494650  0.74883810  0.16469345  1
  O2-  O175  1  0.37396351  0.74879188  0.65951862  1
  O2-  O176  1  0.62524120  0.00100166  0.16372331  1
  O2-  O177  1  0.62477046  0.00069841  0.66992287  1
  O2-  O178  1  0.62600147  0.24967756  0.16313808  1
  O2-  O179  1  0.62546754  0.24853837  0.66748514  1
  O2-  O180  1  0.62565908  0.50013361  0.16589118  1
  O2-  O181  1  0.62595914  0.49760153  0.66266699  1
  O2-  O182  1  0.62569431  0.75009564  0.16533632  1
  O2-  O183  1  0.62627370  0.75236542  0.66436547  1
  O2-  O184  1  0.87520588  -0.00104453  0.16442685  1
  O2-  O185  1  0.87472842  0.00072890  0.67268876  1
  O2-  O186  1  0.87500801  0.25354389  0.16436441  1
  O2-  O187  1  0.87410241  0.25018104  0.66799753  1
  O2-  O188  1  0.87561152  0.50030286  0.16367075  1
  O2-  O189  1  0.87545799  0.49987964  0.66019487  1
  O2-  O190  1  0.87569020  0.74786175  0.16411023  1
  O2-  O191  1  0.87584678  0.74922691  0.66275184  1
  O2-  O192  1  0.00188818  0.12564932  0.16876780  1
  O2-  O193  1  -0.00153448  0.12531101  0.67264055  1
  O2-  O194  1  -0.00147279  0.37631505  0.16580717  1
  O2-  O195  1  -0.00458918  0.37442486  0.66689700  1
  O2-  O196  1  -0.00215106  0.62429865  0.16484507  1
  O2-  O197  1  -0.00180237  0.62456826  0.66445504  1
  O2-  O198  1  0.00074836  0.87434973  0.16732999  1
  O2-  O199  1  -0.00158100  0.87534895  0.66910834  1
  O2-  O200  1  0.24834068  0.12576030  0.16636653  1
  O2-  O201  1  0.25044538  0.12469686  0.66614734  1
  O2-  O202  1  0.25134658  0.37648481  0.16231299  1
  O2-  O203  1  0.25069722  0.37426382  0.66384331  1
  O2-  O204  1  0.24934271  0.62481840  0.16403405  1
  O2-  O205  1  0.25072461  0.62437221  0.65997746  1
  O2-  O206  1  0.25009494  0.87384726  0.16431807  1
  O2-  O207  1  0.24906777  0.87546021  0.66343130  1
  O2-  O208  1  0.50084805  0.12563330  0.16065709  1
  O2-  O209  1  0.49985853  0.12511116  0.66504509  1
  O2-  O210  1  0.49898805  0.37567915  0.15909552  1
  O2-  O211  1  0.50066697  0.37459559  0.66407281  1
  O2-  O212  1  0.49949418  0.62500979  0.16481702  1
  O2-  O213  1  0.49736927  0.62483230  0.66222568  1
  O2-  O214  1  0.49803464  0.87440021  0.16228969  1
  O2-  O215  1  0.50117994  0.87469929  0.66304695  1
  O2-  O216  1  0.74937359  0.12516668  0.16522124  1
  O2-  O217  1  0.75063001  0.12526318  0.67030702  1
  O2-  O218  1  0.75157283  0.37626493  0.16398774  1
  O2-  O219  1  0.75261157  0.37555356  0.66572474  1
  O2-  O220  1  0.75332757  0.62442290  0.16577978  1
  O2-  O221  1  0.75348603  0.62443956  0.66638273  1
  O2-  O222  1  0.75145910  0.87474421  0.16535245  1
  O2-  O223  1  0.75100971  0.87452773  0.66901961  1
  O2-  O224  1  0.12474333  -0.00052891  0.34815529  1
  O2-  O225  1  0.12485578  0.00127878  0.85429461  1
  O2-  O226  1  0.12535051  0.24781602  0.34859275  1
  O2-  O227  1  0.12473811  0.25076154  0.85181278  1
  O2-  O228  1  0.12512262  0.50262654  0.34746527  1
  O2-  O229  1  0.12459098  0.49954667  0.84113921  1
  O2-  O230  1  0.12468353  0.75064230  0.34470232  1
  O2-  O231  1  0.12467382  0.74803403  0.84478833  1
  O2-  O232  1  0.37523881  -0.00016930  0.34445213  1
  O2-  O233  1  0.37435167  -0.00214962  0.85006732  1
  O2-  O234  1  0.37530714  0.24972709  0.34328172  1
  O2-  O235  1  0.37489242  0.25368653  0.85122563  1
  O2-  O236  1  0.37521103  0.50144891  0.34803499  1
  O2-  O237  1  0.37438915  0.49859893  0.84271953  1
  O2-  O238  1  0.37500617  0.74925681  0.34790729  1
  O2-  O239  1  0.37400137  0.74891255  0.84147384  1
  O2-  O240  1  0.62529067  0.00024540  0.34592798  1
  O2-  O241  1  0.62507940  0.00102429  0.85015453  1
  O2-  O242  1  0.62504059  0.24956773  0.34572307  1
  O2-  O243  1  0.62501984  0.25083152  0.84722324  1
  O2-  O244  1  0.62516185  0.49816265  0.34787925  1
  O2-  O245  1  0.62521887  0.49772325  0.84507877  1
  O2-  O246  1  0.62554176  0.75270026  0.34697069  1
  O2-  O247  1  0.62489932  0.74922956  0.84817824  1
  O2-  O248  1  0.87508051  0.00129896  0.34934084  1
  O2-  O249  1  0.87557000  -0.00246809  0.85227644  1
  O2-  O250  1  0.87474682  0.25183910  0.34973730  1
  O2-  O251  1  0.87542878  0.25439938  0.85097933  1
  O2-  O252  1  0.87491573  0.50001302  0.34955315  1
  O2-  O253  1  0.87531620  0.49991947  0.84676032  1
  O2-  O254  1  0.87498811  0.74778915  0.34891891  1
  O2-  O255  1  0.87590652  0.74762118  0.84681979  1
  O2-  O256  1  0.00092751  0.12574662  0.35151904  1
  O2-  O257  1  0.00163155  0.12590302  0.85364439  1
  O2-  O258  1  -0.00281752  0.37538397  0.35048988  1
  O2-  O259  1  -0.00063734  0.37608145  0.84982158  1
  O2-  O260  1  -0.00103363  0.62491671  0.34907135  1
  O2-  O261  1  -0.00097512  0.62376578  0.84767630  1
  O2-  O262  1  0.00021007  0.87483181  0.34943611  1
  O2-  O263  1  0.00008141  0.87343920  0.85104090  1
  O2-  O264  1  0.25151340  0.12492141  0.34647095  1
  O2-  O265  1  0.24849703  0.12557005  0.84978537  1
  O2-  O266  1  0.25275821  0.37561863  0.34475533  1
  O2-  O267  1  0.25085286  0.37533498  0.84667801  1
  O2-  O268  1  0.25171998  0.62531811  0.34717005  1
  O2-  O269  1  0.24976802  0.62389810  0.84100249  1
  O2-  O270  1  0.25083583  0.87461799  0.34339654  1
  O2-  O271  1  0.25002718  0.87429258  0.84707439  1
  O2-  O272  1  0.49859649  0.12494436  0.34297192  1
  O2-  O273  1  0.50211548  0.12561502  0.84648441  1
  O2-  O274  1  0.49973405  0.37510938  0.34053814  1
  O2-  O275  1  0.49858197  0.37589909  0.84758078  1
  O2-  O276  1  0.49726215  0.62536436  0.34802542  1
  O2-  O277  1  0.49783429  0.62381337  0.84418784  1
  O2-  O278  1  0.49930674  0.87508858  0.34286214  1
  O2-  O279  1  0.49832243  0.87372751  0.84584533  1
  O2-  O280  1  0.74916750  0.12600756  0.35021648  1
  O2-  O281  1  0.74792551  0.12611844  0.84862475  1
  O2-  O282  1  0.75071578  0.37496820  0.34840361  1
  O2-  O283  1  0.75108556  0.37623223  0.84950920  1
  O2-  O284  1  0.75252227  0.62448036  0.35022352  1
  O2-  O285  1  0.75308632  0.62373107  0.85061562  1
  O2-  O286  1  0.74968566  0.87555878  0.34853289  1
  O2-  O287  1  0.75149629  0.87298182  0.84969098  1
