# generated using pymatgen
data_BaYFeCuO5
_symmetry_space_group_name_H-M   'P 1'
_cell_length_a   15.65788021
_cell_length_b   15.66253406
_cell_length_c   15.45977633
_cell_angle_alpha   90.00192058
_cell_angle_beta   90.00403412
_cell_angle_gamma   90.00090293
_symmetry_Int_Tables_number   1
_chemical_formula_structural   BaYFeCuO5
_chemical_formula_sum   'Ba32 Y32 Fe32 Cu32 O160'
_cell_volume   3791.38772252
_cell_formula_units_Z   32
loop_
 _symmetry_equiv_pos_site_id
 _symmetry_equiv_pos_as_xyz
  1  'x, y, z'
loop_
 _atom_type_symbol
 _atom_type_oxidation_number
  Ba2+  2.0
  Y3+  3.0
  Fe3+  3.0
  Cu2+  2.0
  O2-  -2.0
loop_
 _atom_site_type_symbol
 _atom_site_label
 _atom_site_symmetry_multiplicity
 _atom_site_fract_x
 _atom_site_fract_y
 _atom_site_fract_z
 _atom_site_occupancy
  Ba2+  Ba0  1  0.00451427  -0.00006262  0.01132712  1
  Ba2+  Ba1  1  0.00030663  -0.00080543  0.50193576  1
  Ba2+  Ba2  1  0.00553233  0.24047382  0.01023969  1
  Ba2+  Ba3  1  -0.00721334  0.25212403  0.49909050  1
  Ba2+  Ba4  1  0.00511972  0.50985229  0.01034362  1
  Ba2+  Ba5  1  -0.00124942  0.49113060  0.50761223  1
  Ba2+  Ba6  1  0.00360930  0.74983036  0.01192183  1
  Ba2+  Ba7  1  0.00548708  0.75644789  0.50771166  1
  Ba2+  Ba8  1  0.24681920  -0.00414889  0.01127162  1
  Ba2+  Ba9  1  0.24852990  -0.00956955  0.51263231  1
  Ba2+  Ba10  1  0.24704078  0.24693467  0.02124974  1
  Ba2+  Ba11  1  0.24525906  0.25352702  0.51161721  1
  Ba2+  Ba12  1  0.24821962  0.50346442  0.02175153  1
  Ba2+  Ba13  1  0.25048914  0.50139891  0.50657428  1
  Ba2+  Ba14  1  0.24742898  0.75324487  0.01080280  1
  Ba2+  Ba15  1  0.25302810  0.75569567  0.50731971  1
  Ba2+  Ba16  1  0.49174191  -0.00730100  0.01488670  1
  Ba2+  Ba17  1  0.50852010  -0.00418616  0.51081896  1
  Ba2+  Ba18  1  0.48927159  0.24963712  0.01731085  1
  Ba2+  Ba19  1  0.51168488  0.24732256  0.51222707  1
  Ba2+  Ba20  1  0.49463395  0.50626095  0.02109192  1
  Ba2+  Ba21  1  0.50491236  0.50434653  0.51170944  1
  Ba2+  Ba22  1  0.49644772  0.75192223  0.02085529  1
  Ba2+  Ba23  1  0.50255790  0.75368293  0.51120375  1
  Ba2+  Ba24  1  0.75721140  -0.00406666  0.01699373  1
  Ba2+  Ba25  1  0.74277869  0.00443162  0.50151238  1
  Ba2+  Ba26  1  0.75702671  0.24325720  0.00698429  1
  Ba2+  Ba27  1  0.74928086  0.24638784  0.49919582  1
  Ba2+  Ba28  1  0.75261531  0.51157712  0.01057522  1
  Ba2+  Ba29  1  0.74571942  0.49523846  0.51437672  1
  Ba2+  Ba30  1  0.75188799  0.74971665  0.02156875  1
  Ba2+  Ba31  1  0.74033713  0.75273099  0.51153568  1
  Y3+  Y32  1  0.00055065  -0.00046522  0.25483167  1
  Y3+  Y33  1  0.00276957  -0.00036401  0.76169296  1
  Y3+  Y34  1  -0.00047601  0.24771384  0.25374059  1
  Y3+  Y35  1  0.00073007  0.24777656  0.76191768  1
  Y3+  Y36  1  0.00059470  0.50129369  0.25416970  1
  Y3+  Y37  1  0.00016473  0.50233453  0.76107746  1
  Y3+  Y38  1  0.00145669  0.75137049  0.25564447  1
  Y3+  Y39  1  0.00327035  0.75039582  0.76097218  1
  Y3+  Y40  1  0.24877213  -0.00258345  0.25490326  1
  Y3+  Y41  1  0.24850570  -0.00472065  0.75995639  1
  Y3+  Y42  1  0.24927806  0.24934950  0.25524827  1
  Y3+  Y43  1  0.24777022  0.24914713  0.75696937  1
  Y3+  Y44  1  0.24984507  0.50218125  0.25641138  1
  Y3+  Y45  1  0.24764887  0.50140921  0.75659922  1
  Y3+  Y46  1  0.24953077  0.75152377  0.25610147  1
  Y3+  Y47  1  0.24866557  0.75405912  0.75923575  1
  Y3+  Y48  1  0.50086737  -0.00243358  0.25773320  1
  Y3+  Y49  1  0.50022233  -0.00266948  0.75494000  1
  Y3+  Y50  1  0.49924795  0.24840935  0.25749772  1
  Y3+  Y51  1  0.50225419  0.24863428  0.75568250  1
  Y3+  Y52  1  0.49744111  0.50281552  0.25680410  1
  Y3+  Y53  1  0.50183521  0.50057319  0.75515341  1
  Y3+  Y54  1  0.49922199  0.75119279  0.25740608  1
  Y3+  Y55  1  0.49952446  0.75346963  0.75503801  1
  Y3+  Y56  1  0.74939416  -0.00022993  0.25848993  1
  Y3+  Y57  1  0.74899785  0.00031827  0.75699361  1
  Y3+  Y58  1  0.75223834  0.24675979  0.25654228  1
  Y3+  Y59  1  0.74959252  0.24739817  0.75929770  1
  Y3+  Y60  1  0.75195355  0.50226937  0.25449063  1
  Y3+  Y61  1  0.75023762  0.50188061  0.75969852  1
  Y3+  Y62  1  0.74883613  0.75157935  0.25661156  1
  Y3+  Y63  1  0.74906479  0.75017432  0.75646208  1
  Fe3+  Fe64  1  0.37581060  0.37513741  0.37875759  1
  Fe3+  Fe65  1  0.37538960  0.87509950  0.37624077  1
  Fe3+  Fe66  1  0.62351026  0.62684288  0.87679696  1
  Fe3+  Fe67  1  0.87493757  0.62468776  0.38044344  1
  Fe3+  Fe68  1  0.37415202  0.12430552  0.87523047  1
  Fe3+  Fe69  1  0.87591647  0.37536171  0.88171916  1
  Fe3+  Fe70  1  0.37452934  0.37578413  0.87572109  1
  Fe3+  Fe71  1  0.62501385  0.62518087  0.37471410  1
  Fe3+  Fe72  1  0.87485303  0.87423013  0.87670085  1
  Fe3+  Fe73  1  0.87440442  0.87486272  0.37910042  1
  Fe3+  Fe74  1  0.12536697  0.12432098  0.37921257  1
  Fe3+  Fe75  1  0.62390709  0.37527228  0.88159161  1
  Fe3+  Fe76  1  0.37518198  0.12453919  0.38014253  1
  Fe3+  Fe77  1  0.12502067  0.62575401  0.37947431  1
  Fe3+  Fe78  1  0.37473116  0.62573196  0.87553818  1
  Fe3+  Fe79  1  0.62352364  0.12333175  0.88135628  1
  Fe3+  Fe80  1  0.12654008  0.37532062  0.87866621  1
  Fe3+  Fe81  1  0.62580788  0.37560810  0.37267473  1
  Fe3+  Fe82  1  0.62456456  0.87453737  0.87890553  1
  Fe3+  Fe83  1  0.12437971  0.37477420  0.37487884  1
  Fe3+  Fe84  1  0.37513359  0.62618199  0.63531403  1
  Fe3+  Fe85  1  0.87502399  0.62536568  0.63412510  1
  Fe3+  Fe86  1  0.62412670  0.12391989  0.13484658  1
  Fe3+  Fe87  1  0.37501514  0.12386820  0.63305096  1
  Fe3+  Fe88  1  0.37560040  0.37481145  0.63311148  1
  Fe3+  Fe89  1  0.87482541  0.37354803  0.64138050  1
  Fe3+  Fe90  1  0.12443714  0.62494014  0.63465093  1
  Fe3+  Fe91  1  0.12366990  0.12499582  0.63499612  1
  Fe3+  Fe92  1  0.87629692  0.37511259  0.13448041  1
  Fe3+  Fe93  1  0.62530813  0.37524416  0.13347831  1
  Fe3+  Fe94  1  0.87505287  0.87583400  0.63446739  1
  Fe3+  Fe95  1  0.87513076  0.12443362  0.63838667  1
  Cu2+  Cu96  1  0.62395650  0.12506136  0.36870343  1
  Cu2+  Cu97  1  0.37577503  0.87448902  0.87173724  1
  Cu2+  Cu98  1  0.87471242  0.37566844  0.35820689  1
  Cu2+  Cu99  1  0.87544122  0.12310230  0.87449987  1
  Cu2+  Cu100  1  0.12519843  0.87477529  0.87263109  1
  Cu2+  Cu101  1  0.12515873  0.87533422  0.37185806  1
  Cu2+  Cu102  1  0.87562653  0.12424789  0.36221952  1
  Cu2+  Cu103  1  0.62485477  0.87465176  0.37044539  1
  Cu2+  Cu104  1  0.87507470  0.62734405  0.87318203  1
  Cu2+  Cu105  1  0.12695830  0.12429341  0.87211861  1
  Cu2+  Cu106  1  0.37481888  0.62535932  0.36781208  1
  Cu2+  Cu107  1  0.12663913  0.62560696  0.87196881  1
  Cu2+  Cu108  1  0.62539603  0.62523580  0.65084911  1
  Cu2+  Cu109  1  0.87531284  0.87494400  0.15388898  1
  Cu2+  Cu110  1  0.62639065  0.37448296  0.65429528  1
  Cu2+  Cu111  1  0.37494067  0.12359009  0.15368437  1
  Cu2+  Cu112  1  0.37403582  0.62640479  0.15411968  1
  Cu2+  Cu113  1  0.12516256  0.62646759  0.14521449  1
  Cu2+  Cu114  1  0.62467944  0.62535181  0.15137501  1
  Cu2+  Cu115  1  0.62648434  0.87578746  0.64237045  1
  Cu2+  Cu116  1  0.12358123  0.87511524  0.64228429  1
  Cu2+  Cu117  1  0.12552945  0.12353070  0.14499428  1
  Cu2+  Cu118  1  0.12358445  0.37493982  0.65030878  1
  Cu2+  Cu119  1  0.37378859  0.87467457  0.14384245  1
  Cu2+  Cu120  1  0.87538374  0.12385705  0.14264112  1
  Cu2+  Cu121  1  0.37476425  0.37533211  0.15357054  1
  Cu2+  Cu122  1  0.62642642  0.12459091  0.64353966  1
  Cu2+  Cu123  1  0.12458073  0.87475820  0.14394668  1
  Cu2+  Cu124  1  0.12465990  0.37516861  0.14876245  1
  Cu2+  Cu125  1  0.87608210  0.62622251  0.14372934  1
  Cu2+  Cu126  1  0.62476534  0.87522339  0.14856241  1
  Cu2+  Cu127  1  0.37475547  0.87536223  0.64973920  1
  O2-  O128  1  0.12783255  0.12447874  0.00785515  1
  O2-  O129  1  0.12280723  0.12643474  0.50696036  1
  O2-  O130  1  0.12839176  0.37566691  -0.00104597  1
  O2-  O131  1  0.12367532  0.37415658  0.49565557  1
  O2-  O132  1  0.12733740  0.62521137  0.00770239  1
  O2-  O133  1  0.12348418  0.62378973  0.50714880  1
  O2-  O134  1  0.12449579  0.87474156  0.00862056  1
  O2-  O135  1  0.12421021  0.87566604  0.50763724  1
  O2-  O136  1  0.37389482  0.12598854  -0.00442095  1
  O2-  O137  1  0.37626394  0.12528913  0.50604361  1
  O2-  O138  1  0.37450906  0.37607380  -0.00436984  1
  O2-  O139  1  0.37672091  0.37491981  0.50522047  1
  O2-  O140  1  0.37483516  0.62431660  -0.00395423  1
  O2-  O141  1  0.37556561  0.62458750  0.51479722  1
  O2-  O142  1  0.37482176  0.87389085  0.00748750  1
  O2-  O143  1  0.37626627  0.87559585  0.49742230  1
  O2-  O144  1  0.62256404  0.12377291  0.00745198  1
  O2-  O145  1  0.62580351  0.12650148  0.50674083  1
  O2-  O146  1  0.62268025  0.37554287  0.00661751  1
  O2-  O147  1  0.62622594  0.37530204  0.49334766  1
  O2-  O148  1  0.62260392  0.62621747  -0.00281811  1
  O2-  O149  1  0.62632460  0.62269623  0.49548633  1
  O2-  O150  1  0.62466212  0.87409018  -0.00072332  1
  O2-  O151  1  0.62628504  0.87517797  0.50636676  1
  O2-  O152  1  0.87509944  0.12344910  0.00837177  1
  O2-  O153  1  0.87496918  0.12702288  0.51805511  1
  O2-  O154  1  0.87677961  0.37586408  0.00800428  1
  O2-  O155  1  0.87276355  0.37333629  0.52061309  1
  O2-  O156  1  0.87511614  0.62697183  0.00717510  1
  O2-  O157  1  0.87445617  0.62205975  0.50707373  1
  O2-  O158  1  0.87450524  0.87286607  -0.00243987  1
  O2-  O159  1  0.87383620  0.87614617  0.50711118  1
  O2-  O160  1  0.12497539  -0.00052073  0.16787558  1
  O2-  O161  1  0.12514034  0.00350042  0.66445330  1
  O2-  O162  1  0.12535978  0.25038423  0.16579475  1
  O2-  O163  1  0.12483694  0.24843413  0.66415977  1
  O2-  O164  1  0.12529124  0.49965402  0.16640602  1
  O2-  O165  1  0.12361066  0.50159138  0.66199242  1
  O2-  O166  1  0.12443181  0.75037700  0.16873190  1
  O2-  O167  1  0.12471292  0.74645726  0.66333513  1
  O2-  O168  1  0.37519805  0.00046174  0.16689838  1
  O2-  O169  1  0.37405958  0.00151978  0.66197748  1
  O2-  O170  1  0.37529621  0.24960357  0.16583876  1
  O2-  O171  1  0.37492871  0.25029887  0.65958322  1
  O2-  O172  1  0.37433526  0.50082533  0.16609874  1
  O2-  O173  1  0.37624172  0.49860502  0.66120107  1
  O2-  O174  1  0.37492647  0.74925382  0.16691374  1
  O2-  O175  1  0.37464314  0.74984816  0.66307796  1
  O2-  O176  1  0.62464563  0.00160455  0.16386681  1
  O2-  O177  1  0.62549188  0.00006737  0.66649243  1
  O2-  O178  1  0.62404976  0.25012206  0.16021423  1
  O2-  O179  1  0.62593119  0.25068677  0.66933406  1
  O2-  O180  1  0.62559592  0.49835421  0.16098842  1
  O2-  O181  1  0.62573570  0.49952370  0.66440320  1
  O2-  O182  1  0.62504208  0.74991595  0.16522374  1
  O2-  O183  1  0.62563503  0.74926444  0.66146154  1
  O2-  O184  1  0.87436930  -0.00189934  0.16767073  1
  O2-  O185  1  0.87560638  -0.00049687  0.66394618  1
  O2-  O186  1  0.87491401  0.25269542  0.16371246  1
  O2-  O187  1  0.87524350  0.24928074  0.67251200  1
  O2-  O188  1  0.87484780  0.49732973  0.16459825  1
  O2-  O189  1  0.87469376  0.50153707  0.66586006  1
  O2-  O190  1  0.87469519  0.75190291  0.17017178  1
  O2-  O191  1  0.87436507  0.74916468  0.65602105  1
  O2-  O192  1  0.00007597  0.12450397  0.16730730  1
  O2-  O193  1  0.00075198  0.12542187  0.66732578  1
  O2-  O194  1  -0.00136593  0.37519995  0.16442945  1
  O2-  O195  1  -0.00117954  0.37531496  0.66916117  1
  O2-  O196  1  0.00010174  0.62519867  0.16905612  1
  O2-  O197  1  -0.00075309  0.62457015  0.66366783  1
  O2-  O198  1  -0.00153635  0.87502759  0.16816319  1
  O2-  O199  1  -0.00347530  0.87418412  0.66498594  1
  O2-  O200  1  0.25171507  0.12528450  0.16967369  1
  O2-  O201  1  0.24993621  0.12684938  0.65625049  1
  O2-  O202  1  0.25031999  0.37493926  0.16743463  1
  O2-  O203  1  0.25112983  0.37530655  0.65735681  1
  O2-  O204  1  0.25081330  0.62508829  0.16920721  1
  O2-  O205  1  0.24891878  0.62312752  0.66069889  1
  O2-  O206  1  0.24970696  0.87479993  0.16691601  1
  O2-  O207  1  0.25026257  0.87494928  0.66444753  1
  O2-  O208  1  0.50130578  0.12564173  0.16349700  1
  O2-  O209  1  0.49702863  0.12592567  0.66275946  1
  O2-  O210  1  0.50155631  0.37525645  0.16269085  1
  O2-  O211  1  0.49942013  0.37400015  0.66104856  1
  O2-  O212  1  0.49951805  0.62436873  0.16337462  1
  O2-  O213  1  0.50004112  0.62434856  0.66218033  1
  O2-  O214  1  0.50059961  0.87499992  0.16464485  1
  O2-  O215  1  0.49926348  0.87557972  0.66297685  1
  O2-  O216  1  0.74653568  0.12522246  0.16264522  1
  O2-  O217  1  0.75256342  0.12513921  0.67059123  1
  O2-  O218  1  0.74979797  0.37472427  0.15866050  1
  O2-  O219  1  0.75120694  0.37546899  0.67302232  1
  O2-  O220  1  0.74916052  0.62524890  0.16441471  1
  O2-  O221  1  0.75159759  0.62405086  0.66308561  1
  O2-  O222  1  0.75017623  0.87504478  0.16523093  1
  O2-  O223  1  0.75388569  0.87487881  0.66519937  1
  O2-  O224  1  0.12500848  0.00294478  0.35144155  1
  O2-  O225  1  0.12600476  -0.00055679  0.84848706  1
  O2-  O226  1  0.12487122  0.24889010  0.34871915  1
  O2-  O227  1  0.12583678  0.25196728  0.84702767  1
  O2-  O228  1  0.12426446  0.50084157  0.34943282  1
  O2-  O229  1  0.12539076  0.49804775  0.84482433  1
  O2-  O230  1  0.12470982  0.74755793  0.35251313  1
  O2-  O231  1  0.12561515  0.75037449  0.84742016  1
  O2-  O232  1  0.37467587  0.00154260  0.34947637  1
  O2-  O233  1  0.37586818  0.00117003  0.84560052  1
  O2-  O234  1  0.37507367  0.25047861  0.35091645  1
  O2-  O235  1  0.37589666  0.25082928  0.84174001  1
  O2-  O236  1  0.37477685  0.49797399  0.35101460  1
  O2-  O237  1  0.37555758  0.49941197  0.84127476  1
  O2-  O238  1  0.37458181  0.75059996  0.34969316  1
  O2-  O239  1  0.37576608  0.74871507  0.84492361  1
  O2-  O240  1  0.62502901  0.00015787  0.34805322  1
  O2-  O241  1  0.62424813  0.00074103  0.84873278  1
  O2-  O242  1  0.62518610  0.25204780  0.34342232  1
  O2-  O243  1  0.62395479  0.25032768  0.85339084  1
  O2-  O244  1  0.62525688  0.50022501  0.34252230  1
  O2-  O245  1  0.62482260  0.49864986  0.84833750  1
  O2-  O246  1  0.62527675  0.74805195  0.34811628  1
  O2-  O247  1  0.62454631  0.75043266  0.84330534  1
  O2-  O248  1  0.87479410  -0.00146940  0.35254076  1
  O2-  O249  1  0.87424637  -0.00234368  0.84525796  1
  O2-  O250  1  0.87463602  0.24970079  0.34840064  1
  O2-  O251  1  0.87481126  0.25286344  0.85346555  1
  O2-  O252  1  0.87558802  0.50243806  0.34893090  1
  O2-  O253  1  0.87433664  0.49657540  0.84925336  1
  O2-  O254  1  0.87516674  0.74901157  0.35483955  1
  O2-  O255  1  0.87460758  0.75280548  0.83934006  1
  O2-  O256  1  0.00167478  0.12587034  0.35190586  1
  O2-  O257  1  0.00082769  0.12473394  0.85015882  1
  O2-  O258  1  0.00001088  0.37474907  0.34823602  1
  O2-  O259  1  -0.00013532  0.37528783  0.85131876  1
  O2-  O260  1  -0.00017465  0.62454439  0.35322450  1
  O2-  O261  1  0.00051148  0.62501766  0.84841951  1
  O2-  O262  1  -0.00269394  0.87491423  0.35224550  1
  O2-  O263  1  -0.00075365  0.87487707  0.84769670  1
  O2-  O264  1  0.25023617  0.12667331  0.35407270  1
  O2-  O265  1  0.25236364  0.12542479  0.83951164  1
  O2-  O266  1  0.25094710  0.37471350  0.35125906  1
  O2-  O267  1  0.25066924  0.37499869  0.84016021  1
  O2-  O268  1  0.24780652  0.62367479  0.35365507  1
  O2-  O269  1  0.25234795  0.62451270  0.84227762  1
  O2-  O270  1  0.25136651  0.87541979  0.34922046  1
  O2-  O271  1  0.25021629  0.87478716  0.84899433  1
  O2-  O272  1  0.49643813  0.12619847  0.34732014  1
  O2-  O273  1  0.50135455  0.12581368  0.84574785  1
  O2-  O274  1  0.49869659  0.37510983  0.34625789  1
  O2-  O275  1  0.50132863  0.37481297  0.84479095  1
  O2-  O276  1  0.50049802  0.62401796  0.34699128  1
  O2-  O277  1  0.50017977  0.62395281  0.84230640  1
  O2-  O278  1  0.49848294  0.87519303  0.34674428  1
  O2-  O279  1  0.50227642  0.87553315  0.84564445  1
  O2-  O280  1  0.75140504  0.12562738  0.34694852  1
  O2-  O281  1  0.74580553  0.12574643  0.85293475  1
  O2-  O282  1  0.75016180  0.37535638  0.34227205  1
  O2-  O283  1  0.74878404  0.37462356  0.85663133  1
  O2-  O284  1  0.75177804  0.62442828  0.34719394  1
  O2-  O285  1  0.74711382  0.62476628  0.84652533  1
  O2-  O286  1  0.75262934  0.87477805  0.34938685  1
  O2-  O287  1  0.74848801  0.87502853  0.84560180  1
