# generated using pymatgen
data_BaYFeCuO5
_symmetry_space_group_name_H-M   'P 1'
_cell_length_a   15.65346943
_cell_length_b   15.65617137
_cell_length_c   15.45213686
_cell_angle_alpha   90.00208013
_cell_angle_beta   89.99657094
_cell_angle_gamma   89.99718556
_symmetry_Int_Tables_number   1
_chemical_formula_structural   BaYFeCuO5
_chemical_formula_sum   'Ba32 Y32 Fe32 Cu32 O160'
_cell_volume   3786.90770272
_cell_formula_units_Z   32
loop_
 _symmetry_equiv_pos_site_id
 _symmetry_equiv_pos_as_xyz
  1  'x, y, z'
loop_
 _atom_type_symbol
 _atom_type_oxidation_number
  Ba2+  2.0
  Y3+  3.0
  Fe3+  3.0
  Cu2+  2.0
  O2-  -2.0
loop_
 _atom_site_type_symbol
 _atom_site_label
 _atom_site_symmetry_multiplicity
 _atom_site_fract_x
 _atom_site_fract_y
 _atom_site_fract_z
 _atom_site_occupancy
  Ba2+  Ba0  1  -0.00380759  -0.00024287  0.01643438  1
  Ba2+  Ba1  1  0.01134281  0.00226861  0.51094877  1
  Ba2+  Ba2  1  -0.00187140  0.24755166  0.02151890  1
  Ba2+  Ba3  1  0.00754035  0.25171970  0.51536972  1
  Ba2+  Ba4  1  0.00467890  0.49789154  0.01766054  1
  Ba2+  Ba5  1  -0.00385628  0.49457336  0.51304850  1
  Ba2+  Ba6  1  0.00341191  0.75539045  0.01175315  1
  Ba2+  Ba7  1  -0.00024803  0.74954987  0.50582294  1
  Ba2+  Ba8  1  0.24392989  -0.00475087  0.02255953  1
  Ba2+  Ba9  1  0.25460952  0.00169805  0.51053551  1
  Ba2+  Ba10  1  0.23920795  0.24945671  0.01757323  1
  Ba2+  Ba11  1  0.25067771  0.24333155  0.50598575  1
  Ba2+  Ba12  1  0.23922874  0.50306161  0.01072657  1
  Ba2+  Ba13  1  0.25719748  0.49812756  0.50587067  1
  Ba2+  Ba14  1  0.24337092  0.75279021  0.01691071  1
  Ba2+  Ba15  1  0.25952041  0.75456735  0.51053136  1
  Ba2+  Ba16  1  0.50266863  -0.01008793  0.01058538  1
  Ba2+  Ba17  1  0.49439622  -0.00170746  0.51681466  1
  Ba2+  Ba18  1  0.50455593  0.25339713  0.00154027  1
  Ba2+  Ba19  1  0.49318014  0.24295597  0.50698350  1
  Ba2+  Ba20  1  0.50724842  0.50166957  0.00670359  1
  Ba2+  Ba21  1  0.49690008  0.50959108  0.50267536  1
  Ba2+  Ba22  1  0.50580491  0.75585836  0.01659473  1
  Ba2+  Ba23  1  0.49752415  0.74908800  0.51269806  1
  Ba2+  Ba24  1  0.75760203  -0.00571127  0.00555331  1
  Ba2+  Ba25  1  0.73987576  -0.00051798  0.51912839  1
  Ba2+  Ba26  1  0.75947258  0.24940727  0.00661979  1
  Ba2+  Ba27  1  0.74981730  0.25112016  0.51706546  1
  Ba2+  Ba28  1  0.74863131  0.49645197  0.01144471  1
  Ba2+  Ba29  1  0.74957601  0.50696057  0.50575977  1
  Ba2+  Ba30  1  0.74787683  0.75907357  0.01104934  1
  Ba2+  Ba31  1  0.74164284  0.74404490  0.50664274  1
  Y3+  Y32  1  -0.00016824  0.00098169  0.25620797  1
  Y3+  Y33  1  -0.00016568  -0.00000349  0.75660694  1
  Y3+  Y34  1  0.00071100  0.24792350  0.25732660  1
  Y3+  Y35  1  0.00043433  0.24915532  0.75424037  1
  Y3+  Y36  1  0.00033884  0.50059436  0.25652491  1
  Y3+  Y37  1  0.00188612  0.50028734  0.75701520  1
  Y3+  Y38  1  -0.00069768  0.74988353  0.25557419  1
  Y3+  Y39  1  0.00145181  0.75055565  0.75878382  1
  Y3+  Y40  1  0.25057895  0.00008806  0.26212897  1
  Y3+  Y41  1  0.25009454  -0.00049682  0.75003925  1
  Y3+  Y42  1  0.24933486  0.24756016  0.26115519  1
  Y3+  Y43  1  0.24852166  0.24826181  0.75268687  1
  Y3+  Y44  1  0.25041028  0.50151189  0.25718011  1
  Y3+  Y45  1  0.24922605  0.50209509  0.75684700  1
  Y3+  Y46  1  0.25201377  0.75085990  0.25868369  1
  Y3+  Y47  1  0.25073981  0.75013680  0.75441333  1
  Y3+  Y48  1  0.49782222  -0.00294833  0.25767187  1
  Y3+  Y49  1  0.50035414  -0.00227095  0.75559926  1
  Y3+  Y50  1  0.49737964  0.24960267  0.25899046  1
  Y3+  Y51  1  0.50029107  0.24849839  0.75718260  1
  Y3+  Y52  1  0.49929690  0.50315222  0.26030715  1
  Y3+  Y53  1  0.50048665  0.50264334  0.75599483  1
  Y3+  Y54  1  0.49987369  0.75007179  0.25958161  1
  Y3+  Y55  1  0.50050042  0.75130092  0.75440831  1
  Y3+  Y56  1  0.75136294  -0.00179118  0.25254300  1
  Y3+  Y57  1  0.75015937  -0.00159582  0.76224359  1
  Y3+  Y58  1  0.75221109  0.24916233  0.25514867  1
  Y3+  Y59  1  0.75085289  0.24966073  0.75931834  1
  Y3+  Y60  1  0.74892579  0.50286351  0.25920986  1
  Y3+  Y61  1  0.74917743  0.50002178  0.75599419  1
  Y3+  Y62  1  0.74811565  0.74949208  0.25624630  1
  Y3+  Y63  1  0.74820543  0.75225628  0.75851686  1
  Fe3+  Fe64  1  0.12584936  0.87601849  0.87367630  1
  Fe3+  Fe65  1  0.37384923  0.37514457  0.88099979  1
  Fe3+  Fe66  1  0.87450255  0.37450155  0.37698162  1
  Fe3+  Fe67  1  0.12463048  0.37405349  0.87503432  1
  Fe3+  Fe68  1  0.12468537  0.12412509  0.87588643  1
  Fe3+  Fe69  1  0.62527301  0.12409498  0.37629815  1
  Fe3+  Fe70  1  0.62560688  0.62614878  0.87765627  1
  Fe3+  Fe71  1  0.12509856  0.62488879  0.37907852  1
  Fe3+  Fe72  1  0.62398777  0.37435185  0.38020089  1
  Fe3+  Fe73  1  0.12551982  0.37499140  0.37635573  1
  Fe3+  Fe74  1  0.87435116  0.12408568  0.38051273  1
  Fe3+  Fe75  1  0.62432505  0.87558479  0.37687904  1
  Fe3+  Fe76  1  0.62551691  0.12420455  0.87931881  1
  Fe3+  Fe77  1  0.87380094  0.87525818  0.38026709  1
  Fe3+  Fe78  1  0.12522118  0.87484606  0.37701639  1
  Fe3+  Fe79  1  0.37414755  0.62636086  0.88096811  1
  Fe3+  Fe80  1  0.37305218  0.12397052  0.88077349  1
  Fe3+  Fe81  1  0.37384662  0.87507246  0.87731471  1
  Fe3+  Fe82  1  0.87613588  0.62583269  0.88055790  1
  Fe3+  Fe83  1  0.87665335  0.37545885  0.87568618  1
  Fe3+  Fe84  1  0.62386271  0.37552330  0.63549987  1
  Fe3+  Fe85  1  0.37502084  0.12452166  0.13410493  1
  Fe3+  Fe86  1  0.87483299  0.87452161  0.63447229  1
  Fe3+  Fe87  1  0.87458645  0.62544699  0.63816604  1
  Fe3+  Fe88  1  0.37531759  0.37518130  0.63843879  1
  Fe3+  Fe89  1  0.62518875  0.12444804  0.13383496  1
  Fe3+  Fe90  1  0.12590671  0.62519596  0.63380356  1
  Fe3+  Fe91  1  0.37440492  0.37520164  0.13505690  1
  Fe3+  Fe92  1  0.37540130  0.62574612  0.13499906  1
  Fe3+  Fe93  1  0.62490002  0.37443154  0.13928210  1
  Fe3+  Fe94  1  0.87417662  0.62529401  0.13568819  1
  Fe3+  Fe95  1  0.87482359  0.12460317  0.63513269  1
  Cu2+  Cu96  1  0.87556879  0.62548551  0.36377416  1
  Cu2+  Cu97  1  0.37585311  0.12369146  0.37022088  1
  Cu2+  Cu98  1  0.37398189  0.62617368  0.37079159  1
  Cu2+  Cu99  1  0.12494733  0.62587169  0.87254687  1
  Cu2+  Cu100  1  0.37563000  0.87505946  0.37158309  1
  Cu2+  Cu101  1  0.62423397  0.62593809  0.37180824  1
  Cu2+  Cu102  1  0.62414961  0.87473154  0.87109852  1
  Cu2+  Cu103  1  0.87731261  0.12482956  0.87174257  1
  Cu2+  Cu104  1  0.62518390  0.37543530  0.86306443  1
  Cu2+  Cu105  1  0.37499348  0.37490341  0.36437661  1
  Cu2+  Cu106  1  0.12433727  0.12456919  0.37204341  1
  Cu2+  Cu107  1  0.87671614  0.87448348  0.87038856  1
  Cu2+  Cu108  1  0.37566676  0.12537800  0.64451433  1
  Cu2+  Cu109  1  0.87473211  0.37539625  0.64965202  1
  Cu2+  Cu110  1  0.37465062  0.87494602  0.15006193  1
  Cu2+  Cu111  1  0.87513429  0.87420997  0.14347084  1
  Cu2+  Cu112  1  0.12483141  0.62577468  0.14274547  1
  Cu2+  Cu113  1  0.37547396  0.87467568  0.64309988  1
  Cu2+  Cu114  1  0.12487687  0.87517065  0.15664057  1
  Cu2+  Cu115  1  0.62527575  0.12539718  0.65352425  1
  Cu2+  Cu116  1  0.12571187  0.12473328  0.64044185  1
  Cu2+  Cu117  1  0.12541600  0.12417883  0.15394615  1
  Cu2+  Cu118  1  0.12633323  0.37606808  0.64764811  1
  Cu2+  Cu119  1  0.87490070  0.37582994  0.15285564  1
  Cu2+  Cu120  1  0.62471825  0.62482217  0.14993528  1
  Cu2+  Cu121  1  0.62520406  0.87560644  0.14483106  1
  Cu2+  Cu122  1  0.37530188  0.62467587  0.64359711  1
  Cu2+  Cu123  1  0.12463851  0.87384683  0.64569268  1
  Cu2+  Cu124  1  0.12540688  0.37467927  0.15487910  1
  Cu2+  Cu125  1  0.62577346  0.87474008  0.65072646  1
  Cu2+  Cu126  1  0.62495651  0.62505108  0.64294216  1
  Cu2+  Cu127  1  0.87465795  0.12447492  0.14230841  1
  O2-  O128  1  0.12432071  0.12413395  -0.00368680  1
  O2-  O129  1  0.12528441  0.12596419  0.50610443  1
  O2-  O130  1  0.12297272  0.37354511  -0.00444338  1
  O2-  O131  1  0.12592373  0.37643045  0.49681841  1
  O2-  O132  1  0.12410908  0.62555551  0.00792707  1
  O2-  O133  1  0.12517243  0.62415039  0.50619999  1
  O2-  O134  1  0.12481898  0.87665680  -0.00557950  1
  O2-  O135  1  0.12468673  0.87322271  0.49747252  1
  O2-  O136  1  0.37258955  0.12456958  0.00701070  1
  O2-  O137  1  0.37604572  0.12479280  0.50758037  1
  O2-  O138  1  0.37399250  0.37486198  0.00832425  1
  O2-  O139  1  0.37701396  0.37462152  0.51767907  1
  O2-  O140  1  0.37459409  0.62603314  0.00739198  1
  O2-  O141  1  0.37402607  0.62470174  0.50744679  1
  O2-  O142  1  0.37204836  0.87470952  -0.00211075  1
  O2-  O143  1  0.37662809  0.87561657  0.50710605  1
  O2-  O144  1  0.62615025  0.12562382  0.00691867  1
  O2-  O145  1  0.62556213  0.12554324  0.49671344  1
  O2-  O146  1  0.62504155  0.37475326  0.01839803  1
  O2-  O147  1  0.62350459  0.37450483  0.50766457  1
  O2-  O148  1  0.62595314  0.62439472  -0.00163410  1
  O2-  O149  1  0.62458798  0.62427224  0.50709712  1
  O2-  O150  1  0.62547348  0.87603442  0.00642706  1
  O2-  O151  1  0.62469214  0.87590289  0.49743024  1
  O2-  O152  1  0.87629214  0.12550107  0.00658764  1
  O2-  O153  1  0.87305315  0.12465498  0.50657964  1
  O2-  O154  1  0.87746411  0.37549200  -0.00366041  1
  O2-  O155  1  0.87376352  0.37420236  0.49721112  1
  O2-  O156  1  0.87533486  0.62478786  0.00740073  1
  O2-  O157  1  0.87494237  0.62503651  0.51752083  1
  O2-  O158  1  0.87734662  0.87393249  0.00770123  1
  O2-  O159  1  0.87312692  0.87530057  0.50707157  1
  O2-  O160  1  0.12468067  -0.00101622  0.16483659  1
  O2-  O161  1  0.12493407  -0.00182855  0.66086689  1
  O2-  O162  1  0.12540798  0.24990793  0.16418059  1
  O2-  O163  1  0.12493528  0.25153891  0.66297210  1
  O2-  O164  1  0.12534833  0.49866030  0.16567868  1
  O2-  O165  1  0.12524133  0.50242450  0.66369716  1
  O2-  O166  1  0.12463078  0.75211511  0.16626952  1
  O2-  O167  1  0.12392989  0.74778896  0.66228433  1
  O2-  O168  1  0.37504729  0.00163269  0.16239189  1
  O2-  O169  1  0.37587593  -0.00025499  0.66520261  1
  O2-  O170  1  0.37449561  0.24974656  0.16221521  1
  O2-  O171  1  0.37623100  0.25189865  0.67009977  1
  O2-  O172  1  0.37524793  0.49986665  0.16231987  1
  O2-  O173  1  0.37528597  0.49820002  0.67062002  1
  O2-  O174  1  0.37505832  0.74895603  0.16277342  1
  O2-  O175  1  0.37558332  0.75010546  0.66517339  1
  O2-  O176  1  0.62413151  0.00339958  0.16302859  1
  O2-  O177  1  0.62617792  0.00036995  0.66514174  1
  O2-  O178  1  0.62398966  0.24869234  0.16631039  1
  O2-  O179  1  0.62506301  0.25193916  0.66491351  1
  O2-  O180  1  0.62391072  0.49876822  0.16821501  1
  O2-  O181  1  0.62505661  0.49720117  0.66464423  1
  O2-  O182  1  0.62494706  0.74893064  0.16476197  1
  O2-  O183  1  0.62582814  0.75102255  0.66463065  1
  O2-  O184  1  0.87531834  -0.00048775  0.16664180  1
  O2-  O185  1  0.87392586  -0.00047642  0.66164604  1
  O2-  O186  1  0.87490408  0.25172920  0.16546163  1
  O2-  O187  1  0.87489362  0.24896431  0.66149297  1
  O2-  O188  1  0.87442900  0.50138009  0.16305850  1
  O2-  O189  1  0.87518133  0.50057690  0.66682410  1
  O2-  O190  1  0.87450992  0.74699734  0.16592863  1
  O2-  O191  1  0.87552984  0.75129236  0.66603253  1
  O2-  O192  1  0.00154378  0.12498827  0.16710655  1
  O2-  O193  1  -0.00308232  0.12460738  0.66012645  1
  O2-  O194  1  0.00029737  0.37538105  0.16483807  1
  O2-  O195  1  0.00081026  0.37633486  0.65946586  1
  O2-  O196  1  -0.00309516  0.62450990  0.16567524  1
  O2-  O197  1  0.00115742  0.62461845  0.66392927  1
  O2-  O198  1  0.00177218  0.87451683  0.16734475  1
  O2-  O199  1  -0.00237842  0.87485304  0.65996595  1
  O2-  O200  1  0.25172956  0.12500580  0.16370946  1
  O2-  O201  1  0.25034521  0.12557688  0.66455080  1
  O2-  O202  1  0.25212555  0.37509531  0.16230408  1
  O2-  O203  1  0.25073275  0.37566505  0.66702875  1
  O2-  O204  1  0.25335850  0.62505000  0.16409174  1
  O2-  O205  1  0.24748840  0.62491324  0.66446824  1
  O2-  O206  1  0.24887846  0.87501849  0.16469067  1
  O2-  O207  1  0.24857610  0.87390876  0.66225359  1
  O2-  O208  1  0.49915603  0.12618232  0.15932071  1
  O2-  O209  1  0.50182007  0.12536748  0.67009641  1
  O2-  O210  1  0.49781011  0.37429294  0.16547960  1
  O2-  O211  1  0.50150983  0.37472617  0.67017198  1
  O2-  O212  1  0.49798702  0.62448618  0.16257641  1
  O2-  O213  1  0.50024193  0.62468288  0.66766015  1
  O2-  O214  1  0.49935425  0.87524274  0.16325425  1
  O2-  O215  1  0.50223565  0.87535823  0.66596834  1
  O2-  O216  1  0.74709960  0.12589210  0.16413999  1
  O2-  O217  1  0.75203997  0.12577097  0.66486360  1
  O2-  O218  1  0.74891820  0.37491693  0.16726223  1
  O2-  O219  1  0.74768284  0.37440320  0.66338790  1
  O2-  O220  1  0.75089081  0.62385415  0.16377516  1
  O2-  O221  1  0.75179304  0.62506220  0.66764881  1
  O2-  O222  1  0.74950283  0.87494713  0.16650367  1
  O2-  O223  1  0.75216115  0.87517890  0.66493359  1
  O2-  O224  1  0.12369491  -0.00183371  0.34804312  1
  O2-  O225  1  0.12583937  0.00047175  0.84186082  1
  O2-  O226  1  0.12471404  0.25139406  0.34774368  1
  O2-  O227  1  0.12598630  0.24982826  0.84400517  1
  O2-  O228  1  0.12498219  0.50110241  0.34806531  1
  O2-  O229  1  0.12560038  0.49789337  0.84684356  1
  O2-  O230  1  0.12383936  0.74881697  0.34895264  1
  O2-  O231  1  0.12597136  0.75201366  0.84525293  1
  O2-  O232  1  0.37545764  -0.00026943  0.34652635  1
  O2-  O233  1  0.37552749  0.00172633  0.84831067  1
  O2-  O234  1  0.37551538  0.25045715  0.34715024  1
  O2-  O235  1  0.37576237  0.24979488  0.85385741  1
  O2-  O236  1  0.37470092  0.49932711  0.34729234  1
  O2-  O237  1  0.37521028  0.50006175  0.85458173  1
  O2-  O238  1  0.37451831  0.75020281  0.34706873  1
  O2-  O239  1  0.37443756  0.74900271  0.84799415  1
  O2-  O240  1  0.62625976  -0.00016787  0.34379901  1
  O2-  O241  1  0.62417411  0.00258050  0.84994734  1
  O2-  O242  1  0.62494969  0.25091069  0.34832032  1
  O2-  O243  1  0.62484432  0.24848501  0.85042282  1
  O2-  O244  1  0.62451068  0.49733853  0.35213903  1
  O2-  O245  1  0.62463821  0.50138711  0.84753419  1
  O2-  O246  1  0.62576331  0.75208641  0.34759023  1
  O2-  O247  1  0.62500341  0.74817460  0.84675527  1
  O2-  O248  1  0.87399355  -0.00042921  0.35042874  1
  O2-  O249  1  0.87573331  -0.00066088  0.84641331  1
  O2-  O250  1  0.87394564  0.24877700  0.34820332  1
  O2-  O251  1  0.87478116  0.25232413  0.84496256  1
  O2-  O252  1  0.87455929  0.49920476  0.34714392  1
  O2-  O253  1  0.87536776  0.50124464  0.84873112  1
  O2-  O254  1  0.87507570  0.75196260  0.35133094  1
  O2-  O255  1  0.87541067  0.74734035  0.84930326  1
  O2-  O256  1  -0.00425303  0.12475043  0.35091767  1
  O2-  O257  1  0.00284406  0.12530655  0.84174448  1
  O2-  O258  1  -0.00041425  0.37523241  0.34703383  1
  O2-  O259  1  0.00062697  0.37500497  0.84138425  1
  O2-  O260  1  0.00193173  0.62495889  0.35034726  1
  O2-  O261  1  -0.00227152  0.62513223  0.84716332  1
  O2-  O262  1  -0.00214890  0.87456841  0.35064478  1
  O2-  O263  1  0.00254294  0.87487949  0.84290354  1
  O2-  O264  1  0.25011797  0.12504288  0.34867930  1
  O2-  O265  1  0.25107481  0.12573643  0.84679092  1
  O2-  O266  1  0.24963503  0.37547619  0.34619052  1
  O2-  O267  1  0.25139807  0.37504404  0.84900512  1
  O2-  O268  1  0.24653412  0.62468538  0.34795825  1
  O2-  O269  1  0.25305265  0.62422677  0.84863865  1
  O2-  O270  1  0.24853062  0.87457569  0.34823471  1
  O2-  O271  1  0.25083920  0.87555919  0.84262095  1
  O2-  O272  1  0.50256301  0.12532645  0.34318081  1
  O2-  O273  1  0.49924619  0.12647599  0.85513885  1
  O2-  O274  1  0.50141857  0.37439180  0.34909576  1
  O2-  O275  1  0.49787725  0.37491192  0.85449175  1
  O2-  O276  1  0.49926851  0.62494414  0.34678974  1
  O2-  O277  1  0.49843238  0.62440619  0.85081143  1
  O2-  O278  1  0.50169582  0.87534321  0.34582364  1
  O2-  O279  1  0.49711190  0.87504695  0.84846601  1
  O2-  O280  1  0.75134601  0.12533763  0.34661542  1
  O2-  O281  1  0.74776031  0.12522048  0.85007894  1
  O2-  O282  1  0.74840378  0.37486685  0.34968018  1
  O2-  O283  1  0.75085454  0.37569861  0.84739301  1
  O2-  O284  1  0.75132761  0.62490078  0.34851672  1
  O2-  O285  1  0.75141295  0.62436881  0.84953370  1
  O2-  O286  1  0.75108629  0.87495950  0.34833355  1
  O2-  O287  1  0.75019907  0.87509017  0.84926914  1
