# generated using pymatgen
data_BaYFeCuO5
_symmetry_space_group_name_H-M   'P 1'
_cell_length_a   15.67756613
_cell_length_b   15.67745588
_cell_length_c   15.49844888
_cell_angle_alpha   89.99445162
_cell_angle_beta   90.00617750
_cell_angle_gamma   90.00769529
_symmetry_Int_Tables_number   1
_chemical_formula_structural   BaYFeCuO5
_chemical_formula_sum   'Ba32 Y32 Fe32 Cu32 O160'
_cell_volume   3809.27613122
_cell_formula_units_Z   32
loop_
 _symmetry_equiv_pos_site_id
 _symmetry_equiv_pos_as_xyz
  1  'x, y, z'
loop_
 _atom_type_symbol
 _atom_type_oxidation_number
  Ba2+  2.0
  Y3+  3.0
  Fe3+  3.0
  Cu2+  2.0
  O2-  -2.0
loop_
 _atom_site_type_symbol
 _atom_site_label
 _atom_site_symmetry_multiplicity
 _atom_site_fract_x
 _atom_site_fract_y
 _atom_site_fract_z
 _atom_site_occupancy
  Ba2+  Ba0  1  -0.00266199  -0.00276533  0.01338095  1
  Ba2+  Ba1  1  -0.00231445  -0.00121733  0.50617922  1
  Ba2+  Ba2  1  -0.00686215  0.24634674  0.00733411  1
  Ba2+  Ba3  1  -0.00466382  0.24332579  0.50597277  1
  Ba2+  Ba4  1  -0.00863340  0.50367343  0.01003781  1
  Ba2+  Ba5  1  -0.00227884  0.50578366  0.52383632  1
  Ba2+  Ba6  1  -0.00416869  0.75138287  0.01511438  1
  Ba2+  Ba7  1  0.00078953  0.75256011  0.52271546  1
  Ba2+  Ba8  1  0.25187316  0.00344472  0.00087704  1
  Ba2+  Ba9  1  0.24925550  0.00077840  0.51260139  1
  Ba2+  Ba10  1  0.25633194  0.24195811  0.00813760  1
  Ba2+  Ba11  1  0.25363430  0.24404537  0.49623556  1
  Ba2+  Ba12  1  0.24912620  0.49929409  0.01549719  1
  Ba2+  Ba13  1  0.25179377  0.50567188  0.51321882  1
  Ba2+  Ba14  1  0.24455930  0.75654868  0.01084122  1
  Ba2+  Ba15  1  0.24660871  0.75045926  0.52765312  1
  Ba2+  Ba16  1  0.49853515  0.00568015  -0.00098289  1
  Ba2+  Ba17  1  0.48950656  0.00203966  0.51113319  1
  Ba2+  Ba18  1  0.49888068  0.24531755  0.01405422  1
  Ba2+  Ba19  1  0.49397279  0.25157335  0.50565377  1
  Ba2+  Ba20  1  0.50222802  0.48914836  0.01721039  1
  Ba2+  Ba21  1  0.49575219  0.49543884  0.51057499  1
  Ba2+  Ba22  1  0.50121765  0.76143376  0.00688693  1
  Ba2+  Ba23  1  0.49023246  0.74904382  0.51842178  1
  Ba2+  Ba24  1  0.75199752  -0.00136143  0.01514479  1
  Ba2+  Ba25  1  0.76184192  -0.00004524  0.50687247  1
  Ba2+  Ba26  1  0.75097194  0.25023176  0.01366638  1
  Ba2+  Ba27  1  0.75623524  0.25271864  0.51641008  1
  Ba2+  Ba28  1  0.75792172  0.49516369  0.01009030  1
  Ba2+  Ba29  1  0.75467308  0.49593356  0.52293104  1
  Ba2+  Ba30  1  0.75873991  0.75495229  0.01035853  1
  Ba2+  Ba31  1  0.76204895  0.75120632  0.51094974  1
  Y3+  Y32  1  -0.00243074  -0.00079131  0.26017044  1
  Y3+  Y33  1  -0.00167441  -0.00106816  0.75557739  1
  Y3+  Y34  1  -0.00175156  0.24785261  0.25806600  1
  Y3+  Y35  1  -0.00215483  0.24904013  0.75805080  1
  Y3+  Y36  1  -0.00081806  0.50152676  0.25048592  1
  Y3+  Y37  1  -0.00371083  0.50054926  0.76221767  1
  Y3+  Y38  1  -0.00157843  0.75171233  0.25260520  1
  Y3+  Y39  1  -0.00287830  0.75127254  0.75995045  1
  Y3+  Y40  1  0.24947596  0.00294820  0.25854985  1
  Y3+  Y41  1  0.25162189  0.00137207  0.75796747  1
  Y3+  Y42  1  0.25263983  0.24776084  0.25795326  1
  Y3+  Y43  1  0.25014361  0.24581842  0.75944169  1
  Y3+  Y44  1  0.24929386  0.49856041  0.25576510  1
  Y3+  Y45  1  0.24864408  0.50103261  0.75786804  1
  Y3+  Y46  1  0.24605384  0.75048042  0.25179904  1
  Y3+  Y47  1  0.24976211  0.75196839  0.75927464  1
  Y3+  Y48  1  0.49889983  0.00191217  0.25896094  1
  Y3+  Y49  1  0.49678052  0.00259520  0.75608634  1
  Y3+  Y50  1  0.49729747  0.24956509  0.25866943  1
  Y3+  Y51  1  0.49974554  0.24701777  0.75651079  1
  Y3+  Y52  1  0.49990349  0.49736268  0.25642074  1
  Y3+  Y53  1  0.50144780  0.49885950  0.75571493  1
  Y3+  Y54  1  0.50225476  0.75105090  0.25585432  1
  Y3+  Y55  1  0.49902619  0.75148056  0.75792963  1
  Y3+  Y56  1  0.75439224  -0.00165878  0.26063853  1
  Y3+  Y57  1  0.75316813  0.00020094  0.75482687  1
  Y3+  Y58  1  0.75250159  0.24970821  0.25763575  1
  Y3+  Y59  1  0.75177107  0.25039066  0.75616608  1
  Y3+  Y60  1  0.75188213  0.49905249  0.25129116  1
  Y3+  Y61  1  0.75290577  0.49865112  0.76057936  1
  Y3+  Y62  1  0.75326782  0.75200729  0.25482986  1
  Y3+  Y63  1  0.75438661  0.75085807  0.75874100  1
  Fe3+  Fe64  1  0.62580785  0.12518279  0.38160518  1
  Fe3+  Fe65  1  0.12491047  0.87369857  0.37656330  1
  Fe3+  Fe66  1  0.37293539  0.87284257  0.37596840  1
  Fe3+  Fe67  1  0.37375977  0.62634419  0.37348541  1
  Fe3+  Fe68  1  0.62632217  0.62471702  0.37985306  1
  Fe3+  Fe69  1  0.12449786  0.37355738  0.88071287  1
  Fe3+  Fe70  1  0.87394336  0.12375082  0.87618523  1
  Fe3+  Fe71  1  0.62634613  0.87715917  0.87481826  1
  Fe3+  Fe72  1  0.62633647  0.37605510  0.37732425  1
  Fe3+  Fe73  1  0.12409783  0.37608666  0.37986408  1
  Fe3+  Fe74  1  0.12372988  0.87671615  0.87651314  1
  Fe3+  Fe75  1  0.12394192  0.62570865  0.37497458  1
  Fe3+  Fe76  1  0.87617619  0.37752191  0.37559199  1
  Fe3+  Fe77  1  0.62511377  0.37278054  0.87605214  1
  Fe3+  Fe78  1  0.87622518  0.62424118  0.37483156  1
  Fe3+  Fe79  1  0.62553392  0.62500094  0.87947089  1
  Fe3+  Fe80  1  0.62509925  0.87387000  0.38164699  1
  Fe3+  Fe81  1  0.12448182  0.62527151  0.87836699  1
  Fe3+  Fe82  1  0.37601858  0.62482895  0.87986573  1
  Fe3+  Fe83  1  0.37511005  0.37461773  0.87729076  1
  Fe3+  Fe84  1  0.62518143  0.87524243  0.63373545  1
  Fe3+  Fe85  1  0.37315527  0.37383253  0.63831725  1
  Fe3+  Fe86  1  0.62559678  0.12376286  0.14154812  1
  Fe3+  Fe87  1  0.37526136  0.87780367  0.13662674  1
  Fe3+  Fe88  1  0.62566424  0.62499387  0.63473067  1
  Fe3+  Fe89  1  0.12454777  0.12419293  0.13867879  1
  Fe3+  Fe90  1  0.62530032  0.12542173  0.63404507  1
  Fe3+  Fe91  1  0.37591539  0.62583095  0.13270492  1
  Fe3+  Fe92  1  0.12479434  0.37426372  0.63546524  1
  Fe3+  Fe93  1  0.12457844  0.12514403  0.63844761  1
  Fe3+  Fe94  1  0.12445649  0.37296686  0.13476645  1
  Fe3+  Fe95  1  0.62563971  0.62565300  0.13278584  1
  Cu2+  Cu96  1  0.37559239  0.12375193  0.37275627  1
  Cu2+  Cu97  1  0.12442124  0.12482895  0.36484271  1
  Cu2+  Cu98  1  0.37556900  0.12575093  0.87165683  1
  Cu2+  Cu99  1  0.12364377  0.12469017  0.86564066  1
  Cu2+  Cu100  1  0.87655226  0.87274661  0.37191145  1
  Cu2+  Cu101  1  0.37422605  0.37634642  0.36198407  1
  Cu2+  Cu102  1  0.87410519  0.62604084  0.87331854  1
  Cu2+  Cu103  1  0.62612433  0.12487516  0.85912230  1
  Cu2+  Cu104  1  0.87498795  0.87636444  0.87104804  1
  Cu2+  Cu105  1  0.87479980  0.37334141  0.87306701  1
  Cu2+  Cu106  1  0.87444317  0.12566365  0.37290394  1
  Cu2+  Cu107  1  0.37499377  0.87536338  0.86286429  1
  Cu2+  Cu108  1  0.62494582  0.37457613  0.64973584  1
  Cu2+  Cu109  1  0.87581418  0.12487341  0.64246375  1
  Cu2+  Cu110  1  0.62485656  0.87647466  0.15341080  1
  Cu2+  Cu111  1  0.12508364  0.87708318  0.14926846  1
  Cu2+  Cu112  1  0.12473377  0.87571783  0.65401439  1
  Cu2+  Cu113  1  0.87603900  0.37330873  0.14101975  1
  Cu2+  Cu114  1  0.37424631  0.37399291  0.15140178  1
  Cu2+  Cu115  1  0.12420138  0.62491328  0.65676344  1
  Cu2+  Cu116  1  0.87454850  0.62518359  0.65570671  1
  Cu2+  Cu117  1  0.37482332  0.87542901  0.65448241  1
  Cu2+  Cu118  1  0.37524986  0.12396127  0.14520317  1
  Cu2+  Cu119  1  0.87420659  0.62576075  0.14075475  1
  Cu2+  Cu120  1  0.87509087  0.12428134  0.15359908  1
  Cu2+  Cu121  1  0.87532245  0.87537227  0.64284290  1
  Cu2+  Cu122  1  0.87662331  0.37489365  0.65386335  1
  Cu2+  Cu123  1  0.37533046  0.62416339  0.65675459  1
  Cu2+  Cu124  1  0.87517484  0.87626430  0.14296132  1
  Cu2+  Cu125  1  0.37379630  0.12616196  0.64267957  1
  Cu2+  Cu126  1  0.62546713  0.37332955  0.15177189  1
  Cu2+  Cu127  1  0.12512447  0.62515841  0.14360628  1
  O2-  O128  1  0.12489698  0.12524095  0.01844160  1
  O2-  O129  1  0.12547748  0.12614196  0.51816584  1
  O2-  O130  1  0.12514429  0.37334466  0.00743420  1
  O2-  O131  1  0.12481411  0.37695125  0.50760533  1
  O2-  O132  1  0.12637670  0.62464242  -0.00191027  1
  O2-  O133  1  0.12515757  0.62581728  0.49448077  1
  O2-  O134  1  0.12412082  0.87675259  -0.00308027  1
  O2-  O135  1  0.12651489  0.87136434  0.49665479  1
  O2-  O136  1  0.37622695  0.12459889  0.00713340  1
  O2-  O137  1  0.37434900  0.12538680  0.50747094  1
  O2-  O138  1  0.37578604  0.37510136  -0.00268412  1
  O2-  O139  1  0.37155916  0.37631560  0.51751862  1
  O2-  O140  1  0.37749325  0.62458680  0.00581553  1
  O2-  O141  1  0.37286417  0.62630040  0.49356395  1
  O2-  O142  1  0.37683638  0.87862382  0.01610022  1
  O2-  O143  1  0.37193683  0.87024222  0.49608142  1
  O2-  O144  1  0.62505937  0.12393903  0.02101696  1
  O2-  O145  1  0.62485433  0.12662928  0.50754129  1
  O2-  O146  1  0.62434125  0.37212783  -0.00368415  1
  O2-  O147  1  0.62617953  0.37945694  0.49703262  1
  O2-  O148  1  0.62447545  0.62545404  0.00587376  1
  O2-  O149  1  0.62491281  0.62416971  0.50575242  1
  O2-  O150  1  0.62540674  0.87762632  -0.00494913  1
  O2-  O151  1  0.62417320  0.87146322  0.50737065  1
  O2-  O152  1  0.87263976  0.12364342  -0.00298984  1
  O2-  O153  1  0.87521909  0.12600688  0.50712832  1
  O2-  O154  1  0.87524840  0.37232816  0.00639206  1
  O2-  O155  1  0.87724156  0.37971970  0.49578587  1
  O2-  O156  1  0.87275073  0.62580141  0.00614882  1
  O2-  O157  1  0.87671780  0.62303959  0.49511626  1
  O2-  O158  1  0.87486168  0.87720604  0.00740646  1
  O2-  O159  1  0.87700647  0.87285202  0.50731711  1
  O2-  O160  1  0.12512226  0.00104545  0.16986179  1
  O2-  O161  1  0.12574214  -0.00001853  0.66461156  1
  O2-  O162  1  0.12480706  0.25026859  0.16904553  1
  O2-  O163  1  0.12459162  0.25164250  0.66740287  1
  O2-  O164  1  0.12664748  0.49788509  0.16126435  1
  O2-  O165  1  0.12568724  0.49883912  0.66435780  1
  O2-  O166  1  0.12520000  0.75108892  0.15871897  1
  O2-  O167  1  0.12504718  0.74996856  0.66570922  1
  O2-  O168  1  0.37520329  -0.00097751  0.17061170  1
  O2-  O169  1  0.37460627  -0.00057211  0.66339510  1
  O2-  O170  1  0.37534697  0.25028926  0.16677396  1
  O2-  O171  1  0.37443745  0.25188903  0.66809355  1
  O2-  O172  1  0.37503567  0.50182162  0.16028154  1
  O2-  O173  1  0.37415696  0.49900908  0.66710898  1
  O2-  O174  1  0.37710863  0.74931749  0.15860674  1
  O2-  O175  1  0.37641506  0.74927691  0.66674304  1
  O2-  O176  1  0.62583043  0.00047284  0.17443066  1
  O2-  O177  1  0.62463781  -0.00034638  0.65846403  1
  O2-  O178  1  0.62513760  0.24916667  0.16989198  1
  O2-  O179  1  0.62479566  0.24895399  0.66194197  1
  O2-  O180  1  0.62426776  0.50057962  0.15980364  1
  O2-  O181  1  0.62572037  0.50175861  0.66465589  1
  O2-  O182  1  0.62358379  0.74941264  0.16187124  1
  O2-  O183  1  0.62290639  0.74955415  0.66281194  1
  O2-  O184  1  0.87449894  0.00077693  0.16903505  1
  O2-  O185  1  0.87470611  -0.00014173  0.66341815  1
  O2-  O186  1  0.87531909  0.24819063  0.16704281  1
  O2-  O187  1  0.87615253  0.25146920  0.66410407  1
  O2-  O188  1  0.87454100  0.50006272  0.15968646  1
  O2-  O189  1  0.87451608  0.50004874  0.66769108  1
  O2-  O190  1  0.87436269  0.75060088  0.16273054  1
  O2-  O191  1  0.87491892  0.74903147  0.66636204  1
  O2-  O192  1  -0.00056428  0.12479958  0.16585140  1
  O2-  O193  1  0.00163921  0.12537956  0.66782621  1
  O2-  O194  1  0.00315256  0.37468652  0.16314974  1
  O2-  O195  1  0.00230355  0.37657265  0.66573073  1
  O2-  O196  1  0.00103417  0.62472757  0.16111142  1
  O2-  O197  1  -0.00094110  0.62411374  0.66584537  1
  O2-  O198  1  0.00154358  0.87599225  0.16390846  1
  O2-  O199  1  0.00096090  0.87445902  0.66583068  1
  O2-  O200  1  0.24897971  0.12585077  0.16665737  1
  O2-  O201  1  0.24785465  0.12535186  0.66951516  1
  O2-  O202  1  0.24810268  0.37430971  0.16385378  1
  O2-  O203  1  0.24788395  0.37609762  0.66818355  1
  O2-  O204  1  0.25279678  0.62564926  0.15879914  1
  O2-  O205  1  0.25015612  0.62503695  0.66759805  1
  O2-  O206  1  0.25075867  0.87442372  0.16253279  1
  O2-  O207  1  0.25039604  0.87375713  0.66690868  1
  O2-  O208  1  0.50108155  0.12494159  0.16980905  1
  O2-  O209  1  0.50240135  0.12505507  0.66307193  1
  O2-  O210  1  0.49962801  0.37490901  0.16517541  1
  O2-  O211  1  0.49882537  0.37637074  0.66348627  1
  O2-  O212  1  0.50054403  0.62434816  0.16349527  1
  O2-  O213  1  0.50191099  0.62390698  0.66328851  1
  O2-  O214  1  0.49930616  0.87526890  0.16891294  1
  O2-  O215  1  0.50155124  0.87464403  0.66242766  1
  O2-  O216  1  0.75089631  0.12454754  0.16794027  1
  O2-  O217  1  0.74770033  0.12556346  0.66176063  1
  O2-  O218  1  0.74960987  0.37409843  0.16378718  1
  O2-  O219  1  0.75112050  0.37508998  0.66221776  1
  O2-  O220  1  0.74598392  0.62563901  0.16495607  1
  O2-  O221  1  0.74836666  0.62579914  0.66239623  1
  O2-  O222  1  0.74856530  0.87535190  0.16755424  1
  O2-  O223  1  0.74660895  0.87359607  0.66257453  1
  O2-  O224  1  0.12496360  -0.00017971  0.35222381  1
  O2-  O225  1  0.12535710  0.00036693  0.84695065  1
  O2-  O226  1  0.12514332  0.25171323  0.35366388  1
  O2-  O227  1  0.12544304  0.25088208  0.85090704  1
  O2-  O228  1  0.12569025  0.49938712  0.34487867  1
  O2-  O229  1  0.12551064  0.49887033  0.84888809  1
  O2-  O230  1  0.12508378  0.74921885  0.34003215  1
  O2-  O231  1  0.12621741  0.75014314  0.84766289  1
  O2-  O232  1  0.37605063  -0.00333253  0.35059462  1
  O2-  O233  1  0.37576253  -0.00007238  0.84765113  1
  O2-  O234  1  0.37500813  0.25132907  0.35095443  1
  O2-  O235  1  0.37466806  0.25197544  0.84779337  1
  O2-  O236  1  0.37517511  0.50197296  0.34348259  1
  O2-  O237  1  0.37589813  0.50110998  0.84840637  1
  O2-  O238  1  0.37523803  0.74951002  0.33777829  1
  O2-  O239  1  0.37604401  0.74763651  0.85149526  1
  O2-  O240  1  0.62426807  -0.00125850  0.35797307  1
  O2-  O241  1  0.62408065  0.00041739  0.84253907  1
  O2-  O242  1  0.62507336  0.25017017  0.35225502  1
  O2-  O243  1  0.62486248  0.24923321  0.84524902  1
  O2-  O244  1  0.62431599  0.50181491  0.34368597  1
  O2-  O245  1  0.62368702  0.50077560  0.84888911  1
  O2-  O246  1  0.62523461  0.74891785  0.34761814  1
  O2-  O247  1  0.62401320  0.74919269  0.84764361  1
  O2-  O248  1  0.87519443  -0.00078774  0.35294192  1
  O2-  O249  1  0.87466263  0.00150885  0.84456068  1
  O2-  O250  1  0.87518912  0.25326990  0.34924050  1
  O2-  O251  1  0.87459446  0.24740177  0.84641685  1
  O2-  O252  1  0.87527513  0.50055452  0.33903675  1
  O2-  O253  1  0.87441085  0.49964693  0.85153277  1
  O2-  O254  1  0.87442681  0.74701685  0.34414762  1
  O2-  O255  1  0.87382421  0.75101483  0.84954454  1
  O2-  O256  1  0.00054241  0.12593247  0.34904682  1
  O2-  O257  1  -0.00105022  0.12558396  0.84901765  1
  O2-  O258  1  0.00147058  0.37571248  0.34556770  1
  O2-  O259  1  0.00322145  0.37448842  0.85015585  1
  O2-  O260  1  0.00034253  0.62388352  0.34162970  1
  O2-  O261  1  0.00179620  0.62476153  0.84876152  1
  O2-  O262  1  0.00194297  0.87401999  0.34585745  1
  O2-  O263  1  0.00102514  0.87532456  0.84746493  1
  O2-  O264  1  0.24926274  0.12528714  0.34894928  1
  O2-  O265  1  0.24840886  0.12504499  0.85159780  1
  O2-  O266  1  0.24778125  0.37586075  0.34918053  1
  O2-  O267  1  0.24890746  0.37584763  0.85017277  1
  O2-  O268  1  0.24918900  0.62416460  0.34033625  1
  O2-  O269  1  0.25174910  0.62423656  0.85098224  1
  O2-  O270  1  0.24934505  0.87434011  0.34204903  1
  O2-  O271  1  0.24989899  0.87524335  0.85027290  1
  O2-  O272  1  0.50348488  0.12509709  0.35172898  1
  O2-  O273  1  0.50174112  0.12501605  0.84684385  1
  O2-  O274  1  0.50055735  0.37643264  0.34934144  1
  O2-  O275  1  0.50005819  0.37504016  0.84408274  1
  O2-  O276  1  0.50161415  0.62546982  0.34743400  1
  O2-  O277  1  0.50025197  0.62535201  0.84825597  1
  O2-  O278  1  0.50117512  0.87234902  0.35045032  1
  O2-  O279  1  0.50043119  0.87490633  0.84588760  1
  O2-  O280  1  0.74672126  0.12453339  0.35004556  1
  O2-  O281  1  0.75040455  0.12446613  0.84395243  1
  O2-  O282  1  0.75057304  0.37669685  0.34470579  1
  O2-  O283  1  0.74760238  0.37490913  0.84529736  1
  O2-  O284  1  0.74889444  0.62467355  0.34790076  1
  O2-  O285  1  0.74614946  0.62492620  0.84689102  1
  O2-  O286  1  0.74743642  0.87343893  0.35178769  1
  O2-  O287  1  0.74882225  0.87538387  0.84411337  1
