# generated using pymatgen
data_BaYFeCuO5
_symmetry_space_group_name_H-M   'P 1'
_cell_length_a   15.68265647
_cell_length_b   15.67526448
_cell_length_c   15.51318466
_cell_angle_alpha   89.99324889
_cell_angle_beta   90.00627233
_cell_angle_gamma   90.00258653
_symmetry_Int_Tables_number   1
_chemical_formula_structural   BaYFeCuO5
_chemical_formula_sum   'Ba32 Y32 Fe32 Cu32 O160'
_cell_volume   3813.60284139
_cell_formula_units_Z   32
loop_
 _symmetry_equiv_pos_site_id
 _symmetry_equiv_pos_as_xyz
  1  'x, y, z'
loop_
 _atom_type_symbol
 _atom_type_oxidation_number
  Ba2+  2.0
  Y3+  3.0
  Fe3+  3.0
  Cu2+  2.0
  O2-  -2.0
loop_
 _atom_site_type_symbol
 _atom_site_label
 _atom_site_symmetry_multiplicity
 _atom_site_fract_x
 _atom_site_fract_y
 _atom_site_fract_z
 _atom_site_occupancy
  Ba2+  Ba0  1  0.00121066  0.00155744  0.02722378  1
  Ba2+  Ba1  1  -0.00672646  0.00380563  0.51457326  1
  Ba2+  Ba2  1  0.00008286  0.25173000  0.01619717  1
  Ba2+  Ba3  1  -0.00029305  0.24967844  0.50788205  1
  Ba2+  Ba4  1  -0.00405045  0.49115642  0.01002707  1
  Ba2+  Ba5  1  -0.00500001  0.49395110  0.49990531  1
  Ba2+  Ba6  1  -0.00414875  0.75594029  0.02377005  1
  Ba2+  Ba7  1  -0.01171872  0.75110618  0.51128028  1
  Ba2+  Ba8  1  0.24972015  -0.00023758  0.02235752  1
  Ba2+  Ba9  1  0.25437396  0.00577203  0.51119176  1
  Ba2+  Ba10  1  0.24599862  0.24844734  0.02101540  1
  Ba2+  Ba11  1  0.25101593  0.25086176  0.50699647  1
  Ba2+  Ba12  1  0.24650695  0.48898093  0.01076949  1
  Ba2+  Ba13  1  0.25575251  0.49459593  0.50181724  1
  Ba2+  Ba14  1  0.25064196  0.76259990  0.01099006  1
  Ba2+  Ba15  1  0.26041232  0.74916207  0.50804291  1
  Ba2+  Ba16  1  0.49336908  -0.00440767  0.01550595  1
  Ba2+  Ba17  1  0.50122178  0.00043164  0.50710213  1
  Ba2+  Ba18  1  0.49809004  0.25349325  0.01605473  1
  Ba2+  Ba19  1  0.50034882  0.25148176  0.50755071  1
  Ba2+  Ba20  1  0.50285450  0.49060447  0.01071315  1
  Ba2+  Ba21  1  0.50405046  0.50186543  0.49978438  1
  Ba2+  Ba22  1  0.49847121  0.76108841  0.01107669  1
  Ba2+  Ba23  1  0.50523848  0.74590592  0.50123951  1
  Ba2+  Ba24  1  0.75585472  -0.00345992  0.02254174  1
  Ba2+  Ba25  1  0.75083076  -0.00127483  0.51166427  1
  Ba2+  Ba26  1  0.75497795  0.25634823  0.01038567  1
  Ba2+  Ba27  1  0.74886909  0.25040285  0.50818699  1
  Ba2+  Ba28  1  0.75535095  0.49236426  0.01056962  1
  Ba2+  Ba29  1  0.74565591  0.50186642  0.50163385  1
  Ba2+  Ba30  1  0.75548680  0.75460068  0.02310619  1
  Ba2+  Ba31  1  0.74774066  0.74891795  0.50734684  1
  Y3+  Y32  1  -0.00108569  0.00004685  0.26031975  1
  Y3+  Y33  1  -0.00147914  0.00200166  0.75005056  1
  Y3+  Y34  1  0.00003092  0.25217920  0.25564236  1
  Y3+  Y35  1  0.00000346  0.25062076  0.75892817  1
  Y3+  Y36  1  -0.00124844  0.49651124  0.25482230  1
  Y3+  Y37  1  -0.00112958  0.49771052  0.76119462  1
  Y3+  Y38  1  -0.00225583  0.75089349  0.26041762  1
  Y3+  Y39  1  -0.00232126  0.75006014  0.75222718  1
  Y3+  Y40  1  0.25148379  0.00118530  0.25686709  1
  Y3+  Y41  1  0.25133156  -0.00043981  0.75567620  1
  Y3+  Y42  1  0.24976894  0.25037457  0.25580730  1
  Y3+  Y43  1  0.24816432  0.25019973  0.75716265  1
  Y3+  Y44  1  0.24925521  0.49773878  0.25589893  1
  Y3+  Y45  1  0.24907936  0.49893173  0.76009923  1
  Y3+  Y46  1  0.25114040  0.75048527  0.25667099  1
  Y3+  Y47  1  0.25164935  0.75147143  0.75831617  1
  Y3+  Y48  1  0.49905971  -0.00093059  0.25540840  1
  Y3+  Y49  1  0.49902814  -0.00101051  0.75820607  1
  Y3+  Y50  1  0.49977619  0.25088408  0.25422525  1
  Y3+  Y51  1  0.50185620  0.25101812  0.75993782  1
  Y3+  Y52  1  0.50282812  0.49960712  0.25604589  1
  Y3+  Y53  1  0.50238872  0.49956147  0.75996904  1
  Y3+  Y54  1  0.50205407  0.75022718  0.25755373  1
  Y3+  Y55  1  0.49995691  0.75079617  0.75822374  1
  Y3+  Y56  1  0.75039031  -0.00245391  0.26005863  1
  Y3+  Y57  1  0.75084309  0.00166717  0.75233988  1
  Y3+  Y58  1  0.75070009  0.25309267  0.25429368  1
  Y3+  Y59  1  0.74995754  0.25102309  0.76078715  1
  Y3+  Y60  1  0.74974404  0.49784389  0.25566610  1
  Y3+  Y61  1  0.74946118  0.49962935  0.76037783  1
  Y3+  Y62  1  0.74943821  0.75110690  0.26162729  1
  Y3+  Y63  1  0.75057517  0.74826469  0.75190566  1
  Fe3+  Fe64  1  0.62571398  0.12379852  0.88157761  1
  Fe3+  Fe65  1  0.62433699  0.12553061  0.37440242  1
  Fe3+  Fe66  1  0.37462309  0.62564022  0.88299837  1
  Fe3+  Fe67  1  0.87438218  0.62365716  0.37507840  1
  Fe3+  Fe68  1  0.12438817  0.12343162  0.87604848  1
  Fe3+  Fe69  1  0.12544284  0.62432139  0.37993260  1
  Fe3+  Fe70  1  0.37389267  0.12429996  0.87896807  1
  Fe3+  Fe71  1  0.87594587  0.12335278  0.87689383  1
  Fe3+  Fe72  1  0.87538652  0.62694065  0.87791897  1
  Fe3+  Fe73  1  0.12559540  0.12572167  0.37667686  1
  Fe3+  Fe74  1  0.37620349  0.37422291  0.37350573  1
  Fe3+  Fe75  1  0.87402067  0.12643622  0.37503766  1
  Fe3+  Fe76  1  0.12372706  0.62648153  0.88145848  1
  Fe3+  Fe77  1  0.12510953  0.87496727  0.38005291  1
  Fe3+  Fe78  1  0.12256668  0.87674755  0.87391313  1
  Fe3+  Fe79  1  0.62612214  0.62644932  0.88259973  1
  Fe3+  Fe80  1  0.37411786  0.37324490  0.87747993  1
  Fe3+  Fe81  1  0.62751237  0.87575990  0.87754931  1
  Fe3+  Fe82  1  0.87567345  0.87599688  0.87307391  1
  Fe3+  Fe83  1  0.37565331  0.87549353  0.37624936  1
  Fe3+  Fe84  1  0.12457434  0.62370700  0.63378339  1
  Fe3+  Fe85  1  0.12536572  0.37567085  0.63765021  1
  Fe3+  Fe86  1  0.12412706  0.62523437  0.13514367  1
  Fe3+  Fe87  1  0.62622309  0.62544392  0.13490330  1
  Fe3+  Fe88  1  0.87395480  0.37564814  0.63936506  1
  Fe3+  Fe89  1  0.12590823  0.87492971  0.63182458  1
  Fe3+  Fe90  1  0.62594947  0.12430703  0.13463220  1
  Fe3+  Fe91  1  0.37631457  0.12668778  0.63815441  1
  Fe3+  Fe92  1  0.37482509  0.62470656  0.13454700  1
  Fe3+  Fe93  1  0.62424277  0.37565259  0.63986395  1
  Fe3+  Fe94  1  0.62365053  0.87481933  0.63713463  1
  Fe3+  Fe95  1  0.37631742  0.62328731  0.64000292  1
  Cu2+  Cu96  1  0.37561827  0.12542031  0.36083634  1
  Cu2+  Cu97  1  0.62540060  0.37440886  0.87565682  1
  Cu2+  Cu98  1  0.12459992  0.37331414  0.87396443  1
  Cu2+  Cu99  1  0.62447931  0.87576759  0.36374733  1
  Cu2+  Cu100  1  0.87443118  0.37425715  0.36178538  1
  Cu2+  Cu101  1  0.62515186  0.37396243  0.35952153  1
  Cu2+  Cu102  1  0.12508086  0.37476092  0.36198128  1
  Cu2+  Cu103  1  0.87460422  0.87578196  0.37417729  1
  Cu2+  Cu104  1  0.87547547  0.37396770  0.87163775  1
  Cu2+  Cu105  1  0.37518465  0.62444437  0.35874192  1
  Cu2+  Cu106  1  0.62560157  0.62445677  0.36996824  1
  Cu2+  Cu107  1  0.37414672  0.87634154  0.87187820  1
  Cu2+  Cu108  1  0.87506939  0.62478295  0.15209796  1
  Cu2+  Cu109  1  0.62457073  0.62387670  0.64375747  1
  Cu2+  Cu110  1  0.87530095  0.87525439  0.15942125  1
  Cu2+  Cu111  1  0.12454260  0.12466926  0.15535129  1
  Cu2+  Cu112  1  0.37482131  0.87407265  0.14650930  1
  Cu2+  Cu113  1  0.37491120  0.37575114  0.15159911  1
  Cu2+  Cu114  1  0.87347344  0.87508614  0.63863828  1
  Cu2+  Cu115  1  0.37575399  0.87449465  0.64971661  1
  Cu2+  Cu116  1  0.87530457  0.37464544  0.14431232  1
  Cu2+  Cu117  1  0.62526172  0.87495986  0.15228350  1
  Cu2+  Cu118  1  0.12482455  0.87456713  0.15747264  1
  Cu2+  Cu119  1  0.37533171  0.12531203  0.14988616  1
  Cu2+  Cu120  1  0.12446438  0.37500232  0.14342980  1
  Cu2+  Cu121  1  0.87467896  0.12495248  0.15276029  1
  Cu2+  Cu122  1  0.62569087  0.37492332  0.14167715  1
  Cu2+  Cu123  1  0.87409351  0.12791391  0.64979603  1
  Cu2+  Cu124  1  0.87475214  0.62228798  0.64976415  1
  Cu2+  Cu125  1  0.62417246  0.12615452  0.65277414  1
  Cu2+  Cu126  1  0.12551858  0.12601183  0.64717240  1
  Cu2+  Cu127  1  0.37542052  0.37585418  0.65407048  1
  O2-  O128  1  0.12432304  0.12094629  -0.00414684  1
  O2-  O129  1  0.12577536  0.12659180  0.49652537  1
  O2-  O130  1  0.12456657  0.37353758  0.00815380  1
  O2-  O131  1  0.12534541  0.37689053  0.51773982  1
  O2-  O132  1  0.12322411  0.62784117  0.00768598  1
  O2-  O133  1  0.12581816  0.62320946  0.50701939  1
  O2-  O134  1  0.12158894  0.87719690  -0.00598209  1
  O2-  O135  1  0.12707905  0.87361485  0.50527819  1
  O2-  O136  1  0.37222408  0.12398204  -0.00119902  1
  O2-  O137  1  0.37737278  0.12692662  0.51746309  1
  O2-  O138  1  0.37292173  0.37218983  -0.00204451  1
  O2-  O139  1  0.37677358  0.37499137  0.49411332  1
  O2-  O140  1  0.37308794  0.62617963  0.00865434  1
  O2-  O141  1  0.37663778  0.62252004  0.51976217  1
  O2-  O142  1  0.37330178  0.87615169  0.00704197  1
  O2-  O143  1  0.37562101  0.87515429  0.49649746  1
  O2-  O144  1  0.62658118  0.12243391  0.00697580  1
  O2-  O145  1  0.62397082  0.12617886  0.49441939  1
  O2-  O146  1  0.62522397  0.37430961  0.00803459  1
  O2-  O147  1  0.62446194  0.37542938  0.51959929  1
  O2-  O148  1  0.62733143  0.62738707  0.00814426  1
  O2-  O149  1  0.62422446  0.62398741  0.50681002  1
  O2-  O150  1  0.62884113  0.87610554  -0.00233004  1
  O2-  O151  1  0.62257329  0.87451524  0.51654622  1
  O2-  O152  1  0.87710036  0.12084634  -0.00344172  1
  O2-  O153  1  0.87303920  0.12749919  0.49524212  1
  O2-  O154  1  0.87650467  0.37332517  0.00900544  1
  O2-  O155  1  0.87345166  0.37532517  0.51902393  1
  O2-  O156  1  0.87702812  0.63025911  -0.00270790  1
  O2-  O157  1  0.87416373  0.62241282  0.49549452  1
  O2-  O158  1  0.87748573  0.87632620  -0.00682192  1
  O2-  O159  1  0.87358753  0.87566750  0.50607052  1
  O2-  O160  1  0.12535489  -0.00071313  0.16724747  1
  O2-  O161  1  0.12536310  -0.00120044  0.65607629  1
  O2-  O162  1  0.12499657  0.24840082  0.16475350  1
  O2-  O163  1  0.12588550  0.25136421  0.66562074  1
  O2-  O164  1  0.12514607  0.50348460  0.16473170  1
  O2-  O165  1  0.12509983  0.50123676  0.67070007  1
  O2-  O166  1  0.12483820  0.74846086  0.16592200  1
  O2-  O167  1  0.12558567  0.74913135  0.66085442  1
  O2-  O168  1  0.37431321  0.00046270  0.16576909  1
  O2-  O169  1  0.37558693  0.00014821  0.66242663  1
  O2-  O170  1  0.37505776  0.25063940  0.16322685  1
  O2-  O171  1  0.37488610  0.25117646  0.66457568  1
  O2-  O172  1  0.37430380  0.50245581  0.16231029  1
  O2-  O173  1  0.37425743  0.50015106  0.67270647  1
  O2-  O174  1  0.37457838  0.74627273  0.16527232  1
  O2-  O175  1  0.37403825  0.74911421  0.66800069  1
  O2-  O176  1  0.62512675  0.00057951  0.16318794  1
  O2-  O177  1  0.62354518  0.00080778  0.66289004  1
  O2-  O178  1  0.62487108  0.24678034  0.16204131  1
  O2-  O179  1  0.62406638  0.25084947  0.66843005  1
  O2-  O180  1  0.62524480  0.50326183  0.16344993  1
  O2-  O181  1  0.62449421  0.49824205  0.67191598  1
  O2-  O182  1  0.62517357  0.74886669  0.16427789  1
  O2-  O183  1  0.62452393  0.75087701  0.66641922  1
  O2-  O184  1  0.87541389  -0.00036939  0.16632131  1
  O2-  O185  1  0.87457562  0.00332528  0.65821705  1
  O2-  O186  1  0.87532715  0.24823838  0.16487282  1
  O2-  O187  1  0.87450685  0.25167461  0.66750697  1
  O2-  O188  1  0.87544577  0.50121212  0.16505007  1
  O2-  O189  1  0.87557320  0.49855652  0.67144393  1
  O2-  O190  1  0.87593168  0.75061293  0.16636035  1
  O2-  O191  1  0.87460470  0.74724578  0.66025654  1
  O2-  O192  1  -0.00036217  0.12387117  0.16598280  1
  O2-  O193  1  0.00012431  0.12645819  0.65965249  1
  O2-  O194  1  0.00001772  0.37517949  0.16638207  1
  O2-  O195  1  0.00031933  0.37536973  0.66752999  1
  O2-  O196  1  0.00146153  0.62606165  0.16538261  1
  O2-  O197  1  0.00181449  0.62483980  0.66075952  1
  O2-  O198  1  0.00002992  0.87449224  0.16816306  1
  O2-  O199  1  0.00276396  0.87401799  0.65753723  1
  O2-  O200  1  0.24988909  0.12478847  0.16506263  1
  O2-  O201  1  0.25138292  0.12495083  0.66453531  1
  O2-  O202  1  0.25085968  0.37566916  0.16519933  1
  O2-  O203  1  0.24991759  0.37671460  0.66495881  1
  O2-  O204  1  0.24934832  0.62549851  0.16358218  1
  O2-  O205  1  0.24835496  0.62485697  0.66729708  1
  O2-  O206  1  0.24914803  0.87370248  0.16655871  1
  O2-  O207  1  0.24835831  0.87409598  0.66190918  1
  O2-  O208  1  0.50173272  0.12411924  0.16032754  1
  O2-  O209  1  0.49890305  0.12595776  0.67165524  1
  O2-  O210  1  0.49892515  0.37581241  0.16240421  1
  O2-  O211  1  0.49982725  0.37540675  0.66952415  1
  O2-  O212  1  0.50035759  0.62523478  0.15993205  1
  O2-  O213  1  0.49808960  0.62479947  0.67426522  1
  O2-  O214  1  0.50032684  0.87429457  0.16343375  1
  O2-  O215  1  0.50053438  0.87456418  0.66996075  1
  O2-  O216  1  0.74892737  0.12386404  0.16172874  1
  O2-  O217  1  0.74885142  0.12646048  0.66506805  1
  O2-  O218  1  0.75039680  0.37512801  0.16486036  1
  O2-  O219  1  0.74932921  0.37491361  0.67088902  1
  O2-  O220  1  0.74914165  0.62600435  0.16241038  1
  O2-  O221  1  0.75136535  0.62319481  0.66587784  1
  O2-  O222  1  0.75088191  0.87472946  0.16559809  1
  O2-  O223  1  0.74756865  0.87571518  0.66452692  1
  O2-  O224  1  0.12568214  -0.00097202  0.35018870  1
  O2-  O225  1  0.12448145  -0.00009364  0.83744312  1
  O2-  O226  1  0.12585263  0.25007082  0.34760129  1
  O2-  O227  1  0.12484513  0.24732378  0.84672006  1
  O2-  O228  1  0.12516523  0.50122141  0.34980144  1
  O2-  O229  1  0.12522224  0.50371997  0.85420080  1
  O2-  O230  1  0.12595036  0.74922028  0.35100870  1
  O2-  O231  1  0.12461701  0.74931564  0.84490192  1
  O2-  O232  1  0.37524239  -0.00030748  0.34830395  1
  O2-  O233  1  0.37471405  0.00230092  0.84347210  1
  O2-  O234  1  0.37541512  0.25036354  0.34604432  1
  O2-  O235  1  0.37524855  0.24857690  0.84504761  1
  O2-  O236  1  0.37514796  0.49972552  0.34525589  1
  O2-  O237  1  0.37365516  0.50199210  0.85397499  1
  O2-  O238  1  0.37451441  0.74984309  0.34796534  1
  O2-  O239  1  0.37425460  0.74713064  0.85074478  1
  O2-  O240  1  0.62407901  0.00091907  0.34610224  1
  O2-  O241  1  0.62578096  0.00090251  0.84472644  1
  O2-  O242  1  0.62448670  0.24961642  0.34464011  1
  O2-  O243  1  0.62475005  0.24607577  0.85101291  1
  O2-  O244  1  0.62456436  0.49785480  0.34720756  1
  O2-  O245  1  0.62496657  0.50406200  0.85407440  1
  O2-  O246  1  0.62456364  0.75132317  0.34842789  1
  O2-  O247  1  0.62467038  0.74915152  0.84798094  1
  O2-  O248  1  0.87503757  0.00232206  0.34831918  1
  O2-  O249  1  0.87483254  -0.00015743  0.83846928  1
  O2-  O250  1  0.87462983  0.25053524  0.34688117  1
  O2-  O251  1  0.87500081  0.24744280  0.84844603  1
  O2-  O252  1  0.87579172  0.49881904  0.34733544  1
  O2-  O253  1  0.87552054  0.50216159  0.85244458  1
  O2-  O254  1  0.87528685  0.74806917  0.34892406  1
  O2-  O255  1  0.87575768  0.75064091  0.84075963  1
  O2-  O256  1  0.00021981  0.12592818  0.34733311  1
  O2-  O257  1  -0.00011785  0.12384621  0.84149781  1
  O2-  O258  1  0.00039124  0.37520938  0.35016072  1
  O2-  O259  1  -0.00028337  0.37522746  0.84845264  1
  O2-  O260  1  0.00172494  0.62438734  0.34940428  1
  O2-  O261  1  0.00108937  0.62593817  0.84445260  1
  O2-  O262  1  0.00357613  0.87410656  0.35131684  1
  O2-  O263  1  -0.00063384  0.87480108  0.83702181  1
  O2-  O264  1  0.25025722  0.12506896  0.34828640  1
  O2-  O265  1  0.24962706  0.12424809  0.84433164  1
  O2-  O266  1  0.25078686  0.37593718  0.34762486  1
  O2-  O267  1  0.25160136  0.37538226  0.84582899  1
  O2-  O268  1  0.24812344  0.62439946  0.34947574  1
  O2-  O269  1  0.24922409  0.62633745  0.85149052  1
  O2-  O270  1  0.24907673  0.87414677  0.34853550  1
  O2-  O271  1  0.24715740  0.87436118  0.84433538  1
  O2-  O272  1  0.50012227  0.12517751  0.34367468  1
  O2-  O273  1  0.50106186  0.12378462  0.85364617  1
  O2-  O274  1  0.50024557  0.37509472  0.34498688  1
  O2-  O275  1  0.49782567  0.37570767  0.85042716  1
  O2-  O276  1  0.49933784  0.62481370  0.34492812  1
  O2-  O277  1  0.49986570  0.62566188  0.85721870  1
  O2-  O278  1  0.49920281  0.87457373  0.34612312  1
  O2-  O279  1  0.50258178  0.87517650  0.85130454  1
  O2-  O280  1  0.74955223  0.12582758  0.34328042  1
  O2-  O281  1  0.74932659  0.12428916  0.84860072  1
  O2-  O282  1  0.74911735  0.37491274  0.34851787  1
  O2-  O283  1  0.75053144  0.37478492  0.85184312  1
  O2-  O284  1  0.75153718  0.62379609  0.34533359  1
  O2-  O285  1  0.74947606  0.62631240  0.84836562  1
  O2-  O286  1  0.74809557  0.87519730  0.34982006  1
  O2-  O287  1  0.75080382  0.87466765  0.84349784  1
