# generated using pymatgen
data_BaYFeCuO5
_symmetry_space_group_name_H-M   'P 1'
_cell_length_a   15.67211143
_cell_length_b   15.67201977
_cell_length_c   15.49181137
_cell_angle_alpha   90.00035909
_cell_angle_beta   90.00002916
_cell_angle_gamma   89.99687196
_symmetry_Int_Tables_number   1
_chemical_formula_structural   BaYFeCuO5
_chemical_formula_sum   'Ba32 Y32 Fe32 Cu32 O160'
_cell_volume   3805.00017558
_cell_formula_units_Z   32
loop_
 _symmetry_equiv_pos_site_id
 _symmetry_equiv_pos_as_xyz
  1  'x, y, z'
loop_
 _atom_type_symbol
 _atom_type_oxidation_number
  Ba2+  2.0
  Y3+  3.0
  Fe3+  3.0
  Cu2+  2.0
  O2-  -2.0
loop_
 _atom_site_type_symbol
 _atom_site_label
 _atom_site_symmetry_multiplicity
 _atom_site_fract_x
 _atom_site_fract_y
 _atom_site_fract_z
 _atom_site_occupancy
  Ba2+  Ba0  1  -0.00496760  0.00462492  0.02318311  1
  Ba2+  Ba1  1  0.00434091  0.00366141  0.51103527  1
  Ba2+  Ba2  1  -0.00126875  0.25170646  0.02720061  1
  Ba2+  Ba3  1  -0.00028537  0.25170668  0.50589609  1
  Ba2+  Ba4  1  -0.00068402  0.50243933  0.01816479  1
  Ba2+  Ba5  1  -0.00690144  0.49835376  0.50612362  1
  Ba2+  Ba6  1  -0.00406187  0.74032111  0.01063622  1
  Ba2+  Ba7  1  -0.00271635  0.74715854  0.51104639  1
  Ba2+  Ba8  1  0.24831411  0.00808411  0.00592309  1
  Ba2+  Ba9  1  0.24939976  -0.00678901  0.51817906  1
  Ba2+  Ba10  1  0.24367999  0.24856666  0.01203247  1
  Ba2+  Ba11  1  0.24584329  0.25401291  0.52198501  1
  Ba2+  Ba12  1  0.24467260  0.50612875  0.01153820  1
  Ba2+  Ba13  1  0.25481355  0.49611096  0.51438027  1
  Ba2+  Ba14  1  0.24864333  0.73834138  0.00642207  1
  Ba2+  Ba15  1  0.25829001  0.75530285  0.50610261  1
  Ba2+  Ba16  1  0.50391182  0.00962676  0.00122839  1
  Ba2+  Ba17  1  0.50140253  -0.00751759  0.51866192  1
  Ba2+  Ba18  1  0.50761126  0.24612825  0.00659928  1
  Ba2+  Ba19  1  0.50401364  0.25468675  0.51308848  1
  Ba2+  Ba20  1  0.50448230  0.50619534  0.01107931  1
  Ba2+  Ba21  1  0.50116023  0.50133638  0.50623910  1
  Ba2+  Ba22  1  0.50097009  0.73876930  0.00696052  1
  Ba2+  Ba23  1  0.49883238  0.75183541  0.51434590  1
  Ba2+  Ba24  1  0.75313192  0.00678798  0.01704664  1
  Ba2+  Ba25  1  0.74431878  0.00312323  0.51297967  1
  Ba2+  Ba26  1  0.75045733  0.24983978  0.02187191  1
  Ba2+  Ba27  1  0.75037529  0.25283953  0.49464054  1
  Ba2+  Ba28  1  0.75160800  0.50235602  0.01721420  1
  Ba2+  Ba29  1  0.75081610  0.50177874  0.50002718  1
  Ba2+  Ba30  1  0.75421925  0.74079863  0.01055209  1
  Ba2+  Ba31  1  0.74564295  0.74320554  0.51845307  1
  Y3+  Y32  1  -0.00251951  0.00065968  0.25865185  1
  Y3+  Y33  1  0.00135300  -0.00103657  0.75320021  1
  Y3+  Y34  1  -0.00258364  0.25079387  0.25988741  1
  Y3+  Y35  1  0.00153606  0.25137819  0.75208495  1
  Y3+  Y36  1  -0.00227174  0.50167988  0.25756844  1
  Y3+  Y37  1  -0.00095740  0.50289420  0.75736333  1
  Y3+  Y38  1  -0.00217319  0.74736078  0.25635531  1
  Y3+  Y39  1  -0.00080479  0.74643412  0.75773176  1
  Y3+  Y40  1  0.25101133  -0.00186775  0.25768972  1
  Y3+  Y41  1  0.25016016  -0.00113606  0.75617434  1
  Y3+  Y42  1  0.24871164  0.25031943  0.25538633  1
  Y3+  Y43  1  0.24984358  0.25082022  0.75699894  1
  Y3+  Y44  1  0.25030603  0.50314272  0.25421966  1
  Y3+  Y45  1  0.24985071  0.50090779  0.76100392  1
  Y3+  Y46  1  0.25244231  0.74825000  0.25600184  1
  Y3+  Y47  1  0.25028715  0.74893791  0.75964711  1
  Y3+  Y48  1  0.50008411  -0.00090151  0.25619596  1
  Y3+  Y49  1  0.50141039  0.00079164  0.75834864  1
  Y3+  Y50  1  0.50294892  0.25099554  0.25514422  1
  Y3+  Y51  1  0.50126614  0.24855660  0.75972671  1
  Y3+  Y52  1  0.50096694  0.50153059  0.25370413  1
  Y3+  Y53  1  0.50042864  0.50186835  0.76155479  1
  Y3+  Y54  1  0.49771176  0.74812215  0.25554195  1
  Y3+  Y55  1  0.50088764  0.74862629  0.76075046  1
  Y3+  Y56  1  0.75090557  0.00167334  0.25607145  1
  Y3+  Y57  1  0.74717162  0.00105789  0.75777312  1
  Y3+  Y58  1  0.75002593  0.25160140  0.25701467  1
  Y3+  Y59  1  0.74802833  0.24889670  0.75777689  1
  Y3+  Y60  1  0.75084522  0.50029704  0.25664124  1
  Y3+  Y61  1  0.75101357  0.50380737  0.75887134  1
  Y3+  Y62  1  0.75187853  0.74707746  0.25494704  1
  Y3+  Y63  1  0.75007437  0.74573329  0.75931296  1
  Fe3+  Fe64  1  0.87632161  0.12630674  0.87511444  1
  Fe3+  Fe65  1  0.62472589  0.87375630  0.37481490  1
  Fe3+  Fe66  1  0.37484553  0.87543144  0.88049333  1
  Fe3+  Fe67  1  0.87557818  0.87580021  0.87710481  1
  Fe3+  Fe68  1  0.12620755  0.62507255  0.37989523  1
  Fe3+  Fe69  1  0.12507673  0.87412956  0.37586544  1
  Fe3+  Fe70  1  0.12261262  0.37504256  0.87663922  1
  Fe3+  Fe71  1  0.62719340  0.37531128  0.87939884  1
  Fe3+  Fe72  1  0.62374368  0.12468918  0.37654176  1
  Fe3+  Fe73  1  0.12600494  0.37621450  0.37553176  1
  Fe3+  Fe74  1  0.12218357  0.12554208  0.87451457  1
  Fe3+  Fe75  1  0.37501883  0.37463809  0.37506457  1
  Fe3+  Fe76  1  0.87328926  0.87458529  0.37958385  1
  Fe3+  Fe77  1  0.12303300  0.87471094  0.87991768  1
  Fe3+  Fe78  1  0.62690212  0.87452854  0.88023218  1
  Fe3+  Fe79  1  0.12620321  0.12496995  0.37676630  1
  Fe3+  Fe80  1  0.62386343  0.62568989  0.37472915  1
  Fe3+  Fe81  1  0.37507331  0.12491364  0.38121964  1
  Fe3+  Fe82  1  0.37477361  0.37434159  0.88056416  1
  Fe3+  Fe83  1  0.87574386  0.37434708  0.87814493  1
  Fe3+  Fe84  1  0.37509038  0.87500018  0.13207127  1
  Fe3+  Fe85  1  0.62567713  0.87451535  0.13296225  1
  Fe3+  Fe86  1  0.37501762  0.37518470  0.13337777  1
  Fe3+  Fe87  1  0.87405960  0.12605301  0.63432397  1
  Fe3+  Fe88  1  0.37568599  0.12538958  0.63622774  1
  Fe3+  Fe89  1  0.87405046  0.87463491  0.63449780  1
  Fe3+  Fe90  1  0.87360725  0.37585118  0.63653862  1
  Fe3+  Fe91  1  0.12578228  0.62490861  0.63487138  1
  Fe3+  Fe92  1  0.37515135  0.12531592  0.13731443  1
  Fe3+  Fe93  1  0.12434805  0.87421608  0.13377521  1
  Fe3+  Fe94  1  0.37589744  0.62459790  0.64054220  1
  Fe3+  Fe95  1  0.62584346  0.37655153  0.63858194  1
  Cu2+  Cu96  1  0.37389262  0.12552296  0.86231455  1
  Cu2+  Cu97  1  0.37512369  0.62448352  0.36252661  1
  Cu2+  Cu98  1  0.37608628  0.87553229  0.37184338  1
  Cu2+  Cu99  1  0.87563300  0.62381183  0.87119683  1
  Cu2+  Cu100  1  0.62420928  0.37585687  0.36072858  1
  Cu2+  Cu101  1  0.62635407  0.62425662  0.87337447  1
  Cu2+  Cu102  1  0.62721158  0.12552991  0.87262588  1
  Cu2+  Cu103  1  0.87451273  0.12430545  0.36697003  1
  Cu2+  Cu104  1  0.87503062  0.37569830  0.36233223  1
  Cu2+  Cu105  1  0.12388469  0.62435196  0.87163013  1
  Cu2+  Cu106  1  0.37456079  0.62400067  0.87376256  1
  Cu2+  Cu107  1  0.87459389  0.62610164  0.37360114  1
  Cu2+  Cu108  1  0.12470378  0.87267724  0.65157954  1
  Cu2+  Cu109  1  0.12441069  0.62587922  0.14557503  1
  Cu2+  Cu110  1  0.37626380  0.37566419  0.65546754  1
  Cu2+  Cu111  1  0.12457046  0.37714752  0.65060419  1
  Cu2+  Cu112  1  0.37493463  0.62484414  0.14173041  1
  Cu2+  Cu113  1  0.87443578  0.62421292  0.64099572  1
  Cu2+  Cu114  1  0.62479249  0.37548217  0.14837715  1
  Cu2+  Cu115  1  0.12531562  0.12500846  0.64824676  1
  Cu2+  Cu116  1  0.87503607  0.62438678  0.14460239  1
  Cu2+  Cu117  1  0.87505577  0.12589573  0.15741052  1
  Cu2+  Cu118  1  0.62553326  0.62542727  0.14356679  1
  Cu2+  Cu119  1  0.62429488  0.62415234  0.65411517  1
  Cu2+  Cu120  1  0.87497695  0.37559257  0.15375858  1
  Cu2+  Cu121  1  0.12510947  0.12412496  0.15462826  1
  Cu2+  Cu122  1  0.12511693  0.37565096  0.15225811  1
  Cu2+  Cu123  1  0.62500759  0.12604141  0.64895676  1
  Cu2+  Cu124  1  0.87489609  0.87435082  0.14959354  1
  Cu2+  Cu125  1  0.62450217  0.12464483  0.14355924  1
  Cu2+  Cu126  1  0.62570788  0.87400161  0.65555629  1
  Cu2+  Cu127  1  0.37566700  0.87365524  0.64697287  1
  O2-  O128  1  0.12119677  0.12589268  -0.00549928  1
  O2-  O129  1  0.12792756  0.12447997  0.49681207  1
  O2-  O130  1  0.12216274  0.37308792  -0.00354838  1
  O2-  O131  1  0.12768501  0.37538996  0.49540017  1
  O2-  O132  1  0.12302362  0.62464249  0.00745958  1
  O2-  O133  1  0.12737088  0.62510300  0.50713097  1
  O2-  O134  1  0.12234926  0.87591798  0.00626779  1
  O2-  O135  1  0.12619995  0.87485984  0.49601931  1
  O2-  O136  1  0.37388751  0.12577022  0.01689307  1
  O2-  O137  1  0.37528844  0.12488155  0.50718505  1
  O2-  O138  1  0.37409788  0.37320349  0.00674772  1
  O2-  O139  1  0.37486170  0.37375093  0.49520540  1
  O2-  O140  1  0.37400753  0.62362892  0.00775960  1
  O2-  O141  1  0.37601964  0.62473661  0.51982999  1
  O2-  O142  1  0.37411565  0.87684267  0.00671040  1
  O2-  O143  1  0.37614014  0.87550214  0.50765994  1
  O2-  O144  1  0.62705449  0.12530741  0.00764321  1
  O2-  O145  1  0.62240372  0.12431074  0.49690210  1
  O2-  O146  1  0.62728821  0.37413558  -0.00034322  1
  O2-  O147  1  0.62501097  0.37596291  0.51807242  1
  O2-  O148  1  0.62721920  0.62451375  0.00764513  1
  O2-  O149  1  0.62216517  0.62640248  0.49534262  1
  O2-  O150  1  0.62745816  0.87603432  0.00616735  1
  O2-  O151  1  0.62454142  0.87411658  0.49486519  1
  O2-  O152  1  0.87792876  0.12658872  -0.00479667  1
  O2-  O153  1  0.87322342  0.12542483  0.51414687  1
  O2-  O154  1  0.87699762  0.37273499  -0.00188142  1
  O2-  O155  1  0.87248759  0.37464868  0.51610390  1
  O2-  O156  1  0.87595973  0.62295492  0.00845122  1
  O2-  O157  1  0.87435008  0.62586046  0.50713121  1
  O2-  O158  1  0.87670013  0.87781390  -0.00323625  1
  O2-  O159  1  0.87298592  0.87511783  0.50629217  1
  O2-  O160  1  0.12486270  -0.00228925  0.16202784  1
  O2-  O161  1  0.12603661  -0.00164613  0.66368064  1
  O2-  O162  1  0.12567121  0.24941442  0.16442880  1
  O2-  O163  1  0.12553875  0.25157168  0.66083349  1
  O2-  O164  1  0.12508722  0.49957216  0.16661707  1
  O2-  O165  1  0.12651470  0.50253308  0.66283525  1
  O2-  O166  1  0.12491703  0.75365320  0.16523443  1
  O2-  O167  1  0.12504614  0.74733910  0.66567777  1
  O2-  O168  1  0.37452747  -0.00151806  0.16540164  1
  O2-  O169  1  0.37490026  0.00227289  0.66454730  1
  O2-  O170  1  0.37408629  0.25104929  0.16560385  1
  O2-  O171  1  0.37527437  0.24901401  0.66268345  1
  O2-  O172  1  0.37454929  0.49674823  0.16374119  1
  O2-  O173  1  0.37466310  0.50045940  0.66828501  1
  O2-  O174  1  0.37444403  0.75379255  0.16329338  1
  O2-  O175  1  0.37564014  0.74790766  0.67004475  1
  O2-  O176  1  0.62507861  -0.00332441  0.16307244  1
  O2-  O177  1  0.62453509  0.00009313  0.66449330  1
  O2-  O178  1  0.62485795  0.25073458  0.16580642  1
  O2-  O179  1  0.62402665  0.25112475  0.66631403  1
  O2-  O180  1  0.62473687  0.49948069  0.16550062  1
  O2-  O181  1  0.62424777  0.50003693  0.66702296  1
  O2-  O182  1  0.62505331  0.75352254  0.16204580  1
  O2-  O183  1  0.62470752  0.74896227  0.66691476  1
  O2-  O184  1  0.87535087  0.00086065  0.16511218  1
  O2-  O185  1  0.87507346  -0.00077553  0.66159160  1
  O2-  O186  1  0.87528811  0.25052046  0.16602456  1
  O2-  O187  1  0.87550023  0.25009920  0.66476041  1
  O2-  O188  1  0.87536453  0.49878475  0.16705987  1
  O2-  O189  1  0.87491735  0.49866252  0.66611966  1
  O2-  O190  1  0.87552912  0.75034242  0.16609434  1
  O2-  O191  1  0.87455773  0.75239607  0.66364899  1
  O2-  O192  1  0.00035884  0.12447723  0.16731524  1
  O2-  O193  1  -0.00010549  0.12408245  0.65925876  1
  O2-  O194  1  0.00067672  0.37502013  0.16698555  1
  O2-  O195  1  -0.00072763  0.37565020  0.66096245  1
  O2-  O196  1  -0.00001646  0.62531871  0.16856829  1
  O2-  O197  1  0.00282951  0.62528485  0.66165002  1
  O2-  O198  1  0.00093489  0.87570469  0.16537868  1
  O2-  O199  1  -0.00182579  0.87485910  0.65962221  1
  O2-  O200  1  0.25068715  0.12393212  0.16519283  1
  O2-  O201  1  0.25136806  0.12510016  0.66354633  1
  O2-  O202  1  0.25106168  0.37428838  0.16011819  1
  O2-  O203  1  0.25043544  0.37507227  0.66581072  1
  O2-  O204  1  0.24969796  0.62574936  0.16550846  1
  O2-  O205  1  0.24949808  0.62523161  0.66733086  1
  O2-  O206  1  0.25000619  0.87613226  0.16008115  1
  O2-  O207  1  0.24866778  0.87395988  0.66934480  1
  O2-  O208  1  0.49770152  0.12464502  0.16687002  1
  O2-  O209  1  0.49860774  0.12490379  0.66522687  1
  O2-  O210  1  0.49814850  0.37422236  0.16094176  1
  O2-  O211  1  0.50097803  0.37499802  0.67011694  1
  O2-  O212  1  0.50003855  0.62545671  0.16282622  1
  O2-  O213  1  0.49981571  0.62484883  0.67010917  1
  O2-  O214  1  0.49949353  0.87576381  0.15929996  1
  O2-  O215  1  0.50214982  0.87499902  0.67094444  1
  O2-  O216  1  0.75112813  0.12492511  0.16548346  1
  O2-  O217  1  0.75051024  0.12424960  0.66547563  1
  O2-  O218  1  0.74994930  0.37492531  0.16522098  1
  O2-  O219  1  0.74987818  0.37498545  0.66955202  1
  O2-  O220  1  0.75017099  0.62497557  0.16540334  1
  O2-  O221  1  0.74812548  0.62538487  0.66547692  1
  O2-  O222  1  0.74955037  0.87552067  0.16259937  1
  O2-  O223  1  0.75113710  0.87566307  0.66276948  1
  O2-  O224  1  0.12506506  0.00000569  0.34428462  1
  O2-  O225  1  0.12430369  -0.00142939  0.84716696  1
  O2-  O226  1  0.12524175  0.24998160  0.34650945  1
  O2-  O227  1  0.12522344  0.24995802  0.84244093  1
  O2-  O228  1  0.12625592  0.50176237  0.34915220  1
  O2-  O229  1  0.12480853  0.49767927  0.84552022  1
  O2-  O230  1  0.12539214  0.74856330  0.34805609  1
  O2-  O231  1  0.12516348  0.75333352  0.85007088  1
  O2-  O232  1  0.37500438  0.00379406  0.34755592  1
  O2-  O233  1  0.37503228  -0.00181479  0.84933308  1
  O2-  O234  1  0.37482801  0.24816258  0.34701533  1
  O2-  O235  1  0.37392946  0.25179144  0.84739144  1
  O2-  O236  1  0.37443655  0.49941215  0.34737069  1
  O2-  O237  1  0.37473672  0.49569787  0.85046283  1
  O2-  O238  1  0.37506142  0.74831904  0.34724892  1
  O2-  O239  1  0.37392970  0.75389907  0.85201505  1
  O2-  O240  1  0.62490379  0.00016103  0.34380965  1
  O2-  O241  1  0.62474852  -0.00293587  0.84907770  1
  O2-  O242  1  0.62438623  0.24998884  0.34902061  1
  O2-  O243  1  0.62518012  0.25195328  0.84712498  1
  O2-  O244  1  0.62385374  0.50031772  0.34850345  1
  O2-  O245  1  0.62487573  0.49780313  0.84802449  1
  O2-  O246  1  0.62438132  0.74980143  0.34214146  1
  O2-  O247  1  0.62555854  0.75264049  0.85123620  1
  O2-  O248  1  0.87462658  -0.00282125  0.34906988  1
  O2-  O249  1  0.87586244  0.00016623  0.84219339  1
  O2-  O250  1  0.87494959  0.25060360  0.35045258  1
  O2-  O251  1  0.87574757  0.25001331  0.84205145  1
  O2-  O252  1  0.87508831  0.49966614  0.35048545  1
  O2-  O253  1  0.87591366  0.49804160  0.84690458  1
  O2-  O254  1  0.87522936  0.75322424  0.34868217  1
  O2-  O255  1  0.87548292  0.75150456  0.84738153  1
  O2-  O256  1  0.00082411  0.12433218  0.35086444  1
  O2-  O257  1  0.00022619  0.12454436  0.83804389  1
  O2-  O258  1  0.00116624  0.37540920  0.35029145  1
  O2-  O259  1  -0.00019175  0.37439028  0.84107733  1
  O2-  O260  1  0.00304127  0.62559554  0.35260477  1
  O2-  O261  1  -0.00016593  0.62567320  0.84529069  1
  O2-  O262  1  -0.00096903  0.87505224  0.34964216  1
  O2-  O263  1  0.00083788  0.87486242  0.84300997  1
  O2-  O264  1  0.25127009  0.12474728  0.34632554  1
  O2-  O265  1  0.24782983  0.12390794  0.84738633  1
  O2-  O266  1  0.25005547  0.37486394  0.34114557  1
  O2-  O267  1  0.24997006  0.37398300  0.85000336  1
  O2-  O268  1  0.24920313  0.62592994  0.34945710  1
  O2-  O269  1  0.24971652  0.62472668  0.84980103  1
  O2-  O270  1  0.24825521  0.87462136  0.34373556  1
  O2-  O271  1  0.24908027  0.87678711  0.85381074  1
  O2-  O272  1  0.49878271  0.12528359  0.34729101  1
  O2-  O273  1  0.49886329  0.12508436  0.85034052  1
  O2-  O274  1  0.49854536  0.37468800  0.34401556  1
  O2-  O275  1  0.49948490  0.37341172  0.85317316  1
  O2-  O276  1  0.49966572  0.62458046  0.34505169  1
  O2-  O277  1  0.49975404  0.62515404  0.85281077  1
  O2-  O278  1  0.50214855  0.87528955  0.34228989  1
  O2-  O279  1  0.50027404  0.87557226  0.85549423  1
  O2-  O280  1  0.74862515  0.12499803  0.34887215  1
  O2-  O281  1  0.75291935  0.12416854  0.84583835  1
  O2-  O282  1  0.74977574  0.37514147  0.35042612  1
  O2-  O283  1  0.75103378  0.37452496  0.84730824  1
  O2-  O284  1  0.74799171  0.62510105  0.34748014  1
  O2-  O285  1  0.75104261  0.62522028  0.84895837  1
  O2-  O286  1  0.75025081  0.87509327  0.34607056  1
  O2-  O287  1  0.74993318  0.87534716  0.84642696  1
