# generated using pymatgen
data_BaYFeCuO5
_symmetry_space_group_name_H-M   'P 1'
_cell_length_a   15.67248308
_cell_length_b   15.67242070
_cell_length_c   15.49174396
_cell_angle_alpha   90.00338029
_cell_angle_beta   89.99024608
_cell_angle_gamma   90.00361363
_symmetry_Int_Tables_number   1
_chemical_formula_structural   BaYFeCuO5
_chemical_formula_sum   'Ba32 Y32 Fe32 Cu32 O160'
_cell_volume   3805.17113142
_cell_formula_units_Z   32
loop_
 _symmetry_equiv_pos_site_id
 _symmetry_equiv_pos_as_xyz
  1  'x, y, z'
loop_
 _atom_type_symbol
 _atom_type_oxidation_number
  Ba2+  2.0
  Y3+  3.0
  Fe3+  3.0
  Cu2+  2.0
  O2-  -2.0
loop_
 _atom_site_type_symbol
 _atom_site_label
 _atom_site_symmetry_multiplicity
 _atom_site_fract_x
 _atom_site_fract_y
 _atom_site_fract_z
 _atom_site_occupancy
  Ba2+  Ba0  1  0.00156503  -0.00080456  0.00768921  1
  Ba2+  Ba1  1  -0.00543701  -0.00772148  0.51078519  1
  Ba2+  Ba2  1  0.00017534  0.24148126  0.00865389  1
  Ba2+  Ba3  1  -0.00345637  0.25607192  0.51726532  1
  Ba2+  Ba4  1  -0.00359464  0.50509863  0.00118473  1
  Ba2+  Ba5  1  0.00007900  0.49917473  0.52154287  1
  Ba2+  Ba6  1  -0.00152241  0.75384252  0.00057982  1
  Ba2+  Ba7  1  -0.00291238  0.75338012  0.51628666  1
  Ba2+  Ba8  1  0.24476861  0.00262033  0.00098801  1
  Ba2+  Ba9  1  0.24704023  -0.00110669  0.50286064  1
  Ba2+  Ba10  1  0.25016246  0.24171049  0.00567769  1
  Ba2+  Ba11  1  0.25371696  0.25750750  0.50154016  1
  Ba2+  Ba12  1  0.24959185  0.50000148  0.00681083  1
  Ba2+  Ba13  1  0.24528029  0.49129400  0.51125191  1
  Ba2+  Ba14  1  0.24376560  0.75455255  0.00044899  1
  Ba2+  Ba15  1  0.23815649  0.75138534  0.51148588  1
  Ba2+  Ba16  1  0.49016154  0.00021962  0.00786975  1
  Ba2+  Ba17  1  0.50879486  0.00329023  0.50710203  1
  Ba2+  Ba18  1  0.49554288  0.25429166  0.01363583  1
  Ba2+  Ba19  1  0.49899682  0.25279381  0.51119579  1
  Ba2+  Ba20  1  0.50464592  0.49648169  0.02231382  1
  Ba2+  Ba21  1  0.50300935  0.49234520  0.51517096  1
  Ba2+  Ba22  1  0.49995467  0.74944550  0.01759454  1
  Ba2+  Ba23  1  0.51253119  0.75149504  0.51104906  1
  Ba2+  Ba24  1  0.76154631  -0.00222945  0.01186655  1
  Ba2+  Ba25  1  0.75159213  -0.00377983  0.51668899  1
  Ba2+  Ba26  1  0.75399828  0.25427338  0.00864548  1
  Ba2+  Ba27  1  0.74970692  0.24976978  0.52610387  1
  Ba2+  Ba28  1  0.74951903  0.50155946  0.01548811  1
  Ba2+  Ba29  1  0.75086521  0.50023680  0.52481249  1
  Ba2+  Ba30  1  0.75732245  0.74734103  0.01768097  1
  Ba2+  Ba31  1  0.75252833  0.75415380  0.51562678  1
  Y3+  Y32  1  -0.00098936  -0.00104630  0.25805479  1
  Y3+  Y33  1  -0.00064422  -0.00252899  0.75810344  1
  Y3+  Y34  1  0.00230160  0.24824466  0.25659122  1
  Y3+  Y35  1  -0.00029396  0.25048468  0.75848680  1
  Y3+  Y36  1  0.00072652  0.49950016  0.25778547  1
  Y3+  Y37  1  0.00058288  0.50016520  0.75604802  1
  Y3+  Y38  1  -0.00235561  0.75328080  0.25980136  1
  Y3+  Y39  1  0.00000095  0.75181575  0.75575141  1
  Y3+  Y40  1  0.24866714  0.00088349  0.26021214  1
  Y3+  Y41  1  0.24647930  0.00106577  0.75804472  1
  Y3+  Y42  1  0.25034458  0.25104827  0.26027375  1
  Y3+  Y43  1  0.24880841  0.24989117  0.75627275  1
  Y3+  Y44  1  0.25041995  0.49638122  0.26057509  1
  Y3+  Y45  1  0.24792570  0.49869683  0.75415183  1
  Y3+  Y46  1  0.24905513  0.75184714  0.26065244  1
  Y3+  Y47  1  0.24554154  0.75013733  0.75567181  1
  Y3+  Y48  1  0.49981902  -0.00037354  0.26012764  1
  Y3+  Y49  1  0.50157645  0.00036185  0.75591606  1
  Y3+  Y50  1  0.49723252  0.25148669  0.25905573  1
  Y3+  Y51  1  0.49949898  0.24981842  0.75540702  1
  Y3+  Y52  1  0.49978654  0.49812611  0.25735122  1
  Y3+  Y53  1  0.49993852  0.49883086  0.75300763  1
  Y3+  Y54  1  0.50174283  0.75098954  0.25885183  1
  Y3+  Y55  1  0.50202259  0.75039757  0.75438010  1
  Y3+  Y56  1  0.75328079  -0.00328767  0.25806477  1
  Y3+  Y57  1  0.75176213  -0.00193408  0.75572165  1
  Y3+  Y58  1  0.75114953  0.24974661  0.25207185  1
  Y3+  Y59  1  0.75098452  0.25004621  0.75821547  1
  Y3+  Y60  1  0.75010198  0.50174313  0.25234678  1
  Y3+  Y61  1  0.75113092  0.50007552  0.75690128  1
  Y3+  Y62  1  0.75252750  0.75210348  0.25796302  1
  Y3+  Y63  1  0.75171862  0.75183555  0.75473068  1
  Fe3+  Fe64  1  0.12336196  0.62449558  0.37888141  1
  Fe3+  Fe65  1  0.37601729  0.87449534  0.38117175  1
  Fe3+  Fe66  1  0.37501810  0.87445567  0.87545726  1
  Fe3+  Fe67  1  0.87475465  0.12455832  0.87509620  1
  Fe3+  Fe68  1  0.12372215  0.12568894  0.38096112  1
  Fe3+  Fe69  1  0.62715702  0.12609557  0.37509048  1
  Fe3+  Fe70  1  0.62426832  0.62529603  0.87651863  1
  Fe3+  Fe71  1  0.62414900  0.12452966  0.88012742  1
  Fe3+  Fe72  1  0.62690872  0.62409903  0.37612548  1
  Fe3+  Fe73  1  0.87400672  0.12601046  0.37725780  1
  Fe3+  Fe74  1  0.37529067  0.37527531  0.87621779  1
  Fe3+  Fe75  1  0.62577563  0.87452655  0.88051018  1
  Fe3+  Fe76  1  0.87456517  0.62408081  0.37780343  1
  Fe3+  Fe77  1  0.12425676  0.37454797  0.87918529  1
  Fe3+  Fe78  1  0.37522554  0.62468683  0.87811389  1
  Fe3+  Fe79  1  0.62467975  0.37560994  0.87569253  1
  Fe3+  Fe80  1  0.37547054  0.62429708  0.38103102  1
  Fe3+  Fe81  1  0.62803169  0.37469568  0.37442723  1
  Fe3+  Fe82  1  0.87420417  0.62548099  0.87402995  1
  Fe3+  Fe83  1  0.87401366  0.37526642  0.37579981  1
  Fe3+  Fe84  1  0.12564135  0.87554940  0.14055597  1
  Fe3+  Fe85  1  0.62507507  0.87593670  0.13507839  1
  Fe3+  Fe86  1  0.37447856  0.62525050  0.63345460  1
  Fe3+  Fe87  1  0.62529835  0.12476679  0.13318263  1
  Fe3+  Fe88  1  0.37442581  0.12464187  0.63658028  1
  Fe3+  Fe89  1  0.37497764  0.87536883  0.63456318  1
  Fe3+  Fe90  1  0.12438181  0.62568664  0.13763448  1
  Fe3+  Fe91  1  0.12359561  0.12523715  0.63517727  1
  Fe3+  Fe92  1  0.37383468  0.12425222  0.14098091  1
  Fe3+  Fe93  1  0.87722631  0.37532597  0.13435268  1
  Fe3+  Fe94  1  0.12570141  0.37434263  0.13434946  1
  Fe3+  Fe95  1  0.37311666  0.62573986  0.13599315  1
  Cu2+  Cu96  1  0.87485955  0.37559436  0.86589195  1
  Cu2+  Cu97  1  0.87464079  0.87492097  0.37213088  1
  Cu2+  Cu98  1  0.37629809  0.37603039  0.37246517  1
  Cu2+  Cu99  1  0.12448781  0.87502068  0.86079301  1
  Cu2+  Cu100  1  0.87438014  0.87448227  0.87214361  1
  Cu2+  Cu101  1  0.37552803  0.12504158  0.36875391  1
  Cu2+  Cu102  1  0.12362530  0.87493694  0.37443820  1
  Cu2+  Cu103  1  0.62648105  0.87525058  0.37148646  1
  Cu2+  Cu104  1  0.12512987  0.62464139  0.86242152  1
  Cu2+  Cu105  1  0.37526427  0.12511635  0.86122507  1
  Cu2+  Cu106  1  0.12273475  0.37504240  0.37280898  1
  Cu2+  Cu107  1  0.12394169  0.12510187  0.87152303  1
  Cu2+  Cu108  1  0.37396041  0.87507150  0.15360712  1
  Cu2+  Cu109  1  0.62532770  0.37395915  0.14969135  1
  Cu2+  Cu110  1  0.37361213  0.37506208  0.15106861  1
  Cu2+  Cu111  1  0.62523347  0.37432520  0.65382804  1
  Cu2+  Cu112  1  0.12482463  0.37334744  0.64365521  1
  Cu2+  Cu113  1  0.62506620  0.87567073  0.64297296  1
  Cu2+  Cu114  1  0.87528691  0.62526538  0.65095849  1
  Cu2+  Cu115  1  0.12474464  0.62496433  0.65048827  1
  Cu2+  Cu116  1  0.12478748  0.87665899  0.64269843  1
  Cu2+  Cu117  1  0.87548881  0.12472244  0.65163607  1
  Cu2+  Cu118  1  0.87709744  0.87476430  0.14191231  1
  Cu2+  Cu119  1  0.62497983  0.62606241  0.15034754  1
  Cu2+  Cu120  1  0.87558011  0.12481403  0.15017973  1
  Cu2+  Cu121  1  0.87698036  0.62518365  0.15123929  1
  Cu2+  Cu122  1  0.37427788  0.37409829  0.64239420  1
  Cu2+  Cu123  1  0.62531455  0.62490459  0.65019818  1
  Cu2+  Cu124  1  0.12569485  0.12447151  0.14426789  1
  Cu2+  Cu125  1  0.62537468  0.12496587  0.65364265  1
  Cu2+  Cu126  1  0.87522579  0.87512938  0.64490416  1
  Cu2+  Cu127  1  0.87492321  0.37497676  0.65558182  1
  O2-  O128  1  0.12612671  0.12438764  0.00719764  1
  O2-  O129  1  0.12330599  0.12670125  0.50812010  1
  O2-  O130  1  0.12569440  0.37471635  0.00718308  1
  O2-  O131  1  0.12277432  0.37420003  0.50771892  1
  O2-  O132  1  0.12637897  0.62605612  0.01767605  1
  O2-  O133  1  0.12357445  0.62282299  0.49913647  1
  O2-  O134  1  0.12608183  0.87510188  0.01974038  1
  O2-  O135  1  0.12438949  0.87592558  0.50887127  1
  O2-  O136  1  0.37356952  0.12349782  0.02017399  1
  O2-  O137  1  0.37626320  0.12516520  0.51663311  1
  O2-  O138  1  0.37627308  0.37755234  -0.00361747  1
  O2-  O139  1  0.37643770  0.37572840  0.50730896  1
  O2-  O140  1  0.37467961  0.62554866  0.00632876  1
  O2-  O141  1  0.37535304  0.62474638  0.50675858  1
  O2-  O142  1  0.37525549  0.87257222  -0.00426324  1
  O2-  O143  1  0.37680391  0.87441461  0.50805223  1
  O2-  O144  1  0.62332358  0.12438948  0.00621695  1
  O2-  O145  1  0.62783954  0.12747672  0.49516041  1
  O2-  O146  1  0.62313494  0.37576100  -0.00409793  1
  O2-  O147  1  0.62873032  0.37406876  0.49429078  1
  O2-  O148  1  0.62323602  0.62502521  -0.00366353  1
  O2-  O149  1  0.62685599  0.62261027  0.49596947  1
  O2-  O150  1  0.62403206  0.87463052  0.00670639  1
  O2-  O151  1  0.62553635  0.87592422  0.50715965  1
  O2-  O152  1  0.87519603  0.12501058  -0.00414151  1
  O2-  O153  1  0.87203168  0.12758506  0.49680083  1
  O2-  O154  1  0.87712407  0.37630606  0.01393710  1
  O2-  O155  1  0.87205790  0.37541466  0.49583658  1
  O2-  O156  1  0.87426625  0.62479388  -0.00507607  1
  O2-  O157  1  0.87383795  0.62269812  0.49764035  1
  O2-  O158  1  0.87611820  0.87405891  0.00757618  1
  O2-  O159  1  0.87372669  0.87449000  0.50878350  1
  O2-  O160  1  0.12603469  -0.00111783  0.17024540  1
  O2-  O161  1  0.12478294  0.00364449  0.66554170  1
  O2-  O162  1  0.12551928  0.25240020  0.16332300  1
  O2-  O163  1  0.12437397  0.24658714  0.66720353  1
  O2-  O164  1  0.12628714  0.49869181  0.16277046  1
  O2-  O165  1  0.12522634  0.50052468  0.66613364  1
  O2-  O166  1  0.12626153  0.75005350  0.16988990  1
  O2-  O167  1  0.12552468  0.74946323  0.66449340  1
  O2-  O168  1  0.37561565  -0.00005064  0.17024418  1
  O2-  O169  1  0.37541278  -0.00077460  0.66592826  1
  O2-  O170  1  0.37533133  0.25005505  0.16585498  1
  O2-  O171  1  0.37499304  0.24760430  0.66805423  1
  O2-  O172  1  0.37427251  0.50149892  0.16190973  1
  O2-  O173  1  0.37499448  0.50290769  0.66295521  1
  O2-  O174  1  0.37511851  0.74866280  0.16554853  1
  O2-  O175  1  0.37514299  0.74988254  0.66189030  1
  O2-  O176  1  0.62449789  0.00014024  0.16178381  1
  O2-  O177  1  0.62484235  0.00132332  0.66896692  1
  O2-  O178  1  0.62455058  0.24775085  0.15888207  1
  O2-  O179  1  0.62502334  0.24988183  0.66706781  1
  O2-  O180  1  0.62459875  0.50020323  0.16067960  1
  O2-  O181  1  0.62406175  0.49952707  0.66285968  1
  O2-  O182  1  0.62371214  0.75235746  0.16283090  1
  O2-  O183  1  0.62444774  0.74884664  0.66572146  1
  O2-  O184  1  0.87533197  0.00131613  0.16555451  1
  O2-  O185  1  0.87474455  0.00116115  0.66640445  1
  O2-  O186  1  0.87592326  0.25070457  0.16164000  1
  O2-  O187  1  0.87462224  0.25008920  0.66597854  1
  O2-  O188  1  0.87576189  0.49954565  0.16231837  1
  O2-  O189  1  0.87528023  0.50004317  0.66404640  1
  O2-  O190  1  0.87577867  0.74851939  0.16607921  1
  O2-  O191  1  0.87491597  0.74870975  0.66498310  1
  O2-  O192  1  -0.00077462  0.12501595  0.16570235  1
  O2-  O193  1  0.00064922  0.12578119  0.66259077  1
  O2-  O194  1  0.00219917  0.37509237  0.16447546  1
  O2-  O195  1  -0.00132347  0.37459941  0.66724810  1
  O2-  O196  1  0.00166098  0.62435969  0.16674587  1
  O2-  O197  1  0.00003308  0.62461432  0.66525512  1
  O2-  O198  1  0.00231865  0.87530050  0.16884959  1
  O2-  O199  1  -0.00020837  0.87516634  0.66593686  1
  O2-  O200  1  0.25186580  0.12522136  0.17293922  1
  O2-  O201  1  0.24858812  0.12463739  0.66515474  1
  O2-  O202  1  0.24796538  0.37521557  0.16670314  1
  O2-  O203  1  0.24980148  0.37476695  0.66760716  1
  O2-  O204  1  0.25058429  0.62493986  0.16862217  1
  O2-  O205  1  0.25170652  0.62541699  0.66541408  1
  O2-  O206  1  0.24962016  0.87489932  0.17241476  1
  O2-  O207  1  0.25326040  0.87500317  0.66388518  1
  O2-  O208  1  0.50121096  0.12439164  0.16512926  1
  O2-  O209  1  0.49983659  0.12434914  0.66629572  1
  O2-  O210  1  0.50001236  0.37542569  0.16377303  1
  O2-  O211  1  0.50130297  0.37449315  0.66220638  1
  O2-  O212  1  0.49750071  0.62543858  0.16375751  1
  O2-  O213  1  0.49834991  0.62580138  0.66195561  1
  O2-  O214  1  0.50110732  0.87502511  0.16375964  1
  O2-  O215  1  0.49700358  0.87479046  0.66462921  1
  O2-  O216  1  0.74856241  0.12494458  0.15699722  1
  O2-  O217  1  0.75020795  0.12491459  0.66600707  1
  O2-  O218  1  0.75105899  0.37471884  0.15889478  1
  O2-  O219  1  0.74990886  0.37485747  0.66594184  1
  O2-  O220  1  0.75088586  0.62548556  0.15942260  1
  O2-  O221  1  0.74990170  0.62468780  0.66375822  1
  O2-  O222  1  0.74776658  0.87496358  0.16116597  1
  O2-  O223  1  0.75020107  0.87523677  0.66621338  1
  O2-  O224  1  0.12543987  0.00301730  0.35295840  1
  O2-  O225  1  0.12525975  -0.00105855  0.84889226  1
  O2-  O226  1  0.12522050  0.24683057  0.34752340  1
  O2-  O227  1  0.12527650  0.25297001  0.85027146  1
  O2-  O228  1  0.12545215  0.50240311  0.34386264  1
  O2-  O229  1  0.12593946  0.49778149  0.85084538  1
  O2-  O230  1  0.12580337  0.74807584  0.34952926  1
  O2-  O231  1  0.12600670  0.74994648  0.84933300  1
  O2-  O232  1  0.37556475  -0.00189437  0.35354123  1
  O2-  O233  1  0.37519073  -0.00066794  0.84876859  1
  O2-  O234  1  0.37503734  0.24945195  0.34896980  1
  O2-  O235  1  0.37488707  0.25041279  0.85017697  1
  O2-  O236  1  0.37579202  0.50338794  0.34655149  1
  O2-  O237  1  0.37437638  0.50117598  0.84619675  1
  O2-  O238  1  0.37596057  0.74941772  0.35038798  1
  O2-  O239  1  0.37462272  0.74860550  0.84582083  1
  O2-  O240  1  0.62485605  0.00220880  0.34505542  1
  O2-  O241  1  0.62350062  -0.00036187  0.85298824  1
  O2-  O242  1  0.62573150  0.25021945  0.34021889  1
  O2-  O243  1  0.62434512  0.24877852  0.85040970  1
  O2-  O244  1  0.62517062  0.49993178  0.34193855  1
  O2-  O245  1  0.62364758  0.50047198  0.84425344  1
  O2-  O246  1  0.62457459  0.74779649  0.34610088  1
  O2-  O247  1  0.62300842  0.75104974  0.84819485  1
  O2-  O248  1  0.87491889  0.00166463  0.34834292  1
  O2-  O249  1  0.87409382  0.00079414  0.84847212  1
  O2-  O250  1  0.87477725  0.25008560  0.34185728  1
  O2-  O251  1  0.87402632  0.24978563  0.84890390  1
  O2-  O252  1  0.87463224  0.50001473  0.34216406  1
  O2-  O253  1  0.87498554  0.50098899  0.84652282  1
  O2-  O254  1  0.87441832  0.74835480  0.34851319  1
  O2-  O255  1  0.87515712  0.74868328  0.84664718  1
  O2-  O256  1  0.00032590  0.12554663  0.34859392  1
  O2-  O257  1  -0.00210538  0.12542093  0.84567428  1
  O2-  O258  1  -0.00262883  0.37470249  0.34506727  1
  O2-  O259  1  0.00160716  0.37553619  0.85137021  1
  O2-  O260  1  -0.00073961  0.62455958  0.34644494  1
  O2-  O261  1  0.00023021  0.62453927  0.84905463  1
  O2-  O262  1  -0.00058446  0.87526764  0.35077943  1
  O2-  O263  1  0.00129517  0.87476761  0.84974235  1
  O2-  O264  1  0.24872386  0.12521599  0.35605200  1
  O2-  O265  1  0.25123607  0.12473548  0.84829345  1
  O2-  O266  1  0.24971648  0.37549982  0.35119277  1
  O2-  O267  1  0.24937636  0.37533117  0.84943797  1
  O2-  O268  1  0.25148221  0.62540136  0.35138352  1
  O2-  O269  1  0.25161247  0.62505206  0.85094317  1
  O2-  O270  1  0.25305279  0.87422910  0.35485313  1
  O2-  O271  1  0.25009702  0.87465481  0.84712362  1
  O2-  O272  1  0.50093881  0.12520192  0.34744740  1
  O2-  O273  1  0.50148036  0.12435741  0.84993873  1
  O2-  O274  1  0.50310142  0.37518816  0.34701639  1
  O2-  O275  1  0.49962116  0.37503074  0.84286614  1
  O2-  O276  1  0.49946425  0.62532055  0.34799573  1
  O2-  O277  1  0.49843731  0.62548820  0.84497429  1
  O2-  O278  1  0.49760632  0.87459367  0.34861695  1
  O2-  O279  1  0.50122963  0.87479166  0.84704048  1
  O2-  O280  1  0.75068473  0.12516793  0.33845888  1
  O2-  O281  1  0.74773503  0.12474676  0.84936381  1
  O2-  O282  1  0.75048730  0.37507045  0.33801458  1
  O2-  O283  1  0.74850100  0.37517783  0.84872432  1
  O2-  O284  1  0.75039455  0.62475915  0.34146152  1
  O2-  O285  1  0.74853950  0.62548105  0.84491391  1
  O2-  O286  1  0.75073298  0.87505094  0.34500334  1
  O2-  O287  1  0.74619294  0.87480480  0.84934806  1
