# generated using pymatgen
data_BaYFeCuO5
_symmetry_space_group_name_H-M   'P 1'
_cell_length_a   15.65264689
_cell_length_b   15.65876814
_cell_length_c   15.45077726
_cell_angle_alpha   90.00318415
_cell_angle_beta   89.99709968
_cell_angle_gamma   89.99862381
_symmetry_Int_Tables_number   1
_chemical_formula_structural   BaYFeCuO5
_chemical_formula_sum   'Ba32 Y32 Fe32 Cu32 O160'
_cell_volume   3787.00354785
_cell_formula_units_Z   32
loop_
 _symmetry_equiv_pos_site_id
 _symmetry_equiv_pos_as_xyz
  1  'x, y, z'
loop_
 _atom_type_symbol
 _atom_type_oxidation_number
  Ba2+  2.0
  Y3+  3.0
  Fe3+  3.0
  Cu2+  2.0
  O2-  -2.0
loop_
 _atom_site_type_symbol
 _atom_site_label
 _atom_site_symmetry_multiplicity
 _atom_site_fract_x
 _atom_site_fract_y
 _atom_site_fract_z
 _atom_site_occupancy
  Ba2+  Ba0  1  -0.00448430  0.00938458  0.00269291  1
  Ba2+  Ba1  1  -0.00757458  -0.00027055  0.51864973  1
  Ba2+  Ba2  1  0.00608341  0.24484112  0.00676921  1
  Ba2+  Ba3  1  -0.00995274  0.25362976  0.51272386  1
  Ba2+  Ba4  1  0.01047488  0.49630291  0.01235931  1
  Ba2+  Ba5  1  -0.00882299  0.50303028  0.51089915  1
  Ba2+  Ba6  1  -0.00094258  0.75004193  0.00659652  1
  Ba2+  Ba7  1  -0.00545841  0.74289180  0.51665895  1
  Ba2+  Ba8  1  0.25075788  0.01292052  0.00620823  1
  Ba2+  Ba9  1  0.25747373  -0.00039848  0.51832030  1
  Ba2+  Ba10  1  0.24880167  0.24935433  0.01191760  1
  Ba2+  Ba11  1  0.25862553  0.25122144  0.51823857  1
  Ba2+  Ba12  1  0.24912248  0.49408131  0.01229298  1
  Ba2+  Ba13  1  0.25563167  0.50556242  0.51607114  1
  Ba2+  Ba14  1  0.25106925  0.74069668  0.00662285  1
  Ba2+  Ba15  1  0.25552710  0.74342891  0.51567515  1
  Ba2+  Ba16  1  0.50429305  0.00907572  0.01028704  1
  Ba2+  Ba17  1  0.49304162  -0.00008370  0.51781884  1
  Ba2+  Ba18  1  0.50155566  0.24876694  0.01162680  1
  Ba2+  Ba19  1  0.49714536  0.25595170  0.51268612  1
  Ba2+  Ba20  1  0.50119127  0.49488899  0.01192519  1
  Ba2+  Ba21  1  0.49885118  0.50235769  0.51184498  1
  Ba2+  Ba22  1  0.50474919  0.74582667  0.01292673  1
  Ba2+  Ba23  1  0.49502768  0.74316459  0.51540853  1
  Ba2+  Ba24  1  0.74953195  0.00660780  0.00657577  1
  Ba2+  Ba25  1  0.75700313  0.00016522  0.51799212  1
  Ba2+  Ba26  1  0.74380011  0.24462080  0.00649084  1
  Ba2+  Ba27  1  0.75449215  0.25816180  0.50638213  1
  Ba2+  Ba28  1  0.73911624  0.49672358  0.01226903  1
  Ba2+  Ba29  1  0.75401746  0.49970216  0.50579633  1
  Ba2+  Ba30  1  0.74516361  0.75472911  0.01256339  1
  Ba2+  Ba31  1  0.75494427  0.74269319  0.51634716  1
  Y3+  Y32  1  0.00023122  0.00256841  0.25362030  1
  Y3+  Y33  1  -0.00302046  0.00164240  0.76109989  1
  Y3+  Y34  1  0.00005699  0.25008642  0.25437389  1
  Y3+  Y35  1  -0.00135131  0.25037469  0.76084273  1
  Y3+  Y36  1  -0.00044181  0.49850915  0.25862497  1
  Y3+  Y37  1  -0.00057739  0.49881754  0.75598049  1
  Y3+  Y38  1  -0.00011683  0.74828705  0.25703863  1
  Y3+  Y39  1  -0.00215046  0.74915229  0.75678237  1
  Y3+  Y40  1  0.25011144  0.00250106  0.25348977  1
  Y3+  Y41  1  0.25158010  0.00244349  0.76018327  1
  Y3+  Y42  1  0.24954323  0.25023418  0.25228843  1
  Y3+  Y43  1  0.25017414  0.24990066  0.76183173  1
  Y3+  Y44  1  0.24929072  0.49915455  0.25596423  1
  Y3+  Y45  1  0.25128136  0.50062065  0.75815406  1
  Y3+  Y46  1  0.25039634  0.74819206  0.25737244  1
  Y3+  Y47  1  0.25172360  0.74745813  0.75617635  1
  Y3+  Y48  1  0.50138591  0.00181146  0.25310782  1
  Y3+  Y49  1  0.49850232  0.00254286  0.75968423  1
  Y3+  Y50  1  0.50122385  0.25119144  0.25327073  1
  Y3+  Y51  1  0.50032172  0.24991990  0.76139665  1
  Y3+  Y52  1  0.50163915  0.49797877  0.25729413  1
  Y3+  Y53  1  0.49910861  0.50063904  0.75784579  1
  Y3+  Y54  1  0.50111831  0.74873763  0.25745899  1
  Y3+  Y55  1  0.49810853  0.74725608  0.75605522  1
  Y3+  Y56  1  0.74874255  0.00210486  0.25319985  1
  Y3+  Y57  1  0.75286574  0.00156501  0.76094638  1
  Y3+  Y58  1  0.74916424  0.25119508  0.25518482  1
  Y3+  Y59  1  0.75039413  0.25009428  0.76056512  1
  Y3+  Y60  1  0.74961142  0.49721485  0.25968266  1
  Y3+  Y61  1  0.74991362  0.49912069  0.75575967  1
  Y3+  Y62  1  0.74895827  0.74869976  0.25722839  1
  Y3+  Y63  1  0.75202490  0.74935949  0.75653041  1
  Fe3+  Fe64  1  0.12533805  0.12515005  0.38167082  1
  Fe3+  Fe65  1  0.87469470  0.37570282  0.88102515  1
  Fe3+  Fe66  1  0.87482251  0.12481970  0.37576902  1
  Fe3+  Fe67  1  0.87504378  0.87499314  0.37645496  1
  Fe3+  Fe68  1  0.12507370  0.87534121  0.87870066  1
  Fe3+  Fe69  1  0.37554750  0.87433948  0.87964584  1
  Fe3+  Fe70  1  0.12489704  0.87572603  0.38106564  1
  Fe3+  Fe71  1  0.12526342  0.37410632  0.38119093  1
  Fe3+  Fe72  1  0.62513843  0.87587548  0.38072301  1
  Fe3+  Fe73  1  0.37526872  0.12535801  0.37512431  1
  Fe3+  Fe74  1  0.62466868  0.12564973  0.38105229  1
  Fe3+  Fe75  1  0.62479876  0.62464791  0.37721433  1
  Fe3+  Fe76  1  0.12503864  0.62412125  0.87545884  1
  Fe3+  Fe77  1  0.37498927  0.87512830  0.37541367  1
  Fe3+  Fe78  1  0.62480496  0.87514350  0.87510073  1
  Fe3+  Fe79  1  0.37461571  0.37541507  0.37547782  1
  Fe3+  Fe80  1  0.37511657  0.37535271  0.87708953  1
  Fe3+  Fe81  1  0.87415604  0.62404880  0.88048835  1
  Fe3+  Fe82  1  0.12523149  0.62480902  0.37774205  1
  Fe3+  Fe83  1  0.62471211  0.62460734  0.87570423  1
  Fe3+  Fe84  1  0.12499585  0.87448382  0.63609832  1
  Fe3+  Fe85  1  0.87477952  0.87575645  0.13538837  1
  Fe3+  Fe86  1  0.37555542  0.87522534  0.13287880  1
  Fe3+  Fe87  1  0.87499616  0.37416799  0.13463893  1
  Fe3+  Fe88  1  0.62545434  0.12583542  0.63556679  1
  Fe3+  Fe89  1  0.12451070  0.12576884  0.63592271  1
  Fe3+  Fe90  1  0.12512364  0.37561311  0.63540257  1
  Fe3+  Fe91  1  0.62488684  0.87439393  0.63513116  1
  Fe3+  Fe92  1  0.87444267  0.62384994  0.13441311  1
  Fe3+  Fe93  1  0.12541501  0.87506545  0.13293123  1
  Fe3+  Fe94  1  0.37570149  0.62369844  0.13719938  1
  Fe3+  Fe95  1  0.62499736  0.37554314  0.63861303  1
  Cu2+  Cu96  1  0.62445860  0.37404817  0.36577427  1
  Cu2+  Cu97  1  0.87434855  0.12644692  0.87258414  1
  Cu2+  Cu98  1  0.37554689  0.12603458  0.87274347  1
  Cu2+  Cu99  1  0.12498859  0.12560391  0.86961097  1
  Cu2+  Cu100  1  0.87469106  0.87426388  0.86793841  1
  Cu2+  Cu101  1  0.37541563  0.62456116  0.86784010  1
  Cu2+  Cu102  1  0.62466642  0.37525345  0.87231257  1
  Cu2+  Cu103  1  0.62468494  0.12506917  0.86927325  1
  Cu2+  Cu104  1  0.37511012  0.62445896  0.37004434  1
  Cu2+  Cu105  1  0.87573336  0.37453633  0.37020417  1
  Cu2+  Cu106  1  0.87481613  0.62526414  0.36960516  1
  Cu2+  Cu107  1  0.12504901  0.37533121  0.87100954  1
  Cu2+  Cu108  1  0.37548216  0.12576546  0.14095281  1
  Cu2+  Cu109  1  0.12465816  0.12473589  0.14323850  1
  Cu2+  Cu110  1  0.62544810  0.37436430  0.14242818  1
  Cu2+  Cu111  1  0.37516001  0.37516393  0.65370557  1
  Cu2+  Cu112  1  0.87445618  0.37484712  0.64621043  1
  Cu2+  Cu113  1  0.87457457  0.62353134  0.64714412  1
  Cu2+  Cu114  1  0.37543221  0.12607820  0.65416364  1
  Cu2+  Cu115  1  0.87496253  0.87496530  0.65360206  1
  Cu2+  Cu116  1  0.62552637  0.12560871  0.14420122  1
  Cu2+  Cu117  1  0.37499191  0.87484868  0.65398725  1
  Cu2+  Cu118  1  0.37539238  0.62397545  0.64571808  1
  Cu2+  Cu119  1  0.12458788  0.37445662  0.14272838  1
  Cu2+  Cu120  1  0.12462559  0.62534393  0.15067017  1
  Cu2+  Cu121  1  0.37514801  0.37505748  0.14947696  1
  Cu2+  Cu122  1  0.62544643  0.62458215  0.64878113  1
  Cu2+  Cu123  1  0.12456873  0.62440210  0.64959581  1
  Cu2+  Cu124  1  0.87450591  0.12636740  0.65343848  1
  Cu2+  Cu125  1  0.62555658  0.62429224  0.15208601  1
  Cu2+  Cu126  1  0.62494079  0.87508010  0.14935824  1
  Cu2+  Cu127  1  0.87475139  0.12593959  0.14125074  1
  O2-  O128  1  0.12492426  0.12392742  0.00645532  1
  O2-  O129  1  0.12523332  0.12454564  0.50742178  1
  O2-  O130  1  0.12561476  0.37468767  0.00705040  1
  O2-  O131  1  0.12554663  0.37465201  0.50720564  1
  O2-  O132  1  0.12501461  0.62551274  -0.00365937  1
  O2-  O133  1  0.12499050  0.62609133  0.49819757  1
  O2-  O134  1  0.12521840  0.87521955  0.00593974  1
  O2-  O135  1  0.12517157  0.87501846  0.50683469  1
  O2-  O136  1  0.37572217  0.12579230  0.00681849  1
  O2-  O137  1  0.37489802  0.12399604  0.49588988  1
  O2-  O138  1  0.37466283  0.37487533  -0.00184323  1
  O2-  O139  1  0.37430679  0.37564694  0.49640100  1
  O2-  O140  1  0.37597432  0.62464075  0.01590024  1
  O2-  O141  1  0.37520883  0.62507041  0.50632341  1
  O2-  O142  1  0.37564477  0.87424709  0.00616171  1
  O2-  O143  1  0.37427228  0.87527983  0.49618319  1
  O2-  O144  1  0.62510971  0.12439672  0.00681965  1
  O2-  O145  1  0.62475741  0.12525134  0.50745342  1
  O2-  O146  1  0.62428232  0.37480396  0.00771405  1
  O2-  O147  1  0.62485704  0.37483003  0.51771986  1
  O2-  O148  1  0.62525927  0.62623084  -0.00352217  1
  O2-  O149  1  0.62507822  0.62596497  0.49791695  1
  O2-  O150  1  0.62403108  0.87497611  -0.00423229  1
  O2-  O151  1  0.62482690  0.87528366  0.50625256  1
  O2-  O152  1  0.87424516  0.12620795  0.00697814  1
  O2-  O153  1  0.87517983  0.12355817  0.49680716  1
  O2-  O154  1  0.87530123  0.37609297  0.00781227  1
  O2-  O155  1  0.87510989  0.37562545  0.50711160  1
  O2-  O156  1  0.87428810  0.62417765  0.00698823  1
  O2-  O157  1  0.87470621  0.62535082  0.50578047  1
  O2-  O158  1  0.87498988  0.87446488  0.01493630  1
  O2-  O159  1  0.87573773  0.87463637  0.49733580  1
  O2-  O160  1  0.12553846  -0.00413661  0.16662808  1
  O2-  O161  1  0.12483445  0.00035118  0.66073387  1
  O2-  O162  1  0.12466285  0.24987056  0.16815798  1
  O2-  O163  1  0.12574081  0.24982560  0.66071366  1
  O2-  O164  1  0.12469124  0.50169451  0.16573644  1
  O2-  O165  1  0.12476466  0.49844544  0.66190184  1
  O2-  O166  1  0.12501883  0.75218997  0.16307415  1
  O2-  O167  1  0.12490625  0.75137437  0.66309716  1
  O2-  O168  1  0.37489697  -0.00329944  0.16251595  1
  O2-  O169  1  0.37464931  0.00029274  0.66493643  1
  O2-  O170  1  0.37484935  0.25214667  0.16482283  1
  O2-  O171  1  0.37440392  0.25028806  0.66306872  1
  O2-  O172  1  0.37473498  0.49976652  0.16404972  1
  O2-  O173  1  0.37503440  0.49882137  0.66579891  1
  O2-  O174  1  0.37520238  0.75079946  0.16275671  1
  O2-  O175  1  0.37436458  0.75070340  0.66657830  1
  O2-  O176  1  0.62488765  -0.00109230  0.16719618  1
  O2-  O177  1  0.62450490  0.00015378  0.65914558  1
  O2-  O178  1  0.62543693  0.25030642  0.16786456  1
  O2-  O179  1  0.62472749  0.24871515  0.66509820  1
  O2-  O180  1  0.62554862  0.50087929  0.16536362  1
  O2-  O181  1  0.62470271  0.49997550  0.66571309  1
  O2-  O182  1  0.62504617  0.74954498  0.16409287  1
  O2-  O183  1  0.62543776  0.75128786  0.66090705  1
  O2-  O184  1  0.87525406  -0.00160542  0.16536190  1
  O2-  O185  1  0.87578376  0.00066316  0.66415400  1
  O2-  O186  1  0.87539756  0.25249624  0.16461650  1
  O2-  O187  1  0.87502224  0.24952952  0.66643006  1
  O2-  O188  1  0.87534192  0.50018261  0.16263093  1
  O2-  O189  1  0.87531176  0.49916069  0.66782951  1
  O2-  O190  1  0.87512393  0.74879723  0.16218951  1
  O2-  O191  1  0.87520435  0.75046695  0.66684491  1
  O2-  O192  1  0.00041679  0.12446553  0.16595690  1
  O2-  O193  1  0.00166314  0.12518217  0.66414750  1
  O2-  O194  1  -0.00289930  0.37572580  0.16533036  1
  O2-  O195  1  0.00284257  0.37437609  0.66550445  1
  O2-  O196  1  -0.00210740  0.62565066  0.16156611  1
  O2-  O197  1  0.00026941  0.62521090  0.66731151  1
  O2-  O198  1  0.00107017  0.87411950  0.16418581  1
  O2-  O199  1  0.00174072  0.87506866  0.66530704  1
  O2-  O200  1  0.24971778  0.12453887  0.16506931  1
  O2-  O201  1  0.24845992  0.12429911  0.66368156  1
  O2-  O202  1  0.25135232  0.37533768  0.16479533  1
  O2-  O203  1  0.24874634  0.37516711  0.66265775  1
  O2-  O204  1  0.25065680  0.62576872  0.16472850  1
  O2-  O205  1  0.24937223  0.62521837  0.66529743  1
  O2-  O206  1  0.25036387  0.87404657  0.16143083  1
  O2-  O207  1  0.24818091  0.87551057  0.66533000  1
  O2-  O208  1  0.50054235  0.12488816  0.16564279  1
  O2-  O209  1  0.50152928  0.12449648  0.66306793  1
  O2-  O210  1  0.49865770  0.37531664  0.16454428  1
  O2-  O211  1  0.50018668  0.37465110  0.66565589  1
  O2-  O212  1  0.49997208  0.62526998  0.16540223  1
  O2-  O213  1  0.50075208  0.62570447  0.66471728  1
  O2-  O214  1  0.49861056  0.87435604  0.16298031  1
  O2-  O215  1  0.50142563  0.87492808  0.66250043  1
  O2-  O216  1  0.74972499  0.12488445  0.16650814  1
  O2-  O217  1  0.74826795  0.12429384  0.66408172  1
  O2-  O218  1  0.75311937  0.37551252  0.16497739  1
  O2-  O219  1  0.74806930  0.37461496  0.66906474  1
  O2-  O220  1  0.75175140  0.62535574  0.16197146  1
  O2-  O221  1  0.74963459  0.62509031  0.66681788  1
  O2-  O222  1  0.75043867  0.87428311  0.16617811  1
  O2-  O223  1  0.74844107  0.87538454  0.66283996  1
  O2-  O224  1  0.12519037  0.00045307  0.35104862  1
  O2-  O225  1  0.12518613  -0.00351539  0.84636650  1
  O2-  O226  1  0.12532050  0.24874643  0.35277182  1
  O2-  O227  1  0.12426612  0.25052937  0.84562658  1
  O2-  O228  1  0.12508987  0.49826518  0.34954429  1
  O2-  O229  1  0.12440516  0.50210097  0.84505828  1
  O2-  O230  1  0.12525953  0.75229814  0.34722196  1
  O2-  O231  1  0.12475148  0.75095797  0.84757142  1
  O2-  O232  1  0.37500817  0.00034899  0.34350968  1
  O2-  O233  1  0.37445291  -0.00301428  0.84983484  1
  O2-  O234  1  0.37437663  0.24933014  0.34628014  1
  O2-  O235  1  0.37498739  0.25186823  0.84678059  1
  O2-  O236  1  0.37436283  0.49782208  0.34535228  1
  O2-  O237  1  0.37462622  0.49998914  0.84869543  1
  O2-  O238  1  0.37467280  0.75259605  0.34384222  1
  O2-  O239  1  0.37453638  0.75127791  0.85068969  1
  O2-  O240  1  0.62463430  0.00044243  0.35126255  1
  O2-  O241  1  0.62479032  -0.00209916  0.84313009  1
  O2-  O242  1  0.62512797  0.24795040  0.35223724  1
  O2-  O243  1  0.62508090  0.25037552  0.84805147  1
  O2-  O244  1  0.62504908  0.49930681  0.34917519  1
  O2-  O245  1  0.62548408  0.50216072  0.84742490  1
  O2-  O246  1  0.62496401  0.75231525  0.34805859  1
  O2-  O247  1  0.62491704  0.74992910  0.84355723  1
  O2-  O248  1  0.87543879  0.00014368  0.34507227  1
  O2-  O249  1  0.87510727  -0.00067594  0.84936087  1
  O2-  O250  1  0.87551608  0.24728822  0.34709930  1
  O2-  O251  1  0.87500944  0.25344558  0.85041112  1
  O2-  O252  1  0.87564225  0.49940548  0.34685285  1
  O2-  O253  1  0.87496800  0.50080106  0.85107261  1
  O2-  O254  1  0.87529500  0.75288488  0.34311448  1
  O2-  O255  1  0.87550337  0.74718165  0.85117022  1
  O2-  O256  1  0.00177853  0.12419299  0.34850962  1
  O2-  O257  1  -0.00006970  0.12475956  0.84824408  1
  O2-  O258  1  0.00392624  0.37399771  0.34877661  1
  O2-  O259  1  -0.00298937  0.37607811  0.84994360  1
  O2-  O260  1  0.00264197  0.62566170  0.34440310  1
  O2-  O261  1  -0.00174267  0.62554746  0.85021104  1
  O2-  O262  1  0.00184133  0.87573814  0.34715337  1
  O2-  O263  1  0.00151414  0.87431743  0.85120651  1
  O2-  O264  1  0.24877798  0.12391554  0.34782909  1
  O2-  O265  1  0.24971684  0.12455035  0.84780981  1
  O2-  O266  1  0.24813426  0.37402693  0.34730172  1
  O2-  O267  1  0.25141612  0.37560615  0.84620432  1
  O2-  O268  1  0.24782703  0.62584496  0.34594361  1
  O2-  O269  1  0.24961381  0.62621076  0.84846267  1
  O2-  O270  1  0.24821480  0.87619382  0.34579621  1
  O2-  O271  1  0.25015283  0.87427711  0.85103502  1
  O2-  O272  1  0.50115520  0.12440888  0.34831557  1
  O2-  O273  1  0.50036837  0.12416996  0.84708632  1
  O2-  O274  1  0.49914686  0.37382416  0.34781933  1
  O2-  O275  1  0.49863320  0.37586604  0.84752975  1
  O2-  O276  1  0.50197696  0.62562707  0.34667247  1
  O2-  O277  1  0.50041767  0.62591321  0.84787409  1
  O2-  O278  1  0.50157257  0.87588899  0.34724130  1
  O2-  O279  1  0.49835647  0.87451719  0.84640077  1
  O2-  O280  1  0.74846938  0.12422928  0.34931639  1
  O2-  O281  1  0.74952326  0.12475459  0.84816914  1
  O2-  O282  1  0.74898020  0.37409898  0.34884170  1
  O2-  O283  1  0.75256149  0.37589082  0.85180151  1
  O2-  O284  1  0.74763005  0.62534219  0.34484508  1
  O2-  O285  1  0.75140296  0.62562344  0.84918692  1
  O2-  O286  1  0.74845176  0.87587705  0.34883376  1
  O2-  O287  1  0.74954567  0.87431167  0.84693107  1
