# generated using pymatgen
data_BaYFeCuO5
_symmetry_space_group_name_H-M   'P 1'
_cell_length_a   15.67121645
_cell_length_b   15.67362674
_cell_length_c   15.49209566
_cell_angle_alpha   89.99638715
_cell_angle_beta   90.00605739
_cell_angle_gamma   90.00438317
_symmetry_Int_Tables_number   1
_chemical_formula_structural   BaYFeCuO5
_chemical_formula_sum   'Ba32 Y32 Fe32 Cu32 O160'
_cell_volume   3805.24281280
_cell_formula_units_Z   32
loop_
 _symmetry_equiv_pos_site_id
 _symmetry_equiv_pos_as_xyz
  1  'x, y, z'
loop_
 _atom_type_symbol
 _atom_type_oxidation_number
  Ba2+  2.0
  Y3+  3.0
  Fe3+  3.0
  Cu2+  2.0
  O2-  -2.0
loop_
 _atom_site_type_symbol
 _atom_site_label
 _atom_site_symmetry_multiplicity
 _atom_site_fract_x
 _atom_site_fract_y
 _atom_site_fract_z
 _atom_site_occupancy
  Ba2+  Ba0  1  -0.00412077  -0.00396755  0.02081467  1
  Ba2+  Ba1  1  -0.00348861  0.00642763  0.51992240  1
  Ba2+  Ba2  1  -0.00540994  0.25596540  0.01618415  1
  Ba2+  Ba3  1  0.00036076  0.25390161  0.51636719  1
  Ba2+  Ba4  1  -0.00091299  0.49826305  0.01205250  1
  Ba2+  Ba5  1  -0.00248311  0.49075662  0.51069690  1
  Ba2+  Ba6  1  0.00089315  0.74915498  0.01814543  1
  Ba2+  Ba7  1  -0.00806911  0.74922889  0.51570971  1
  Ba2+  Ba8  1  0.25759608  -0.00376036  0.01089441  1
  Ba2+  Ba9  1  0.25347188  0.00654822  0.51406517  1
  Ba2+  Ba10  1  0.25472537  0.25210317  0.01762390  1
  Ba2+  Ba11  1  0.24690201  0.25193160  0.51343037  1
  Ba2+  Ba12  1  0.25019013  0.50294945  0.01215114  1
  Ba2+  Ba13  1  0.25164044  0.49236475  0.49651297  1
  Ba2+  Ba14  1  0.25385221  0.74921616  0.00681807  1
  Ba2+  Ba15  1  0.25887394  0.74951317  0.49576426  1
  Ba2+  Ba16  1  0.49534262  -0.00042636  0.00589726  1
  Ba2+  Ba17  1  0.49669537  -0.00270704  0.51323693  1
  Ba2+  Ba18  1  0.49476164  0.24268750  0.00594138  1
  Ba2+  Ba19  1  0.49825207  0.25597278  0.50673497  1
  Ba2+  Ba20  1  0.48945446  0.50198896  0.01244608  1
  Ba2+  Ba21  1  0.49821145  0.49416144  0.49601216  1
  Ba2+  Ba22  1  0.49161168  0.75438147  0.01127876  1
  Ba2+  Ba23  1  0.49706645  0.75338665  0.50055692  1
  Ba2+  Ba24  1  0.74973693  -0.00002477  0.01568284  1
  Ba2+  Ba25  1  0.75345251  -0.00251535  0.52117519  1
  Ba2+  Ba26  1  0.75668660  0.24765615  0.00628011  1
  Ba2+  Ba27  1  0.75368316  0.25732475  0.51163724  1
  Ba2+  Ba28  1  0.76132346  0.49798996  0.01203121  1
  Ba2+  Ba29  1  0.75329493  0.49204743  0.51204449  1
  Ba2+  Ba30  1  0.75506624  0.75450738  0.02054959  1
  Ba2+  Ba31  1  0.75213469  0.75381526  0.52071802  1
  Y3+  Y32  1  0.00014740  0.00006097  0.25513188  1
  Y3+  Y33  1  0.00020885  0.00213113  0.75430569  1
  Y3+  Y34  1  -0.00105305  0.25417763  0.25785740  1
  Y3+  Y35  1  -0.00046582  0.25249349  0.75481068  1
  Y3+  Y36  1  -0.00070752  0.49571405  0.25873217  1
  Y3+  Y37  1  -0.00094448  0.49759564  0.75558432  1
  Y3+  Y38  1  0.00013071  0.75025810  0.25709414  1
  Y3+  Y39  1  0.00011087  0.74764876  0.75492621  1
  Y3+  Y40  1  0.25224332  -0.00061650  0.25370213  1
  Y3+  Y41  1  0.25205626  0.00186519  0.76043562  1
  Y3+  Y42  1  0.24998944  0.25226610  0.25691326  1
  Y3+  Y43  1  0.24930928  0.24836587  0.75721708  1
  Y3+  Y44  1  0.25101166  0.49755281  0.25724265  1
  Y3+  Y45  1  0.24826543  0.50122587  0.75965756  1
  Y3+  Y46  1  0.25312880  0.75062777  0.25504562  1
  Y3+  Y47  1  0.25149013  0.74829384  0.76248920  1
  Y3+  Y48  1  0.49815731  -0.00126988  0.25317061  1
  Y3+  Y49  1  0.49847663  0.00133371  0.76139748  1
  Y3+  Y50  1  0.49926271  0.25124447  0.25669864  1
  Y3+  Y51  1  0.50062811  0.24797343  0.75846651  1
  Y3+  Y52  1  0.49795616  0.49902838  0.25772558  1
  Y3+  Y53  1  0.50073585  0.50008405  0.75937246  1
  Y3+  Y54  1  0.49722690  0.75080962  0.25489892  1
  Y3+  Y55  1  0.49847075  0.75034678  0.76123998  1
  Y3+  Y56  1  0.74983006  -0.00000703  0.25424291  1
  Y3+  Y57  1  0.74887897  0.00104202  0.75614848  1
  Y3+  Y58  1  0.75156965  0.25283470  0.25797561  1
  Y3+  Y59  1  0.75057624  0.25246074  0.75631735  1
  Y3+  Y60  1  0.75147186  0.49669480  0.25894467  1
  Y3+  Y61  1  0.75160997  0.49706896  0.75589790  1
  Y3+  Y62  1  0.74969651  0.75048380  0.25546974  1
  Y3+  Y63  1  0.74990605  0.74963861  0.75455858  1
  Fe3+  Fe64  1  0.62546493  0.12511176  0.38024272  1
  Fe3+  Fe65  1  0.62614568  0.62497897  0.88158341  1
  Fe3+  Fe66  1  0.62528375  0.87619263  0.37615890  1
  Fe3+  Fe67  1  0.37418720  0.37483599  0.87769914  1
  Fe3+  Fe68  1  0.87492727  0.87595589  0.37521599  1
  Fe3+  Fe69  1  0.87586527  0.12479634  0.87518616  1
  Fe3+  Fe70  1  0.87479434  0.12516260  0.37604464  1
  Fe3+  Fe71  1  0.12543405  0.87623116  0.38001530  1
  Fe3+  Fe72  1  0.87566820  0.87488477  0.87316245  1
  Fe3+  Fe73  1  0.12459627  0.12526186  0.37565367  1
  Fe3+  Fe74  1  0.62554103  0.37474258  0.88130996  1
  Fe3+  Fe75  1  0.12350354  0.87477978  0.87692268  1
  Fe3+  Fe76  1  0.87559364  0.62520694  0.87538685  1
  Fe3+  Fe77  1  0.12434798  0.37499256  0.87837534  1
  Fe3+  Fe78  1  0.37518455  0.12514998  0.37594795  1
  Fe3+  Fe79  1  0.87431166  0.62498806  0.37734620  1
  Fe3+  Fe80  1  0.12470878  0.62476061  0.38032381  1
  Fe3+  Fe81  1  0.62612393  0.87491528  0.87728497  1
  Fe3+  Fe82  1  0.62555948  0.62503741  0.37884504  1
  Fe3+  Fe83  1  0.12411107  0.12540835  0.88056167  1
  Fe3+  Fe84  1  0.62476372  0.37485071  0.13451030  1
  Fe3+  Fe85  1  0.62489481  0.12551554  0.13701427  1
  Fe3+  Fe86  1  0.12661214  0.87457235  0.63380367  1
  Fe3+  Fe87  1  0.12507583  0.62434252  0.14057196  1
  Fe3+  Fe88  1  0.12637446  0.62420733  0.63359747  1
  Fe3+  Fe89  1  0.62509680  0.62469240  0.13484675  1
  Fe3+  Fe90  1  0.37458732  0.87431286  0.64045793  1
  Fe3+  Fe91  1  0.37514022  0.62422340  0.63781567  1
  Fe3+  Fe92  1  0.37509115  0.37551009  0.64031203  1
  Fe3+  Fe93  1  0.12479263  0.12545711  0.13416451  1
  Fe3+  Fe94  1  0.62346504  0.62425096  0.63443879  1
  Fe3+  Fe95  1  0.62413740  0.12578343  0.63529910  1
  Cu2+  Cu96  1  0.87520845  0.37440337  0.37113338  1
  Cu2+  Cu97  1  0.37521920  0.62453631  0.36254171  1
  Cu2+  Cu98  1  0.37449971  0.87501067  0.87174061  1
  Cu2+  Cu99  1  0.87557086  0.37489239  0.87082241  1
  Cu2+  Cu100  1  0.12348987  0.62467281  0.86354809  1
  Cu2+  Cu101  1  0.37494974  0.87683908  0.36065125  1
  Cu2+  Cu102  1  0.37392584  0.12593850  0.87326123  1
  Cu2+  Cu103  1  0.37502032  0.62400152  0.87481751  1
  Cu2+  Cu104  1  0.37472700  0.37335132  0.35988354  1
  Cu2+  Cu105  1  0.62553207  0.37430242  0.37286351  1
  Cu2+  Cu106  1  0.12451583  0.37370528  0.37300578  1
  Cu2+  Cu107  1  0.62619164  0.12513326  0.86458703  1
  Cu2+  Cu108  1  0.62440975  0.87469185  0.14727136  1
  Cu2+  Cu109  1  0.12550913  0.12508662  0.65138303  1
  Cu2+  Cu110  1  0.87397501  0.12621917  0.65123977  1
  Cu2+  Cu111  1  0.87503093  0.37489186  0.64426590  1
  Cu2+  Cu112  1  0.37571893  0.37497684  0.15077957  1
  Cu2+  Cu113  1  0.87581898  0.87532318  0.65175942  1
  Cu2+  Cu114  1  0.37554504  0.12543800  0.65243220  1
  Cu2+  Cu115  1  0.87480596  0.62379810  0.64831490  1
  Cu2+  Cu116  1  0.12522485  0.37521697  0.14938801  1
  Cu2+  Cu117  1  0.12683215  0.37586750  0.64305770  1
  Cu2+  Cu118  1  0.37484796  0.87486494  0.14318536  1
  Cu2+  Cu119  1  0.62314840  0.87472825  0.65125678  1
  Cu2+  Cu120  1  0.87492743  0.12560263  0.15132155  1
  Cu2+  Cu121  1  0.37540709  0.12533129  0.14278592  1
  Cu2+  Cu122  1  0.37453262  0.62477868  0.14469677  1
  Cu2+  Cu123  1  0.12572766  0.87465622  0.15025160  1
  Cu2+  Cu124  1  0.87441069  0.37513485  0.14324509  1
  Cu2+  Cu125  1  0.87523256  0.87480686  0.15345905  1
  Cu2+  Cu126  1  0.62300302  0.37563559  0.64294284  1
  Cu2+  Cu127  1  0.87527340  0.62433005  0.15377335  1
  O2-  O128  1  0.12334591  0.12446160  0.00597481  1
  O2-  O129  1  0.12515493  0.12419031  0.49590250  1
  O2-  O130  1  0.12432653  0.37512213  -0.00140378  1
  O2-  O131  1  0.12622489  0.37441942  0.50723748  1
  O2-  O132  1  0.12382133  0.62551197  0.02008147  1
  O2-  O133  1  0.12652640  0.62520245  0.50717512  1
  O2-  O134  1  0.12156923  0.87430569  -0.00321873  1
  O2-  O135  1  0.12638399  0.87616359  0.50650792  1
  O2-  O136  1  0.37424177  0.12479389  0.00710955  1
  O2-  O137  1  0.37539885  0.12463672  0.49624823  1
  O2-  O138  1  0.37400315  0.37484458  -0.00160726  1
  O2-  O139  1  0.37557412  0.37543390  0.51939846  1
  O2-  O140  1  0.37420190  0.62485868  0.00901003  1
  O2-  O141  1  0.37658003  0.62493211  0.51801310  1
  O2-  O142  1  0.37437568  0.87470685  0.00738648  1
  O2-  O143  1  0.37483041  0.87448725  0.51966402  1
  O2-  O144  1  0.62619442  0.12528667  0.01675774  1
  O2-  O145  1  0.62451583  0.12438430  0.50642888  1
  O2-  O146  1  0.62566771  0.37476725  0.00791480  1
  O2-  O147  1  0.62352702  0.37535696  0.50757970  1
  O2-  O148  1  0.62649948  0.62578691  0.00740830  1
  O2-  O149  1  0.62435840  0.62515549  0.50646029  1
  O2-  O150  1  0.62789721  0.87410037  -0.00258727  1
  O2-  O151  1  0.62559869  0.87585260  0.49614537  1
  O2-  O152  1  0.87593476  0.12255107  -0.00453265  1
  O2-  O153  1  0.87465316  0.12412504  0.49624699  1
  O2-  O154  1  0.87521956  0.37535283  0.00759451  1
  O2-  O155  1  0.87530264  0.37403701  0.50794004  1
  O2-  O156  1  0.87629646  0.62730623  -0.00440920  1
  O2-  O157  1  0.87227432  0.62664525  0.49721157  1
  O2-  O158  1  0.87625256  0.87438163  -0.00686655  1
  O2-  O159  1  0.87447660  0.87616538  0.49535199  1
  O2-  O160  1  0.12468441  0.00108821  0.16203456  1
  O2-  O161  1  0.12550537  -0.00141512  0.66228341  1
  O2-  O162  1  0.12425364  0.24930668  0.16108915  1
  O2-  O163  1  0.12564406  0.24850094  0.66601895  1
  O2-  O164  1  0.12509791  0.49954593  0.16875666  1
  O2-  O165  1  0.12579836  0.50346587  0.66591783  1
  O2-  O166  1  0.12429306  0.74972472  0.17017535  1
  O2-  O167  1  0.12453213  0.74985961  0.66126450  1
  O2-  O168  1  0.37483759  0.00018257  0.16319652  1
  O2-  O169  1  0.37450340  -0.00004955  0.66624385  1
  O2-  O170  1  0.37608512  0.25114210  0.16387466  1
  O2-  O171  1  0.37548212  0.24959077  0.66581136  1
  O2-  O172  1  0.37521170  0.49871475  0.16639403  1
  O2-  O173  1  0.37504430  0.50125493  0.67120455  1
  O2-  O174  1  0.37512219  0.74983222  0.16647200  1
  O2-  O175  1  0.37505560  0.74939016  0.67042930  1
  O2-  O176  1  0.62597226  0.00003963  0.16453930  1
  O2-  O177  1  0.62481861  0.00121082  0.66180485  1
  O2-  O178  1  0.62486220  0.25168448  0.16576506  1
  O2-  O179  1  0.62421023  0.24740452  0.66536052  1
  O2-  O180  1  0.62563884  0.50006466  0.16294998  1
  O2-  O181  1  0.62452071  0.50337687  0.66789425  1
  O2-  O182  1  0.62533362  0.74824330  0.16363153  1
  O2-  O183  1  0.62426388  0.74836384  0.66267528  1
  O2-  O184  1  0.87478954  -0.00030280  0.16154797  1
  O2-  O185  1  0.87469761  0.00044545  0.66174788  1
  O2-  O186  1  0.87478146  0.24934012  0.16454781  1
  O2-  O187  1  0.87450690  0.24929974  0.66649290  1
  O2-  O188  1  0.87440592  0.50069351  0.16664444  1
  O2-  O189  1  0.87443552  0.50050705  0.66635395  1
  O2-  O190  1  0.87552134  0.74999094  0.16424330  1
  O2-  O191  1  0.87542345  0.75016300  0.66072375  1
  O2-  O192  1  0.00098754  0.12423191  0.16136660  1
  O2-  O193  1  -0.00058061  0.12487804  0.66187484  1
  O2-  O194  1  0.00049168  0.37570585  0.16564718  1
  O2-  O195  1  0.00091424  0.37511434  0.66300989  1
  O2-  O196  1  -0.00001715  0.62493843  0.16882057  1
  O2-  O197  1  0.00158673  0.62510371  0.65891861  1
  O2-  O198  1  -0.00048066  0.87474443  0.16549425  1
  O2-  O199  1  0.00253087  0.87541456  0.65833374  1
  O2-  O200  1  0.24696599  0.12553254  0.16292370  1
  O2-  O201  1  0.25055870  0.12471632  0.66561136  1
  O2-  O202  1  0.25069074  0.37485796  0.16474347  1
  O2-  O203  1  0.25213271  0.37465003  0.66812201  1
  O2-  O204  1  0.24838124  0.62485029  0.17001710  1
  O2-  O205  1  0.24955978  0.62614684  0.66750938  1
  O2-  O206  1  0.24930607  0.87477117  0.16749344  1
  O2-  O207  1  0.24891490  0.87492335  0.66674745  1
  O2-  O208  1  0.50209411  0.12504094  0.16800695  1
  O2-  O209  1  0.50164154  0.12414898  0.66564090  1
  O2-  O210  1  0.50233191  0.37614995  0.16383983  1
  O2-  O211  1  0.49754282  0.37533983  0.67140827  1
  O2-  O212  1  0.50312992  0.62431750  0.16511279  1
  O2-  O213  1  0.50028659  0.62546072  0.66875382  1
  O2-  O214  1  0.50070232  0.87438431  0.16564858  1
  O2-  O215  1  0.49826041  0.87508547  0.66866002  1
  O2-  O216  1  0.74979154  0.12529077  0.16629409  1
  O2-  O217  1  0.74794386  0.12509270  0.66189211  1
  O2-  O218  1  0.74672017  0.37537411  0.16469588  1
  O2-  O219  1  0.74941526  0.37527388  0.66564696  1
  O2-  O220  1  0.74899617  0.62527047  0.16205473  1
  O2-  O221  1  0.74814927  0.62551070  0.66224947  1
  O2-  O222  1  0.75069376  0.87412488  0.16204065  1
  O2-  O223  1  0.74987089  0.87430172  0.66144071  1
  O2-  O224  1  0.12487259  -0.00124041  0.34555512  1
  O2-  O225  1  0.12383394  0.00123880  0.84651006  1
  O2-  O226  1  0.12508346  0.24772611  0.34435216  1
  O2-  O227  1  0.12437285  0.24897962  0.84907047  1
  O2-  O228  1  0.12500564  0.50287620  0.35230529  1
  O2-  O229  1  0.12429919  0.49991263  0.84919243  1
  O2-  O230  1  0.12600987  0.75078557  0.35402923  1
  O2-  O231  1  0.12401400  0.74991651  0.84538559  1
  O2-  O232  1  0.37554899  0.00134970  0.34507834  1
  O2-  O233  1  0.37471389  0.00024734  0.84925984  1
  O2-  O234  1  0.37511792  0.24874062  0.34613234  1
  O2-  O235  1  0.37544340  0.25234951  0.84724997  1
  O2-  O236  1  0.37579811  0.49850526  0.35058551  1
  O2-  O237  1  0.37564422  0.49792911  0.84968048  1
  O2-  O238  1  0.37503831  0.75135700  0.35080510  1
  O2-  O239  1  0.37481218  0.74938914  0.85090609  1
  O2-  O240  1  0.62460045  0.00122618  0.34649851  1
  O2-  O241  1  0.62565544  -0.00066378  0.84615915  1
  O2-  O242  1  0.62563552  0.24658134  0.34910111  1
  O2-  O243  1  0.62517287  0.25172865  0.85054910  1
  O2-  O244  1  0.62427221  0.50298674  0.34861295  1
  O2-  O245  1  0.62566200  0.49982202  0.85236672  1
  O2-  O246  1  0.62460193  0.74943238  0.34766572  1
  O2-  O247  1  0.62629212  0.74878165  0.84635427  1
  O2-  O248  1  0.87521407  -0.00039095  0.34264113  1
  O2-  O249  1  0.87554519  -0.00021652  0.84253898  1
  O2-  O250  1  0.87428645  0.24811319  0.34642035  1
  O2-  O251  1  0.87485809  0.24870303  0.84858070  1
  O2-  O252  1  0.87480204  0.50176296  0.34872003  1
  O2-  O253  1  0.87450384  0.50129390  0.84837937  1
  O2-  O254  1  0.87474789  0.75077221  0.34549190  1
  O2-  O255  1  0.87463402  0.75001062  0.84158416  1
  O2-  O256  1  -0.00035196  0.12406218  0.34331552  1
  O2-  O257  1  0.00120805  0.12495992  0.84454097  1
  O2-  O258  1  -0.00059384  0.37465096  0.34876644  1
  O2-  O259  1  0.00162220  0.37506414  0.84531132  1
  O2-  O260  1  0.00085072  0.62686257  0.35097099  1
  O2-  O261  1  -0.00129232  0.62511135  0.84256157  1
  O2-  O262  1  0.00147459  0.87485713  0.34839881  1
  O2-  O263  1  -0.00029073  0.87470239  0.83930239  1
  O2-  O264  1  0.25008900  0.12410922  0.34476526  1
  O2-  O265  1  0.24594536  0.12487293  0.84946916  1
  O2-  O266  1  0.25120218  0.37464335  0.34901569  1
  O2-  O267  1  0.24888951  0.37534583  0.84715991  1
  O2-  O268  1  0.24932147  0.62533596  0.35320707  1
  O2-  O269  1  0.24797796  0.62478965  0.85050548  1
  O2-  O270  1  0.24878782  0.87570914  0.35169930  1
  O2-  O271  1  0.24734420  0.87491067  0.84777995  1
  O2-  O272  1  0.50132906  0.12549476  0.34950559  1
  O2-  O273  1  0.50160625  0.12523886  0.85028045  1
  O2-  O274  1  0.49877970  0.37432360  0.34786238  1
  O2-  O275  1  0.50180085  0.37530074  0.85214539  1
  O2-  O276  1  0.50092828  0.62546886  0.35042506  1
  O2-  O277  1  0.50434032  0.62482295  0.85156759  1
  O2-  O278  1  0.50033671  0.87486272  0.34857379  1
  O2-  O279  1  0.50204269  0.87466861  0.84994506  1
  O2-  O280  1  0.74901183  0.12381200  0.34788155  1
  O2-  O281  1  0.75126870  0.12495791  0.84528854  1
  O2-  O282  1  0.75068667  0.37532049  0.34775703  1
  O2-  O283  1  0.74749870  0.37497307  0.84952595  1
  O2-  O284  1  0.74878025  0.62558371  0.34542759  1
  O2-  O285  1  0.74890585  0.62469312  0.84613537  1
  O2-  O286  1  0.74990334  0.87511075  0.34332557  1
  O2-  O287  1  0.75064297  0.87509206  0.84277536  1
