# generated using pymatgen
data_BaYFeCuO5
_symmetry_space_group_name_H-M   'P 1'
_cell_length_a   15.67485379
_cell_length_b   15.67613018
_cell_length_c   15.50402307
_cell_angle_alpha   89.99976660
_cell_angle_beta   89.98650025
_cell_angle_gamma   90.00023359
_symmetry_Int_Tables_number   1
_chemical_formula_structural   BaYFeCuO5
_chemical_formula_sum   'Ba32 Y32 Fe32 Cu32 O160'
_cell_volume   3809.66470117
_cell_formula_units_Z   32
loop_
 _symmetry_equiv_pos_site_id
 _symmetry_equiv_pos_as_xyz
  1  'x, y, z'
loop_
 _atom_type_symbol
 _atom_type_oxidation_number
  Ba2+  2.0
  Y3+  3.0
  Fe3+  3.0
  Cu2+  2.0
  O2-  -2.0
loop_
 _atom_site_type_symbol
 _atom_site_label
 _atom_site_symmetry_multiplicity
 _atom_site_fract_x
 _atom_site_fract_y
 _atom_site_fract_z
 _atom_site_occupancy
  Ba2+  Ba0  1  -0.00514205  0.00452017  0.02384736  1
  Ba2+  Ba1  1  0.00615355  -0.00520367  0.51066962  1
  Ba2+  Ba2  1  0.00124300  0.25304286  0.02146409  1
  Ba2+  Ba3  1  0.00113287  0.26089235  0.51628256  1
  Ba2+  Ba4  1  0.00508991  0.49893409  0.01426707  1
  Ba2+  Ba5  1  -0.00149806  0.50250053  0.52191842  1
  Ba2+  Ba6  1  -0.00141632  0.74352848  0.01661455  1
  Ba2+  Ba7  1  0.00190094  0.74080177  0.51635859  1
  Ba2+  Ba8  1  0.25289216  -0.00337022  0.01079903  1
  Ba2+  Ba9  1  0.25931836  -0.00051738  0.50600500  1
  Ba2+  Ba10  1  0.24208043  0.25677686  0.00650622  1
  Ba2+  Ba11  1  0.25985555  0.25477396  0.51169475  1
  Ba2+  Ba12  1  0.24619792  0.50286262  0.00192492  1
  Ba2+  Ba13  1  0.24813333  0.49426400  0.51984726  1
  Ba2+  Ba14  1  0.25475871  0.74331740  0.00712289  1
  Ba2+  Ba15  1  0.24562342  0.75242899  0.51621492  1
  Ba2+  Ba16  1  0.50351998  -0.00751960  0.01771989  1
  Ba2+  Ba17  1  0.49661826  0.00230390  0.49155323  1
  Ba2+  Ba18  1  0.50136015  0.24869458  0.00719206  1
  Ba2+  Ba19  1  0.49382984  0.25034322  0.50586475  1
  Ba2+  Ba20  1  0.49430831  0.50627154  -0.00168268  1
  Ba2+  Ba21  1  0.50171035  0.49383358  0.51992933  1
  Ba2+  Ba22  1  0.49481189  0.75030361  0.00649090  1
  Ba2+  Ba23  1  0.50274275  0.75360687  0.49940341  1
  Ba2+  Ba24  1  0.75058847  -0.00066840  0.02802421  1
  Ba2+  Ba25  1  0.73934059  -0.00062121  0.49715724  1
  Ba2+  Ba26  1  0.75650781  0.24490345  0.02239787  1
  Ba2+  Ba27  1  0.74376938  0.25612062  0.51169936  1
  Ba2+  Ba28  1  0.75589237  0.50387964  0.01172650  1
  Ba2+  Ba29  1  0.75177148  0.50154155  0.52176143  1
  Ba2+  Ba30  1  0.75024766  0.75240757  0.01913185  1
  Ba2+  Ba31  1  0.74883821  0.74095550  0.50748073  1
  Y3+  Y32  1  0.00068803  0.00059937  0.25831819  1
  Y3+  Y33  1  0.00153004  -0.00150012  0.75393255  1
  Y3+  Y34  1  0.00160964  0.25193955  0.25477682  1
  Y3+  Y35  1  0.00168536  0.25347618  0.75630425  1
  Y3+  Y36  1  0.00047054  0.50131703  0.25300726  1
  Y3+  Y37  1  0.00245769  0.50081036  0.75859973  1
  Y3+  Y38  1  -0.00098540  0.74572806  0.25695820  1
  Y3+  Y39  1  0.00203571  0.74737009  0.75601047  1
  Y3+  Y40  1  0.25301814  -0.00001189  0.25696963  1
  Y3+  Y41  1  0.25186959  -0.00047139  0.75766013  1
  Y3+  Y42  1  0.25099767  0.25149411  0.25836561  1
  Y3+  Y43  1  0.25182947  0.25327698  0.75710360  1
  Y3+  Y44  1  0.24953251  0.50032897  0.25281412  1
  Y3+  Y45  1  0.24945967  0.49891979  0.76268638  1
  Y3+  Y46  1  0.25188980  0.74801302  0.25263476  1
  Y3+  Y47  1  0.24998707  0.74883982  0.76328144  1
  Y3+  Y48  1  0.49902153  -0.00107068  0.25780283  1
  Y3+  Y49  1  0.49730694  -0.00003914  0.75995995  1
  Y3+  Y50  1  0.49814394  0.24898396  0.26024745  1
  Y3+  Y51  1  0.49712688  0.25189145  0.75604391  1
  Y3+  Y52  1  0.49633545  0.50026156  0.25693433  1
  Y3+  Y53  1  0.49879260  0.50037371  0.76042909  1
  Y3+  Y54  1  0.49781378  0.75152071  0.25434641  1
  Y3+  Y55  1  0.49919140  0.74817216  0.76261337  1
  Y3+  Y56  1  0.74683261  -0.00056199  0.25940320  1
  Y3+  Y57  1  0.74931867  -0.00029999  0.75378480  1
  Y3+  Y58  1  0.74925162  0.24922315  0.25765045  1
  Y3+  Y59  1  0.74940003  0.25215836  0.75490093  1
  Y3+  Y60  1  0.75338619  0.50166562  0.25629226  1
  Y3+  Y61  1  0.74935737  0.50182790  0.75607769  1
  Y3+  Y62  1  0.75096057  0.74910388  0.25989315  1
  Y3+  Y63  1  0.74924578  0.74670507  0.75519594  1
  Fe3+  Fe64  1  0.12591892  0.87316243  0.37555378  1
  Fe3+  Fe65  1  0.37489232  0.12519442  0.88100888  1
  Fe3+  Fe66  1  0.87578565  0.87351637  0.37934350  1
  Fe3+  Fe67  1  0.87556333  0.37661929  0.37569774  1
  Fe3+  Fe68  1  0.87499181  0.62590572  0.87597843  1
  Fe3+  Fe69  1  0.62700670  0.87532181  0.87736179  1
  Fe3+  Fe70  1  0.12546987  0.37681637  0.37627507  1
  Fe3+  Fe71  1  0.12607515  0.12613502  0.37960760  1
  Fe3+  Fe72  1  0.12558217  0.62357555  0.37620792  1
  Fe3+  Fe73  1  0.12318055  0.12480214  0.87632308  1
  Fe3+  Fe74  1  0.62649948  0.37480835  0.87999264  1
  Fe3+  Fe75  1  0.37355740  0.62392222  0.38118554  1
  Fe3+  Fe76  1  0.87508352  0.12444404  0.87333469  1
  Fe3+  Fe77  1  0.87522888  0.37442566  0.87615803  1
  Fe3+  Fe78  1  0.62433160  0.62275633  0.37663506  1
  Fe3+  Fe79  1  0.12337481  0.87538813  0.87997099  1
  Fe3+  Fe80  1  0.62704550  0.12430362  0.87834374  1
  Fe3+  Fe81  1  0.62444524  0.37682043  0.37478857  1
  Fe3+  Fe82  1  0.87561469  0.12619741  0.37988746  1
  Fe3+  Fe83  1  0.87485852  0.87580789  0.87537385  1
  Fe3+  Fe84  1  0.37633369  0.87453748  0.64012136  1
  Fe3+  Fe85  1  0.12511897  0.87436630  0.13514776  1
  Fe3+  Fe86  1  0.37521156  0.37535014  0.13540384  1
  Fe3+  Fe87  1  0.87438239  0.87425294  0.63213250  1
  Fe3+  Fe88  1  0.37463278  0.12580311  0.13567647  1
  Fe3+  Fe89  1  0.62477002  0.37565211  0.13390795  1
  Fe3+  Fe90  1  0.62397012  0.62492114  0.13647158  1
  Fe3+  Fe91  1  0.62300665  0.87469681  0.63632170  1
  Fe3+  Fe92  1  0.12737205  0.12565073  0.63341673  1
  Fe3+  Fe93  1  0.62224256  0.12452831  0.63622303  1
  Fe3+  Fe94  1  0.87472125  0.12527610  0.63092451  1
  Fe3+  Fe95  1  0.37524517  0.62561180  0.63716719  1
  Cu2+  Cu96  1  0.37452110  0.62497475  0.87099489  1
  Cu2+  Cu97  1  0.62450166  0.87337695  0.36196821  1
  Cu2+  Cu98  1  0.37369248  0.12583872  0.37108022  1
  Cu2+  Cu99  1  0.12342028  0.62535024  0.87292849  1
  Cu2+  Cu100  1  0.62645382  0.62535655  0.86752587  1
  Cu2+  Cu101  1  0.37375731  0.87290345  0.36013802  1
  Cu2+  Cu102  1  0.87603918  0.62315290  0.37317443  1
  Cu2+  Cu103  1  0.37486225  0.87596037  0.87545804  1
  Cu2+  Cu104  1  0.37432197  0.37716960  0.37197687  1
  Cu2+  Cu105  1  0.37519225  0.37400840  0.86850093  1
  Cu2+  Cu106  1  0.12358394  0.37442935  0.87131774  1
  Cu2+  Cu107  1  0.62448410  0.12617377  0.36241351  1
  Cu2+  Cu108  1  0.12575666  0.37517348  0.65294840  1
  Cu2+  Cu109  1  0.12624294  0.87487560  0.65161821  1
  Cu2+  Cu110  1  0.87461098  0.37513262  0.65182139  1
  Cu2+  Cu111  1  0.37535144  0.37594497  0.64586562  1
  Cu2+  Cu112  1  0.87449457  0.37539589  0.15069279  1
  Cu2+  Cu113  1  0.12605620  0.37551690  0.14209853  1
  Cu2+  Cu114  1  0.12596500  0.62503036  0.14054218  1
  Cu2+  Cu115  1  0.62415318  0.37509907  0.65473063  1
  Cu2+  Cu116  1  0.37571389  0.12454659  0.64353308  1
  Cu2+  Cu117  1  0.87508360  0.12485766  0.15945982  1
  Cu2+  Cu118  1  0.87488082  0.62522239  0.64274795  1
  Cu2+  Cu119  1  0.87566810  0.87465306  0.15720034  1
  Cu2+  Cu120  1  0.62362385  0.12542475  0.15302335  1
  Cu2+  Cu121  1  0.62282805  0.62559246  0.65209495  1
  Cu2+  Cu122  1  0.37559434  0.62407875  0.14251973  1
  Cu2+  Cu123  1  0.12643602  0.12471917  0.15219712  1
  Cu2+  Cu124  1  0.37460254  0.87455065  0.14193393  1
  Cu2+  Cu125  1  0.87442326  0.62505210  0.15078169  1
  Cu2+  Cu126  1  0.62504133  0.87404587  0.15549494  1
  Cu2+  Cu127  1  0.12711427  0.62466628  0.65446939  1
  O2-  O128  1  0.11980917  0.12439120  -0.00404149  1
  O2-  O129  1  0.12717221  0.12575468  0.50572319  1
  O2-  O130  1  0.12293064  0.37382024  0.00663247  1
  O2-  O131  1  0.12431875  0.37733078  0.49643117  1
  O2-  O132  1  0.12336787  0.62617085  0.00642256  1
  O2-  O133  1  0.12676331  0.62353336  0.49636707  1
  O2-  O134  1  0.12185439  0.87684926  0.00661377  1
  O2-  O135  1  0.12559878  0.87314327  0.49564673  1
  O2-  O136  1  0.37458476  0.12557305  0.00794540  1
  O2-  O137  1  0.37496101  0.12474762  0.50756984  1
  O2-  O138  1  0.37612142  0.37289276  0.01533531  1
  O2-  O139  1  0.37566446  0.37701677  0.50818427  1
  O2-  O140  1  0.37582077  0.62466517  0.00699850  1
  O2-  O141  1  0.37423578  0.62551241  0.50835986  1
  O2-  O142  1  0.37514710  0.87711482  0.00842894  1
  O2-  O143  1  0.37628492  0.87360669  0.51994338  1
  O2-  O144  1  0.63041604  0.12367355  -0.00212734  1
  O2-  O145  1  0.62169898  0.12534730  0.51604382  1
  O2-  O146  1  0.62711722  0.37379224  0.00675337  1
  O2-  O147  1  0.62544003  0.37753899  0.49494281  1
  O2-  O148  1  0.62619750  0.62652275  0.01609775  1
  O2-  O149  1  0.62378710  0.62156258  0.49669483  1
  O2-  O150  1  0.63032016  0.87700815  -0.00261609  1
  O2-  O151  1  0.62127717  0.87584269  0.51623379  1
  O2-  O152  1  0.87505719  0.12321300  -0.00683677  1
  O2-  O153  1  0.87467441  0.12638261  0.50523006  1
  O2-  O154  1  0.87422945  0.37232638  -0.00400406  1
  O2-  O155  1  0.87444670  0.37614173  0.49582489  1
  O2-  O156  1  0.87368302  0.62763442  -0.00353077  1
  O2-  O157  1  0.87515414  0.62433368  0.50778731  1
  O2-  O158  1  0.87439478  0.87797042  -0.00532336  1
  O2-  O159  1  0.87540690  0.87388487  0.50570306  1
  O2-  O160  1  0.12452104  -0.00137161  0.16579708  1
  O2-  O161  1  0.12470093  0.00200963  0.66151302  1
  O2-  O162  1  0.12515897  0.24852643  0.16640232  1
  O2-  O163  1  0.12509886  0.24875799  0.66136137  1
  O2-  O164  1  0.12518961  0.50022112  0.16209667  1
  O2-  O165  1  0.12544648  0.49958301  0.66648749  1
  O2-  O166  1  0.12418374  0.75249995  0.16263863  1
  O2-  O167  1  0.12600063  0.75010519  0.66563538  1
  O2-  O168  1  0.37498344  0.00305734  0.16464556  1
  O2-  O169  1  0.37467670  -0.00219371  0.66932423  1
  O2-  O170  1  0.37549654  0.24918942  0.16641964  1
  O2-  O171  1  0.37520517  0.25074327  0.66605514  1
  O2-  O172  1  0.37575281  0.49774934  0.16638546  1
  O2-  O173  1  0.37533657  0.50303216  0.66516450  1
  O2-  O174  1  0.37513864  0.74952290  0.16536089  1
  O2-  O175  1  0.37441625  0.74892758  0.66802858  1
  O2-  O176  1  0.62498335  -0.00052460  0.16669756  1
  O2-  O177  1  0.62481029  -0.00030112  0.66624527  1
  O2-  O178  1  0.62542659  0.25197774  0.16255611  1
  O2-  O179  1  0.62527287  0.24944781  0.66599127  1
  O2-  O180  1  0.62584954  0.49857812  0.16076443  1
  O2-  O181  1  0.62407980  0.49986431  0.66716293  1
  O2-  O182  1  0.62603517  0.74950323  0.16701314  1
  O2-  O183  1  0.62510726  0.75110086  0.66566654  1
  O2-  O184  1  0.87535562  0.00012091  0.17064291  1
  O2-  O185  1  0.87639211  0.00015767  0.65780232  1
  O2-  O186  1  0.87493208  0.24943085  0.16501053  1
  O2-  O187  1  0.87445398  0.24814413  0.66027279  1
  O2-  O188  1  0.87419634  0.50017722  0.16044267  1
  O2-  O189  1  0.87475262  0.49892149  0.66657538  1
  O2-  O190  1  0.87475272  0.75012454  0.16669237  1
  O2-  O191  1  0.87452186  0.75317347  0.66228771  1
  O2-  O192  1  0.00033668  0.12434140  0.16712012  1
  O2-  O193  1  0.00024009  0.12501426  0.65514751  1
  O2-  O194  1  -0.00151282  0.37427815  0.16305426  1
  O2-  O195  1  0.00022901  0.37440224  0.66103845  1
  O2-  O196  1  -0.00189283  0.62543707  0.16347884  1
  O2-  O197  1  0.00279831  0.62579143  0.66270475  1
  O2-  O198  1  0.00133441  0.87629698  0.16431685  1
  O2-  O199  1  -0.00102034  0.87518192  0.65948464  1
  O2-  O200  1  0.25217926  0.12487975  0.16332426  1
  O2-  O201  1  0.24753085  0.12477267  0.66629223  1
  O2-  O202  1  0.25233464  0.37388278  0.16598215  1
  O2-  O203  1  0.24920006  0.37512923  0.66734146  1
  O2-  O204  1  0.25077100  0.62513271  0.16481657  1
  O2-  O205  1  0.25182166  0.62556511  0.66565184  1
  O2-  O206  1  0.24706933  0.87568978  0.16236385  1
  O2-  O207  1  0.25092900  0.87489552  0.66939938  1
  O2-  O208  1  0.49799889  0.12536155  0.16203618  1
  O2-  O209  1  0.50153055  0.12522175  0.67307808  1
  O2-  O210  1  0.50123801  0.37430372  0.16456545  1
  O2-  O211  1  0.50085913  0.37552702  0.67014643  1
  O2-  O212  1  0.50197765  0.62472521  0.16862449  1
  O2-  O213  1  0.49801044  0.62527135  0.66701755  1
  O2-  O214  1  0.50086737  0.87516936  0.16503745  1
  O2-  O215  1  0.49992340  0.87434942  0.67350397  1
  O2-  O216  1  0.74954802  0.12443864  0.16763210  1
  O2-  O217  1  0.75080771  0.12435904  0.66003127  1
  O2-  O218  1  0.74868287  0.37415825  0.16221707  1
  O2-  O219  1  0.74944721  0.37492480  0.66321173  1
  O2-  O220  1  0.74941674  0.62552197  0.16632629  1
  O2-  O221  1  0.74733911  0.62474679  0.66274722  1
  O2-  O222  1  0.75093202  0.87548220  0.16803502  1
  O2-  O223  1  0.75055035  0.87647109  0.66003145  1
  O2-  O224  1  0.12462406  0.00106083  0.35030261  1
  O2-  O225  1  0.12416241  -0.00073017  0.84454125  1
  O2-  O226  1  0.12466943  0.24933708  0.34902399  1
  O2-  O227  1  0.12463443  0.24761053  0.84412744  1
  O2-  O228  1  0.12541566  0.50022820  0.34196471  1
  O2-  O229  1  0.12462520  0.49973566  0.85049995  1
  O2-  O230  1  0.12500266  0.74909309  0.34377522  1
  O2-  O231  1  0.12373476  0.75358879  0.84997277  1
  O2-  O232  1  0.37413896  -0.00220512  0.34912547  1
  O2-  O233  1  0.37442575  0.00392070  0.85020458  1
  O2-  O234  1  0.37474492  0.25089103  0.34896424  1
  O2-  O235  1  0.37534601  0.24740311  0.84976491  1
  O2-  O236  1  0.37436194  0.50345218  0.34779464  1
  O2-  O237  1  0.37530419  0.49845602  0.84938817  1
  O2-  O238  1  0.37469567  0.74763729  0.34965030  1
  O2-  O239  1  0.37497925  0.75030236  0.85016427  1
  O2-  O240  1  0.62470960  -0.00039746  0.35182904  1
  O2-  O241  1  0.62598312  0.00061341  0.84347813  1
  O2-  O242  1  0.62503979  0.25149205  0.34605883  1
  O2-  O243  1  0.62561827  0.25048874  0.84858438  1
  O2-  O244  1  0.62460743  0.50030525  0.33964995  1
  O2-  O245  1  0.62566799  0.49820317  0.85271289  1
  O2-  O246  1  0.62435868  0.74809893  0.34921191  1
  O2-  O247  1  0.62597280  0.75096954  0.84769499  1
  O2-  O248  1  0.87543230  0.00030404  0.35516258  1
  O2-  O249  1  0.87532886  0.00004263  0.83783756  1
  O2-  O250  1  0.87530531  0.24905657  0.34796368  1
  O2-  O251  1  0.87475023  0.24943990  0.84143127  1
  O2-  O252  1  0.87575386  0.49784077  0.34245150  1
  O2-  O253  1  0.87396140  0.49991971  0.84859129  1
  O2-  O254  1  0.87565118  0.75227049  0.35083434  1
  O2-  O255  1  0.87535462  0.75104080  0.84342486  1
  O2-  O256  1  0.00042145  0.12443901  0.35170927  1
  O2-  O257  1  -0.00079945  0.12428928  0.83713685  1
  O2-  O258  1  0.00070017  0.37411148  0.34420327  1
  O2-  O259  1  -0.00242869  0.37461726  0.84354639  1
  O2-  O260  1  0.00221790  0.62488408  0.34608270  1
  O2-  O261  1  -0.00255863  0.62543758  0.84468979  1
  O2-  O262  1  -0.00049624  0.87584940  0.34737722  1
  O2-  O263  1  0.00033247  0.87628174  0.84293203  1
  O2-  O264  1  0.24672381  0.12443190  0.34704329  1
  O2-  O265  1  0.25036067  0.12469071  0.85074368  1
  O2-  O266  1  0.24794093  0.37486160  0.34676019  1
  O2-  O267  1  0.25086601  0.37381962  0.85106090  1
  O2-  O268  1  0.25086308  0.62560212  0.34677675  1
  O2-  O269  1  0.24945505  0.62515105  0.84990606  1
  O2-  O270  1  0.24894539  0.87509841  0.34448704  1
  O2-  O271  1  0.24678444  0.87643175  0.85328939  1
  O2-  O272  1  0.50030522  0.12471281  0.34643436  1
  O2-  O273  1  0.49994492  0.12532834  0.85467585  1
  O2-  O274  1  0.50100306  0.37541278  0.34588865  1
  O2-  O275  1  0.50253305  0.37438698  0.85406979  1
  O2-  O276  1  0.49780255  0.62501160  0.35017472  1
  O2-  O277  1  0.50151879  0.62476902  0.85088008  1
  O2-  O278  1  0.49884302  0.87441915  0.34931185  1
  O2-  O279  1  0.50230207  0.87574070  0.85294512  1
  O2-  O280  1  0.75201141  0.12499686  0.35198231  1
  O2-  O281  1  0.75054982  0.12508453  0.83939061  1
  O2-  O282  1  0.75020199  0.37460951  0.34368853  1
  O2-  O283  1  0.74908265  0.37451204  0.84571823  1
  O2-  O284  1  0.74870780  0.62462379  0.34824530  1
  O2-  O285  1  0.75143068  0.62531407  0.84478915  1
  O2-  O286  1  0.75193403  0.87509922  0.35236836  1
  O2-  O287  1  0.75077042  0.87543493  0.83959667  1
