# generated using pymatgen
data_BaYFeCuO5
_symmetry_space_group_name_H-M   'P 1'
_cell_length_a   15.66810963
_cell_length_b   15.66957501
_cell_length_c   15.47909813
_cell_angle_alpha   89.99767918
_cell_angle_beta   90.00022685
_cell_angle_gamma   89.99621497
_symmetry_Int_Tables_number   1
_chemical_formula_structural   BaYFeCuO5
_chemical_formula_sum   'Ba32 Y32 Fe32 Cu32 O160'
_cell_volume   3800.31391062
_cell_formula_units_Z   32
loop_
 _symmetry_equiv_pos_site_id
 _symmetry_equiv_pos_as_xyz
  1  'x, y, z'
loop_
 _atom_type_symbol
 _atom_type_oxidation_number
  Ba2+  2.0
  Y3+  3.0
  Fe3+  3.0
  Cu2+  2.0
  O2-  -2.0
loop_
 _atom_site_type_symbol
 _atom_site_label
 _atom_site_symmetry_multiplicity
 _atom_site_fract_x
 _atom_site_fract_y
 _atom_site_fract_z
 _atom_site_occupancy
  Ba2+  Ba0  1  0.00215567  -0.00764765  0.01686431  1
  Ba2+  Ba1  1  -0.00648078  0.00118383  0.50570657  1
  Ba2+  Ba2  1  0.00989649  0.25162897  0.01031494  1
  Ba2+  Ba3  1  -0.00274011  0.24736007  0.52403783  1
  Ba2+  Ba4  1  0.01155458  0.50168856  0.00639208  1
  Ba2+  Ba5  1  -0.00908672  0.49704398  0.51952837  1
  Ba2+  Ba6  1  0.00419612  0.75356981  0.01251642  1
  Ba2+  Ba7  1  -0.01013227  0.75412204  0.50287129  1
  Ba2+  Ba8  1  0.25082303  -0.00310536  0.01780323  1
  Ba2+  Ba9  1  0.24389135  0.00630421  0.51204469  1
  Ba2+  Ba10  1  0.24556288  0.24825791  0.00561913  1
  Ba2+  Ba11  1  0.24362814  0.24503585  0.52354017  1
  Ba2+  Ba12  1  0.24380795  0.50588619  0.01067501  1
  Ba2+  Ba13  1  0.24339158  0.49383976  0.51189414  1
  Ba2+  Ba14  1  0.24989910  0.74871955  0.02413108  1
  Ba2+  Ba15  1  0.24459483  0.75533359  0.50288554  1
  Ba2+  Ba16  1  0.50250154  -0.00544995  0.01159923  1
  Ba2+  Ba17  1  0.50531061  0.00561542  0.51294011  1
  Ba2+  Ba18  1  0.50274841  0.24480516  0.01150394  1
  Ba2+  Ba19  1  0.50537493  0.24561328  0.51250138  1
  Ba2+  Ba20  1  0.50198361  0.50687374  0.02394016  1
  Ba2+  Ba21  1  0.51223080  0.50076752  0.50207846  1
  Ba2+  Ba22  1  0.50099712  0.75238736  0.02423518  1
  Ba2+  Ba23  1  0.51165729  0.74856896  0.50279723  1
  Ba2+  Ba24  1  0.74541822  -0.00917710  0.01111623  1
  Ba2+  Ba25  1  0.75681571  0.00036589  0.50676940  1
  Ba2+  Ba26  1  0.74083863  0.24880394  0.01648711  1
  Ba2+  Ba27  1  0.75516251  0.24708838  0.51212918  1
  Ba2+  Ba28  1  0.74071521  0.50230384  0.01777857  1
  Ba2+  Ba29  1  0.75254149  0.50497442  0.50660631  1
  Ba2+  Ba30  1  0.74567649  0.75845148  0.01080305  1
  Ba2+  Ba31  1  0.75410493  0.74824338  0.50217107  1
  Y3+  Y32  1  -0.00188218  -0.00284449  0.25863289  1
  Y3+  Y33  1  -0.00417932  -0.00136753  0.75644489  1
  Y3+  Y34  1  0.00037405  0.24881477  0.25278602  1
  Y3+  Y35  1  0.00015381  0.25038603  0.75953894  1
  Y3+  Y36  1  0.00026855  0.50153977  0.25449097  1
  Y3+  Y37  1  0.00046960  0.50068400  0.76060831  1
  Y3+  Y38  1  -0.00232789  0.75222908  0.25831382  1
  Y3+  Y39  1  -0.00423157  0.75005938  0.75860632  1
  Y3+  Y40  1  0.24726939  -0.00140287  0.25770585  1
  Y3+  Y41  1  0.25171544  0.00243943  0.75636424  1
  Y3+  Y42  1  0.24769804  0.25023737  0.25245776  1
  Y3+  Y43  1  0.24922034  0.24925962  0.76011368  1
  Y3+  Y44  1  0.24800469  0.50055908  0.25455124  1
  Y3+  Y45  1  0.24691386  0.49902530  0.75989099  1
  Y3+  Y46  1  0.24774487  0.75046342  0.25869451  1
  Y3+  Y47  1  0.24860520  0.74869929  0.75601014  1
  Y3+  Y48  1  0.50293942  -0.00197710  0.25663570  1
  Y3+  Y49  1  0.50064361  0.00080097  0.75809389  1
  Y3+  Y50  1  0.50244426  0.25082117  0.25645182  1
  Y3+  Y51  1  0.49874446  0.24661921  0.75717856  1
  Y3+  Y52  1  0.50325245  0.50111577  0.26023195  1
  Y3+  Y53  1  0.50114908  0.50149876  0.75295370  1
  Y3+  Y54  1  0.50383227  0.75066092  0.26018251  1
  Y3+  Y55  1  0.50347268  0.75076428  0.75467478  1
  Y3+  Y56  1  0.75161790  -0.00303016  0.25790788  1
  Y3+  Y57  1  0.75206316  -0.00267020  0.75779018  1
  Y3+  Y58  1  0.74922950  0.24935508  0.25715912  1
  Y3+  Y59  1  0.75189911  0.24766696  0.75648566  1
  Y3+  Y60  1  0.74858328  0.50163214  0.26083275  1
  Y3+  Y61  1  0.75175181  0.50328862  0.75380557  1
  Y3+  Y62  1  0.75071819  0.75238510  0.26023180  1
  Y3+  Y63  1  0.75190321  0.75159626  0.75592541  1
  Fe3+  Fe64  1  0.12322879  0.12625789  0.37430641  1
  Fe3+  Fe65  1  0.87415888  0.62554366  0.88146262  1
  Fe3+  Fe66  1  0.37547958  0.87685097  0.38008369  1
  Fe3+  Fe67  1  0.12335795  0.37361802  0.37644324  1
  Fe3+  Fe68  1  0.37407489  0.62422099  0.37998644  1
  Fe3+  Fe69  1  0.87479689  0.12396051  0.88175953  1
  Fe3+  Fe70  1  0.62656319  0.12503467  0.37531580  1
  Fe3+  Fe71  1  0.37649654  0.37611099  0.87961880  1
  Fe3+  Fe72  1  0.12499353  0.12215968  0.87683858  1
  Fe3+  Fe73  1  0.87614507  0.37378702  0.37396961  1
  Fe3+  Fe74  1  0.12265636  0.62426677  0.38003943  1
  Fe3+  Fe75  1  0.37515772  0.87354422  0.87543587  1
  Fe3+  Fe76  1  0.37424118  0.37353628  0.37960734  1
  Fe3+  Fe77  1  0.37412634  0.12634445  0.37665110  1
  Fe3+  Fe78  1  0.62513501  0.12355282  0.87651099  1
  Fe3+  Fe79  1  0.87348806  0.37550936  0.88099596  1
  Fe3+  Fe80  1  0.12601071  0.87406574  0.87522317  1
  Fe3+  Fe81  1  0.62401908  0.37625747  0.87599764  1
  Fe3+  Fe82  1  0.62415286  0.62619771  0.87554643  1
  Fe3+  Fe83  1  0.37599482  0.62618379  0.87555728  1
  Fe3+  Fe84  1  0.37495890  0.62497746  0.63096498  1
  Fe3+  Fe85  1  0.12327562  0.87565085  0.63571094  1
  Fe3+  Fe86  1  0.87437538  0.62599955  0.13507058  1
  Fe3+  Fe87  1  0.37520267  0.87544946  0.63251918  1
  Fe3+  Fe88  1  0.37546965  0.12389409  0.13671727  1
  Fe3+  Fe89  1  0.87464641  0.12398096  0.13384827  1
  Fe3+  Fe90  1  0.62701305  0.37434097  0.63665996  1
  Fe3+  Fe91  1  0.12334715  0.62563490  0.63460118  1
  Fe3+  Fe92  1  0.87456520  0.37587136  0.13304941  1
  Fe3+  Fe93  1  0.37529983  0.37482239  0.63432903  1
  Fe3+  Fe94  1  0.62674693  0.87571110  0.63624503  1
  Fe3+  Fe95  1  0.37534514  0.37584833  0.13485842  1
  Cu2+  Cu96  1  0.62411540  0.87405593  0.86943018  1
  Cu2+  Cu97  1  0.12554631  0.37493027  0.87220025  1
  Cu2+  Cu98  1  0.62544864  0.87656967  0.36802890  1
  Cu2+  Cu99  1  0.12562502  0.62711348  0.87142100  1
  Cu2+  Cu100  1  0.12449211  0.87570211  0.36732753  1
  Cu2+  Cu101  1  0.62590568  0.37372983  0.36533478  1
  Cu2+  Cu102  1  0.62676020  0.62551665  0.37184057  1
  Cu2+  Cu103  1  0.87593536  0.12644119  0.36870322  1
  Cu2+  Cu104  1  0.87475196  0.87473774  0.87528253  1
  Cu2+  Cu105  1  0.87618971  0.62393502  0.37018508  1
  Cu2+  Cu106  1  0.87461304  0.87578918  0.37113899  1
  Cu2+  Cu107  1  0.37522148  0.12411872  0.86740642  1
  Cu2+  Cu108  1  0.62633798  0.62636157  0.15688775  1
  Cu2+  Cu109  1  0.37548665  0.62542693  0.15784143  1
  Cu2+  Cu110  1  0.12469846  0.87455031  0.15575835  1
  Cu2+  Cu111  1  0.12353193  0.12413650  0.65593106  1
  Cu2+  Cu112  1  0.12562279  0.37567258  0.14059834  1
  Cu2+  Cu113  1  0.62644638  0.12446519  0.65274978  1
  Cu2+  Cu114  1  0.87485894  0.37508092  0.65671525  1
  Cu2+  Cu115  1  0.37506384  0.12510328  0.65009710  1
  Cu2+  Cu116  1  0.87487820  0.12390322  0.64371855  1
  Cu2+  Cu117  1  0.62642799  0.62576834  0.64069591  1
  Cu2+  Cu118  1  0.37504184  0.87455395  0.15718056  1
  Cu2+  Cu119  1  0.12425728  0.37504697  0.65438233  1
  Cu2+  Cu120  1  0.12471553  0.12392015  0.14845054  1
  Cu2+  Cu121  1  0.87530300  0.62608033  0.64302367  1
  Cu2+  Cu122  1  0.87453035  0.87427696  0.14276556  1
  Cu2+  Cu123  1  0.12387856  0.62598661  0.14454228  1
  Cu2+  Cu124  1  0.62536690  0.87489897  0.14565523  1
  Cu2+  Cu125  1  0.62485085  0.37523676  0.15304365  1
  Cu2+  Cu126  1  0.62528118  0.12371314  0.15186705  1
  Cu2+  Cu127  1  0.87492764  0.87473938  0.64338567  1
  O2-  O128  1  0.12696461  0.12117077  -0.00278116  1
  O2-  O129  1  0.12322907  0.12810689  0.49470708  1
  O2-  O130  1  0.12775293  0.37568135  0.00618592  1
  O2-  O131  1  0.12285588  0.37208648  0.49624491  1
  O2-  O132  1  0.12678462  0.62767627  0.00717670  1
  O2-  O133  1  0.12261872  0.62304191  0.50712710  1
  O2-  O134  1  0.12925671  0.87365398  -0.00435772  1
  O2-  O135  1  0.12408208  0.87646434  0.51510247  1
  O2-  O136  1  0.37545995  0.12332254  0.01622338  1
  O2-  O137  1  0.37328153  0.12802377  0.49678836  1
  O2-  O138  1  0.37718489  0.37728730  0.00658437  1
  O2-  O139  1  0.37400687  0.37316051  0.50635195  1
  O2-  O140  1  0.37653543  0.62725089  -0.00471066  1
  O2-  O141  1  0.37363557  0.62219910  0.50554067  1
  O2-  O142  1  0.37418240  0.87186754  -0.00439069  1
  O2-  O143  1  0.37543151  0.87793883  0.50635006  1
  O2-  O144  1  0.62340412  0.12396286  -0.00297004  1
  O2-  O145  1  0.62653140  0.12683015  0.49608870  1
  O2-  O146  1  0.62108212  0.37727749  -0.00371654  1
  O2-  O147  1  0.62723338  0.37260711  0.51631450  1
  O2-  O148  1  0.62164826  0.62568687  -0.00422331  1
  O2-  O149  1  0.62687052  0.62423326  0.50591198  1
  O2-  O150  1  0.62201710  0.87349648  0.00861058  1
  O2-  O151  1  0.62593610  0.87749853  0.51553536  1
  O2-  O152  1  0.87410409  0.12398095  0.00690211  1
  O2-  O153  1  0.87624597  0.12668862  0.50726561  1
  O2-  O154  1  0.87270524  0.37645998  0.00656086  1
  O2-  O155  1  0.87676753  0.37235871  0.49431635  1
  O2-  O156  1  0.87360190  0.62500611  0.00776823  1
  O2-  O157  1  0.87662854  0.62363693  0.50698075  1
  O2-  O158  1  0.87554904  0.87460180  0.00822947  1
  O2-  O159  1  0.87451797  0.87611814  0.50709445  1
  O2-  O160  1  0.12547765  -0.00090811  0.16487822  1
  O2-  O161  1  0.12553319  -0.00043206  0.66389274  1
  O2-  O162  1  0.12601272  0.24896628  0.15872445  1
  O2-  O163  1  0.12473806  0.24958573  0.66685179  1
  O2-  O164  1  0.12542046  0.50025747  0.16654213  1
  O2-  O165  1  0.12523727  0.50159496  0.66376647  1
  O2-  O166  1  0.12491049  0.75116424  0.17050994  1
  O2-  O167  1  0.12670083  0.74905168  0.66102846  1
  O2-  O168  1  0.37465735  -0.00036212  0.16670617  1
  O2-  O169  1  0.37499448  -0.00113167  0.66145643  1
  O2-  O170  1  0.37593131  0.25132037  0.16124966  1
  O2-  O171  1  0.37462691  0.25177432  0.66615036  1
  O2-  O172  1  0.37586450  0.49924986  0.16562148  1
  O2-  O173  1  0.37431614  0.49969682  0.66159787  1
  O2-  O174  1  0.37496666  0.75005286  0.17147249  1
  O2-  O175  1  0.37385043  0.74992769  0.65620044  1
  O2-  O176  1  0.62460578  0.00045635  0.16565206  1
  O2-  O177  1  0.62439474  -0.00002449  0.66574375  1
  O2-  O178  1  0.62415136  0.24949400  0.16089312  1
  O2-  O179  1  0.62511808  0.24994065  0.66711694  1
  O2-  O180  1  0.62448026  0.50105385  0.16583695  1
  O2-  O181  1  0.62499472  0.49836846  0.66395206  1
  O2-  O182  1  0.62496602  0.74938321  0.16939840  1
  O2-  O183  1  0.62467825  0.75200591  0.66375195  1
  O2-  O184  1  0.87534345  0.00240900  0.16416702  1
  O2-  O185  1  0.87514257  -0.00086636  0.66623167  1
  O2-  O186  1  0.87438562  0.25006986  0.15697359  1
  O2-  O187  1  0.87535454  0.25107748  0.66884369  1
  O2-  O188  1  0.87395873  0.50026665  0.16136213  1
  O2-  O189  1  0.87598416  0.49901829  0.66645237  1
  O2-  O190  1  0.87464068  0.74745926  0.16621903  1
  O2-  O191  1  0.87541046  0.75059976  0.66661140  1
  O2-  O192  1  -0.00143280  0.12559812  0.15908701  1
  O2-  O193  1  0.00070034  0.12545967  0.67012125  1
  O2-  O194  1  -0.00340245  0.37530079  0.15900449  1
  O2-  O195  1  -0.00044026  0.37505297  0.66853636  1
  O2-  O196  1  -0.00342927  0.62470207  0.16274624  1
  O2-  O197  1  0.00308605  0.62475515  0.66755720  1
  O2-  O198  1  0.00084554  0.87453850  0.16399300  1
  O2-  O199  1  0.00168376  0.87432248  0.66814000  1
  O2-  O200  1  0.25074731  0.12467152  0.16518445  1
  O2-  O201  1  0.24890674  0.12579724  0.66356564  1
  O2-  O202  1  0.25357605  0.37587944  0.16509998  1
  O2-  O203  1  0.25158713  0.37498989  0.66259400  1
  O2-  O204  1  0.25084647  0.62550885  0.16921115  1
  O2-  O205  1  0.24975778  0.62385607  0.65887454  1
  O2-  O206  1  0.24979288  0.87386259  0.16759748  1
  O2-  O207  1  0.25118368  0.87525331  0.66012110  1
  O2-  O208  1  0.49968510  0.12500563  0.16702881  1
  O2-  O209  1  0.50064336  0.12572386  0.66262502  1
  O2-  O210  1  0.49874725  0.37606497  0.16688924  1
  O2-  O211  1  0.49895981  0.37461775  0.66140085  1
  O2-  O212  1  0.50122016  0.62530538  0.16818415  1
  O2-  O213  1  0.49676010  0.62464981  0.65886039  1
  O2-  O214  1  0.49908882  0.87426875  0.16857413  1
  O2-  O215  1  0.49863606  0.87534429  0.66214077  1
  O2-  O216  1  0.75120156  0.12551290  0.16170970  1
  O2-  O217  1  0.74959965  0.12517893  0.66823265  1
  O2-  O218  1  0.75105844  0.37499200  0.16132122  1
  O2-  O219  1  0.75017628  0.37456390  0.66847967  1
  O2-  O220  1  0.75131060  0.62433657  0.16329128  1
  O2-  O221  1  0.75058781  0.62510748  0.66675025  1
  O2-  O222  1  0.75021657  0.87499901  0.16558469  1
  O2-  O223  1  0.74883526  0.87552160  0.66853622  1
  O2-  O224  1  0.12519839  0.00087306  0.34843606  1
  O2-  O225  1  0.12561819  -0.00074178  0.84353962  1
  O2-  O226  1  0.12535801  0.25065702  0.33924636  1
  O2-  O227  1  0.12535155  0.24747126  0.85025252  1
  O2-  O228  1  0.12585887  0.50028277  0.34879325  1
  O2-  O229  1  0.12568912  0.50033985  0.84842390  1
  O2-  O230  1  0.12570656  0.74843771  0.35520811  1
  O2-  O231  1  0.12536697  0.75190023  0.84166414  1
  O2-  O232  1  0.37479397  0.00028103  0.34936778  1
  O2-  O233  1  0.37505800  -0.00137293  0.84556503  1
  O2-  O234  1  0.37462293  0.25156759  0.34332241  1
  O2-  O235  1  0.37594029  0.25180320  0.85239984  1
  O2-  O236  1  0.37410058  0.49911452  0.35147998  1
  O2-  O237  1  0.37569770  0.49951591  0.84541991  1
  O2-  O238  1  0.37396234  0.74984527  0.35736233  1
  O2-  O239  1  0.37541255  0.74958363  0.83800234  1
  O2-  O240  1  0.62454622  0.00111216  0.34768393  1
  O2-  O241  1  0.62470092  0.00092627  0.84744259  1
  O2-  O242  1  0.62456542  0.24916111  0.34411227  1
  O2-  O243  1  0.62426667  0.25015578  0.84799341  1
  O2-  O244  1  0.62482854  0.49850063  0.35034700  1
  O2-  O245  1  0.62464324  0.50048248  0.84320456  1
  O2-  O246  1  0.62491984  0.75205775  0.35302608  1
  O2-  O247  1  0.62476808  0.74817210  0.84419988  1
  O2-  O248  1  0.87535881  0.00039731  0.34830831  1
  O2-  O249  1  0.87449366  0.00271318  0.84961816  1
  O2-  O250  1  0.87562136  0.25193712  0.33882908  1
  O2-  O251  1  0.87465689  0.24965041  0.85292632  1
  O2-  O252  1  0.87566763  0.49767166  0.34406890  1
  O2-  O253  1  0.87392161  0.50030984  0.85080120  1
  O2-  O254  1  0.87540512  0.75005561  0.35031087  1
  O2-  O255  1  0.87434006  0.74707918  0.85004331  1
  O2-  O256  1  0.00159871  0.12538642  0.34165504  1
  O2-  O257  1  -0.00144195  0.12503082  0.85202546  1
  O2-  O258  1  0.00137969  0.37520335  0.33938355  1
  O2-  O259  1  -0.00386829  0.37559788  0.85316161  1
  O2-  O260  1  0.00321937  0.62456784  0.34591344  1
  O2-  O261  1  -0.00337793  0.62428459  0.85181045  1
  O2-  O262  1  0.00052675  0.87490620  0.34792491  1
  O2-  O263  1  0.00140604  0.87472567  0.84964293  1
  O2-  O264  1  0.24956030  0.12570222  0.34503118  1
  O2-  O265  1  0.24976389  0.12511801  0.84710422  1
  O2-  O266  1  0.25030731  0.37534564  0.34817840  1
  O2-  O267  1  0.25421092  0.37510407  0.84793518  1
  O2-  O268  1  0.24918004  0.62435619  0.35337007  1
  O2-  O269  1  0.25277859  0.62465565  0.84146174  1
  O2-  O270  1  0.25234490  0.87520482  0.35179556  1
  O2-  O271  1  0.25082610  0.87450945  0.83990216  1
  O2-  O272  1  0.49947848  0.12613062  0.34799467  1
  O2-  O273  1  0.50059123  0.12503749  0.84641245  1
  O2-  O274  1  0.49787660  0.37494003  0.35246097  1
  O2-  O275  1  0.49912049  0.37526351  0.84286141  1
  O2-  O276  1  0.49656193  0.62440949  0.35237986  1
  O2-  O277  1  0.50008220  0.62460741  0.83902885  1
  O2-  O278  1  0.49790100  0.87515018  0.35204194  1
  O2-  O279  1  0.49860290  0.87479538  0.84337375  1
  O2-  O280  1  0.74935331  0.12579389  0.34525897  1
  O2-  O281  1  0.75113605  0.12572750  0.85035094  1
  O2-  O282  1  0.75077938  0.37447909  0.34538530  1
  O2-  O283  1  0.75029122  0.37474855  0.85012058  1
  O2-  O284  1  0.75111914  0.62457916  0.34749136  1
  O2-  O285  1  0.75043315  0.62430589  0.84967573  1
  O2-  O286  1  0.74913776  0.87559489  0.34859147  1
  O2-  O287  1  0.74925579  0.87464627  0.85161984  1
