# generated using pymatgen
data_BaYFeCuO5
_symmetry_space_group_name_H-M   'P 1'
_cell_length_a   15.66823310
_cell_length_b   15.66974063
_cell_length_c   15.47940026
_cell_angle_alpha   89.99709659
_cell_angle_beta   90.00589994
_cell_angle_gamma   90.00045358
_symmetry_Int_Tables_number   1
_chemical_formula_structural   BaYFeCuO5
_chemical_formula_sum   'Ba32 Y32 Fe32 Cu32 O160'
_cell_volume   3800.45819387
_cell_formula_units_Z   32
loop_
 _symmetry_equiv_pos_site_id
 _symmetry_equiv_pos_as_xyz
  1  'x, y, z'
loop_
 _atom_type_symbol
 _atom_type_oxidation_number
  Ba2+  2.0
  Y3+  3.0
  Fe3+  3.0
  Cu2+  2.0
  O2-  -2.0
loop_
 _atom_site_type_symbol
 _atom_site_label
 _atom_site_symmetry_multiplicity
 _atom_site_fract_x
 _atom_site_fract_y
 _atom_site_fract_z
 _atom_site_occupancy
  Ba2+  Ba0  1  -0.00778927  -0.00802969  0.01494837  1
  Ba2+  Ba1  1  -0.00116705  -0.00051888  0.50582962  1
  Ba2+  Ba2  1  -0.01134271  0.25372631  0.01068214  1
  Ba2+  Ba3  1  0.00001032  0.25015751  0.51880233  1
  Ba2+  Ba4  1  -0.00599659  0.50608352  0.01106934  1
  Ba2+  Ba5  1  0.00112158  0.50160063  0.52094518  1
  Ba2+  Ba6  1  -0.00207743  0.74871597  0.01717731  1
  Ba2+  Ba7  1  0.00154922  0.74741046  0.51162616  1
  Ba2+  Ba8  1  0.24467521  -0.00750798  0.01058639  1
  Ba2+  Ba9  1  0.24412954  -0.00352885  0.52400186  1
  Ba2+  Ba10  1  0.24926102  0.25182024  0.00630007  1
  Ba2+  Ba11  1  0.24472044  0.25385574  0.52486220  1
  Ba2+  Ba12  1  0.24982253  0.51283579  0.00602714  1
  Ba2+  Ba13  1  0.24303916  0.49876821  0.51720081  1
  Ba2+  Ba14  1  0.24526459  0.74178886  0.01088810  1
  Ba2+  Ba15  1  0.24304157  0.75164314  0.51727540  1
  Ba2+  Ba16  1  0.50829584  -0.00885318  0.00723304  1
  Ba2+  Ba17  1  0.50737997  -0.00517148  0.50755511  1
  Ba2+  Ba18  1  0.50715810  0.25653070  0.01218073  1
  Ba2+  Ba19  1  0.50722678  0.25502250  0.50692571  1
  Ba2+  Ba20  1  0.50376593  0.50816059  0.01821339  1
  Ba2+  Ba21  1  0.50652246  0.49425211  0.50694117  1
  Ba2+  Ba22  1  0.50586470  0.74428836  0.01299325  1
  Ba2+  Ba23  1  0.50607319  0.75637728  0.50797937  1
  Ba2+  Ba24  1  0.75418453  -0.00992335  0.01144950  1
  Ba2+  Ba25  1  0.74945883  -0.00105709  0.49128629  1
  Ba2+  Ba26  1  0.75555156  0.25703367  0.01620203  1
  Ba2+  Ba27  1  0.74914701  0.25150047  0.49997294  1
  Ba2+  Ba28  1  0.75154520  0.50100286  0.02281293  1
  Ba2+  Ba29  1  0.74959828  0.49745950  0.51175258  1
  Ba2+  Ba30  1  0.75072859  0.75192427  0.01750530  1
  Ba2+  Ba31  1  0.74905163  0.75251420  0.50169729  1
  Y3+  Y32  1  -0.00436328  -0.00178645  0.25585743  1
  Y3+  Y33  1  -0.00129074  -0.00195389  0.75815611  1
  Y3+  Y34  1  -0.00436634  0.24947924  0.25467118  1
  Y3+  Y35  1  -0.00248136  0.25262365  0.75877805  1
  Y3+  Y36  1  0.00008749  0.50343464  0.25573397  1
  Y3+  Y37  1  -0.00120788  0.50174045  0.75733400  1
  Y3+  Y38  1  0.00002681  0.74943508  0.25700824  1
  Y3+  Y39  1  -0.00019740  0.74753728  0.75692637  1
  Y3+  Y40  1  0.24907071  -0.00135724  0.25412913  1
  Y3+  Y41  1  0.24959154  -0.00226177  0.75807012  1
  Y3+  Y42  1  0.25022741  0.25002147  0.25375389  1
  Y3+  Y43  1  0.24965036  0.25136511  0.75882266  1
  Y3+  Y44  1  0.24889106  0.50539797  0.25588433  1
  Y3+  Y45  1  0.24915123  0.50412807  0.75837272  1
  Y3+  Y46  1  0.24761620  0.74626067  0.25549876  1
  Y3+  Y47  1  0.24915760  0.74700583  0.75823256  1
  Y3+  Y48  1  0.50367309  -0.00200417  0.25829605  1
  Y3+  Y49  1  0.50223349  -0.00407328  0.75734331  1
  Y3+  Y50  1  0.50350955  0.25111575  0.25945713  1
  Y3+  Y51  1  0.50136327  0.25224392  0.75538691  1
  Y3+  Y52  1  0.50240264  0.50190602  0.25953633  1
  Y3+  Y53  1  0.49970263  0.50035285  0.75546559  1
  Y3+  Y54  1  0.50273924  0.74880772  0.25848377  1
  Y3+  Y55  1  0.50100748  0.75141429  0.75760565  1
  Y3+  Y56  1  0.75119937  -0.00241876  0.25647651  1
  Y3+  Y57  1  0.74934802  -0.00425378  0.76118249  1
  Y3+  Y58  1  0.75082152  0.25063061  0.25777136  1
  Y3+  Y59  1  0.75166295  0.25354983  0.75658655  1
  Y3+  Y60  1  0.74848147  0.49988973  0.25962553  1
  Y3+  Y61  1  0.75248864  0.49849599  0.75405117  1
  Y3+  Y62  1  0.74914866  0.75159620  0.25846741  1
  Y3+  Y63  1  0.75003454  0.75227659  0.75755314  1
  Fe3+  Fe64  1  0.12328585  0.87291368  0.87707170  1
  Fe3+  Fe65  1  0.37276688  0.37475817  0.37629565  1
  Fe3+  Fe66  1  0.12511321  0.87500627  0.37406891  1
  Fe3+  Fe67  1  0.87369470  0.12448099  0.87930401  1
  Fe3+  Fe68  1  0.62642957  0.37718200  0.87727543  1
  Fe3+  Fe69  1  0.12532208  0.12583874  0.37428402  1
  Fe3+  Fe70  1  0.12462393  0.37489318  0.37331562  1
  Fe3+  Fe71  1  0.87712530  0.37561599  0.37629911  1
  Fe3+  Fe72  1  0.37416228  0.12467597  0.37999364  1
  Fe3+  Fe73  1  0.37605478  0.37698287  0.87964870  1
  Fe3+  Fe74  1  0.37308522  0.87529243  0.37687761  1
  Fe3+  Fe75  1  0.12368248  0.37689262  0.87954150  1
  Fe3+  Fe76  1  0.62638586  0.62453823  0.87536248  1
  Fe3+  Fe77  1  0.37450350  0.62548320  0.38083599  1
  Fe3+  Fe78  1  0.37646900  0.12434623  0.88055744  1
  Fe3+  Fe79  1  0.37512805  0.87264310  0.87960555  1
  Fe3+  Fe80  1  0.62613366  0.12537620  0.88153172  1
  Fe3+  Fe81  1  0.87554433  0.62484208  0.37750637  1
  Fe3+  Fe82  1  0.12336135  0.12462098  0.87967240  1
  Fe3+  Fe83  1  0.87342916  0.62564309  0.87594351  1
  Fe3+  Fe84  1  0.87423534  0.87502987  0.63679438  1
  Fe3+  Fe85  1  0.37534479  0.87279841  0.13460557  1
  Fe3+  Fe86  1  0.62602288  0.62579938  0.63581905  1
  Fe3+  Fe87  1  0.37632358  0.12449942  0.63583115  1
  Fe3+  Fe88  1  0.37520811  0.37685129  0.13399870  1
  Fe3+  Fe89  1  0.12420793  0.37640033  0.13244708  1
  Fe3+  Fe90  1  0.62740038  0.12426879  0.63872435  1
  Fe3+  Fe91  1  0.12296288  0.12468418  0.13222580  1
  Fe3+  Fe92  1  0.37630836  0.62549242  0.63447717  1
  Fe3+  Fe93  1  0.62650117  0.12459502  0.13608383  1
  Fe3+  Fe94  1  0.37635004  0.12438186  0.13260217  1
  Fe3+  Fe95  1  0.87369663  0.12395350  0.63814687  1
  Cu2+  Cu96  1  0.12488350  0.62465456  0.37336576  1
  Cu2+  Cu97  1  0.62581457  0.37539217  0.37095974  1
  Cu2+  Cu98  1  0.87572244  0.12522553  0.36319426  1
  Cu2+  Cu99  1  0.62578943  0.87316041  0.87409532  1
  Cu2+  Cu100  1  0.62496868  0.12497220  0.36183967  1
  Cu2+  Cu101  1  0.87410538  0.37678165  0.87262376  1
  Cu2+  Cu102  1  0.87543469  0.87313665  0.87207930  1
  Cu2+  Cu103  1  0.62521181  0.62506984  0.36796861  1
  Cu2+  Cu104  1  0.37678700  0.62546476  0.87232013  1
  Cu2+  Cu105  1  0.12350207  0.62523301  0.87136335  1
  Cu2+  Cu106  1  0.87594525  0.87431714  0.36429054  1
  Cu2+  Cu107  1  0.62489690  0.87470638  0.37070878  1
  Cu2+  Cu108  1  0.37506154  0.37551259  0.65088901  1
  Cu2+  Cu109  1  0.87517844  0.37672820  0.14352822  1
  Cu2+  Cu110  1  0.12403075  0.12472839  0.65666706  1
  Cu2+  Cu111  1  0.87518675  0.37478818  0.64803565  1
  Cu2+  Cu112  1  0.87403803  0.62575922  0.64766061  1
  Cu2+  Cu113  1  0.62679109  0.87556690  0.64357861  1
  Cu2+  Cu114  1  0.37529518  0.87462945  0.65031863  1
  Cu2+  Cu115  1  0.12438453  0.62532769  0.64279934  1
  Cu2+  Cu116  1  0.87406586  0.62541877  0.15380362  1
  Cu2+  Cu117  1  0.62591427  0.62511065  0.15595817  1
  Cu2+  Cu118  1  0.87456287  0.87334477  0.14454566  1
  Cu2+  Cu119  1  0.62579027  0.37443280  0.64271944  1
  Cu2+  Cu120  1  0.12459308  0.37555643  0.65850462  1
  Cu2+  Cu121  1  0.62492874  0.37540575  0.15310548  1
  Cu2+  Cu122  1  0.62497564  0.87430667  0.14369623  1
  Cu2+  Cu123  1  0.12485178  0.87452645  0.14911000  1
  Cu2+  Cu124  1  0.12364644  0.62487059  0.14148907  1
  Cu2+  Cu125  1  0.87381313  0.12448276  0.14872492  1
  Cu2+  Cu126  1  0.37569058  0.62567223  0.14320475  1
  Cu2+  Cu127  1  0.12353674  0.87463885  0.65534553  1
  O2-  O128  1  0.12376187  0.12441141  0.00519538  1
  O2-  O129  1  0.12724602  0.12675119  0.49406692  1
  O2-  O130  1  0.12399718  0.37654197  0.00579814  1
  O2-  O131  1  0.12543121  0.37186618  0.49376374  1
  O2-  O132  1  0.12327626  0.62466426  0.00706601  1
  O2-  O133  1  0.12569475  0.62450570  0.50783823  1
  O2-  O134  1  0.12365139  0.87367469  -0.00243105  1
  O2-  O135  1  0.12615117  0.87783260  0.49446016  1
  O2-  O136  1  0.37674288  0.12451933  0.00639320  1
  O2-  O137  1  0.37314616  0.12513059  0.50651516  1
  O2-  O138  1  0.37718738  0.37648240  0.00622906  1
  O2-  O139  1  0.37092562  0.37169176  0.49624377  1
  O2-  O140  1  0.37702658  0.62554474  0.00723583  1
  O2-  O141  1  0.37427976  0.62480052  0.50738119  1
  O2-  O142  1  0.37561690  0.87292623  0.00633159  1
  O2-  O143  1  0.37164409  0.87880797  0.49689196  1
  O2-  O144  1  0.62531145  0.12548811  0.00803264  1
  O2-  O145  1  0.62592848  0.12486070  0.51837916  1
  O2-  O146  1  0.62541180  0.37804833  -0.00236693  1
  O2-  O147  1  0.62547215  0.37335240  0.50657481  1
  O2-  O148  1  0.62739001  0.62359904  -0.00405743  1
  O2-  O149  1  0.62374739  0.62552879  0.51498935  1
  O2-  O150  1  0.62471013  0.87310929  0.00865159  1
  O2-  O151  1  0.62591695  0.87655368  0.50641120  1
  O2-  O152  1  0.87408660  0.12492481  -0.00033319  1
  O2-  O153  1  0.87465040  0.12446238  0.51794419  1
  O2-  O154  1  0.87390251  0.37704558  0.00756117  1
  O2-  O155  1  0.87905682  0.37415962  0.49676315  1
  O2-  O156  1  0.87214962  0.62587098  -0.00337947  1
  O2-  O157  1  0.87673889  0.62361996  0.49784411  1
  O2-  O158  1  0.87542627  0.87220749  0.00879543  1
  O2-  O159  1  0.87484279  0.87756321  0.51631715  1
  O2-  O160  1  0.12635202  0.00225298  0.15924764  1
  O2-  O161  1  0.12565949  -0.00038105  0.66776321  1
  O2-  O162  1  0.12652016  0.24947203  0.15611234  1
  O2-  O163  1  0.12601838  0.25043347  0.66945885  1
  O2-  O164  1  0.12582626  0.49718492  0.16357884  1
  O2-  O165  1  0.12564340  0.49911624  0.66564385  1
  O2-  O166  1  0.12500396  0.75078961  0.16535748  1
  O2-  O167  1  0.12542615  0.75110549  0.66363682  1
  O2-  O168  1  0.37442248  0.00057773  0.15985017  1
  O2-  O169  1  0.37450520  0.00176937  0.66717555  1
  O2-  O170  1  0.37478586  0.24943256  0.15853692  1
  O2-  O171  1  0.37402933  0.24771215  0.66717918  1
  O2-  O172  1  0.37508756  0.49721039  0.16492989  1
  O2-  O173  1  0.37500865  0.50185922  0.66206687  1
  O2-  O174  1  0.37508061  0.75244005  0.16642254  1
  O2-  O175  1  0.37525012  0.74885644  0.66168120  1
  O2-  O176  1  0.62398058  0.00270215  0.16352408  1
  O2-  O177  1  0.62438085  0.00171449  0.67162160  1
  O2-  O178  1  0.62422974  0.24850788  0.16229387  1
  O2-  O179  1  0.62446282  0.24799475  0.66999040  1
  O2-  O180  1  0.62406238  0.50004315  0.16596435  1
  O2-  O181  1  0.62419297  0.50149860  0.66230154  1
  O2-  O182  1  0.62443151  0.74870945  0.16679752  1
  O2-  O183  1  0.62431515  0.74887534  0.66486158  1
  O2-  O184  1  0.87445339  0.00042746  0.16487735  1
  O2-  O185  1  0.87559447  -0.00011950  0.67132820  1
  O2-  O186  1  0.87431412  0.24934145  0.16329584  1
  O2-  O187  1  0.87570826  0.24943686  0.66738053  1
  O2-  O188  1  0.87526613  0.50241096  0.16486497  1
  O2-  O189  1  0.87555231  0.49976195  0.66174736  1
  O2-  O190  1  0.87462043  0.74786480  0.16714565  1
  O2-  O191  1  0.87517862  0.75080107  0.66381752  1
  O2-  O192  1  0.00126298  0.12514082  0.16093014  1
  O2-  O193  1  -0.00076838  0.12558427  0.66666455  1
  O2-  O194  1  0.00309358  0.37383691  0.16069644  1
  O2-  O195  1  0.00031172  0.37420827  0.66603126  1
  O2-  O196  1  -0.00249485  0.62527819  0.16353934  1
  O2-  O197  1  -0.00190641  0.62477911  0.66464146  1
  O2-  O198  1  0.00121275  0.87523339  0.16458926  1
  O2-  O199  1  -0.00081801  0.87568016  0.66498503  1
  O2-  O200  1  0.25065190  0.12540088  0.15744610  1
  O2-  O201  1  0.25133951  0.12498847  0.66671474  1
  O2-  O202  1  0.25023174  0.37298539  0.15634228  1
  O2-  O203  1  0.24982743  0.37456209  0.66950000  1
  O2-  O204  1  0.24983544  0.62515132  0.16419724  1
  O2-  O205  1  0.25343226  0.62506699  0.66548801  1
  O2-  O206  1  0.25156272  0.87611702  0.15853181  1
  O2-  O207  1  0.24890226  0.87589675  0.66674409  1
  O2-  O208  1  0.49959057  0.12561273  0.16375367  1
  O2-  O209  1  0.49899843  0.12496314  0.66658109  1
  O2-  O210  1  0.49814374  0.37376642  0.16369522  1
  O2-  O211  1  0.49893192  0.37378496  0.66613316  1
  O2-  O212  1  0.50166580  0.62474426  0.16753900  1
  O2-  O213  1  0.49916738  0.62530300  0.66508473  1
  O2-  O214  1  0.49714719  0.87596866  0.16409835  1
  O2-  O215  1  0.49972906  0.87600896  0.66633217  1
  O2-  O216  1  0.74816748  0.12534833  0.16423532  1
  O2-  O217  1  0.75081202  0.12518464  0.67188915  1
  O2-  O218  1  0.74870900  0.37539093  0.16659677  1
  O2-  O219  1  0.75150423  0.37443733  0.66378737  1
  O2-  O220  1  0.75038122  0.62464011  0.16657048  1
  O2-  O221  1  0.74964027  0.62472741  0.66298746  1
  O2-  O222  1  0.74937416  0.87474798  0.16639066  1
  O2-  O223  1  0.75187193  0.87569041  0.66954299  1
  O2-  O224  1  0.12577674  0.00080953  0.34105731  1
  O2-  O225  1  0.12643523  0.00133828  0.85072192  1
  O2-  O226  1  0.12579707  0.24963967  0.33728153  1
  O2-  O227  1  0.12623811  0.24963384  0.85403822  1
  O2-  O228  1  0.12622347  0.49816980  0.34558365  1
  O2-  O229  1  0.12627769  0.49772125  0.84928451  1
  O2-  O230  1  0.12585873  0.75163981  0.34808071  1
  O2-  O231  1  0.12574267  0.75093057  0.84580599  1
  O2-  O232  1  0.37454165  0.00213439  0.34415261  1
  O2-  O233  1  0.37439891  0.00011230  0.85271614  1
  O2-  O234  1  0.37460982  0.24801497  0.34307876  1
  O2-  O235  1  0.37514663  0.24976068  0.85299163  1
  O2-  O236  1  0.37449328  0.50096148  0.34895254  1
  O2-  O237  1  0.37451304  0.49658150  0.84655492  1
  O2-  O238  1  0.37501227  0.74924025  0.35033520  1
  O2-  O239  1  0.37499508  0.75297006  0.84601131  1
  O2-  O240  1  0.62409563  0.00108366  0.34700398  1
  O2-  O241  1  0.62410668  0.00236311  0.85397180  1
  O2-  O242  1  0.62449125  0.24879901  0.34664998  1
  O2-  O243  1  0.62314913  0.24951353  0.85164504  1
  O2-  O244  1  0.62427914  0.50086272  0.34957596  1
  O2-  O245  1  0.62435053  0.49955528  0.84199186  1
  O2-  O246  1  0.62412746  0.74936815  0.35012685  1
  O2-  O247  1  0.62424058  0.74834223  0.84612831  1
  O2-  O248  1  0.87525648  -0.00007466  0.34929196  1
  O2-  O249  1  0.87500279  0.00111235  0.85098671  1
  O2-  O250  1  0.87556740  0.25056679  0.34624738  1
  O2-  O251  1  0.87510330  0.24831285  0.84953427  1
  O2-  O252  1  0.87554138  0.49975504  0.34531401  1
  O2-  O253  1  0.87491118  0.50198249  0.84476558  1
  O2-  O254  1  0.87505592  0.74981978  0.34989399  1
  O2-  O255  1  0.87497743  0.74838067  0.84497930  1
  O2-  O256  1  0.00125530  0.12487368  0.34468632  1
  O2-  O257  1  0.00117990  0.12529914  0.84921580  1
  O2-  O258  1  0.00045477  0.37425380  0.34080657  1
  O2-  O259  1  0.00253334  0.37447521  0.85047701  1
  O2-  O260  1  -0.00127549  0.62515520  0.34582864  1
  O2-  O261  1  -0.00185671  0.62445080  0.84717134  1
  O2-  O262  1  0.00083360  0.87622410  0.34706031  1
  O2-  O263  1  0.00141299  0.87552106  0.84620405  1
  O2-  O264  1  0.25173125  0.12537858  0.34055804  1
  O2-  O265  1  0.25061578  0.12575827  0.85311590  1
  O2-  O266  1  0.25006226  0.37402039  0.33773386  1
  O2-  O267  1  0.25035098  0.37304516  0.85483914  1
  O2-  O268  1  0.25283193  0.62496742  0.34749267  1
  O2-  O269  1  0.25014423  0.62512211  0.84998576  1
  O2-  O270  1  0.25028795  0.87582543  0.33938491  1
  O2-  O271  1  0.25084819  0.87590452  0.85065364  1
  O2-  O272  1  0.49738421  0.12523818  0.34973402  1
  O2-  O273  1  0.49970834  0.12494735  0.85159203  1
  O2-  O274  1  0.49726423  0.37399530  0.34768971  1
  O2-  O275  1  0.49932078  0.37425068  0.84856458  1
  O2-  O276  1  0.49803128  0.62477756  0.35152718  1
  O2-  O277  1  0.50228736  0.62435616  0.84629932  1
  O2-  O278  1  0.49703876  0.87613991  0.34675646  1
  O2-  O279  1  0.49739392  0.87597899  0.85047836  1
  O2-  O280  1  0.75012155  0.12524719  0.34946840  1
  O2-  O281  1  0.74820578  0.12534716  0.85106804  1
  O2-  O282  1  0.75262927  0.37420744  0.34958918  1
  O2-  O283  1  0.74805637  0.37465366  0.84550355  1
  O2-  O284  1  0.75057005  0.62521189  0.35014839  1
  O2-  O285  1  0.74950838  0.62480434  0.84218867  1
  O2-  O286  1  0.75154869  0.87571165  0.34981683  1
  O2-  O287  1  0.75035284  0.87469456  0.85110535  1
