# generated using pymatgen
data_BaYFeCuO5
_symmetry_space_group_name_H-M   'P 1'
_cell_length_a   15.68428137
_cell_length_b   15.68263392
_cell_length_c   15.53825003
_cell_angle_alpha   89.99802053
_cell_angle_beta   90.00838119
_cell_angle_gamma   90.00703457
_symmetry_Int_Tables_number   1
_chemical_formula_structural   BaYFeCuO5
_chemical_formula_sum   'Ba32 Y32 Fe32 Cu32 O160'
_cell_volume   3821.95638728
_cell_formula_units_Z   32
loop_
 _symmetry_equiv_pos_site_id
 _symmetry_equiv_pos_as_xyz
  1  'x, y, z'
loop_
 _atom_type_symbol
 _atom_type_oxidation_number
  Ba2+  2.0
  Y3+  3.0
  Fe3+  3.0
  Cu2+  2.0
  O2-  -2.0
loop_
 _atom_site_type_symbol
 _atom_site_label
 _atom_site_symmetry_multiplicity
 _atom_site_fract_x
 _atom_site_fract_y
 _atom_site_fract_z
 _atom_site_occupancy
  Ba2+  Ba0  1  -0.00162196  -0.00126633  0.02803162  1
  Ba2+  Ba1  1  0.00746035  0.00189049  0.50550037  1
  Ba2+  Ba2  1  -0.00681881  0.24400331  0.02277360  1
  Ba2+  Ba3  1  -0.00209105  0.25376214  0.51173625  1
  Ba2+  Ba4  1  -0.00831856  0.50710917  0.00651576  1
  Ba2+  Ba5  1  -0.00201433  0.49634619  0.51339918  1
  Ba2+  Ba6  1  -0.00532245  0.75046454  0.01330160  1
  Ba2+  Ba7  1  0.00730327  0.74745640  0.50826042  1
  Ba2+  Ba8  1  0.25150518  0.00134558  0.01157373  1
  Ba2+  Ba9  1  0.24894253  -0.00069342  0.50006436  1
  Ba2+  Ba10  1  0.25136900  0.23848628  0.01116917  1
  Ba2+  Ba11  1  0.24993269  0.24923883  0.50529925  1
  Ba2+  Ba12  1  0.24418567  0.50448591  0.00296482  1
  Ba2+  Ba13  1  0.24546857  0.49438899  0.52705790  1
  Ba2+  Ba14  1  0.24367726  0.75714066  0.00115287  1
  Ba2+  Ba15  1  0.24550963  0.75657332  0.51771726  1
  Ba2+  Ba16  1  0.49952302  0.00222430  0.01066806  1
  Ba2+  Ba17  1  0.49935825  -0.00011885  0.51910446  1
  Ba2+  Ba18  1  0.50421677  0.24177080  0.01656415  1
  Ba2+  Ba19  1  0.49965725  0.25038706  0.50651903  1
  Ba2+  Ba20  1  0.51137225  0.49929429  0.00696862  1
  Ba2+  Ba21  1  0.50690070  0.49863899  0.50658095  1
  Ba2+  Ba22  1  0.50677400  0.75684505  0.00110269  1
  Ba2+  Ba23  1  0.50534250  0.75189752  0.51797459  1
  Ba2+  Ba24  1  0.75066283  -0.00042266  0.02668729  1
  Ba2+  Ba25  1  0.74512640  0.00467180  0.51814467  1
  Ba2+  Ba26  1  0.75028262  0.24904028  0.02705718  1
  Ba2+  Ba27  1  0.75220294  0.25403914  0.51031644  1
  Ba2+  Ba28  1  0.75456438  0.50263926  0.01268831  1
  Ba2+  Ba29  1  0.75050942  0.49883471  0.49605840  1
  Ba2+  Ba30  1  0.75431669  0.74940088  0.01276162  1
  Ba2+  Ba31  1  0.74398268  0.74285404  0.50745776  1
  Y3+  Y32  1  0.00285788  -0.00118212  0.26105615  1
  Y3+  Y33  1  -0.00037311  0.00025288  0.75050312  1
  Y3+  Y34  1  -0.00140864  0.24970192  0.25984137  1
  Y3+  Y35  1  -0.00273836  0.25104979  0.75234944  1
  Y3+  Y36  1  -0.00532121  0.50054342  0.25784200  1
  Y3+  Y37  1  -0.00130795  0.50119773  0.75830256  1
  Y3+  Y38  1  -0.00091255  0.74995968  0.25956567  1
  Y3+  Y39  1  0.00070470  0.74813102  0.75681729  1
  Y3+  Y40  1  0.24888311  0.00113757  0.25749177  1
  Y3+  Y41  1  0.25187048  -0.00174701  0.75805275  1
  Y3+  Y42  1  0.25080222  0.24514113  0.25512262  1
  Y3+  Y43  1  0.25129172  0.24941062  0.76029033  1
  Y3+  Y44  1  0.25039686  0.50023453  0.25385243  1
  Y3+  Y45  1  0.24805478  0.50033456  0.76129372  1
  Y3+  Y46  1  0.24820901  0.75254464  0.25925622  1
  Y3+  Y47  1  0.24819365  0.75228176  0.75707079  1
  Y3+  Y48  1  0.49907232  0.00181252  0.25488108  1
  Y3+  Y49  1  0.49831896  -0.00027017  0.75876013  1
  Y3+  Y50  1  0.50035854  0.24887686  0.25537418  1
  Y3+  Y51  1  0.49929738  0.24834695  0.75876919  1
  Y3+  Y52  1  0.50349530  0.49979053  0.25902086  1
  Y3+  Y53  1  0.50185304  0.50109829  0.75746699  1
  Y3+  Y54  1  0.50193985  0.74895343  0.25975949  1
  Y3+  Y55  1  0.50167695  0.75119074  0.75598193  1
  Y3+  Y56  1  0.75007312  -0.00075819  0.25778637  1
  Y3+  Y57  1  0.74938479  0.00144554  0.75102326  1
  Y3+  Y58  1  0.75022612  0.25329619  0.26016267  1
  Y3+  Y59  1  0.75173506  0.24979537  0.75107258  1
  Y3+  Y60  1  0.75153440  0.49987517  0.25950497  1
  Y3+  Y61  1  0.75107859  0.50217607  0.75701788  1
  Y3+  Y62  1  0.75150085  0.74703260  0.25957867  1
  Y3+  Y63  1  0.74913096  0.74709032  0.75649765  1
  Fe3+  Fe64  1  0.12193049  0.87731679  0.87510186  1
  Fe3+  Fe65  1  0.87388983  0.37336127  0.87689653  1
  Fe3+  Fe66  1  0.62783229  0.87677817  0.87400672  1
  Fe3+  Fe67  1  0.87472330  0.12471812  0.37769110  1
  Fe3+  Fe68  1  0.62453992  0.87562638  0.37665059  1
  Fe3+  Fe69  1  0.12217196  0.12415775  0.87708389  1
  Fe3+  Fe70  1  0.37398641  0.37540474  0.37460102  1
  Fe3+  Fe71  1  0.62771634  0.12505414  0.87512635  1
  Fe3+  Fe72  1  0.87451924  0.12386015  0.87401364  1
  Fe3+  Fe73  1  0.37391802  0.62461327  0.38189396  1
  Fe3+  Fe74  1  0.62411075  0.12504617  0.37598453  1
  Fe3+  Fe75  1  0.12243014  0.37318301  0.88077258  1
  Fe3+  Fe76  1  0.62740750  0.37363174  0.87752570  1
  Fe3+  Fe77  1  0.87466692  0.87685585  0.87386082  1
  Fe3+  Fe78  1  0.37590440  0.62658058  0.88026673  1
  Fe3+  Fe79  1  0.12569298  0.37554229  0.37301518  1
  Fe3+  Fe80  1  0.87474337  0.87440020  0.38050541  1
  Fe3+  Fe81  1  0.37605646  0.87511575  0.37810000  1
  Fe3+  Fe82  1  0.37606654  0.37443531  0.88144630  1
  Fe3+  Fe83  1  0.12647298  0.62299211  0.37730296  1
  Fe3+  Fe84  1  0.12634040  0.12570964  0.63699945  1
  Fe3+  Fe85  1  0.37547525  0.37558898  0.13270507  1
  Fe3+  Fe86  1  0.62561010  0.62590091  0.13942145  1
  Fe3+  Fe87  1  0.12388455  0.37473446  0.13296797  1
  Fe3+  Fe88  1  0.62474931  0.37554797  0.63789133  1
  Fe3+  Fe89  1  0.37535154  0.87366030  0.13751102  1
  Fe3+  Fe90  1  0.37558544  0.62633672  0.13349654  1
  Fe3+  Fe91  1  0.37425447  0.12548512  0.63901446  1
  Fe3+  Fe92  1  0.37474135  0.62455786  0.63678652  1
  Fe3+  Fe93  1  0.87489671  0.62454385  0.63662048  1
  Fe3+  Fe94  1  0.12418684  0.62597790  0.13692103  1
  Fe3+  Fe95  1  0.87500654  0.87411159  0.63190207  1
  Cu2+  Cu96  1  0.12557040  0.87440907  0.37298972  1
  Cu2+  Cu97  1  0.37550442  0.12435246  0.87423671  1
  Cu2+  Cu98  1  0.62434121  0.37414614  0.36190037  1
  Cu2+  Cu99  1  0.12409764  0.62581203  0.86420286  1
  Cu2+  Cu100  1  0.62561482  0.62527392  0.86330265  1
  Cu2+  Cu101  1  0.87571515  0.37479766  0.37288564  1
  Cu2+  Cu102  1  0.37563615  0.12478012  0.36199762  1
  Cu2+  Cu103  1  0.87593614  0.62514949  0.36814471  1
  Cu2+  Cu104  1  0.62413354  0.62496071  0.37381493  1
  Cu2+  Cu105  1  0.37523226  0.87503021  0.86346914  1
  Cu2+  Cu106  1  0.12530273  0.12598629  0.36251048  1
  Cu2+  Cu107  1  0.87435901  0.62634328  0.87188862  1
  Cu2+  Cu108  1  0.12474079  0.87629949  0.64163207  1
  Cu2+  Cu109  1  0.12526004  0.37409898  0.65726516  1
  Cu2+  Cu110  1  0.87433849  0.37671524  0.64104009  1
  Cu2+  Cu111  1  0.12507221  0.62470058  0.65394152  1
  Cu2+  Cu112  1  0.87539246  0.12521964  0.64233110  1
  Cu2+  Cu113  1  0.62535533  0.37572659  0.15219119  1
  Cu2+  Cu114  1  0.62570636  0.87485053  0.65064702  1
  Cu2+  Cu115  1  0.87483212  0.12443726  0.15884519  1
  Cu2+  Cu116  1  0.12441351  0.12458294  0.15322439  1
  Cu2+  Cu117  1  0.37529853  0.37502008  0.65608147  1
  Cu2+  Cu118  1  0.87494301  0.62540334  0.14532581  1
  Cu2+  Cu119  1  0.12507402  0.87444073  0.15452626  1
  Cu2+  Cu120  1  0.62574800  0.12444649  0.15470116  1
  Cu2+  Cu121  1  0.87502141  0.87434382  0.15789315  1
  Cu2+  Cu122  1  0.62522966  0.62345123  0.64272179  1
  Cu2+  Cu123  1  0.37480012  0.87511638  0.65131723  1
  Cu2+  Cu124  1  0.87529521  0.37534132  0.15265591  1
  Cu2+  Cu125  1  0.62358945  0.12635377  0.64947010  1
  Cu2+  Cu126  1  0.62502906  0.87391800  0.15384500  1
  Cu2+  Cu127  1  0.37519459  0.12375910  0.14209676  1
  O2-  O128  1  0.11991851  0.12285149  -0.00316028  1
  O2-  O129  1  0.12883015  0.12710176  0.51690320  1
  O2-  O130  1  0.12121098  0.37301796  0.00616901  1
  O2-  O131  1  0.12783145  0.37580262  0.49298785  1
  O2-  O132  1  0.12363510  0.62790619  0.01690412  1
  O2-  O133  1  0.12930112  0.62114224  0.49699817  1
  O2-  O134  1  0.12045103  0.87748624  -0.00513960  1
  O2-  O135  1  0.12617862  0.87514178  0.50638875  1
  O2-  O136  1  0.37572373  0.12366801  0.00825183  1
  O2-  O137  1  0.37414166  0.12635769  0.51913614  1
  O2-  O138  1  0.37695683  0.37484336  0.00670670  1
  O2-  O139  1  0.37209341  0.37641403  0.49404463  1
  O2-  O140  1  0.37668501  0.62749365  0.00811816  1
  O2-  O141  1  0.37259979  0.62283362  0.50779870  1
  O2-  O142  1  0.37520981  0.87339897  0.01758347  1
  O2-  O143  1  0.37649148  0.87445591  0.49789927  1
  O2-  O144  1  0.62975412  0.12385080  -0.00518194  1
  O2-  O145  1  0.62172611  0.12521504  0.49571552  1
  O2-  O146  1  0.62789532  0.37254021  -0.00272568  1
  O2-  O147  1  0.62313512  0.37520914  0.51739366  1
  O2-  O148  1  0.62555225  0.62678773  0.01921930  1
  O2-  O149  1  0.62311748  0.62369227  0.50781019  1
  O2-  O150  1  0.62924190  0.87726665  -0.00635380  1
  O2-  O151  1  0.62312486  0.87631241  0.49620415  1
  O2-  O152  1  0.87371628  0.12285468  -0.00659753  1
  O2-  O153  1  0.87474804  0.12540149  0.49735525  1
  O2-  O154  1  0.87400898  0.37160712  -0.00335445  1
  O2-  O155  1  0.87576739  0.37601479  0.50639930  1
  O2-  O156  1  0.87409070  0.62676784  0.00804462  1
  O2-  O157  1  0.87559787  0.62401645  0.51646589  1
  O2-  O158  1  0.87452431  0.87837860  -0.00659029  1
  O2-  O159  1  0.87479574  0.87371507  0.50572322  1
  O2-  O160  1  0.12435104  -0.00070204  0.16665234  1
  O2-  O161  1  0.12550741  0.00245441  0.66309997  1
  O2-  O162  1  0.12570276  0.25167070  0.16142054  1
  O2-  O163  1  0.12597476  0.24962448  0.66744431  1
  O2-  O164  1  0.12619504  0.49892610  0.16007602  1
  O2-  O165  1  0.12644253  0.49859317  0.66976880  1
  O2-  O166  1  0.12548928  0.74937580  0.16847406  1
  O2-  O167  1  0.12525240  0.74966516  0.66434669  1
  O2-  O168  1  0.37532072  -0.00289224  0.16705645  1
  O2-  O169  1  0.37518553  0.00015604  0.66558475  1
  O2-  O170  1  0.37467983  0.25301989  0.16230792  1
  O2-  O171  1  0.37481340  0.25020964  0.66864485  1
  O2-  O172  1  0.37469562  0.50087436  0.16054858  1
  O2-  O173  1  0.37327348  0.50129545  0.66893857  1
  O2-  O174  1  0.37472740  0.74807197  0.16916521  1
  O2-  O175  1  0.37454493  0.74863836  0.66307121  1
  O2-  O176  1  0.62512535  -0.00103883  0.16382690  1
  O2-  O177  1  0.62498907  0.00072719  0.65950864  1
  O2-  O178  1  0.62504664  0.25030653  0.16405034  1
  O2-  O179  1  0.62297100  0.25096925  0.66481329  1
  O2-  O180  1  0.62437582  0.50109276  0.16655962  1
  O2-  O181  1  0.62387870  0.49822031  0.67044457  1
  O2-  O182  1  0.62483364  0.74916803  0.16889287  1
  O2-  O183  1  0.62407880  0.75046523  0.66457502  1
  O2-  O184  1  0.87529724  -0.00068051  0.16771513  1
  O2-  O185  1  0.87413629  -0.00154857  0.65714724  1
  O2-  O186  1  0.87511164  0.24976003  0.16486971  1
  O2-  O187  1  0.87551310  0.24954907  0.66094282  1
  O2-  O188  1  0.87482760  0.49902441  0.16519827  1
  O2-  O189  1  0.87592036  0.50223913  0.67012772  1
  O2-  O190  1  0.87529667  0.75109763  0.16836993  1
  O2-  O191  1  0.87553247  0.75040663  0.66498696  1
  O2-  O192  1  -0.00040714  0.12504193  0.16654685  1
  O2-  O193  1  0.00081976  0.12582388  0.66073905  1
  O2-  O194  1  0.00164591  0.37469514  0.16347337  1
  O2-  O195  1  0.00121359  0.37548285  0.66295011  1
  O2-  O196  1  0.00161681  0.62513882  0.16760054  1
  O2-  O197  1  0.00057237  0.62443684  0.66425241  1
  O2-  O198  1  0.00032603  0.87434117  0.16792346  1
  O2-  O199  1  -0.00305199  0.87536702  0.65905656  1
  O2-  O200  1  0.24849900  0.12393100  0.16423173  1
  O2-  O201  1  0.25057743  0.12607940  0.67281317  1
  O2-  O202  1  0.25005353  0.37617549  0.15557594  1
  O2-  O203  1  0.25033498  0.37562061  0.67209484  1
  O2-  O204  1  0.25136341  0.62450403  0.16244778  1
  O2-  O205  1  0.25099472  0.62449094  0.66813136  1
  O2-  O206  1  0.25020644  0.87423561  0.16531173  1
  O2-  O207  1  0.25052044  0.87439065  0.66829594  1
  O2-  O208  1  0.50203563  0.12520401  0.16271673  1
  O2-  O209  1  0.49851176  0.12501864  0.66841345  1
  O2-  O210  1  0.49817327  0.37610104  0.16204369  1
  O2-  O211  1  0.50000551  0.37604416  0.66881468  1
  O2-  O212  1  0.49849427  0.62471400  0.16742852  1
  O2-  O213  1  0.49668080  0.62452945  0.66560711  1
  O2-  O214  1  0.50007251  0.87298817  0.16433799  1
  O2-  O215  1  0.50086060  0.87461706  0.66558220  1
  O2-  O216  1  0.75014233  0.12426696  0.16686912  1
  O2-  O217  1  0.74927605  0.12632861  0.65702543  1
  O2-  O218  1  0.75053348  0.37523195  0.16666128  1
  O2-  O219  1  0.74825549  0.37488272  0.66368363  1
  O2-  O220  1  0.74882371  0.62510540  0.16878112  1
  O2-  O221  1  0.75161093  0.62540451  0.66545501  1
  O2-  O222  1  0.74982334  0.87462659  0.16691552  1
  O2-  O223  1  0.75153237  0.87431148  0.65795340  1
  O2-  O224  1  0.12598402  0.00143820  0.35099172  1
  O2-  O225  1  0.12398913  0.00046922  0.84114513  1
  O2-  O226  1  0.12613112  0.25075687  0.34437842  1
  O2-  O227  1  0.12533363  0.25106481  0.84871446  1
  O2-  O228  1  0.12633795  0.50004062  0.33933903  1
  O2-  O229  1  0.12475823  0.49787806  0.85470688  1
  O2-  O230  1  0.12593864  0.74702027  0.34941451  1
  O2-  O231  1  0.12515633  0.75164810  0.84725952  1
  O2-  O232  1  0.37494812  0.00012571  0.34899593  1
  O2-  O233  1  0.37532313  -0.00136680  0.84788372  1
  O2-  O234  1  0.37476674  0.24992434  0.34609182  1
  O2-  O235  1  0.37453386  0.25355501  0.85074309  1
  O2-  O236  1  0.37460772  0.50127928  0.34344613  1
  O2-  O237  1  0.37470814  0.50021570  0.85414675  1
  O2-  O238  1  0.37490284  0.74828989  0.35044157  1
  O2-  O239  1  0.37480184  0.74834685  0.84877170  1
  O2-  O240  1  0.62476880  -0.00017614  0.34448579  1
  O2-  O241  1  0.62543373  0.00064728  0.84069902  1
  O2-  O242  1  0.62394595  0.24959175  0.34695263  1
  O2-  O243  1  0.62516013  0.25007492  0.84363828  1
  O2-  O244  1  0.62396538  0.49825059  0.34958218  1
  O2-  O245  1  0.62417947  0.49965570  0.85143193  1
  O2-  O246  1  0.62431466  0.75168585  0.34902571  1
  O2-  O247  1  0.62485042  0.75054824  0.84739501  1
  O2-  O248  1  0.87471861  -0.00145226  0.34990477  1
  O2-  O249  1  0.87500679  0.00067448  0.83696610  1
  O2-  O250  1  0.87519652  0.24811856  0.34746747  1
  O2-  O251  1  0.87479166  0.24955082  0.84155653  1
  O2-  O252  1  0.87481729  0.50117206  0.34872471  1
  O2-  O253  1  0.87540372  0.49840257  0.85156858  1
  O2-  O254  1  0.87525767  0.75131444  0.35161807  1
  O2-  O255  1  0.87470308  0.75214540  0.84667022  1
  O2-  O256  1  -0.00045748  0.12457410  0.34940599  1
  O2-  O257  1  -0.00088331  0.12578078  0.83980400  1
  O2-  O258  1  0.00225432  0.37531964  0.34566750  1
  O2-  O259  1  0.00027634  0.37457187  0.84589625  1
  O2-  O260  1  0.00128309  0.62422256  0.34948867  1
  O2-  O261  1  0.00082621  0.62521164  0.84691341  1
  O2-  O262  1  -0.00238073  0.87482449  0.35194531  1
  O2-  O263  1  -0.00100495  0.87518907  0.83887172  1
  O2-  O264  1  0.25044819  0.12542790  0.34831851  1
  O2-  O265  1  0.24761919  0.12502509  0.85302488  1
  O2-  O266  1  0.25057449  0.37454218  0.33694789  1
  O2-  O267  1  0.24943978  0.37619048  0.85651922  1
  O2-  O268  1  0.25208685  0.62415725  0.34309643  1
  O2-  O269  1  0.25153676  0.62481698  0.85381296  1
  O2-  O270  1  0.25266661  0.87484136  0.34688325  1
  O2-  O271  1  0.24890015  0.87505647  0.85082006  1
  O2-  O272  1  0.50058675  0.12554273  0.34429678  1
  O2-  O273  1  0.50229413  0.12521028  0.84982761  1
  O2-  O274  1  0.49857200  0.37514932  0.34543568  1
  O2-  O275  1  0.49964806  0.37608709  0.85055331  1
  O2-  O276  1  0.49579950  0.62385390  0.35016807  1
  O2-  O277  1  0.49848424  0.62525751  0.85070940  1
  O2-  O278  1  0.49954600  0.87487649  0.34380040  1
  O2-  O279  1  0.50123500  0.87432373  0.84910417  1
  O2-  O280  1  0.74943726  0.12485029  0.34772121  1
  O2-  O281  1  0.75076407  0.12488404  0.83753681  1
  O2-  O282  1  0.74840563  0.37514847  0.35111177  1
  O2-  O283  1  0.75034351  0.37528419  0.84236992  1
  O2-  O284  1  0.75118429  0.62493720  0.35181179  1
  O2-  O285  1  0.74864587  0.62512981  0.84691647  1
  O2-  O286  1  0.75077520  0.87440461  0.34962560  1
  O2-  O287  1  0.75061599  0.87543363  0.83823973  1
