# generated using pymatgen
data_BaYFeCuO5
_symmetry_space_group_name_H-M   'P 1'
_cell_length_a   15.66983264
_cell_length_b   15.66788219
_cell_length_c   15.48002806
_cell_angle_alpha   89.99458708
_cell_angle_beta   89.99420446
_cell_angle_gamma   89.99724992
_symmetry_Int_Tables_number   1
_chemical_formula_structural   BaYFeCuO5
_chemical_formula_sum   'Ba32 Y32 Fe32 Cu32 O160'
_cell_volume   3800.54950676
_cell_formula_units_Z   32
loop_
 _symmetry_equiv_pos_site_id
 _symmetry_equiv_pos_as_xyz
  1  'x, y, z'
loop_
 _atom_type_symbol
 _atom_type_oxidation_number
  Ba2+  2.0
  Y3+  3.0
  Fe3+  3.0
  Cu2+  2.0
  O2-  -2.0
loop_
 _atom_site_type_symbol
 _atom_site_label
 _atom_site_symmetry_multiplicity
 _atom_site_fract_x
 _atom_site_fract_y
 _atom_site_fract_z
 _atom_site_occupancy
  Ba2+  Ba0  1  -0.00148954  0.00096509  0.01298580  1
  Ba2+  Ba1  1  0.00139967  0.00752081  0.50659857  1
  Ba2+  Ba2  1  -0.00172577  0.23883704  0.00116014  1
  Ba2+  Ba3  1  -0.00591439  0.25121876  0.50691229  1
  Ba2+  Ba4  1  0.00524415  0.50503217  0.01191152  1
  Ba2+  Ba5  1  -0.00486981  0.49832842  0.51630167  1
  Ba2+  Ba6  1  0.00476016  0.75573561  0.02368430  1
  Ba2+  Ba7  1  0.00152612  0.74293396  0.51448980  1
  Ba2+  Ba8  1  0.24364718  -0.00514837  0.01242630  1
  Ba2+  Ba9  1  0.25120462  0.00144545  0.49584323  1
  Ba2+  Ba10  1  0.24939272  0.25000903  0.00706603  1
  Ba2+  Ba11  1  0.25278081  0.25223906  0.50098136  1
  Ba2+  Ba12  1  0.25454599  0.50467437  0.01029651  1
  Ba2+  Ba13  1  0.25193410  0.49752009  0.52098342  1
  Ba2+  Ba14  1  0.24883643  0.75068764  0.01873490  1
  Ba2+  Ba15  1  0.24976144  0.74907226  0.51661367  1
  Ba2+  Ba16  1  0.49531997  -0.00505428  0.01164208  1
  Ba2+  Ba17  1  0.49991034  0.00118660  0.50659175  1
  Ba2+  Ba18  1  0.50006056  0.26011955  0.01831110  1
  Ba2+  Ba19  1  0.50136112  0.25639923  0.50655568  1
  Ba2+  Ba20  1  0.50174674  0.50301833  0.01247361  1
  Ba2+  Ba21  1  0.50119908  0.49537582  0.51607363  1
  Ba2+  Ba22  1  0.49841264  0.74174861  0.00468592  1
  Ba2+  Ba23  1  0.50020366  0.74893068  0.51750618  1
  Ba2+  Ba24  1  0.76150135  0.00135440  0.01124476  1
  Ba2+  Ba25  1  0.74717134  0.00715868  0.51811217  1
  Ba2+  Ba26  1  0.75305370  0.24750280  0.01161871  1
  Ba2+  Ba27  1  0.75152695  0.25398224  0.51151919  1
  Ba2+  Ba28  1  0.73925596  0.50193290  0.01174418  1
  Ba2+  Ba29  1  0.75183733  0.49570089  0.51039665  1
  Ba2+  Ba30  1  0.74761617  0.74726717  0.01080417  1
  Ba2+  Ba31  1  0.74794876  0.74273762  0.51679927  1
  Y3+  Y32  1  -0.00209581  0.00188425  0.25903694  1
  Y3+  Y33  1  -0.00094174  0.00307668  0.75648809  1
  Y3+  Y34  1  -0.00322867  0.24801972  0.26096691  1
  Y3+  Y35  1  -0.00245347  0.24857261  0.75559926  1
  Y3+  Y36  1  -0.00265433  0.50058010  0.26022895  1
  Y3+  Y37  1  -0.00059351  0.49929365  0.75331464  1
  Y3+  Y38  1  -0.00077728  0.75000553  0.25961748  1
  Y3+  Y39  1  0.00057911  0.74881085  0.75125087  1
  Y3+  Y40  1  0.25122507  -0.00068822  0.25859244  1
  Y3+  Y41  1  0.24736892  -0.00011617  0.75757878  1
  Y3+  Y42  1  0.25190186  0.25071807  0.25996732  1
  Y3+  Y43  1  0.24949021  0.25169322  0.75660254  1
  Y3+  Y44  1  0.25164233  0.49863920  0.25714253  1
  Y3+  Y45  1  0.25131744  0.50014947  0.75496649  1
  Y3+  Y46  1  0.25041518  0.75181104  0.25787798  1
  Y3+  Y47  1  0.25004451  0.74769768  0.75473198  1
  Y3+  Y48  1  0.49780295  -0.00138997  0.25797195  1
  Y3+  Y49  1  0.50219960  -0.00039073  0.75712142  1
  Y3+  Y50  1  0.49972827  0.25479365  0.26077989  1
  Y3+  Y51  1  0.50165143  0.25244642  0.75371770  1
  Y3+  Y52  1  0.50177239  0.49719243  0.25813552  1
  Y3+  Y53  1  0.50069657  0.50113522  0.75550176  1
  Y3+  Y54  1  0.49945022  0.74977495  0.25560645  1
  Y3+  Y55  1  0.50116876  0.74568356  0.75745229  1
  Y3+  Y56  1  0.75364520  0.00166644  0.25659218  1
  Y3+  Y57  1  0.75109984  0.00241953  0.75680870  1
  Y3+  Y58  1  0.75170641  0.25185086  0.26068652  1
  Y3+  Y59  1  0.75161873  0.24946109  0.75440124  1
  Y3+  Y60  1  0.74898814  0.49904056  0.26000051  1
  Y3+  Y61  1  0.74867809  0.50006774  0.75388457  1
  Y3+  Y62  1  0.75067136  0.74794958  0.25687033  1
  Y3+  Y63  1  0.74805710  0.74710385  0.75611617  1
  Fe3+  Fe64  1  0.62547221  0.87455784  0.37655565  1
  Fe3+  Fe65  1  0.12373568  0.87426296  0.87403322  1
  Fe3+  Fe66  1  0.12575379  0.62374347  0.37696944  1
  Fe3+  Fe67  1  0.37527890  0.62475149  0.37829218  1
  Fe3+  Fe68  1  0.62570766  0.87461583  0.87912620  1
  Fe3+  Fe69  1  0.62542761  0.37496134  0.87620356  1
  Fe3+  Fe70  1  0.12443955  0.37493409  0.87947350  1
  Fe3+  Fe71  1  0.87361474  0.87462476  0.38038828  1
  Fe3+  Fe72  1  0.37399611  0.87352723  0.87763971  1
  Fe3+  Fe73  1  0.87609256  0.87355554  0.87520365  1
  Fe3+  Fe74  1  0.12438683  0.37575137  0.37709058  1
  Fe3+  Fe75  1  0.12490368  0.62607267  0.87554909  1
  Fe3+  Fe76  1  0.12461167  0.87463167  0.37798742  1
  Fe3+  Fe77  1  0.87488715  0.37571684  0.88007640  1
  Fe3+  Fe78  1  0.87569780  0.62516490  0.87885268  1
  Fe3+  Fe79  1  0.62506337  0.12548902  0.37492893  1
  Fe3+  Fe80  1  0.37557136  0.37602739  0.87675411  1
  Fe3+  Fe81  1  0.62434058  0.62476280  0.37672966  1
  Fe3+  Fe82  1  0.37501107  0.12504409  0.88120676  1
  Fe3+  Fe83  1  0.62453123  0.12548300  0.88058459  1
  Fe3+  Fe84  1  0.12449822  0.37466798  0.13462993  1
  Fe3+  Fe85  1  0.87490135  0.87535963  0.63411608  1
  Fe3+  Fe86  1  0.37521178  0.12536225  0.63863362  1
  Fe3+  Fe87  1  0.37503450  0.12562413  0.13622507  1
  Fe3+  Fe88  1  0.37508536  0.62481730  0.13927987  1
  Fe3+  Fe89  1  0.62522998  0.12539074  0.13468943  1
  Fe3+  Fe90  1  0.37476026  0.87614183  0.63825738  1
  Fe3+  Fe91  1  0.87566655  0.37485723  0.13431583  1
  Fe3+  Fe92  1  0.12612326  0.12583142  0.63793683  1
  Fe3+  Fe93  1  0.62556697  0.87490160  0.13392961  1
  Fe3+  Fe94  1  0.87485880  0.62476622  0.13498508  1
  Fe3+  Fe95  1  0.12475492  0.12564224  0.14022532  1
  Cu2+  Cu96  1  0.87345187  0.12478684  0.37430322  1
  Cu2+  Cu97  1  0.37502047  0.37716653  0.37330680  1
  Cu2+  Cu98  1  0.62570150  0.37562644  0.37184821  1
  Cu2+  Cu99  1  0.12541502  0.12472451  0.86434112  1
  Cu2+  Cu100  1  0.37575192  0.87364459  0.36510802  1
  Cu2+  Cu101  1  0.87503506  0.37576253  0.37068799  1
  Cu2+  Cu102  1  0.62532756  0.62392396  0.87205280  1
  Cu2+  Cu103  1  0.12522492  0.12559789  0.36338638  1
  Cu2+  Cu104  1  0.37427401  0.62462695  0.86210756  1
  Cu2+  Cu105  1  0.87435315  0.62520371  0.37336766  1
  Cu2+  Cu106  1  0.87439542  0.12449208  0.87155150  1
  Cu2+  Cu107  1  0.37642245  0.12554320  0.36198107  1
  Cu2+  Cu108  1  0.87477472  0.37453555  0.64428279  1
  Cu2+  Cu109  1  0.87542660  0.12605801  0.14347099  1
  Cu2+  Cu110  1  0.37518106  0.87503049  0.14928455  1
  Cu2+  Cu111  1  0.37441852  0.37518613  0.15077264  1
  Cu2+  Cu112  1  0.62479784  0.62499115  0.14247768  1
  Cu2+  Cu113  1  0.62477431  0.62397100  0.65008203  1
  Cu2+  Cu114  1  0.12536975  0.62383157  0.64876888  1
  Cu2+  Cu115  1  0.87473362  0.87475448  0.15234585  1
  Cu2+  Cu116  1  0.62503499  0.87503859  0.65135940  1
  Cu2+  Cu117  1  0.37526708  0.37392967  0.64306861  1
  Cu2+  Cu118  1  0.12451535  0.87616428  0.15696127  1
  Cu2+  Cu119  1  0.62435244  0.12557289  0.65217894  1
  Cu2+  Cu120  1  0.12475743  0.37359874  0.65042631  1
  Cu2+  Cu121  1  0.87500033  0.12535065  0.64212494  1
  Cu2+  Cu122  1  0.62568799  0.37463042  0.64225763  1
  Cu2+  Cu123  1  0.62634104  0.37458286  0.15185776  1
  Cu2+  Cu124  1  0.12500247  0.87630866  0.64519819  1
  Cu2+  Cu125  1  0.37549226  0.62462306  0.64864654  1
  Cu2+  Cu126  1  0.12501769  0.62472887  0.15228842  1
  Cu2+  Cu127  1  0.87429801  0.62419984  0.64212488  1
  O2-  O128  1  0.12539423  0.12414592  0.01956756  1
  O2-  O129  1  0.12827843  0.12602362  0.51780768  1
  O2-  O130  1  0.12469425  0.37478319  0.00677322  1
  O2-  O131  1  0.12482389  0.37630098  0.49734913  1
  O2-  O132  1  0.12457914  0.62812407  -0.00412925  1
  O2-  O133  1  0.12652677  0.62314181  0.49706171  1
  O2-  O134  1  0.12364938  0.87392789  -0.00589460  1
  O2-  O135  1  0.12610875  0.87441831  0.49810616  1
  O2-  O136  1  0.37456418  0.12513268  0.00852850  1
  O2-  O137  1  0.37477595  0.12402452  0.51857997  1
  O2-  O138  1  0.37490895  0.37616557  -0.00282323  1
  O2-  O139  1  0.37425994  0.37505426  0.50717661  1
  O2-  O140  1  0.37389097  0.62553360  0.01780795  1
  O2-  O141  1  0.37516781  0.62545257  0.49868418  1
  O2-  O142  1  0.37278908  0.87380955  -0.00198141  1
  O2-  O143  1  0.37551333  0.87688217  0.51787620  1
  O2-  O144  1  0.62435825  0.12517948  0.00695756  1
  O2-  O145  1  0.62355028  0.12406540  0.49540428  1
  O2-  O146  1  0.62447195  0.37478109  -0.00326884  1
  O2-  O147  1  0.62555349  0.37480313  0.50733446  1
  O2-  O148  1  0.62481879  0.62577166  0.00674606  1
  O2-  O149  1  0.62360827  0.62613881  0.49714936  1
  O2-  O150  1  0.62552205  0.87500523  0.00573455  1
  O2-  O151  1  0.62479043  0.87514003  0.49637139  1
  O2-  O152  1  0.87559745  0.12443712  0.00730297  1
  O2-  O153  1  0.87368543  0.12428747  0.50736437  1
  O2-  O154  1  0.87557449  0.37568163  0.00713413  1
  O2-  O155  1  0.87549299  0.37508108  0.50805672  1
  O2-  O156  1  0.87669635  0.62621497  0.00645629  1
  O2-  O157  1  0.87434711  0.62533087  0.50684852  1
  O2-  O158  1  0.87759286  0.87332056  -0.00462993  1
  O2-  O159  1  0.87314338  0.87514906  0.50631467  1
  O2-  O160  1  0.12491707  0.00088590  0.16754906  1
  O2-  O161  1  0.12520176  0.00139324  0.66752527  1
  O2-  O162  1  0.12556724  0.25142630  0.16536297  1
  O2-  O163  1  0.12523830  0.24892963  0.67093040  1
  O2-  O164  1  0.12435322  0.49797956  0.15878876  1
  O2-  O165  1  0.12499547  0.49902100  0.66643235  1
  O2-  O166  1  0.12489386  0.75113293  0.16407101  1
  O2-  O167  1  0.12498718  0.74973837  0.65984811  1
  O2-  O168  1  0.37539304  0.00178609  0.16350855  1
  O2-  O169  1  0.37559359  0.00044795  0.67218151  1
  O2-  O170  1  0.37480078  0.24904440  0.16377275  1
  O2-  O171  1  0.37516350  0.24797325  0.66989417  1
  O2-  O172  1  0.37476088  0.49981686  0.16397692  1
  O2-  O173  1  0.37477297  0.50083216  0.66460471  1
  O2-  O174  1  0.37413758  0.74984669  0.16535957  1
  O2-  O175  1  0.37565867  0.75042543  0.66447564  1
  O2-  O176  1  0.62390290  0.00031880  0.15948888  1
  O2-  O177  1  0.62515793  0.00060738  0.66783655  1
  O2-  O178  1  0.62536389  0.24830787  0.16250606  1
  O2-  O179  1  0.62517407  0.24862231  0.66759881  1
  O2-  O180  1  0.62492708  0.49848873  0.16381713  1
  O2-  O181  1  0.62503981  0.50091502  0.66491972  1
  O2-  O182  1  0.62641042  0.75312150  0.16184813  1
  O2-  O183  1  0.62493881  0.74906412  0.66532496  1
  O2-  O184  1  0.87573682  -0.00097355  0.16564753  1
  O2-  O185  1  0.87419693  -0.00245787  0.66386114  1
  O2-  O186  1  0.87484025  0.25344019  0.16476203  1
  O2-  O187  1  0.87498446  0.24946589  0.66772535  1
  O2-  O188  1  0.87650014  0.49987962  0.16061499  1
  O2-  O189  1  0.87521532  0.49987103  0.66788767  1
  O2-  O190  1  0.87461764  0.74841693  0.16324104  1
  O2-  O191  1  0.87443656  0.75243809  0.66223034  1
  O2-  O192  1  0.00137942  0.12554307  0.16860024  1
  O2-  O193  1  0.00160288  0.12509675  0.66559771  1
  O2-  O194  1  -0.00009336  0.37544617  0.16192449  1
  O2-  O195  1  0.00100180  0.37451465  0.66807438  1
  O2-  O196  1  -0.00139218  0.62561047  0.16308526  1
  O2-  O197  1  0.00137417  0.62422398  0.66393064  1
  O2-  O198  1  -0.00062269  0.87478023  0.16679102  1
  O2-  O199  1  -0.00148814  0.87489783  0.65931932  1
  O2-  O200  1  0.25144247  0.12500243  0.16551569  1
  O2-  O201  1  0.25058848  0.12520152  0.67251780  1
  O2-  O202  1  0.24772674  0.37503019  0.16190724  1
  O2-  O203  1  0.24901610  0.37443052  0.66725016  1
  O2-  O204  1  0.24992988  0.62496196  0.16542822  1
  O2-  O205  1  0.24978025  0.62460792  0.66378533  1
  O2-  O206  1  0.24964402  0.87610222  0.16454012  1
  O2-  O207  1  0.25059540  0.87507257  0.66650358  1
  O2-  O208  1  0.49975157  0.12521320  0.15905655  1
  O2-  O209  1  0.49957582  0.12417515  0.66936218  1
  O2-  O210  1  0.50052096  0.37432765  0.16384767  1
  O2-  O211  1  0.50019489  0.37453613  0.66449115  1
  O2-  O212  1  0.49856393  0.62556157  0.16488583  1
  O2-  O213  1  0.50057489  0.62497882  0.66522497  1
  O2-  O214  1  0.50218844  0.87543333  0.16175586  1
  O2-  O215  1  0.49977401  0.87526683  0.66862937  1
  O2-  O216  1  0.74753755  0.12406016  0.16082955  1
  O2-  O217  1  0.74846334  0.12457145  0.66594379  1
  O2-  O218  1  0.75261947  0.37585422  0.16218716  1
  O2-  O219  1  0.74999921  0.37455348  0.66721140  1
  O2-  O220  1  0.75292348  0.62438520  0.16172430  1
  O2-  O221  1  0.74835900  0.62507817  0.66690164  1
  O2-  O222  1  0.74869284  0.87653886  0.16097346  1
  O2-  O223  1  0.75075754  0.87491341  0.66407099  1
  O2-  O224  1  0.12573289  0.00008988  0.35028654  1
  O2-  O225  1  0.12473992  -0.00058653  0.84870265  1
  O2-  O226  1  0.12501585  0.24988119  0.34758309  1
  O2-  O227  1  0.12541705  0.25143161  0.85461752  1
  O2-  O228  1  0.12493801  0.50019323  0.34107054  1
  O2-  O229  1  0.12402568  0.49891278  0.85060820  1
  O2-  O230  1  0.12476604  0.75006411  0.34616613  1
  O2-  O231  1  0.12448639  0.74985306  0.84096041  1
  O2-  O232  1  0.37565626  -0.00015250  0.34891871  1
  O2-  O233  1  0.37562293  0.00046316  0.85258890  1
  O2-  O234  1  0.37551913  0.24967305  0.34863204  1
  O2-  O235  1  0.37454643  0.24921028  0.85146811  1
  O2-  O236  1  0.37451655  0.50275598  0.34499318  1
  O2-  O237  1  0.37439737  0.49938325  0.84776402  1
  O2-  O238  1  0.37533825  0.74863910  0.34661235  1
  O2-  O239  1  0.37511792  0.75026466  0.84670574  1
  O2-  O240  1  0.62456741  -0.00080055  0.34200455  1
  O2-  O241  1  0.62447917  -0.00011812  0.85237016  1
  O2-  O242  1  0.62461574  0.24928533  0.34618566  1
  O2-  O243  1  0.62461573  0.24906971  0.84977797  1
  O2-  O244  1  0.62547353  0.50163159  0.34665477  1
  O2-  O245  1  0.62548208  0.49766499  0.84711748  1
  O2-  O246  1  0.62473369  0.75037775  0.34282952  1
  O2-  O247  1  0.62522873  0.75245356  0.85001133  1
  O2-  O248  1  0.87419995  -0.00316824  0.34931154  1
  O2-  O249  1  0.87465060  -0.00220886  0.84657314  1
  O2-  O250  1  0.87491584  0.25027776  0.34888761  1
  O2-  O251  1  0.87503610  0.25288300  0.85208253  1
  O2-  O252  1  0.87463700  0.50014323  0.34532881  1
  O2-  O253  1  0.87621733  0.49989934  0.85225141  1
  O2-  O254  1  0.87487533  0.75336311  0.34753217  1
  O2-  O255  1  0.87505659  0.74847446  0.84461062  1
  O2-  O256  1  0.00047770  0.12459509  0.35120671  1
  O2-  O257  1  0.00123388  0.12492358  0.84872805  1
  O2-  O258  1  0.00149202  0.37522814  0.34481573  1
  O2-  O259  1  -0.00016946  0.37469532  0.85262905  1
  O2-  O260  1  0.00218549  0.62521470  0.34636479  1
  O2-  O261  1  -0.00078313  0.62476407  0.84639712  1
  O2-  O262  1  -0.00110500  0.87548962  0.35067801  1
  O2-  O263  1  -0.00001058  0.87453459  0.84059936  1
  O2-  O264  1  0.25157667  0.12541425  0.34898748  1
  O2-  O265  1  0.25205342  0.12450632  0.85410830  1
  O2-  O266  1  0.24782998  0.37458929  0.34508756  1
  O2-  O267  1  0.24886261  0.37505104  0.85018100  1
  O2-  O268  1  0.24998982  0.62555800  0.34542203  1
  O2-  O269  1  0.24865006  0.62444057  0.84663531  1
  O2-  O270  1  0.24962126  0.87554744  0.34838660  1
  O2-  O271  1  0.24945174  0.87505467  0.84620846  1
  O2-  O272  1  0.50087289  0.12417533  0.34276579  1
  O2-  O273  1  0.49994399  0.12419079  0.85257457  1
  O2-  O274  1  0.50033428  0.37563907  0.34896026  1
  O2-  O275  1  0.49999516  0.37454324  0.84567361  1
  O2-  O276  1  0.50011949  0.62564261  0.34471060  1
  O2-  O277  1  0.49853194  0.62473758  0.84968638  1
  O2-  O278  1  0.50076589  0.87522240  0.34541027  1
  O2-  O279  1  0.50112021  0.87527565  0.85189975  1
  O2-  O280  1  0.74777964  0.12464163  0.34305335  1
  O2-  O281  1  0.74634251  0.12434379  0.85027952  1
  O2-  O282  1  0.75034605  0.37517644  0.34684101  1
  O2-  O283  1  0.75139712  0.37499939  0.84986196  1
  O2-  O284  1  0.74755373  0.62609807  0.34444570  1
  O2-  O285  1  0.75361902  0.62489222  0.85058121  1
  O2-  O286  1  0.75047792  0.87467192  0.34433938  1
  O2-  O287  1  0.74906653  0.87474203  0.84847825  1
