# generated using pymatgen
data_BaYFeCuO5
_symmetry_space_group_name_H-M   'P 1'
_cell_length_a   15.66460043
_cell_length_b   15.66468291
_cell_length_c   15.46928603
_cell_angle_alpha   89.99998155
_cell_angle_beta   89.99384455
_cell_angle_gamma   90.00189816
_symmetry_Int_Tables_number   1
_chemical_formula_structural   BaYFeCuO5
_chemical_formula_sum   'Ba32 Y32 Fe32 Cu32 O160'
_cell_volume   3795.86882996
_cell_formula_units_Z   32
loop_
 _symmetry_equiv_pos_site_id
 _symmetry_equiv_pos_as_xyz
  1  'x, y, z'
loop_
 _atom_type_symbol
 _atom_type_oxidation_number
  Ba2+  2.0
  Y3+  3.0
  Fe3+  3.0
  Cu2+  2.0
  O2-  -2.0
loop_
 _atom_site_type_symbol
 _atom_site_label
 _atom_site_symmetry_multiplicity
 _atom_site_fract_x
 _atom_site_fract_y
 _atom_site_fract_z
 _atom_site_occupancy
  Ba2+  Ba0  1  0.00661505  -0.00553445  0.01474791  1
  Ba2+  Ba1  1  0.00556892  -0.00411973  0.51216871  1
  Ba2+  Ba2  1  0.01153396  0.25107356  0.01019847  1
  Ba2+  Ba3  1  0.00980010  0.24941686  0.51772304  1
  Ba2+  Ba4  1  0.00293599  0.49839505  0.01031322  1
  Ba2+  Ba5  1  0.01057177  0.50120607  0.51848756  1
  Ba2+  Ba6  1  -0.00246511  0.75581127  0.01648702  1
  Ba2+  Ba7  1  0.00646682  0.75336500  0.51317481  1
  Ba2+  Ba8  1  0.25034416  -0.00097414  0.01286288  1
  Ba2+  Ba9  1  0.24829690  -0.00669833  0.51710443  1
  Ba2+  Ba10  1  0.25142519  0.25042274  0.02060659  1
  Ba2+  Ba11  1  0.24945964  0.25701665  0.51586775  1
  Ba2+  Ba12  1  0.25440451  0.49380859  0.01567785  1
  Ba2+  Ba13  1  0.25499541  0.50149743  0.51587396  1
  Ba2+  Ba14  1  0.25365940  0.75726027  0.00565458  1
  Ba2+  Ba15  1  0.25371176  0.74856643  0.51709309  1
  Ba2+  Ba16  1  0.50128165  0.00160307  -0.00087322  1
  Ba2+  Ba17  1  0.49817064  -0.00056938  0.50710204  1
  Ba2+  Ba18  1  0.49944906  0.24792362  0.02407864  1
  Ba2+  Ba19  1  0.50116798  0.25472924  0.50166505  1
  Ba2+  Ba20  1  0.50149115  0.50171807  0.02328702  1
  Ba2+  Ba21  1  0.49200966  0.50008659  0.50612260  1
  Ba2+  Ba22  1  0.50311635  0.74873503  -0.00093354  1
  Ba2+  Ba23  1  0.49004079  0.74619035  0.51083725  1
  Ba2+  Ba24  1  0.74135526  -0.00253857  0.00680081  1
  Ba2+  Ba25  1  0.74788427  0.00244180  0.50227404  1
  Ba2+  Ba26  1  0.73681137  0.24737449  0.01209283  1
  Ba2+  Ba27  1  0.73986776  0.24790658  0.50191164  1
  Ba2+  Ba28  1  0.74146977  0.50663315  0.01620584  1
  Ba2+  Ba29  1  0.74119660  0.49983091  0.50615098  1
  Ba2+  Ba30  1  0.74560591  0.74791332  0.01348721  1
  Ba2+  Ba31  1  0.75085791  0.75030816  0.50635896  1
  Y3+  Y32  1  0.00032905  -0.00272010  0.25471357  1
  Y3+  Y33  1  0.00271521  -0.00082714  0.75864614  1
  Y3+  Y34  1  0.00191471  0.25005036  0.25309477  1
  Y3+  Y35  1  0.00282293  0.25102056  0.75900958  1
  Y3+  Y36  1  0.00042031  0.50055527  0.25238735  1
  Y3+  Y37  1  0.00311341  0.49893609  0.76006309  1
  Y3+  Y38  1  -0.00141838  0.75207224  0.25461225  1
  Y3+  Y39  1  0.00304591  0.75099483  0.75944363  1
  Y3+  Y40  1  0.25052144  -0.00077443  0.25583396  1
  Y3+  Y41  1  0.25037525  -0.00370678  0.75799838  1
  Y3+  Y42  1  0.25189795  0.25129768  0.25525486  1
  Y3+  Y43  1  0.24966369  0.25271919  0.75590284  1
  Y3+  Y44  1  0.25434014  0.49929900  0.25673528  1
  Y3+  Y45  1  0.25111668  0.49920978  0.75551434  1
  Y3+  Y46  1  0.25300018  0.75023828  0.25739164  1
  Y3+  Y47  1  0.25160716  0.75143042  0.75676506  1
  Y3+  Y48  1  0.49958887  0.00254233  0.26097216  1
  Y3+  Y49  1  0.50064307  -0.00046736  0.75547054  1
  Y3+  Y50  1  0.50043702  0.25058047  0.26075940  1
  Y3+  Y51  1  0.50046273  0.24860334  0.75381879  1
  Y3+  Y52  1  0.49746767  0.49962744  0.26029666  1
  Y3+  Y53  1  0.49908104  0.50266124  0.75383213  1
  Y3+  Y54  1  0.49670994  0.74740883  0.26020714  1
  Y3+  Y55  1  0.49933118  0.74900677  0.75540924  1
  Y3+  Y56  1  0.74953206  0.00020495  0.25875310  1
  Y3+  Y57  1  0.74595755  0.00226554  0.75812162  1
  Y3+  Y58  1  0.74565657  0.24855626  0.25811892  1
  Y3+  Y59  1  0.74698632  0.24789428  0.75738809  1
  Y3+  Y60  1  0.74784649  0.50131133  0.25576761  1
  Y3+  Y61  1  0.74719348  0.50174125  0.75811261  1
  Y3+  Y62  1  0.75172086  0.75001333  0.25677352  1
  Y3+  Y63  1  0.74593139  0.74822437  0.75915095  1
  Fe3+  Fe64  1  0.12653055  0.62537936  0.87948392  1
  Fe3+  Fe65  1  0.37656770  0.37437518  0.87650658  1
  Fe3+  Fe66  1  0.62224295  0.37546096  0.87736856  1
  Fe3+  Fe67  1  0.37550951  0.62393849  0.87770416  1
  Fe3+  Fe68  1  0.62409358  0.62528697  0.37818357  1
  Fe3+  Fe69  1  0.87736895  0.12541307  0.37911703  1
  Fe3+  Fe70  1  0.12518153  0.37584489  0.37373901  1
  Fe3+  Fe71  1  0.87615865  0.37505650  0.37943360  1
  Fe3+  Fe72  1  0.87337925  0.37458391  0.88010746  1
  Fe3+  Fe73  1  0.37277330  0.12515059  0.37978512  1
  Fe3+  Fe74  1  0.12563686  0.12505268  0.37542900  1
  Fe3+  Fe75  1  0.87449361  0.62498492  0.87780933  1
  Fe3+  Fe76  1  0.62412618  0.87393429  0.38052120  1
  Fe3+  Fe77  1  0.12591584  0.87410381  0.37435172  1
  Fe3+  Fe78  1  0.87375696  0.87530555  0.87730901  1
  Fe3+  Fe79  1  0.12716103  0.12473429  0.87584388  1
  Fe3+  Fe80  1  0.12587246  0.62486977  0.37453416  1
  Fe3+  Fe81  1  0.37512481  0.12595049  0.87553072  1
  Fe3+  Fe82  1  0.87705868  0.62437399  0.37915058  1
  Fe3+  Fe83  1  0.87473406  0.12515515  0.88034868  1
  Fe3+  Fe84  1  0.87543239  0.12514249  0.63462807  1
  Fe3+  Fe85  1  0.62497118  0.87432276  0.63571680  1
  Fe3+  Fe86  1  0.37428927  0.12527285  0.63440668  1
  Fe3+  Fe87  1  0.87435120  0.37484229  0.63387964  1
  Fe3+  Fe88  1  0.12695443  0.62605874  0.13380547  1
  Fe3+  Fe89  1  0.37765892  0.87529770  0.13896889  1
  Fe3+  Fe90  1  0.87526223  0.62475354  0.63441916  1
  Fe3+  Fe91  1  0.87435855  0.12443683  0.13402828  1
  Fe3+  Fe92  1  0.87316341  0.37417580  0.13407983  1
  Fe3+  Fe93  1  0.62298174  0.87494862  0.14205146  1
  Fe3+  Fe94  1  0.62429176  0.37545082  0.63706496  1
  Fe3+  Fe95  1  0.87445739  0.87530126  0.63709237  1
  Cu2+  Cu96  1  0.62423289  0.12454833  0.37382698  1
  Cu2+  Cu97  1  0.12724761  0.37526567  0.87359969  1
  Cu2+  Cu98  1  0.87581711  0.87502751  0.36709452  1
  Cu2+  Cu99  1  0.62379991  0.62370865  0.87207033  1
  Cu2+  Cu100  1  0.62512273  0.37632701  0.36276570  1
  Cu2+  Cu101  1  0.12538386  0.87467910  0.87362867  1
  Cu2+  Cu102  1  0.62485542  0.87469027  0.85999471  1
  Cu2+  Cu103  1  0.37609585  0.87522913  0.86227804  1
  Cu2+  Cu104  1  0.37293336  0.62496573  0.37169074  1
  Cu2+  Cu105  1  0.37347623  0.37472340  0.37269744  1
  Cu2+  Cu106  1  0.62308873  0.12633882  0.87206102  1
  Cu2+  Cu107  1  0.37364308  0.87504308  0.37461575  1
  Cu2+  Cu108  1  0.87489121  0.62502691  0.14841571  1
  Cu2+  Cu109  1  0.37582186  0.37495280  0.64108527  1
  Cu2+  Cu110  1  0.12466519  0.87440292  0.65455297  1
  Cu2+  Cu111  1  0.62415726  0.12310506  0.14569040  1
  Cu2+  Cu112  1  0.37483716  0.62487085  0.64399856  1
  Cu2+  Cu113  1  0.87340227  0.87597072  0.15004898  1
  Cu2+  Cu114  1  0.62341312  0.62699636  0.14637815  1
  Cu2+  Cu115  1  0.62530159  0.62527157  0.64541849  1
  Cu2+  Cu116  1  0.62478857  0.12481407  0.63944049  1
  Cu2+  Cu117  1  0.12477210  0.37574739  0.65388141  1
  Cu2+  Cu118  1  0.12563186  0.12442921  0.65123178  1
  Cu2+  Cu119  1  0.37537659  0.62593618  0.14741595  1
  Cu2+  Cu120  1  0.62476157  0.37509230  0.15482930  1
  Cu2+  Cu121  1  0.37551954  0.87514428  0.64257873  1
  Cu2+  Cu122  1  0.12477354  0.62543839  0.65436443  1
  Cu2+  Cu123  1  0.12543111  0.12438088  0.15021985  1
  Cu2+  Cu124  1  0.37643675  0.37466713  0.15291849  1
  Cu2+  Cu125  1  0.12566372  0.37585897  0.14125470  1
  Cu2+  Cu126  1  0.37568803  0.12402866  0.15353288  1
  Cu2+  Cu127  1  0.12660402  0.87406570  0.14193849  1
  O2-  O128  1  0.12709690  0.12453203  -0.00365715  1
  O2-  O129  1  0.12412517  0.12483663  0.49544432  1
  O2-  O130  1  0.12576404  0.37523064  0.00645459  1
  O2-  O131  1  0.12310459  0.37581501  0.49429665  1
  O2-  O132  1  0.12606204  0.62587096  0.00589739  1
  O2-  O133  1  0.12447483  0.62509811  0.49485614  1
  O2-  O134  1  0.12552860  0.87468671  0.00666197  1
  O2-  O135  1  0.12460703  0.87391238  0.49512011  1
  O2-  O136  1  0.37512708  0.12600276  -0.00416158  1
  O2-  O137  1  0.37187016  0.12538980  0.50665574  1
  O2-  O138  1  0.37766626  0.37350733  -0.00289349  1
  O2-  O139  1  0.37341797  0.37456469  0.50630281  1
  O2-  O140  1  0.37594509  0.62382269  -0.00186935  1
  O2-  O141  1  0.37252127  0.62447249  0.50785882  1
  O2-  O142  1  0.37944303  0.87618754  0.01858939  1
  O2-  O143  1  0.37292531  0.87542188  0.50886681  1
  O2-  O144  1  0.62330439  0.12428628  0.00794515  1
  O2-  O145  1  0.62584635  0.12440376  0.50706639  1
  O2-  O146  1  0.62271552  0.37530662  -0.00202175  1
  O2-  O147  1  0.62633161  0.37539548  0.51613183  1
  O2-  O148  1  0.62402929  0.62575973  0.00781499  1
  O2-  O149  1  0.62629072  0.62553752  0.49878134  1
  O2-  O150  1  0.62280644  0.87507079  0.02130669  1
  O2-  O151  1  0.62643590  0.87381129  0.50854096  1
  O2-  O152  1  0.87422726  0.12513853  0.00680879  1
  O2-  O153  1  0.87761826  0.12574066  0.50699885  1
  O2-  O154  1  0.87260283  0.37437709  0.00652581  1
  O2-  O155  1  0.87703134  0.37473280  0.50657726  1
  O2-  O156  1  0.87389933  0.62492533  -0.00208957  1
  O2-  O157  1  0.87751792  0.62378372  0.50655838  1
  O2-  O158  1  0.87300313  0.87558599  -0.00220274  1
  O2-  O159  1  0.87617178  0.87546214  0.51683288  1
  O2-  O160  1  0.12445743  0.00030978  0.16468541  1
  O2-  O161  1  0.12382407  -0.00076589  0.66365953  1
  O2-  O162  1  0.12467193  0.24927108  0.16345621  1
  O2-  O163  1  0.12338883  0.25063885  0.66265531  1
  O2-  O164  1  0.12395786  0.50315062  0.16062803  1
  O2-  O165  1  0.12328390  0.50033546  0.66513631  1
  O2-  O166  1  0.12475460  0.74724893  0.16299344  1
  O2-  O167  1  0.12357475  0.74989836  0.66575278  1
  O2-  O168  1  0.37584514  -0.00015584  0.16932386  1
  O2-  O169  1  0.37415671  0.00268529  0.66368412  1
  O2-  O170  1  0.37548459  0.24913980  0.16522034  1
  O2-  O171  1  0.37418458  0.24760417  0.66181183  1
  O2-  O172  1  0.37602648  0.49982160  0.16419583  1
  O2-  O173  1  0.37463116  0.50011549  0.66398448  1
  O2-  O174  1  0.37559809  0.75075149  0.16753852  1
  O2-  O175  1  0.37472759  0.74983339  0.66614752  1
  O2-  O176  1  0.62537619  -0.00172240  0.17149642  1
  O2-  O177  1  0.62639091  -0.00279924  0.66399056  1
  O2-  O178  1  0.62547747  0.25020813  0.16583035  1
  O2-  O179  1  0.62657933  0.25171051  0.66540810  1
  O2-  O180  1  0.62605458  0.49984810  0.16459922  1
  O2-  O181  1  0.62707775  0.49989925  0.66475177  1
  O2-  O182  1  0.62538134  0.75179439  0.17035677  1
  O2-  O183  1  0.62637625  0.75113466  0.66381552  1
  O2-  O184  1  0.87503805  0.00245500  0.16563640  1
  O2-  O185  1  0.87575583  0.00118493  0.66453934  1
  O2-  O186  1  0.87447604  0.24961380  0.16371829  1
  O2-  O187  1  0.87622431  0.25067999  0.66254892  1
  O2-  O188  1  0.87403482  0.49749099  0.16343216  1
  O2-  O189  1  0.87542195  0.49936024  0.66063860  1
  O2-  O190  1  0.87445626  0.75052891  0.16579155  1
  O2-  O191  1  0.87561382  0.74883381  0.66190525  1
  O2-  O192  1  -0.00166526  0.12561940  0.16060448  1
  O2-  O193  1  -0.00118716  0.12562295  0.66454617  1
  O2-  O194  1  -0.00370901  0.37470164  0.16090521  1
  O2-  O195  1  -0.00214548  0.37542580  0.66556765  1
  O2-  O196  1  0.00121375  0.62495578  0.16068273  1
  O2-  O197  1  -0.00195631  0.62424735  0.66528132  1
  O2-  O198  1  -0.00148171  0.87472316  0.16187512  1
  O2-  O199  1  -0.00078156  0.87485491  0.66622804  1
  O2-  O200  1  0.25004044  0.12459380  0.16263635  1
  O2-  O201  1  0.25034332  0.12519482  0.66084875  1
  O2-  O202  1  0.25226880  0.37506513  0.16249136  1
  O2-  O203  1  0.24837221  0.37547713  0.66300514  1
  O2-  O204  1  0.24956562  0.62458141  0.16096159  1
  O2-  O205  1  0.24786387  0.62514500  0.66632331  1
  O2-  O206  1  0.25298363  0.87541318  0.16411344  1
  O2-  O207  1  0.24810480  0.87455273  0.66527985  1
  O2-  O208  1  0.49922300  0.12530984  0.17128964  1
  O2-  O209  1  0.49728240  0.12452467  0.66080199  1
  O2-  O210  1  0.50049043  0.37460086  0.16819112  1
  O2-  O211  1  0.50181682  0.37520810  0.66344737  1
  O2-  O212  1  0.49840614  0.62476163  0.16954150  1
  O2-  O213  1  0.50133510  0.62551167  0.66318848  1
  O2-  O214  1  0.49970122  0.87527428  0.17681908  1
  O2-  O215  1  0.50312392  0.87487252  0.66287596  1
  O2-  O216  1  0.75261597  0.12504396  0.16645564  1
  O2-  O217  1  0.75370874  0.12547770  0.66529425  1
  O2-  O218  1  0.75128168  0.37409559  0.16610798  1
  O2-  O219  1  0.75182410  0.37499407  0.66554018  1
  O2-  O220  1  0.75099173  0.62561589  0.16795657  1
  O2-  O221  1  0.75279160  0.62480272  0.66312349  1
  O2-  O222  1  0.74896832  0.87557554  0.16970500  1
  O2-  O223  1  0.74972964  0.87468119  0.66531469  1
  O2-  O224  1  0.12396058  0.00003395  0.34593424  1
  O2-  O225  1  0.12468655  0.00163263  0.84652006  1
  O2-  O226  1  0.12322430  0.25022062  0.34445456  1
  O2-  O227  1  0.12467833  0.24811897  0.84572570  1
  O2-  O228  1  0.12324588  0.49994803  0.34159782  1
  O2-  O229  1  0.12446883  0.50326890  0.84945351  1
  O2-  O230  1  0.12362161  0.74971337  0.34345760  1
  O2-  O231  1  0.12474570  0.74701504  0.84959463  1
  O2-  O232  1  0.37384942  0.00299720  0.35202696  1
  O2-  O233  1  0.37583118  -0.00030272  0.84726464  1
  O2-  O234  1  0.37415641  0.24715446  0.34997014  1
  O2-  O235  1  0.37505539  0.25018462  0.84197439  1
  O2-  O236  1  0.37415709  0.50002159  0.34861590  1
  O2-  O237  1  0.37517899  0.49988734  0.84487130  1
  O2-  O238  1  0.37401868  0.74980627  0.35015654  1
  O2-  O239  1  0.37548367  0.75015504  0.84991920  1
  O2-  O240  1  0.62621328  -0.00309836  0.35283569  1
  O2-  O241  1  0.62501519  -0.00068512  0.84840776  1
  O2-  O242  1  0.62586226  0.25168065  0.35000348  1
  O2-  O243  1  0.62559287  0.25228953  0.84566612  1
  O2-  O244  1  0.62672280  0.50133640  0.34800200  1
  O2-  O245  1  0.62568492  0.49778209  0.84536234  1
  O2-  O246  1  0.62672747  0.75032310  0.35075422  1
  O2-  O247  1  0.62537066  0.75057360  0.84847085  1
  O2-  O248  1  0.87570270  0.00225977  0.35119893  1
  O2-  O249  1  0.87425972  0.00183132  0.84781494  1
  O2-  O250  1  0.87588924  0.25055867  0.35002030  1
  O2-  O251  1  0.87484917  0.24978209  0.84866275  1
  O2-  O252  1  0.87567495  0.49964113  0.34943688  1
  O2-  O253  1  0.87510133  0.49860916  0.84594000  1
  O2-  O254  1  0.87563264  0.74754878  0.35136349  1
  O2-  O255  1  0.87433928  0.74967293  0.84426928  1
  O2-  O256  1  -0.00036919  0.12541680  0.34419685  1
  O2-  O257  1  -0.00109471  0.12566971  0.84869768  1
  O2-  O258  1  -0.00132706  0.37520594  0.34313294  1
  O2-  O259  1  -0.00348898  0.37467098  0.85090838  1
  O2-  O260  1  -0.00091918  0.62430315  0.34440806  1
  O2-  O261  1  0.00063313  0.62442894  0.84903208  1
  O2-  O262  1  0.00079977  0.87499350  0.34512753  1
  O2-  O263  1  -0.00276795  0.87526100  0.84749907  1
  O2-  O264  1  0.24952060  0.12542180  0.34538604  1
  O2-  O265  1  0.25092399  0.12454509  0.84258604  1
  O2-  O266  1  0.24729719  0.37470443  0.34449093  1
  O2-  O267  1  0.25313705  0.37541883  0.84557348  1
  O2-  O268  1  0.24768658  0.62470348  0.34341631  1
  O2-  O269  1  0.25008533  0.62535920  0.84917895  1
  O2-  O270  1  0.24817431  0.87510399  0.34477562  1
  O2-  O271  1  0.25178758  0.87475536  0.84954098  1
  O2-  O272  1  0.49703238  0.12520010  0.35498344  1
  O2-  O273  1  0.49782828  0.12444000  0.84293943  1
  O2-  O274  1  0.50083706  0.37520712  0.35280495  1
  O2-  O275  1  0.49949201  0.37469041  0.84184947  1
  O2-  O276  1  0.50086342  0.62478581  0.35199673  1
  O2-  O277  1  0.49790386  0.62562516  0.84546927  1
  O2-  O278  1  0.50198569  0.87487281  0.35725686  1
  O2-  O279  1  0.50127648  0.87523503  0.84715240  1
  O2-  O280  1  0.75348542  0.12575493  0.35140109  1
  O2-  O281  1  0.75228368  0.12570302  0.84981453  1
  O2-  O282  1  0.75295508  0.37501514  0.35143623  1
  O2-  O283  1  0.75076395  0.37453844  0.84794648  1
  O2-  O284  1  0.75210795  0.62430763  0.35165952  1
  O2-  O285  1  0.75140060  0.62416714  0.84626464  1
  O2-  O286  1  0.74926642  0.87502217  0.35375192  1
  O2-  O287  1  0.74989805  0.87573960  0.84639416  1
