# generated using pymatgen
data_BaYFeCuO5
_symmetry_space_group_name_H-M   'P 1'
_cell_length_a   15.65947837
_cell_length_b   15.65905606
_cell_length_c   15.46079384
_cell_angle_alpha   90.00363728
_cell_angle_beta   90.00640051
_cell_angle_gamma   89.99698131
_symmetry_Int_Tables_number   1
_chemical_formula_structural   BaYFeCuO5
_chemical_formula_sum   'Ba32 Y32 Fe32 Cu32 O160'
_cell_volume   3791.18218515
_cell_formula_units_Z   32
loop_
 _symmetry_equiv_pos_site_id
 _symmetry_equiv_pos_as_xyz
  1  'x, y, z'
loop_
 _atom_type_symbol
 _atom_type_oxidation_number
  Ba2+  2.0
  Y3+  3.0
  Fe3+  3.0
  Cu2+  2.0
  O2-  -2.0
loop_
 _atom_site_type_symbol
 _atom_site_label
 _atom_site_symmetry_multiplicity
 _atom_site_fract_x
 _atom_site_fract_y
 _atom_site_fract_z
 _atom_site_occupancy
  Ba2+  Ba0  1  0.00624834  -0.00003936  0.01538943  1
  Ba2+  Ba1  1  0.00023480  0.00028854  0.51805278  1
  Ba2+  Ba2  1  0.00470004  0.25375193  0.01199113  1
  Ba2+  Ba3  1  0.00582295  0.24738686  0.51702668  1
  Ba2+  Ba4  1  -0.00610128  0.49265898  0.00577664  1
  Ba2+  Ba5  1  -0.00017170  0.50000522  0.50629246  1
  Ba2+  Ba6  1  -0.00386901  0.75452481  0.01359016  1
  Ba2+  Ba7  1  -0.00592086  0.75298563  0.50762365  1
  Ba2+  Ba8  1  0.24723472  0.00976260  0.00991858  1
  Ba2+  Ba9  1  0.25219415  0.00299434  0.51185585  1
  Ba2+  Ba10  1  0.25076574  0.24688801  0.01635374  1
  Ba2+  Ba11  1  0.24694412  0.24480081  0.51142707  1
  Ba2+  Ba12  1  0.25589946  0.49569325  0.01724156  1
  Ba2+  Ba13  1  0.24698926  0.49612532  0.51098899  1
  Ba2+  Ba14  1  0.25213426  0.74771188  0.01129410  1
  Ba2+  Ba15  1  0.25347061  0.75528582  0.51354966  1
  Ba2+  Ba16  1  0.50046575  0.00837163  0.00689149  1
  Ba2+  Ba17  1  0.49595699  0.00755501  0.51100591  1
  Ba2+  Ba18  1  0.49771470  0.24947259  0.02246287  1
  Ba2+  Ba19  1  0.50275836  0.24148255  0.50968110  1
  Ba2+  Ba20  1  0.49483516  0.49590560  0.01730015  1
  Ba2+  Ba21  1  0.50385288  0.50252299  0.51131860  1
  Ba2+  Ba22  1  0.49809102  0.74740189  0.00181328  1
  Ba2+  Ba23  1  0.49588088  0.74796775  0.51391475  1
  Ba2+  Ba24  1  0.74627931  -0.00248459  0.01131051  1
  Ba2+  Ba25  1  0.75225028  0.00506809  0.51712262  1
  Ba2+  Ba26  1  0.74756966  0.25621259  0.01739296  1
  Ba2+  Ba27  1  0.74404490  0.24435511  0.51538332  1
  Ba2+  Ba28  1  0.75527054  0.49283250  0.00608885  1
  Ba2+  Ba29  1  0.74902261  0.50609424  0.50553067  1
  Ba2+  Ba30  1  0.75359594  0.75292035  0.00141627  1
  Ba2+  Ba31  1  0.75616050  0.74562030  0.50684904  1
  Y3+  Y32  1  0.00269796  -0.00151365  0.25367147  1
  Y3+  Y33  1  0.00082844  0.00329524  0.75888805  1
  Y3+  Y34  1  0.00241771  0.25224534  0.25525234  1
  Y3+  Y35  1  0.00166625  0.25019494  0.75799041  1
  Y3+  Y36  1  -0.00007667  0.49767613  0.25928867  1
  Y3+  Y37  1  -0.00201581  0.49881808  0.75589052  1
  Y3+  Y38  1  0.00007629  0.75123605  0.25887904  1
  Y3+  Y39  1  -0.00264015  0.74815615  0.75640062  1
  Y3+  Y40  1  0.24917486  0.00217453  0.25489607  1
  Y3+  Y41  1  0.25155445  0.00453960  0.75907218  1
  Y3+  Y42  1  0.24953843  0.24851561  0.25723691  1
  Y3+  Y43  1  0.24928007  0.24676039  0.75622365  1
  Y3+  Y44  1  0.24941797  0.49746880  0.25781128  1
  Y3+  Y45  1  0.25075254  0.50006739  0.75591930  1
  Y3+  Y46  1  0.24903751  0.75118847  0.25529627  1
  Y3+  Y47  1  0.25303641  0.74864339  0.75925756  1
  Y3+  Y48  1  0.49957830  0.00489165  0.25859111  1
  Y3+  Y49  1  0.49854037  0.00228478  0.75657146  1
  Y3+  Y50  1  0.49924264  0.24647659  0.25940430  1
  Y3+  Y51  1  0.49970306  0.24714836  0.75290004  1
  Y3+  Y52  1  0.49934961  0.49950465  0.25652448  1
  Y3+  Y53  1  0.49883549  0.50092368  0.75722953  1
  Y3+  Y54  1  0.49962949  0.74841880  0.25655037  1
  Y3+  Y55  1  0.49796422  0.75007950  0.75995470  1
  Y3+  Y56  1  0.74796088  0.00123724  0.25730920  1
  Y3+  Y57  1  0.74940614  0.00114281  0.75651055  1
  Y3+  Y58  1  0.74821933  0.25032890  0.25669206  1
  Y3+  Y59  1  0.74979856  0.25035337  0.75542172  1
  Y3+  Y60  1  0.75109931  0.49938428  0.25830255  1
  Y3+  Y61  1  0.75261722  0.49936450  0.75717860  1
  Y3+  Y62  1  0.75095321  0.74867547  0.26004424  1
  Y3+  Y63  1  0.75219456  0.74950888  0.75677309  1
  Fe3+  Fe64  1  0.12535234  0.87499893  0.87786284  1
  Fe3+  Fe65  1  0.37480411  0.37359193  0.37926861  1
  Fe3+  Fe66  1  0.87588998  0.12528403  0.37540939  1
  Fe3+  Fe67  1  0.37443183  0.62488390  0.37674112  1
  Fe3+  Fe68  1  0.12539694  0.62627485  0.37935504  1
  Fe3+  Fe69  1  0.62472935  0.37470239  0.37753280  1
  Fe3+  Fe70  1  0.87530130  0.87731200  0.37585468  1
  Fe3+  Fe71  1  0.87517125  0.37322506  0.37986866  1
  Fe3+  Fe72  1  0.62509497  0.12645043  0.87672113  1
  Fe3+  Fe73  1  0.12634231  0.37493165  0.87566999  1
  Fe3+  Fe74  1  0.62566953  0.62395912  0.88009940  1
  Fe3+  Fe75  1  0.37542580  0.37317604  0.87425959  1
  Fe3+  Fe76  1  0.62419021  0.87514738  0.38105131  1
  Fe3+  Fe77  1  0.37496981  0.87691961  0.87959664  1
  Fe3+  Fe78  1  0.12404638  0.12381972  0.37514387  1
  Fe3+  Fe79  1  0.12430163  0.62409718  0.87982011  1
  Fe3+  Fe80  1  0.87556113  0.87671183  0.87559060  1
  Fe3+  Fe81  1  0.62382104  0.37419994  0.87544048  1
  Fe3+  Fe82  1  0.37461489  0.87608656  0.37598433  1
  Fe3+  Fe83  1  0.87495448  0.12680684  0.87973675  1
  Fe3+  Fe84  1  0.62439901  0.87425624  0.13750720  1
  Fe3+  Fe85  1  0.87487750  0.62465807  0.13849759  1
  Fe3+  Fe86  1  0.37552867  0.37436623  0.63359006  1
  Fe3+  Fe87  1  0.87486722  0.12506109  0.13419868  1
  Fe3+  Fe88  1  0.87445207  0.37453284  0.63470577  1
  Fe3+  Fe89  1  0.12414025  0.62379736  0.13525269  1
  Fe3+  Fe90  1  0.12549314  0.87520791  0.63886755  1
  Fe3+  Fe91  1  0.62535479  0.62539616  0.64015788  1
  Fe3+  Fe92  1  0.62565441  0.62439867  0.13522426  1
  Fe3+  Fe93  1  0.37559920  0.87606574  0.13476373  1
  Fe3+  Fe94  1  0.62460952  0.87481412  0.63592830  1
  Fe3+  Fe95  1  0.12490540  0.62562336  0.63554288  1
  Cu2+  Cu96  1  0.62608506  0.12421681  0.37226412  1
  Cu2+  Cu97  1  0.87482311  0.37317603  0.86978507  1
  Cu2+  Cu98  1  0.62432217  0.62543640  0.36301741  1
  Cu2+  Cu99  1  0.37439002  0.62292380  0.87440484  1
  Cu2+  Cu100  1  0.12515330  0.37388863  0.37455663  1
  Cu2+  Cu101  1  0.37382106  0.12477779  0.37180168  1
  Cu2+  Cu102  1  0.12563753  0.87557914  0.36449609  1
  Cu2+  Cu103  1  0.12489200  0.12607055  0.87311306  1
  Cu2+  Cu104  1  0.37565337  0.12719693  0.87230974  1
  Cu2+  Cu105  1  0.62496155  0.87548699  0.86395618  1
  Cu2+  Cu106  1  0.87567817  0.62441248  0.86570995  1
  Cu2+  Cu107  1  0.87582738  0.62467686  0.37308388  1
  Cu2+  Cu108  1  0.62478035  0.12411256  0.64326801  1
  Cu2+  Cu109  1  0.87551792  0.12565202  0.65219295  1
  Cu2+  Cu110  1  0.87501864  0.87558218  0.65216034  1
  Cu2+  Cu111  1  0.12568692  0.87404561  0.14773871  1
  Cu2+  Cu112  1  0.12490312  0.12436626  0.65236674  1
  Cu2+  Cu113  1  0.62445359  0.37557961  0.15291429  1
  Cu2+  Cu114  1  0.62479901  0.37557512  0.64703946  1
  Cu2+  Cu115  1  0.37500654  0.62524081  0.14149662  1
  Cu2+  Cu116  1  0.12547617  0.37597761  0.15111013  1
  Cu2+  Cu117  1  0.37483518  0.62472976  0.64957354  1
  Cu2+  Cu118  1  0.37486637  0.37403205  0.15631978  1
  Cu2+  Cu119  1  0.87513794  0.62463346  0.64159096  1
  Cu2+  Cu120  1  0.87389071  0.87501872  0.15156230  1
  Cu2+  Cu121  1  0.12517463  0.37506975  0.64097040  1
  Cu2+  Cu122  1  0.12453594  0.12586018  0.14171618  1
  Cu2+  Cu123  1  0.37491828  0.12460110  0.14276412  1
  Cu2+  Cu124  1  0.87517901  0.37508575  0.14389101  1
  Cu2+  Cu125  1  0.37496985  0.87566443  0.65340464  1
  Cu2+  Cu126  1  0.62544151  0.12514034  0.15042705  1
  Cu2+  Cu127  1  0.37434528  0.12503666  0.64171595  1
  O2-  O128  1  0.12407144  0.12662760  0.00698334  1
  O2-  O129  1  0.12326791  0.12245641  0.49626022  1
  O2-  O130  1  0.12715501  0.37696004  -0.00376675  1
  O2-  O131  1  0.12459304  0.37498015  0.50710171  1
  O2-  O132  1  0.12358931  0.62354782  0.00714952  1
  O2-  O133  1  0.12602747  0.62770657  0.50723133  1
  O2-  O134  1  0.12484999  0.87308618  -0.00188069  1
  O2-  O135  1  0.12535973  0.87470028  0.51820308  1
  O2-  O136  1  0.37633853  0.12613737  0.00758171  1
  O2-  O137  1  0.37342063  0.12466525  0.50696437  1
  O2-  O138  1  0.37553076  0.37365694  -0.00514889  1
  O2-  O139  1  0.37565284  0.37494474  0.50575436  1
  O2-  O140  1  0.37516337  0.62368912  0.00709956  1
  O2-  O141  1  0.37441643  0.62607664  0.49699570  1
  O2-  O142  1  0.37589550  0.87618155  0.00717843  1
  O2-  O143  1  0.37484749  0.87483677  0.49656515  1
  O2-  O144  1  0.62576674  0.12749953  -0.00269159  1
  O2-  O145  1  0.62622674  0.12264337  0.50702094  1
  O2-  O146  1  0.62250833  0.37482131  -0.00424284  1
  O2-  O147  1  0.62567046  0.37609501  0.49789948  1
  O2-  O148  1  0.62602032  0.62381371  0.00817141  1
  O2-  O149  1  0.62474146  0.62748904  0.51896557  1
  O2-  O150  1  0.62507414  0.87317358  0.01715705  1
  O2-  O151  1  0.62431378  0.87420141  0.50831657  1
  O2-  O152  1  0.87373493  0.12612016  0.00617742  1
  O2-  O153  1  0.87676447  0.12425831  0.49583169  1
  O2-  O154  1  0.87467703  0.37378241  0.00751181  1
  O2-  O155  1  0.87430234  0.37363235  0.50663122  1
  O2-  O156  1  0.87470948  0.62454110  0.01785040  1
  O2-  O157  1  0.87570286  0.62513138  0.50764489  1
  O2-  O158  1  0.87439406  0.87602252  -0.00376573  1
  O2-  O159  1  0.87526288  0.87804448  0.49643816  1
  O2-  O160  1  0.12489865  -0.00194019  0.16213722  1
  O2-  O161  1  0.12455526  -0.00039053  0.66778372  1
  O2-  O162  1  0.12496795  0.25257327  0.16428664  1
  O2-  O163  1  0.12495141  0.24822881  0.66275894  1
  O2-  O164  1  0.12500831  0.50148620  0.16690790  1
  O2-  O165  1  0.12491952  0.50314382  0.66273973  1
  O2-  O166  1  0.12454209  0.74786442  0.16392807  1
  O2-  O167  1  0.12591105  0.74907482  0.66776244  1
  O2-  O168  1  0.37586509  -0.00257397  0.16336280  1
  O2-  O169  1  0.37485558  -0.00053184  0.66751488  1
  O2-  O170  1  0.37501395  0.25047345  0.16728324  1
  O2-  O171  1  0.37480939  0.25224606  0.66066896  1
  O2-  O172  1  0.37474196  0.49852784  0.16696060  1
  O2-  O173  1  0.37554811  0.49862217  0.66101624  1
  O2-  O174  1  0.37525018  0.75323735  0.16307791  1
  O2-  O175  1  0.37498412  0.74984207  0.66757495  1
  O2-  O176  1  0.62484732  -0.00073657  0.16520404  1
  O2-  O177  1  0.62505473  -0.00350322  0.66515035  1
  O2-  O178  1  0.62524868  0.25063766  0.16406891  1
  O2-  O179  1  0.62535790  0.25102603  0.66111107  1
  O2-  O180  1  0.62473912  0.50160167  0.16386097  1
  O2-  O181  1  0.62449076  0.50091790  0.66628786  1
  O2-  O182  1  0.62510271  0.74805347  0.16674855  1
  O2-  O183  1  0.62451722  0.75162878  0.66928049  1
  O2-  O184  1  0.87411158  0.00099472  0.15935770  1
  O2-  O185  1  0.87531052  0.00086207  0.66560785  1
  O2-  O186  1  0.87453328  0.24752009  0.16367645  1
  O2-  O187  1  0.87456005  0.25128716  0.66180508  1
  O2-  O188  1  0.87535048  0.50179467  0.16976303  1
  O2-  O189  1  0.87503830  0.49697019  0.66366502  1
  O2-  O190  1  0.87478738  0.74915563  0.16679842  1
  O2-  O191  1  0.87484266  0.75124959  0.66552533  1
  O2-  O192  1  -0.00259444  0.12463089  0.16096803  1
  O2-  O193  1  0.00008075  0.12516665  0.66611065  1
  O2-  O194  1  0.00151829  0.37613963  0.16610711  1
  O2-  O195  1  -0.00264634  0.37444827  0.66342509  1
  O2-  O196  1  0.00091860  0.62517032  0.16638197  1
  O2-  O197  1  0.00268616  0.62574705  0.66424841  1
  O2-  O198  1  -0.00074759  0.87377069  0.16280610  1
  O2-  O199  1  0.00015113  0.87459793  0.66549249  1
  O2-  O200  1  0.24927239  0.12515845  0.16445667  1
  O2-  O201  1  0.24846044  0.12412688  0.66508601  1
  O2-  O202  1  0.25034803  0.37567336  0.16541266  1
  O2-  O203  1  0.25275941  0.37620361  0.66078040  1
  O2-  O204  1  0.24702671  0.62494915  0.16220217  1
  O2-  O205  1  0.24878624  0.62556130  0.66366649  1
  O2-  O206  1  0.25211078  0.87409446  0.16176916  1
  O2-  O207  1  0.25002744  0.87436254  0.66733469  1
  O2-  O208  1  0.50166745  0.12523042  0.16649944  1
  O2-  O209  1  0.50002906  0.12410718  0.66393647  1
  O2-  O210  1  0.49964412  0.37527903  0.16602881  1
  O2-  O211  1  0.49852823  0.37576367  0.66005517  1
  O2-  O212  1  0.50278819  0.62469244  0.16307404  1
  O2-  O213  1  0.50032378  0.62617518  0.66740926  1
  O2-  O214  1  0.49948076  0.87421302  0.16662073  1
  O2-  O215  1  0.50075748  0.87399164  0.66407303  1
  O2-  O216  1  0.75117429  0.12470621  0.16278633  1
  O2-  O217  1  0.75111187  0.12455759  0.66511683  1
  O2-  O218  1  0.74846893  0.37576022  0.16612668  1
  O2-  O219  1  0.75122164  0.37514869  0.66315344  1
  O2-  O220  1  0.74889280  0.62473443  0.16705013  1
  O2-  O221  1  0.74848581  0.62530655  0.66905829  1
  O2-  O222  1  0.74851781  0.87436581  0.16815450  1
  O2-  O223  1  0.74897816  0.87475200  0.66202612  1
  O2-  O224  1  0.12485905  0.00016430  0.34480444  1
  O2-  O225  1  0.12523375  -0.00169697  0.84959944  1
  O2-  O226  1  0.12435628  0.24765082  0.34719821  1
  O2-  O227  1  0.12491930  0.25196659  0.84563024  1
  O2-  O228  1  0.12546001  0.50299499  0.35202531  1
  O2-  O229  1  0.12492659  0.50095217  0.84573730  1
  O2-  O230  1  0.12571024  0.74908047  0.34891182  1
  O2-  O231  1  0.12452614  0.74873787  0.84999055  1
  O2-  O232  1  0.37493693  -0.00134942  0.34555176  1
  O2-  O233  1  0.37525452  -0.00127777  0.85148072  1
  O2-  O234  1  0.37504220  0.25183901  0.35098128  1
  O2-  O235  1  0.37560802  0.25154477  0.84189533  1
  O2-  O236  1  0.37477623  0.49920724  0.34989370  1
  O2-  O237  1  0.37476401  0.49722470  0.84363764  1
  O2-  O238  1  0.37458732  0.74987933  0.34447633  1
  O2-  O239  1  0.37525848  0.75280257  0.85256040  1
  O2-  O240  1  0.62482261  -0.00349077  0.34859720  1
  O2-  O241  1  0.62584236  0.00092048  0.84873144  1
  O2-  O242  1  0.62514611  0.25166255  0.34761337  1
  O2-  O243  1  0.62529232  0.25007981  0.84226473  1
  O2-  O244  1  0.62498163  0.49975293  0.34787675  1
  O2-  O245  1  0.62575330  0.50099341  0.84831401  1
  O2-  O246  1  0.62456595  0.75147076  0.35025286  1
  O2-  O247  1  0.62529848  0.74838627  0.85351294  1
  O2-  O248  1  0.87486477  0.00000736  0.34111081  1
  O2-  O249  1  0.87434099  0.00205031  0.84882694  1
  O2-  O250  1  0.87509641  0.25093547  0.34641060  1
  O2-  O251  1  0.87470840  0.24734732  0.84578114  1
  O2-  O252  1  0.87474574  0.49685260  0.35279008  1
  O2-  O253  1  0.87502936  0.50024464  0.84805175  1
  O2-  O254  1  0.87513393  0.75240696  0.34890265  1
  O2-  O255  1  0.87546082  0.75064088  0.84909383  1
  O2-  O256  1  -0.00033112  0.12441989  0.34166815  1
  O2-  O257  1  -0.00269033  0.12532540  0.85048496  1
  O2-  O258  1  -0.00268680  0.37512385  0.34973809  1
  O2-  O259  1  0.00174668  0.37594963  0.84692056  1
  O2-  O260  1  0.00312899  0.62561346  0.34994256  1
  O2-  O261  1  0.00152472  0.62397994  0.84877132  1
  O2-  O262  1  0.00005604  0.87508564  0.34696716  1
  O2-  O263  1  0.00000274  0.87485688  0.84596806  1
  O2-  O264  1  0.24786709  0.12428820  0.34673629  1
  O2-  O265  1  0.25030824  0.12573604  0.84932812  1
  O2-  O266  1  0.25272770  0.37543721  0.34989634  1
  O2-  O267  1  0.25005526  0.37531024  0.84204187  1
  O2-  O268  1  0.24941905  0.62550039  0.34599999  1
  O2-  O269  1  0.24660454  0.62496999  0.84847994  1
  O2-  O270  1  0.25063601  0.87433560  0.34548680  1
  O2-  O271  1  0.25108354  0.87418832  0.84971101  1
  O2-  O272  1  0.49991335  0.12451659  0.35063061  1
  O2-  O273  1  0.50221054  0.12479858  0.84605495  1
  O2-  O274  1  0.49876187  0.37586888  0.34968700  1
  O2-  O275  1  0.50061916  0.37549788  0.84121782  1
  O2-  O276  1  0.49844654  0.62517109  0.34633125  1
  O2-  O277  1  0.50318863  0.62511372  0.85090369  1
  O2-  O278  1  0.50071353  0.87377189  0.34886850  1
  O2-  O279  1  0.49837936  0.87499836  0.84971173  1
  O2-  O280  1  0.75235292  0.12487145  0.34522030  1
  O2-  O281  1  0.75072618  0.12510685  0.84783218  1
  O2-  O282  1  0.75109811  0.37498302  0.34903309  1
  O2-  O283  1  0.74797592  0.37520893  0.84632770  1
  O2-  O284  1  0.74880292  0.62518217  0.35050875  1
  O2-  O285  1  0.74908497  0.62528693  0.85265016  1
  O2-  O286  1  0.74849019  0.87458674  0.35039053  1
  O2-  O287  1  0.75119212  0.87456579  0.84595040  1
