# generated using pymatgen
data_BaYFeCuO5
_symmetry_space_group_name_H-M   'P 1'
_cell_length_a   15.67535251
_cell_length_b   15.67244041
_cell_length_c   15.48726513
_cell_angle_alpha   89.99594741
_cell_angle_beta   89.99923850
_cell_angle_gamma   89.99139957
_symmetry_Int_Tables_number   1
_chemical_formula_structural   BaYFeCuO5
_chemical_formula_sum   'Ba32 Y32 Fe32 Cu32 O160'
_cell_volume   3804.77229482
_cell_formula_units_Z   32
loop_
 _symmetry_equiv_pos_site_id
 _symmetry_equiv_pos_as_xyz
  1  'x, y, z'
loop_
 _atom_type_symbol
 _atom_type_oxidation_number
  Ba2+  2.0
  Y3+  3.0
  Fe3+  3.0
  Cu2+  2.0
  O2-  -2.0
loop_
 _atom_site_type_symbol
 _atom_site_label
 _atom_site_symmetry_multiplicity
 _atom_site_fract_x
 _atom_site_fract_y
 _atom_site_fract_z
 _atom_site_occupancy
  Ba2+  Ba0  1  -0.00300457  0.00476460  -0.00378790  1
  Ba2+  Ba1  1  0.00913653  0.00064901  0.51746499  1
  Ba2+  Ba2  1  -0.00327648  0.24410674  0.00702352  1
  Ba2+  Ba3  1  0.00852208  0.25096439  0.51802854  1
  Ba2+  Ba4  1  -0.00412200  0.50558677  0.01725036  1
  Ba2+  Ba5  1  0.00200225  0.48930861  0.51771819  1
  Ba2+  Ba6  1  -0.00301901  0.74520525  0.00661094  1
  Ba2+  Ba7  1  0.00243267  0.75912471  0.51746472  1
  Ba2+  Ba8  1  0.25521230  0.00572960  0.01176848  1
  Ba2+  Ba9  1  0.25242833  0.00457078  0.51138105  1
  Ba2+  Ba10  1  0.25055513  0.23890451  0.00731052  1
  Ba2+  Ba11  1  0.25125439  0.24515638  0.51785186  1
  Ba2+  Ba12  1  0.24793592  0.50944900  0.00230498  1
  Ba2+  Ba13  1  0.25478876  0.49354567  0.52490111  1
  Ba2+  Ba14  1  0.25305542  0.74610096  0.00564961  1
  Ba2+  Ba15  1  0.25483650  0.75787678  0.51673671  1
  Ba2+  Ba16  1  0.50159768  0.00284265  0.01870069  1
  Ba2+  Ba17  1  0.48941999  0.00491707  0.51033570  1
  Ba2+  Ba18  1  0.50424622  0.24014795  0.00285831  1
  Ba2+  Ba19  1  0.49733788  0.24959806  0.51805227  1
  Ba2+  Ba20  1  0.50593610  0.50399872  0.00002532  1
  Ba2+  Ba21  1  0.49650019  0.49158038  0.51590614  1
  Ba2+  Ba22  1  0.50246986  0.75209904  0.02017520  1
  Ba2+  Ba23  1  0.48824661  0.75254131  0.51044355  1
  Ba2+  Ba24  1  0.74683500  0.00160666  -0.00021601  1
  Ba2+  Ba25  1  0.74997014  0.00251450  0.51560282  1
  Ba2+  Ba26  1  0.74664732  0.24666010  0.00094309  1
  Ba2+  Ba27  1  0.74344416  0.25537777  0.51605742  1
  Ba2+  Ba28  1  0.75048197  0.50067091  0.02025146  1
  Ba2+  Ba29  1  0.74718779  0.48919926  0.51038682  1
  Ba2+  Ba30  1  0.74861603  0.75046934  0.02087148  1
  Ba2+  Ba31  1  0.75357740  0.75358640  0.51030287  1
  Y3+  Y32  1  0.00390736  0.00291541  0.25757831  1
  Y3+  Y33  1  0.00139205  0.00101590  0.75769782  1
  Y3+  Y34  1  0.00207095  0.24809088  0.25566329  1
  Y3+  Y35  1  0.00214684  0.24817129  0.75873126  1
  Y3+  Y36  1  0.00014521  0.50046307  0.25385916  1
  Y3+  Y37  1  0.00142517  0.49904853  0.75871519  1
  Y3+  Y38  1  0.00184103  0.74855659  0.25508646  1
  Y3+  Y39  1  0.00062835  0.75220090  0.75832315  1
  Y3+  Y40  1  0.25235789  0.00312270  0.25813042  1
  Y3+  Y41  1  0.25073505  0.00245283  0.75724711  1
  Y3+  Y42  1  0.24986804  0.24383423  0.25579538  1
  Y3+  Y43  1  0.25082328  0.24556275  0.75981427  1
  Y3+  Y44  1  0.24832993  0.50086639  0.25257622  1
  Y3+  Y45  1  0.25127949  0.50163884  0.76178758  1
  Y3+  Y46  1  0.25101853  0.75166609  0.25489488  1
  Y3+  Y47  1  0.25095354  0.75015709  0.75847739  1
  Y3+  Y48  1  0.49621956  0.00158796  0.25787240  1
  Y3+  Y49  1  0.49801961  0.00405912  0.75701178  1
  Y3+  Y50  1  0.49965472  0.24688790  0.25724961  1
  Y3+  Y51  1  0.50094975  0.24730694  0.75875702  1
  Y3+  Y52  1  0.50161214  0.49807012  0.25877411  1
  Y3+  Y53  1  0.49974781  0.49816106  0.75624645  1
  Y3+  Y54  1  0.49821484  0.75311030  0.25950014  1
  Y3+  Y55  1  0.49594596  0.75042000  0.75417637  1
  Y3+  Y56  1  0.74705622  0.00167903  0.25675133  1
  Y3+  Y57  1  0.75033284  0.00210964  0.75753142  1
  Y3+  Y58  1  0.74821080  0.25085604  0.25722303  1
  Y3+  Y59  1  0.74596869  0.24947625  0.75761581  1
  Y3+  Y60  1  0.74953654  0.49806780  0.25923276  1
  Y3+  Y61  1  0.74777622  0.49548376  0.75432078  1
  Y3+  Y62  1  0.74870517  0.74949286  0.25904347  1
  Y3+  Y63  1  0.75186103  0.75328400  0.75389148  1
  Fe3+  Fe64  1  0.12700606  0.37439342  0.37421890  1
  Fe3+  Fe65  1  0.37288771  0.62347226  0.37809105  1
  Fe3+  Fe66  1  0.62659904  0.62674050  0.87239381  1
  Fe3+  Fe67  1  0.12471174  0.37494878  0.87996191  1
  Fe3+  Fe68  1  0.62388846  0.87608934  0.38027480  1
  Fe3+  Fe69  1  0.37611371  0.37435927  0.88034496  1
  Fe3+  Fe70  1  0.87643349  0.37324442  0.37645730  1
  Fe3+  Fe71  1  0.12547104  0.87519736  0.87920620  1
  Fe3+  Fe72  1  0.62378157  0.62416770  0.38098131  1
  Fe3+  Fe73  1  0.87612773  0.12570979  0.38220931  1
  Fe3+  Fe74  1  0.12616982  0.87550964  0.37559410  1
  Fe3+  Fe75  1  0.62424018  0.87420559  0.87392925  1
  Fe3+  Fe76  1  0.12609292  0.62434563  0.38111122  1
  Fe3+  Fe77  1  0.37348314  0.37351206  0.37434038  1
  Fe3+  Fe78  1  0.62428215  0.12590262  0.37939556  1
  Fe3+  Fe79  1  0.37667581  0.87551726  0.87774506  1
  Fe3+  Fe80  1  0.87630281  0.87659248  0.37824365  1
  Fe3+  Fe81  1  0.87674210  0.62427362  0.38061219  1
  Fe3+  Fe82  1  0.87392144  0.37519301  0.87657781  1
  Fe3+  Fe83  1  0.87247977  0.62485079  0.87261843  1
  Fe3+  Fe84  1  0.62388196  0.62523577  0.63228219  1
  Fe3+  Fe85  1  0.87371923  0.12461428  0.13900412  1
  Fe3+  Fe86  1  0.87543435  0.12648092  0.63672810  1
  Fe3+  Fe87  1  0.37668615  0.62407906  0.13771943  1
  Fe3+  Fe88  1  0.87523414  0.87675857  0.13797521  1
  Fe3+  Fe89  1  0.12588529  0.62506444  0.63555003  1
  Fe3+  Fe90  1  0.87531861  0.62355119  0.63296511  1
  Fe3+  Fe91  1  0.12545343  0.87585500  0.13314863  1
  Fe3+  Fe92  1  0.37550043  0.37431601  0.13187446  1
  Fe3+  Fe93  1  0.12504778  0.37414923  0.13220978  1
  Fe3+  Fe94  1  0.62331971  0.87638821  0.63362704  1
  Fe3+  Fe95  1  0.62429778  0.37375763  0.13699423  1
  Cu2+  Cu96  1  0.62457524  0.12343917  0.87072344  1
  Cu2+  Cu97  1  0.37578882  0.12370393  0.87228126  1
  Cu2+  Cu98  1  0.87432884  0.87506796  0.86266937  1
  Cu2+  Cu99  1  0.12534005  0.12553230  0.37331709  1
  Cu2+  Cu100  1  0.12551614  0.12442709  0.87333954  1
  Cu2+  Cu101  1  0.62487649  0.37521213  0.86456867  1
  Cu2+  Cu102  1  0.37700298  0.62585578  0.86216699  1
  Cu2+  Cu103  1  0.37335906  0.87586121  0.37192333  1
  Cu2+  Cu104  1  0.12332298  0.62572770  0.87205829  1
  Cu2+  Cu105  1  0.37443801  0.12606355  0.37142960  1
  Cu2+  Cu106  1  0.87440342  0.12579914  0.85931109  1
  Cu2+  Cu107  1  0.62348469  0.37380024  0.37308970  1
  Cu2+  Cu108  1  0.12617862  0.87529751  0.65495197  1
  Cu2+  Cu109  1  0.87381904  0.62582854  0.15677188  1
  Cu2+  Cu110  1  0.37454093  0.62466840  0.65075093  1
  Cu2+  Cu111  1  0.62323474  0.37430127  0.64373341  1
  Cu2+  Cu112  1  0.87471384  0.37393231  0.14938608  1
  Cu2+  Cu113  1  0.37483669  0.12552165  0.64464447  1
  Cu2+  Cu114  1  0.37440894  0.87679956  0.64435598  1
  Cu2+  Cu115  1  0.12541587  0.62646035  0.13999031  1
  Cu2+  Cu116  1  0.37428235  0.37377749  0.65924700  1
  Cu2+  Cu117  1  0.87527161  0.87615808  0.65010340  1
  Cu2+  Cu118  1  0.37591049  0.12538254  0.14330955  1
  Cu2+  Cu119  1  0.62455221  0.12456321  0.64830219  1
  Cu2+  Cu120  1  0.62505811  0.87577191  0.15542431  1
  Cu2+  Cu121  1  0.12593179  0.12493904  0.64456109  1
  Cu2+  Cu122  1  0.87546580  0.37399968  0.65226711  1
  Cu2+  Cu123  1  0.37491266  0.87533414  0.14862484  1
  Cu2+  Cu124  1  0.12428615  0.12362512  0.14023278  1
  Cu2+  Cu125  1  0.62585711  0.12506502  0.14354687  1
  Cu2+  Cu126  1  0.62417523  0.62451056  0.15746654  1
  Cu2+  Cu127  1  0.12645772  0.37496080  0.65809855  1
  O2-  O128  1  0.12315420  0.12382922  0.00687628  1
  O2-  O129  1  0.12493229  0.12590486  0.50896665  1
  O2-  O130  1  0.12226274  0.37622706  0.00566662  1
  O2-  O131  1  0.12814503  0.37561580  0.49443291  1
  O2-  O132  1  0.12326144  0.62643214  0.00591420  1
  O2-  O133  1  0.12646617  0.62368577  0.50665396  1
  O2-  O134  1  0.12382700  0.87404192  0.00618543  1
  O2-  O135  1  0.12579469  0.87473016  0.49622101  1
  O2-  O136  1  0.37695088  0.12400427  0.00767287  1
  O2-  O137  1  0.37416273  0.12741827  0.50856108  1
  O2-  O138  1  0.37813279  0.37622677  0.00679987  1
  O2-  O139  1  0.37155070  0.37393094  0.49481937  1
  O2-  O140  1  0.37901184  0.62519156  0.01718152  1
  O2-  O141  1  0.37104020  0.62223685  0.49805217  1
  O2-  O142  1  0.37920233  0.87354748  -0.00213792  1
  O2-  O143  1  0.37316070  0.87592466  0.50660758  1
  O2-  O144  1  0.62716624  0.12334142  0.00659212  1
  O2-  O145  1  0.62494349  0.12582060  0.49973148  1
  O2-  O146  1  0.62612859  0.37642383  0.01670907  1
  O2-  O147  1  0.62287849  0.37498209  0.50815209  1
  O2-  O148  1  0.62850404  0.62795811  -0.00743310  1
  O2-  O149  1  0.62312923  0.62359765  0.50605515  1
  O2-  O150  1  0.62560263  0.87168202  -0.00603690  1
  O2-  O151  1  0.62436214  0.87617184  0.50604833  1
  O2-  O152  1  0.87262253  0.12305823  0.01846767  1
  O2-  O153  1  0.87648466  0.12705588  0.50821734  1
  O2-  O154  1  0.87391197  0.37801431  -0.00348104  1
  O2-  O155  1  0.87788774  0.37344571  0.49671716  1
  O2-  O156  1  0.87046479  0.62573836  -0.00724924  1
  O2-  O157  1  0.87831178  0.62331572  0.50573757  1
  O2-  O158  1  0.87335929  0.87533968  0.01810684  1
  O2-  O159  1  0.87720252  0.87541541  0.49841886  1
  O2-  O160  1  0.12472430  -0.00327756  0.16518679  1
  O2-  O161  1  0.12445358  -0.00136330  0.66662092  1
  O2-  O162  1  0.12485528  0.25235070  0.16168993  1
  O2-  O163  1  0.12566185  0.25163380  0.66855833  1
  O2-  O164  1  0.12374409  0.49758962  0.16284256  1
  O2-  O165  1  0.12511582  0.50159253  0.66426938  1
  O2-  O166  1  0.12496090  0.75340806  0.16603212  1
  O2-  O167  1  0.12496694  0.74837125  0.66209659  1
  O2-  O168  1  0.37555459  -0.00093451  0.16589455  1
  O2-  O169  1  0.37490698  0.00070274  0.66565281  1
  O2-  O170  1  0.37421563  0.25333544  0.16241828  1
  O2-  O171  1  0.37435982  0.25071431  0.66909467  1
  O2-  O172  1  0.37543204  0.49814400  0.16446044  1
  O2-  O173  1  0.37465019  0.49922669  0.66685637  1
  O2-  O174  1  0.37617173  0.74953064  0.16686419  1
  O2-  O175  1  0.37361667  0.74956971  0.66299635  1
  O2-  O176  1  0.62496711  -0.00072097  0.16727429  1
  O2-  O177  1  0.62541180  -0.00152373  0.66164717  1
  O2-  O178  1  0.62547004  0.25143124  0.16620135  1
  O2-  O179  1  0.62444276  0.24848512  0.66678751  1
  O2-  O180  1  0.62536733  0.49903344  0.16723820  1
  O2-  O181  1  0.62412828  0.50343052  0.66289135  1
  O2-  O182  1  0.62511754  0.74969067  0.16849504  1
  O2-  O183  1  0.62615296  0.74986887  0.65581368  1
  O2-  O184  1  0.87483517  -0.00033733  0.17279578  1
  O2-  O185  1  0.87543122  0.00240801  0.66290925  1
  O2-  O186  1  0.87519474  0.24912286  0.16635169  1
  O2-  O187  1  0.87566507  0.24911385  0.66509462  1
  O2-  O188  1  0.87476443  0.50081994  0.16486947  1
  O2-  O189  1  0.87563858  0.50104420  0.66092928  1
  O2-  O190  1  0.87380913  0.75116837  0.16956816  1
  O2-  O191  1  0.87545114  0.74769104  0.65963351  1
  O2-  O192  1  -0.00206956  0.12473314  0.16774772  1
  O2-  O193  1  -0.00186491  0.12563522  0.66477910  1
  O2-  O194  1  0.00094056  0.37541494  0.16086470  1
  O2-  O195  1  0.00102594  0.37533851  0.66443207  1
  O2-  O196  1  -0.00163602  0.62587168  0.16544423  1
  O2-  O197  1  0.00048596  0.62463146  0.65984537  1
  O2-  O198  1  0.00083623  0.87392635  0.16389724  1
  O2-  O199  1  0.00058320  0.87453553  0.66581594  1
  O2-  O200  1  0.25033408  0.12427404  0.16326273  1
  O2-  O201  1  0.24989429  0.12520282  0.66824548  1
  O2-  O202  1  0.24983472  0.37687340  0.15513703  1
  O2-  O203  1  0.25047253  0.37621386  0.67211868  1
  O2-  O204  1  0.25272895  0.62492528  0.16383159  1
  O2-  O205  1  0.24806706  0.62435702  0.66660722  1
  O2-  O206  1  0.24899709  0.87425326  0.15845586  1
  O2-  O207  1  0.24929101  0.87471671  0.66952929  1
  O2-  O208  1  0.50039951  0.12501769  0.16555596  1
  O2-  O209  1  0.50090361  0.12554907  0.66538492  1
  O2-  O210  1  0.49899167  0.37524968  0.16574687  1
  O2-  O211  1  0.49786412  0.37498421  0.66680595  1
  O2-  O212  1  0.49959582  0.62515420  0.16971210  1
  O2-  O213  1  0.50092516  0.62590679  0.65989272  1
  O2-  O214  1  0.50058973  0.87453091  0.16653192  1
  O2-  O215  1  0.50224177  0.87393251  0.66093807  1
  O2-  O216  1  0.75130750  0.12479674  0.17123454  1
  O2-  O217  1  0.75147637  0.12532810  0.66185652  1
  O2-  O218  1  0.74954022  0.37592944  0.16830468  1
  O2-  O219  1  0.75063176  0.37489114  0.66204869  1
  O2-  O220  1  0.74901224  0.62519600  0.16958899  1
  O2-  O221  1  0.75031359  0.62467034  0.65327816  1
  O2-  O222  1  0.75024233  0.87436294  0.16998974  1
  O2-  O223  1  0.74817032  0.87512830  0.65948157  1
  O2-  O224  1  0.12468318  -0.00095947  0.34767281  1
  O2-  O225  1  0.12417692  -0.00304424  0.84999269  1
  O2-  O226  1  0.12471508  0.25143516  0.34447681  1
  O2-  O227  1  0.12525589  0.25285068  0.85209153  1
  O2-  O228  1  0.12476687  0.50168973  0.34547019  1
  O2-  O229  1  0.12485282  0.49718130  0.84835096  1
  O2-  O230  1  0.12404171  0.74769757  0.34869492  1
  O2-  O231  1  0.12388123  0.75327763  0.84661651  1
  O2-  O232  1  0.37426681  0.00086186  0.35002037  1
  O2-  O233  1  0.37501230  -0.00203740  0.84682730  1
  O2-  O234  1  0.37427315  0.25101076  0.34366468  1
  O2-  O235  1  0.37521309  0.25229157  0.85279420  1
  O2-  O236  1  0.37378860  0.50022253  0.34303073  1
  O2-  O237  1  0.37596017  0.49905425  0.85177701  1
  O2-  O238  1  0.37447756  0.74744817  0.34874669  1
  O2-  O239  1  0.37532522  0.75080985  0.84553372  1
  O2-  O240  1  0.62611784  -0.00067735  0.35006697  1
  O2-  O241  1  0.62614360  -0.00244720  0.84450736  1
  O2-  O242  1  0.62518290  0.24796716  0.34645134  1
  O2-  O243  1  0.62491680  0.25051151  0.85113758  1
  O2-  O244  1  0.62568964  0.50278130  0.35004013  1
  O2-  O245  1  0.62527135  0.50107404  0.84556170  1
  O2-  O246  1  0.62531504  0.74976501  0.35355696  1
  O2-  O247  1  0.62569511  0.75053647  0.83661087  1
  O2-  O248  1  0.87466601  0.00128755  0.35241648  1
  O2-  O249  1  0.87453214  0.00114769  0.84840873  1
  O2-  O250  1  0.87586554  0.24864482  0.34737957  1
  O2-  O251  1  0.87480276  0.25078158  0.84897098  1
  O2-  O252  1  0.87564053  0.50115310  0.34876235  1
  O2-  O253  1  0.87406614  0.49926503  0.84157706  1
  O2-  O254  1  0.87554378  0.74851791  0.35199713  1
  O2-  O255  1  0.87468646  0.74934318  0.84246820  1
  O2-  O256  1  -0.00253830  0.12500275  0.34966981  1
  O2-  O257  1  -0.00116355  0.12509988  0.84847817  1
  O2-  O258  1  0.00071300  0.37590622  0.34277968  1
  O2-  O259  1  0.00050347  0.37509779  0.84785767  1
  O2-  O260  1  0.00070281  0.62448105  0.34954079  1
  O2-  O261  1  -0.00346056  0.62489589  0.84304721  1
  O2-  O262  1  0.00001156  0.87450580  0.34386205  1
  O2-  O263  1  0.00042132  0.87498075  0.85162829  1
  O2-  O264  1  0.24993421  0.12516976  0.34742997  1
  O2-  O265  1  0.25066083  0.12451366  0.85130752  1
  O2-  O266  1  0.24944758  0.37565600  0.33676233  1
  O2-  O267  1  0.25055489  0.37672085  0.85692832  1
  O2-  O268  1  0.24768430  0.62486494  0.34465673  1
  O2-  O269  1  0.25175404  0.62542405  0.85194827  1
  O2-  O270  1  0.24746136  0.87393508  0.34151392  1
  O2-  O271  1  0.24984791  0.87356748  0.85277503  1
  O2-  O272  1  0.50122985  0.12438239  0.34802543  1
  O2-  O273  1  0.49985054  0.12449578  0.84817623  1
  O2-  O274  1  0.49750473  0.37581136  0.34655648  1
  O2-  O275  1  0.49906442  0.37628876  0.85113829  1
  O2-  O276  1  0.50028298  0.62467016  0.35135804  1
  O2-  O277  1  0.50196500  0.62505743  0.84342768  1
  O2-  O278  1  0.50266291  0.87472877  0.35097948  1
  O2-  O279  1  0.49995213  0.87416559  0.84149787  1
  O2-  O280  1  0.75130362  0.12494017  0.35200438  1
  O2-  O281  1  0.75078817  0.12498874  0.84619148  1
  O2-  O282  1  0.75223290  0.37534113  0.35019297  1
  O2-  O283  1  0.74968940  0.37449007  0.84520255  1
  O2-  O284  1  0.75075111  0.62545142  0.35501528  1
  O2-  O285  1  0.74994676  0.62533651  0.83441852  1
  O2-  O286  1  0.74932435  0.87379507  0.35230465  1
  O2-  O287  1  0.74978632  0.87509943  0.84303902  1
