# generated using pymatgen
data_BaYFeCuO5
_symmetry_space_group_name_H-M   'P 1'
_cell_length_a   15.66025270
_cell_length_b   15.66776378
_cell_length_c   15.46800955
_cell_angle_alpha   90.00646576
_cell_angle_beta   89.99686297
_cell_angle_gamma   89.99982393
_symmetry_Int_Tables_number   1
_chemical_formula_structural   BaYFeCuO5
_chemical_formula_sum   'Ba32 Y32 Fe32 Cu32 O160'
_cell_volume   3795.24842567
_cell_formula_units_Z   32
loop_
 _symmetry_equiv_pos_site_id
 _symmetry_equiv_pos_as_xyz
  1  'x, y, z'
loop_
 _atom_type_symbol
 _atom_type_oxidation_number
  Ba2+  2.0
  Y3+  3.0
  Fe3+  3.0
  Cu2+  2.0
  O2-  -2.0
loop_
 _atom_site_type_symbol
 _atom_site_label
 _atom_site_symmetry_multiplicity
 _atom_site_fract_x
 _atom_site_fract_y
 _atom_site_fract_z
 _atom_site_occupancy
  Ba2+  Ba0  1  0.00635453  0.00733773  0.00693070  1
  Ba2+  Ba1  1  -0.00206106  0.00389202  0.51334683  1
  Ba2+  Ba2  1  0.00162378  0.25216716  0.00181176  1
  Ba2+  Ba3  1  0.00174625  0.24267531  0.51932889  1
  Ba2+  Ba4  1  0.00339342  0.49017946  0.00989889  1
  Ba2+  Ba5  1  0.00735792  0.49840839  0.51862207  1
  Ba2+  Ba6  1  0.01001889  0.74990718  0.01556634  1
  Ba2+  Ba7  1  0.00352409  0.75608282  0.51301159  1
  Ba2+  Ba8  1  0.25036308  0.00213860  0.02016815  1
  Ba2+  Ba9  1  0.24657855  0.00671334  0.51613172  1
  Ba2+  Ba10  1  0.24692480  0.24989849  0.01435523  1
  Ba2+  Ba11  1  0.24747367  0.24324655  0.51650501  1
  Ba2+  Ba12  1  0.25014039  0.49759627  0.01999209  1
  Ba2+  Ba13  1  0.24132485  0.49810552  0.51546239  1
  Ba2+  Ba14  1  0.25347627  0.74966388  0.02487096  1
  Ba2+  Ba15  1  0.24004741  0.75166649  0.51475241  1
  Ba2+  Ba16  1  0.50124447  0.00399902  0.01288847  1
  Ba2+  Ba17  1  0.49981955  0.00174875  0.50700037  1
  Ba2+  Ba18  1  0.50358534  0.25016960  0.01767377  1
  Ba2+  Ba19  1  0.49952400  0.24826970  0.50671146  1
  Ba2+  Ba20  1  0.50079648  0.49761651  0.02366147  1
  Ba2+  Ba21  1  0.50533417  0.49319706  0.50624549  1
  Ba2+  Ba22  1  0.49706782  0.74943132  0.02109681  1
  Ba2+  Ba23  1  0.50602955  0.75676363  0.50670521  1
  Ba2+  Ba24  1  0.74258929  0.00732868  -0.00221185  1
  Ba2+  Ba25  1  0.75589311  -0.00125780  0.50148372  1
  Ba2+  Ba26  1  0.74664605  0.25205287  0.00117735  1
  Ba2+  Ba27  1  0.75217398  0.24723074  0.50730887  1
  Ba2+  Ba28  1  0.74494108  0.48985702  0.01133449  1
  Ba2+  Ba29  1  0.74601735  0.49232608  0.50703518  1
  Ba2+  Ba30  1  0.73873629  0.74907573  0.00691145  1
  Ba2+  Ba31  1  0.75046738  0.76187014  0.50190035  1
  Y3+  Y32  1  -0.00018661  0.00228966  0.25587354  1
  Y3+  Y33  1  -0.00022071  0.00454474  0.76002570  1
  Y3+  Y34  1  -0.00042293  0.24975025  0.25227860  1
  Y3+  Y35  1  -0.00015929  0.24886109  0.76333138  1
  Y3+  Y36  1  0.00032131  0.49721635  0.25186197  1
  Y3+  Y37  1  0.00101132  0.49653651  0.76097898  1
  Y3+  Y38  1  0.00051957  0.75071905  0.25543247  1
  Y3+  Y39  1  0.00076808  0.75005699  0.75794013  1
  Y3+  Y40  1  0.25084905  0.00304073  0.25506568  1
  Y3+  Y41  1  0.24919559  0.00328208  0.75642214  1
  Y3+  Y42  1  0.25077836  0.24826673  0.25360730  1
  Y3+  Y43  1  0.24760316  0.24869699  0.75854775  1
  Y3+  Y44  1  0.24955939  0.49835501  0.25404227  1
  Y3+  Y45  1  0.24737575  0.49803407  0.75635832  1
  Y3+  Y46  1  0.24978485  0.75037863  0.25537235  1
  Y3+  Y47  1  0.24885712  0.75037505  0.75359222  1
  Y3+  Y48  1  0.49932746  0.00292338  0.25951497  1
  Y3+  Y49  1  0.50181333  0.00118990  0.75598256  1
  Y3+  Y50  1  0.50082578  0.24917522  0.25814650  1
  Y3+  Y51  1  0.50207604  0.24924872  0.75643951  1
  Y3+  Y52  1  0.50180553  0.49663965  0.25855822  1
  Y3+  Y53  1  0.50182074  0.49659302  0.75422766  1
  Y3+  Y54  1  0.50030449  0.75111572  0.26020283  1
  Y3+  Y55  1  0.50165115  0.75290217  0.75402095  1
  Y3+  Y56  1  0.75081197  0.00163515  0.26070796  1
  Y3+  Y57  1  0.74823170  0.00287049  0.75796998  1
  Y3+  Y58  1  0.74946319  0.25073251  0.25632876  1
  Y3+  Y59  1  0.74968870  0.24972195  0.76063176  1
  Y3+  Y60  1  0.74932961  0.49597717  0.25648180  1
  Y3+  Y61  1  0.74917356  0.49546133  0.75940616  1
  Y3+  Y62  1  0.74999035  0.75164880  0.25962897  1
  Y3+  Y63  1  0.74814580  0.75179958  0.75759325  1
  Fe3+  Fe64  1  0.12457209  0.87673523  0.37482934  1
  Fe3+  Fe65  1  0.37561790  0.62472468  0.87382421  1
  Fe3+  Fe66  1  0.87440504  0.62459335  0.88056158  1
  Fe3+  Fe67  1  0.87666325  0.62422382  0.38042563  1
  Fe3+  Fe68  1  0.87457363  0.87492781  0.88180900  1
  Fe3+  Fe69  1  0.37521822  0.87466570  0.87558897  1
  Fe3+  Fe70  1  0.62589496  0.12532700  0.37907627  1
  Fe3+  Fe71  1  0.12740260  0.87492502  0.87688396  1
  Fe3+  Fe72  1  0.62213762  0.62402610  0.87557592  1
  Fe3+  Fe73  1  0.12404814  0.62418167  0.37456235  1
  Fe3+  Fe74  1  0.37538521  0.12538697  0.87662206  1
  Fe3+  Fe75  1  0.37379949  0.62461108  0.37985720  1
  Fe3+  Fe76  1  0.12435541  0.37340340  0.37596916  1
  Fe3+  Fe77  1  0.37285139  0.87591052  0.37913924  1
  Fe3+  Fe78  1  0.12707944  0.62514344  0.87688928  1
  Fe3+  Fe79  1  0.87740674  0.37403688  0.37996126  1
  Fe3+  Fe80  1  0.37313498  0.37405519  0.37899600  1
  Fe3+  Fe81  1  0.12444138  0.12594991  0.37412781  1
  Fe3+  Fe82  1  0.37550484  0.37537651  0.87611952  1
  Fe3+  Fe83  1  0.62635849  0.62487872  0.37917909  1
  Fe3+  Fe84  1  0.87477934  0.62483890  0.63485612  1
  Fe3+  Fe85  1  0.87342042  0.12547949  0.13595482  1
  Fe3+  Fe86  1  0.62663294  0.62516284  0.63323209  1
  Fe3+  Fe87  1  0.87371023  0.62456520  0.13431019  1
  Fe3+  Fe88  1  0.37401087  0.87599558  0.63337145  1
  Fe3+  Fe89  1  0.62540431  0.87679546  0.14085267  1
  Fe3+  Fe90  1  0.37481095  0.62484479  0.63089855  1
  Fe3+  Fe91  1  0.87433717  0.87595986  0.13440239  1
  Fe3+  Fe92  1  0.62601147  0.12496641  0.63599341  1
  Fe3+  Fe93  1  0.87547637  0.37364555  0.63698222  1
  Fe3+  Fe94  1  0.37426760  0.37377717  0.63394934  1
  Fe3+  Fe95  1  0.87522294  0.87647938  0.64165677  1
  Cu2+  Cu96  1  0.62493976  0.87645040  0.37331656  1
  Cu2+  Cu97  1  0.37339208  0.12557985  0.37392086  1
  Cu2+  Cu98  1  0.87412731  0.12464248  0.86788393  1
  Cu2+  Cu99  1  0.62350633  0.87479562  0.86299506  1
  Cu2+  Cu100  1  0.62255361  0.37506036  0.87090062  1
  Cu2+  Cu101  1  0.87739031  0.87501136  0.36144983  1
  Cu2+  Cu102  1  0.87709799  0.12617527  0.37306269  1
  Cu2+  Cu103  1  0.62573142  0.37360647  0.37354124  1
  Cu2+  Cu104  1  0.87424405  0.37504511  0.87338027  1
  Cu2+  Cu105  1  0.12702355  0.37495384  0.87191201  1
  Cu2+  Cu106  1  0.12675890  0.12482304  0.87292318  1
  Cu2+  Cu107  1  0.62265463  0.12612447  0.87136513  1
  Cu2+  Cu108  1  0.12407518  0.12519357  0.65517256  1
  Cu2+  Cu109  1  0.37577296  0.37390009  0.15248634  1
  Cu2+  Cu110  1  0.62582483  0.62525854  0.15666983  1
  Cu2+  Cu111  1  0.37612151  0.87608771  0.15530426  1
  Cu2+  Cu112  1  0.12495605  0.87602556  0.15079613  1
  Cu2+  Cu113  1  0.12513441  0.37368544  0.14163966  1
  Cu2+  Cu114  1  0.37564516  0.12518709  0.64021093  1
  Cu2+  Cu115  1  0.87407960  0.12526240  0.64437946  1
  Cu2+  Cu116  1  0.62648579  0.87651732  0.64068224  1
  Cu2+  Cu117  1  0.37626351  0.12544381  0.15049048  1
  Cu2+  Cu118  1  0.87424475  0.37378942  0.14172578  1
  Cu2+  Cu119  1  0.62613252  0.12483086  0.14576070  1
  Cu2+  Cu120  1  0.62527549  0.37349510  0.14507353  1
  Cu2+  Cu121  1  0.12361138  0.62491611  0.65148403  1
  Cu2+  Cu122  1  0.12461120  0.62437242  0.15017494  1
  Cu2+  Cu123  1  0.12395714  0.87669869  0.65257022  1
  Cu2+  Cu124  1  0.62580248  0.37337482  0.64056053  1
  Cu2+  Cu125  1  0.12439295  0.12581516  0.14091579  1
  Cu2+  Cu126  1  0.37613130  0.62429965  0.15753247  1
  Cu2+  Cu127  1  0.12428029  0.37340357  0.65249153  1
  O2-  O128  1  0.12674068  0.12474307  0.00652386  1
  O2-  O129  1  0.12385533  0.12485854  0.49505390  1
  O2-  O130  1  0.12753966  0.37589087  0.00613661  1
  O2-  O131  1  0.12338666  0.37387556  0.49645451  1
  O2-  O132  1  0.12917820  0.62652255  -0.00309985  1
  O2-  O133  1  0.12253145  0.62500673  0.49507808  1
  O2-  O134  1  0.12997097  0.87220802  -0.00300284  1
  O2-  O135  1  0.12342230  0.87667660  0.49520518  1
  O2-  O136  1  0.37603674  0.12452079  -0.00294541  1
  O2-  O137  1  0.37345162  0.12475886  0.50660686  1
  O2-  O138  1  0.37612383  0.37713316  -0.00357118  1
  O2-  O139  1  0.37207182  0.37510203  0.50572878  1
  O2-  O140  1  0.37699031  0.62529508  -0.00657733  1
  O2-  O141  1  0.37248147  0.62518542  0.50506930  1
  O2-  O142  1  0.37558168  0.87296075  -0.00458939  1
  O2-  O143  1  0.37193623  0.87491086  0.50565100  1
  O2-  O144  1  0.62321565  0.12527003  0.00767047  1
  O2-  O145  1  0.62653151  0.12446522  0.50772571  1
  O2-  O146  1  0.62210110  0.37554323  0.00820780  1
  O2-  O147  1  0.62608869  0.37442363  0.50713459  1
  O2-  O148  1  0.61954032  0.62523870  -0.00444179  1
  O2-  O149  1  0.62866102  0.62572685  0.50642538  1
  O2-  O150  1  0.62306508  0.87437974  0.01994226  1
  O2-  O151  1  0.62633719  0.87605507  0.50742730  1
  O2-  O152  1  0.87316418  0.12411286  0.01540652  1
  O2-  O153  1  0.87654268  0.12506593  0.50882389  1
  O2-  O154  1  0.87361518  0.37622703  0.00686597  1
  O2-  O155  1  0.87826531  0.37483044  0.50805324  1
  O2-  O156  1  0.87364656  0.62484459  0.00711176  1
  O2-  O157  1  0.87688435  0.62572874  0.50755157  1
  O2-  O158  1  0.87352063  0.87424705  0.00851296  1
  O2-  O159  1  0.87742962  0.87532848  0.52034863  1
  O2-  O160  1  0.12529273  -0.00062043  0.16353380  1
  O2-  O161  1  0.12411339  0.00183604  0.66466263  1
  O2-  O162  1  0.12532096  0.24967845  0.16440456  1
  O2-  O163  1  0.12442208  0.24854470  0.66508852  1
  O2-  O164  1  0.12500939  0.50065531  0.16454978  1
  O2-  O165  1  0.12384821  0.49982151  0.66168083  1
  O2-  O166  1  0.12493728  0.75007658  0.16452226  1
  O2-  O167  1  0.12340268  0.75006345  0.66063488  1
  O2-  O168  1  0.37601415  0.00071725  0.16588632  1
  O2-  O169  1  0.37384825  -0.00261535  0.66209774  1
  O2-  O170  1  0.37643661  0.24957369  0.16596532  1
  O2-  O171  1  0.37422369  0.25258745  0.66150180  1
  O2-  O172  1  0.37621545  0.49976092  0.16756683  1
  O2-  O173  1  0.37432149  0.50053059  0.65724754  1
  O2-  O174  1  0.37615034  0.74960340  0.16741519  1
  O2-  O175  1  0.37406208  0.74954014  0.65801995  1
  O2-  O176  1  0.62503069  -0.00129594  0.17008278  1
  O2-  O177  1  0.62545671  0.00268571  0.66524563  1
  O2-  O178  1  0.62481880  0.24916252  0.16828488  1
  O2-  O179  1  0.62503497  0.24763574  0.66339666  1
  O2-  O180  1  0.62553033  0.50109281  0.16798673  1
  O2-  O181  1  0.62555895  0.50291909  0.66051251  1
  O2-  O182  1  0.62515690  0.75105993  0.16872001  1
  O2-  O183  1  0.62607614  0.74690633  0.66241034  1
  O2-  O184  1  0.87457067  -0.00163857  0.16599819  1
  O2-  O185  1  0.87544752  -0.00043114  0.66964470  1
  O2-  O186  1  0.87418370  0.24817463  0.16789707  1
  O2-  O187  1  0.87559395  0.25245797  0.66378326  1
  O2-  O188  1  0.87393801  0.50294821  0.16627198  1
  O2-  O189  1  0.87554801  0.50004197  0.65961766  1
  O2-  O190  1  0.87488177  0.75030209  0.16372672  1
  O2-  O191  1  0.87545520  0.74843331  0.66617856  1
  O2-  O192  1  -0.00264116  0.12407618  0.16397366  1
  O2-  O193  1  0.00134517  0.12511758  0.66803577  1
  O2-  O194  1  -0.00043534  0.37548314  0.16325564  1
  O2-  O195  1  -0.00116712  0.37552299  0.66658538  1
  O2-  O196  1  -0.00233152  0.62562532  0.16086558  1
  O2-  O197  1  -0.00244006  0.62496238  0.66593682  1
  O2-  O198  1  -0.00214762  0.87387419  0.16020604  1
  O2-  O199  1  -0.00033574  0.87461189  0.67094142  1
  O2-  O200  1  0.25187002  0.12500192  0.16236905  1
  O2-  O201  1  0.24772725  0.12501371  0.66189243  1
  O2-  O202  1  0.25183395  0.37527179  0.16470976  1
  O2-  O203  1  0.25006541  0.37578001  0.66035083  1
  O2-  O204  1  0.25054353  0.62480041  0.16454126  1
  O2-  O205  1  0.25084904  0.62515137  0.65806109  1
  O2-  O206  1  0.25111516  0.87447498  0.16420921  1
  O2-  O207  1  0.24980182  0.87418128  0.65856291  1
  O2-  O208  1  0.49966729  0.12473189  0.16878107  1
  O2-  O209  1  0.50275645  0.12472373  0.66110495  1
  O2-  O210  1  0.49936153  0.37517287  0.16948816  1
  O2-  O211  1  0.49716521  0.37570697  0.65922364  1
  O2-  O212  1  0.50091264  0.62510022  0.17162674  1
  O2-  O213  1  0.49987701  0.62562510  0.65365643  1
  O2-  O214  1  0.50078957  0.87452993  0.17139777  1
  O2-  O215  1  0.49682951  0.87418536  0.65929921  1
  O2-  O216  1  0.75180418  0.12404680  0.17163282  1
  O2-  O217  1  0.74751537  0.12548939  0.66695665  1
  O2-  O218  1  0.74975742  0.37528215  0.16876138  1
  O2-  O219  1  0.75324197  0.37573314  0.66586577  1
  O2-  O220  1  0.75172722  0.62641366  0.16745707  1
  O2-  O221  1  0.75115811  0.62467611  0.66488524  1
  O2-  O222  1  0.75166104  0.87387472  0.16906573  1
  O2-  O223  1  0.75240257  0.87455991  0.67162933  1
  O2-  O224  1  0.12504734  0.00030716  0.34444193  1
  O2-  O225  1  0.12484820  -0.00250821  0.84764093  1
  O2-  O226  1  0.12493427  0.25078963  0.34439188  1
  O2-  O227  1  0.12545103  0.24975558  0.84957708  1
  O2-  O228  1  0.12465855  0.49957171  0.34584715  1
  O2-  O229  1  0.12501093  0.50283095  0.84487542  1
  O2-  O230  1  0.12464703  0.74965714  0.34648080  1
  O2-  O231  1  0.12537769  0.74977473  0.84217065  1
  O2-  O232  1  0.37397954  -0.00248586  0.35020435  1
  O2-  O233  1  0.37573267  -0.00052601  0.84402662  1
  O2-  O234  1  0.37439622  0.25310321  0.35019349  1
  O2-  O235  1  0.37524095  0.25012136  0.84379833  1
  O2-  O236  1  0.37490468  0.50032015  0.35211909  1
  O2-  O237  1  0.37510939  0.50059849  0.83883868  1
  O2-  O238  1  0.37446521  0.74928002  0.35184324  1
  O2-  O239  1  0.37547665  0.74991182  0.83898814  1
  O2-  O240  1  0.62553836  0.00292922  0.35156614  1
  O2-  O241  1  0.62420668  -0.00151090  0.84900021  1
  O2-  O242  1  0.62557895  0.24736030  0.35126594  1
  O2-  O243  1  0.62441373  0.25051783  0.84672811  1
  O2-  O244  1  0.62573997  0.50287741  0.35169531  1
  O2-  O245  1  0.62465969  0.50189438  0.84221669  1
  O2-  O246  1  0.62585216  0.74720000  0.35103005  1
  O2-  O247  1  0.62443142  0.74895881  0.84471623  1
  O2-  O248  1  0.87628120  -0.00100364  0.34932010  1
  O2-  O249  1  0.87393840  -0.00255297  0.85286784  1
  O2-  O250  1  0.87594411  0.25342369  0.35072286  1
  O2-  O251  1  0.87407652  0.24820730  0.84846364  1
  O2-  O252  1  0.87551227  0.50007799  0.35210187  1
  O2-  O253  1  0.87452048  0.50440893  0.84474213  1
  O2-  O254  1  0.87589033  0.74759394  0.35001623  1
  O2-  O255  1  0.87402245  0.74978955  0.84980084  1
  O2-  O256  1  0.00192760  0.12527117  0.34427921  1
  O2-  O257  1  -0.00108419  0.12461627  0.85254197  1
  O2-  O258  1  -0.00028003  0.37628317  0.34496460  1
  O2-  O259  1  0.00000988  0.37570552  0.85133390  1
  O2-  O260  1  -0.00106741  0.62475609  0.34440311  1
  O2-  O261  1  -0.00081318  0.62620559  0.85093629  1
  O2-  O262  1  0.00161811  0.87396878  0.34324069  1
  O2-  O263  1  -0.00119110  0.87311237  0.85364346  1
  O2-  O264  1  0.24741720  0.12545095  0.34466879  1
  O2-  O265  1  0.25256998  0.12456796  0.84422567  1
  O2-  O266  1  0.24993560  0.37636949  0.34746134  1
  O2-  O267  1  0.25246479  0.37579369  0.84288954  1
  O2-  O268  1  0.25042858  0.62480932  0.34804941  1
  O2-  O269  1  0.25081683  0.62548281  0.83971653  1
  O2-  O270  1  0.25003914  0.87367196  0.34708413  1
  O2-  O271  1  0.25084264  0.87428914  0.83999793  1
  O2-  O272  1  0.50222784  0.12496764  0.35320193  1
  O2-  O273  1  0.49779377  0.12464500  0.84275913  1
  O2-  O274  1  0.49736344  0.37578648  0.35365066  1
  O2-  O275  1  0.49796227  0.37570664  0.84080341  1
  O2-  O276  1  0.49963244  0.62541847  0.35724846  1
  O2-  O277  1  0.49926793  0.62513681  0.83561080  1
  O2-  O278  1  0.49640331  0.87415990  0.35438064  1
  O2-  O279  1  0.49935407  0.87429996  0.84209514  1
  O2-  O280  1  0.74916524  0.12474934  0.35374216  1
  O2-  O281  1  0.74964879  0.12462170  0.85058883  1
  O2-  O282  1  0.75354086  0.37625661  0.35266331  1
  O2-  O283  1  0.74884140  0.37574681  0.84993756  1
  O2-  O284  1  0.75171708  0.62530212  0.35296421  1
  O2-  O285  1  0.75002624  0.62607542  0.84987795  1
  O2-  O286  1  0.75260059  0.87403279  0.35239077  1
  O2-  O287  1  0.75044446  0.87310450  0.85512296  1
