# generated using pymatgen
data_BaYFeCuO5
_symmetry_space_group_name_H-M   'P 1'
_cell_length_a   15.67867097
_cell_length_b   15.67285270
_cell_length_c   15.50185619
_cell_angle_alpha   89.99743451
_cell_angle_beta   90.00779661
_cell_angle_gamma   89.99858000
_symmetry_Int_Tables_number   1
_chemical_formula_structural   BaYFeCuO5
_chemical_formula_sum   'Ba32 Y32 Fe32 Cu32 O160'
_cell_volume   3809.26334061
_cell_formula_units_Z   32
loop_
 _symmetry_equiv_pos_site_id
 _symmetry_equiv_pos_as_xyz
  1  'x, y, z'
loop_
 _atom_type_symbol
 _atom_type_oxidation_number
  Ba2+  2.0
  Y3+  3.0
  Fe3+  3.0
  Cu2+  2.0
  O2-  -2.0
loop_
 _atom_site_type_symbol
 _atom_site_label
 _atom_site_symmetry_multiplicity
 _atom_site_fract_x
 _atom_site_fract_y
 _atom_site_fract_z
 _atom_site_occupancy
  Ba2+  Ba0  1  -0.00193104  0.00017767  0.02310388  1
  Ba2+  Ba1  1  -0.00572988  -0.00573016  0.50599152  1
  Ba2+  Ba2  1  -0.00694696  0.24330358  0.01500598  1
  Ba2+  Ba3  1  -0.00003819  0.24872717  0.51582882  1
  Ba2+  Ba4  1  -0.00442690  0.50548015  0.01133581  1
  Ba2+  Ba5  1  0.00024348  0.49988328  0.51565467  1
  Ba2+  Ba6  1  0.00158781  0.75205685  0.02133169  1
  Ba2+  Ba7  1  -0.00634567  0.75616073  0.50688280  1
  Ba2+  Ba8  1  0.24698920  -0.00784266  0.01769004  1
  Ba2+  Ba9  1  0.25711500  -0.00493502  0.50660591  1
  Ba2+  Ba10  1  0.24885886  0.24920034  0.01555124  1
  Ba2+  Ba11  1  0.25794275  0.25526489  0.51620964  1
  Ba2+  Ba12  1  0.25333446  0.50689506  0.01211249  1
  Ba2+  Ba13  1  0.25846181  0.49381420  0.50654731  1
  Ba2+  Ba14  1  0.25179919  0.75291684  0.01322033  1
  Ba2+  Ba15  1  0.25682767  0.75509640  0.49801701  1
  Ba2+  Ba16  1  0.50209147  -0.00804516  0.00824951  1
  Ba2+  Ba17  1  0.49523088  0.00287345  0.51877962  1
  Ba2+  Ba18  1  0.50544065  0.25439479  0.01138220  1
  Ba2+  Ba19  1  0.49873085  0.25250121  0.52306320  1
  Ba2+  Ba20  1  0.50101373  0.50230935  0.00671523  1
  Ba2+  Ba21  1  0.50012012  0.49943801  0.50626229  1
  Ba2+  Ba22  1  0.49772313  0.75059715  -0.00006162  1
  Ba2+  Ba23  1  0.49726951  0.74554237  0.50181079  1
  Ba2+  Ba24  1  0.75416516  0.00066482  0.01147519  1
  Ba2+  Ba25  1  0.75422112  0.00173249  0.51709887  1
  Ba2+  Ba26  1  0.75316830  0.24725912  0.01063125  1
  Ba2+  Ba27  1  0.74323819  0.24548664  0.52305108  1
  Ba2+  Ba28  1  0.74920589  0.50136784  0.00661955  1
  Ba2+  Ba29  1  0.74141638  0.50473999  0.51553042  1
  Ba2+  Ba30  1  0.74987301  0.75032955  0.00573194  1
  Ba2+  Ba31  1  0.75205662  0.74642166  0.51262584  1
  Y3+  Y32  1  -0.00089678  -0.00184782  0.25877341  1
  Y3+  Y33  1  -0.00311553  0.00068534  0.75417239  1
  Y3+  Y34  1  -0.00127510  0.24808569  0.25362458  1
  Y3+  Y35  1  -0.00092612  0.24850806  0.75683115  1
  Y3+  Y36  1  0.00019802  0.50016442  0.25660970  1
  Y3+  Y37  1  -0.00061278  0.50121117  0.75555695  1
  Y3+  Y38  1  0.00077747  0.75349947  0.26194304  1
  Y3+  Y39  1  -0.00266485  0.74975083  0.75328443  1
  Y3+  Y40  1  0.25003772  -0.00331530  0.25777459  1
  Y3+  Y41  1  0.25327345  -0.00202969  0.75677192  1
  Y3+  Y42  1  0.25117537  0.25086288  0.25606443  1
  Y3+  Y43  1  0.25104816  0.25114543  0.75491975  1
  Y3+  Y44  1  0.25289013  0.49935670  0.25890356  1
  Y3+  Y45  1  0.25083188  0.49930850  0.75567467  1
  Y3+  Y46  1  0.25118011  0.75302560  0.25898447  1
  Y3+  Y47  1  0.25351103  0.75171608  0.75907375  1
  Y3+  Y48  1  0.49930075  -0.00376499  0.25643984  1
  Y3+  Y49  1  0.49850827  -0.00064313  0.75889210  1
  Y3+  Y50  1  0.49958594  0.25370161  0.25450018  1
  Y3+  Y51  1  0.50071545  0.24922370  0.75785991  1
  Y3+  Y52  1  0.49942478  0.49930016  0.26025388  1
  Y3+  Y53  1  0.50103669  0.50157093  0.75581367  1
  Y3+  Y54  1  0.49927641  0.75096053  0.26036843  1
  Y3+  Y55  1  0.49886863  0.74965921  0.75773451  1
  Y3+  Y56  1  0.75144394  -0.00212078  0.25616469  1
  Y3+  Y57  1  0.75131399  0.00208953  0.75771552  1
  Y3+  Y58  1  0.75047429  0.25083822  0.25192148  1
  Y3+  Y59  1  0.74926238  0.24575578  0.76021591  1
  Y3+  Y60  1  0.74745144  0.49947870  0.25777288  1
  Y3+  Y61  1  0.74844428  0.50407574  0.75591816  1
  Y3+  Y62  1  0.74892218  0.75162372  0.26163249  1
  Y3+  Y63  1  0.75061321  0.74794523  0.75452134  1
  Fe3+  Fe64  1  0.62430287  0.12552627  0.37633712  1
  Fe3+  Fe65  1  0.37470165  0.12463964  0.88006264  1
  Fe3+  Fe66  1  0.87520330  0.37549868  0.87531924  1
  Fe3+  Fe67  1  0.12565079  0.62478602  0.37993355  1
  Fe3+  Fe68  1  0.62634967  0.87482866  0.87510359  1
  Fe3+  Fe69  1  0.87669418  0.87452466  0.87538865  1
  Fe3+  Fe70  1  0.37449741  0.37543010  0.87794284  1
  Fe3+  Fe71  1  0.12485588  0.12360759  0.87660403  1
  Fe3+  Fe72  1  0.62592974  0.37548198  0.87578726  1
  Fe3+  Fe73  1  0.62518191  0.87632033  0.38114813  1
  Fe3+  Fe74  1  0.12583467  0.12499332  0.37881830  1
  Fe3+  Fe75  1  0.62515335  0.37296775  0.37693288  1
  Fe3+  Fe76  1  0.87453884  0.62375815  0.37850583  1
  Fe3+  Fe77  1  0.12465817  0.37358126  0.37660955  1
  Fe3+  Fe78  1  0.12419697  0.37506792  0.87912669  1
  Fe3+  Fe79  1  0.37681068  0.12618084  0.37488717  1
  Fe3+  Fe80  1  0.12467737  0.62645853  0.87613593  1
  Fe3+  Fe81  1  0.87338070  0.12611329  0.37661408  1
  Fe3+  Fe82  1  0.12371505  0.87532906  0.87527141  1
  Fe3+  Fe83  1  0.87405905  0.37406690  0.37964801  1
  Fe3+  Fe84  1  0.12631427  0.12393891  0.63295633  1
  Fe3+  Fe85  1  0.87321756  0.37491716  0.63502629  1
  Fe3+  Fe86  1  0.62434007  0.62637084  0.13961029  1
  Fe3+  Fe87  1  0.12642823  0.62595722  0.63315293  1
  Fe3+  Fe88  1  0.12583657  0.87458405  0.63452716  1
  Fe3+  Fe89  1  0.87426301  0.62624427  0.14057553  1
  Fe3+  Fe90  1  0.37479188  0.62563633  0.63857000  1
  Fe3+  Fe91  1  0.37541882  0.12426301  0.13409446  1
  Fe3+  Fe92  1  0.62469486  0.12375681  0.13551925  1
  Fe3+  Fe93  1  0.62419497  0.87472131  0.63580079  1
  Fe3+  Fe94  1  0.37564011  0.62594724  0.14123577  1
  Fe3+  Fe95  1  0.12435604  0.37606057  0.13403173  1
  Cu2+  Cu96  1  0.37594211  0.37304550  0.37151643  1
  Cu2+  Cu97  1  0.37425604  0.87518380  0.87421139  1
  Cu2+  Cu98  1  0.37431829  0.62437222  0.86308159  1
  Cu2+  Cu99  1  0.62486305  0.62546024  0.86198004  1
  Cu2+  Cu100  1  0.12530424  0.87587285  0.36828672  1
  Cu2+  Cu101  1  0.87583624  0.62570659  0.86136646  1
  Cu2+  Cu102  1  0.87314106  0.87572603  0.37305315  1
  Cu2+  Cu103  1  0.37473410  0.62441893  0.36425107  1
  Cu2+  Cu104  1  0.62506369  0.62462270  0.37471456  1
  Cu2+  Cu105  1  0.62455463  0.12418788  0.86731886  1
  Cu2+  Cu106  1  0.37694814  0.87656675  0.37237445  1
  Cu2+  Cu107  1  0.87609095  0.12398972  0.87188668  1
  Cu2+  Cu108  1  0.62525651  0.87347613  0.15196180  1
  Cu2+  Cu109  1  0.37434330  0.12494964  0.65402828  1
  Cu2+  Cu110  1  0.12466941  0.87456908  0.15637314  1
  Cu2+  Cu111  1  0.37552741  0.87389732  0.64291557  1
  Cu2+  Cu112  1  0.37625612  0.37644295  0.64488947  1
  Cu2+  Cu113  1  0.87431528  0.87349477  0.15475933  1
  Cu2+  Cu114  1  0.62518743  0.37659113  0.14796885  1
  Cu2+  Cu115  1  0.87403119  0.87510429  0.64118038  1
  Cu2+  Cu116  1  0.12543960  0.62543668  0.15547682  1
  Cu2+  Cu117  1  0.87551323  0.12557548  0.64963801  1
  Cu2+  Cu118  1  0.12472848  0.37521288  0.64969547  1
  Cu2+  Cu119  1  0.62327263  0.62627698  0.64234901  1
  Cu2+  Cu120  1  0.12545184  0.12447880  0.15200336  1
  Cu2+  Cu121  1  0.87526339  0.62444296  0.64748041  1
  Cu2+  Cu122  1  0.62400210  0.12379937  0.65445554  1
  Cu2+  Cu123  1  0.37492548  0.37595477  0.14647881  1
  Cu2+  Cu124  1  0.87419859  0.12375787  0.14342238  1
  Cu2+  Cu125  1  0.37621949  0.87390687  0.14262551  1
  Cu2+  Cu126  1  0.62525430  0.37520765  0.65351570  1
  Cu2+  Cu127  1  0.87486443  0.37645797  0.15007768  1
  O2-  O128  1  0.12420905  0.12367879  -0.00356703  1
  O2-  O129  1  0.12654981  0.12595450  0.50520911  1
  O2-  O130  1  0.12366812  0.37605106  0.00485670  1
  O2-  O131  1  0.12412639  0.37300458  0.49644984  1
  O2-  O132  1  0.12334074  0.62631163  -0.00382396  1
  O2-  O133  1  0.12618812  0.62408498  0.50647648  1
  O2-  O134  1  0.12207716  0.87477593  -0.00460333  1
  O2-  O135  1  0.12674390  0.87539790  0.51425402  1
  O2-  O136  1  0.37381240  0.12422357  0.00638182  1
  O2-  O137  1  0.37641077  0.12749318  0.49509656  1
  O2-  O138  1  0.37301230  0.37546145  -0.00215550  1
  O2-  O139  1  0.37665674  0.37399514  0.50716612  1
  O2-  O140  1  0.37536111  0.62586653  0.02060636  1
  O2-  O141  1  0.37384853  0.62411768  0.51810731  1
  O2-  O142  1  0.37415809  0.87425657  0.00819778  1
  O2-  O143  1  0.37679784  0.87600775  0.50739498  1
  O2-  O144  1  0.62534868  0.12338562  0.01510003  1
  O2-  O145  1  0.62299368  0.12667549  0.49581520  1
  O2-  O146  1  0.62699194  0.37665773  -0.00386277  1
  O2-  O147  1  0.62519417  0.37166332  0.49691374  1
  O2-  O148  1  0.62477090  0.62637739  0.01950347  1
  O2-  O149  1  0.62399987  0.62486586  0.50794725  1
  O2-  O150  1  0.62725681  0.87403741  -0.00443882  1
  O2-  O151  1  0.62431256  0.87669684  0.50793149  1
  O2-  O152  1  0.87592008  0.12366548  0.00741032  1
  O2-  O153  1  0.87358473  0.12791946  0.49671088  1
  O2-  O154  1  0.87586301  0.37653794  -0.00469525  1
  O2-  O155  1  0.87389383  0.37358036  0.50549513  1
  O2-  O156  1  0.87502659  0.62660198  0.01992119  1
  O2-  O157  1  0.87546811  0.62162040  0.49877835  1
  O2-  O158  1  0.87745541  0.87359133  -0.00457980  1
  O2-  O159  1  0.87280363  0.87610601  0.50705162  1
  O2-  O160  1  0.12498636  -0.00056017  0.16617016  1
  O2-  O161  1  0.12564216  0.00107078  0.66144570  1
  O2-  O162  1  0.12429532  0.25196918  0.16044493  1
  O2-  O163  1  0.12522042  0.24813277  0.66307280  1
  O2-  O164  1  0.12470729  0.49845198  0.16376419  1
  O2-  O165  1  0.12488603  0.50189132  0.66330019  1
  O2-  O166  1  0.12486318  0.75030748  0.16929238  1
  O2-  O167  1  0.12437705  0.74886278  0.66245015  1
  O2-  O168  1  0.37519884  0.00215436  0.16256583  1
  O2-  O169  1  0.37462969  0.00091786  0.66506817  1
  O2-  O170  1  0.37414060  0.24888963  0.15851264  1
  O2-  O171  1  0.37489413  0.24963705  0.66636934  1
  O2-  O172  1  0.37419654  0.50073508  0.16795077  1
  O2-  O173  1  0.37422183  0.50184061  0.66782769  1
  O2-  O174  1  0.37444554  0.74870328  0.17101216  1
  O2-  O175  1  0.37477250  0.74845861  0.66871384  1
  O2-  O176  1  0.62437855  -0.00090643  0.16506835  1
  O2-  O177  1  0.62440375  -0.00100374  0.66247791  1
  O2-  O178  1  0.62537546  0.25060712  0.15989107  1
  O2-  O179  1  0.62473871  0.24880243  0.66606936  1
  O2-  O180  1  0.62498732  0.50105194  0.16706758  1
  O2-  O181  1  0.62517995  0.49962834  0.66518550  1
  O2-  O182  1  0.62539922  0.74951768  0.17174503  1
  O2-  O183  1  0.62475260  0.75283868  0.66426863  1
  O2-  O184  1  0.87497660  -0.00279886  0.16544282  1
  O2-  O185  1  0.87491561  0.00223960  0.66324308  1
  O2-  O186  1  0.87557988  0.25173007  0.16209488  1
  O2-  O187  1  0.87523467  0.25147092  0.66316992  1
  O2-  O188  1  0.87593551  0.50150163  0.16797065  1
  O2-  O189  1  0.87507869  0.49800171  0.66256541  1
  O2-  O190  1  0.87574139  0.74943018  0.17109619  1
  O2-  O191  1  0.87498121  0.74839639  0.66284908  1
  O2-  O192  1  0.00106512  0.12441327  0.16726339  1
  O2-  O193  1  0.00242158  0.12595997  0.65941775  1
  O2-  O194  1  0.00156375  0.37564061  0.16369956  1
  O2-  O195  1  -0.00214429  0.37495352  0.66070569  1
  O2-  O196  1  0.00026623  0.62518655  0.16791937  1
  O2-  O197  1  0.00223015  0.62379396  0.65974938  1
  O2-  O198  1  -0.00014562  0.87445813  0.16736253  1
  O2-  O199  1  0.00141076  0.87528354  0.66095621  1
  O2-  O200  1  0.25165144  0.12537260  0.16317476  1
  O2-  O201  1  0.24857694  0.12575484  0.66341602  1
  O2-  O202  1  0.24748567  0.37501369  0.16244945  1
  O2-  O203  1  0.24885193  0.37497676  0.66594063  1
  O2-  O204  1  0.24998634  0.62467689  0.16797031  1
  O2-  O205  1  0.24850170  0.62488283  0.66654028  1
  O2-  O206  1  0.24876592  0.87495795  0.16549903  1
  O2-  O207  1  0.24843335  0.87493712  0.66720969  1
  O2-  O208  1  0.49899367  0.12570505  0.16158819  1
  O2-  O209  1  0.49865951  0.12491336  0.66770365  1
  O2-  O210  1  0.49966577  0.37561246  0.16270957  1
  O2-  O211  1  0.50216186  0.37479220  0.66825685  1
  O2-  O212  1  0.50020455  0.62483115  0.17109390  1
  O2-  O213  1  0.49797619  0.62516855  0.66857469  1
  O2-  O214  1  0.50159976  0.87414500  0.16657296  1
  O2-  O215  1  0.50219094  0.87603472  0.66634481  1
  O2-  O216  1  0.74784609  0.12461360  0.16526955  1
  O2-  O217  1  0.74992869  0.12534326  0.66459614  1
  O2-  O218  1  0.75082890  0.37625124  0.16451521  1
  O2-  O219  1  0.75088005  0.37475303  0.66121343  1
  O2-  O220  1  0.74960575  0.62519098  0.16888769  1
  O2-  O221  1  0.75065213  0.62503442  0.66374293  1
  O2-  O222  1  0.75001668  0.87396038  0.16570858  1
  O2-  O223  1  0.74732954  0.87552327  0.66266323  1
  O2-  O224  1  0.12526323  0.00238710  0.35068911  1
  O2-  O225  1  0.12553698  -0.00025413  0.84181906  1
  O2-  O226  1  0.12440619  0.24837502  0.34382272  1
  O2-  O227  1  0.12498029  0.25149646  0.84739985  1
  O2-  O228  1  0.12475924  0.50040809  0.34801596  1
  O2-  O229  1  0.12436202  0.49847239  0.84749466  1
  O2-  O230  1  0.12545640  0.74836909  0.35394072  1
  O2-  O231  1  0.12502158  0.75042893  0.84287403  1
  O2-  O232  1  0.37490982  0.00263238  0.34485951  1
  O2-  O233  1  0.37466767  0.00297303  0.84886064  1
  O2-  O234  1  0.37463254  0.24780386  0.33988459  1
  O2-  O235  1  0.37406224  0.24969985  0.84910703  1
  O2-  O236  1  0.37428883  0.50079717  0.35087465  1
  O2-  O237  1  0.37404985  0.49897392  0.84890997  1
  O2-  O238  1  0.37493870  0.74880212  0.35332322  1
  O2-  O239  1  0.37442330  0.74814610  0.85073477  1
  O2-  O240  1  0.62493949  -0.00016854  0.34735227  1
  O2-  O241  1  0.62478053  -0.00091836  0.84566817  1
  O2-  O242  1  0.62565293  0.24984115  0.34014324  1
  O2-  O243  1  0.62530064  0.25050271  0.84940582  1
  O2-  O244  1  0.62539133  0.49735417  0.34906473  1
  O2-  O245  1  0.62534803  0.50064829  0.84820902  1
  O2-  O246  1  0.62470763  0.75260760  0.35463197  1
  O2-  O247  1  0.62550868  0.74952269  0.84695654  1
  O2-  O248  1  0.87490825  0.00262844  0.34791924  1
  O2-  O249  1  0.87542948  -0.00212165  0.84508703  1
  O2-  O250  1  0.87560126  0.25128312  0.34427367  1
  O2-  O251  1  0.87583731  0.25169176  0.84624937  1
  O2-  O252  1  0.87626842  0.49749029  0.34916947  1
  O2-  O253  1  0.87629834  0.50013092  0.84608347  1
  O2-  O254  1  0.87551368  0.74829794  0.35266802  1
  O2-  O255  1  0.87543591  0.75014633  0.84526554  1
  O2-  O256  1  0.00077096  0.12584987  0.35049538  1
  O2-  O257  1  0.00266014  0.12553076  0.84168021  1
  O2-  O258  1  -0.00138951  0.37432419  0.34747184  1
  O2-  O259  1  0.00153640  0.37525794  0.84428235  1
  O2-  O260  1  0.00141789  0.62401313  0.35007128  1
  O2-  O261  1  0.00137000  0.62429845  0.84238286  1
  O2-  O262  1  0.00044441  0.87571374  0.35176933  1
  O2-  O263  1  0.00016201  0.87475646  0.83981728  1
  O2-  O264  1  0.24887208  0.12554468  0.34723467  1
  O2-  O265  1  0.25077831  0.12604720  0.84664461  1
  O2-  O266  1  0.24803001  0.37420391  0.34612795  1
  O2-  O267  1  0.24818530  0.37483107  0.84846882  1
  O2-  O268  1  0.24896005  0.62425209  0.35169827  1
  O2-  O269  1  0.24902180  0.62386263  0.84785730  1
  O2-  O270  1  0.25008689  0.87585945  0.34962473  1
  O2-  O271  1  0.24816190  0.87522909  0.84812977  1
  O2-  O272  1  0.50088589  0.12527955  0.34120432  1
  O2-  O273  1  0.49771466  0.12550006  0.85218755  1
  O2-  O274  1  0.50180091  0.37424190  0.34577616  1
  O2-  O275  1  0.49991188  0.37508416  0.84957103  1
  O2-  O276  1  0.49781607  0.62428161  0.35186968  1
  O2-  O277  1  0.49900453  0.62511561  0.85185309  1
  O2-  O278  1  0.50309411  0.87581748  0.34938642  1
  O2-  O279  1  0.50142716  0.87447781  0.84929454  1
  O2-  O280  1  0.74953834  0.12585598  0.34485760  1
  O2-  O281  1  0.74928608  0.12459872  0.84932166  1
  O2-  O282  1  0.75174336  0.37439358  0.34705029  1
  O2-  O283  1  0.75030152  0.37598387  0.84346175  1
  O2-  O284  1  0.75220137  0.62387842  0.34807823  1
  O2-  O285  1  0.75084980  0.62502946  0.84874666  1
  O2-  O286  1  0.74674712  0.87578657  0.34919253  1
  O2-  O287  1  0.75104236  0.87423346  0.84434634  1
