# generated using pymatgen
data_BaYFeCuO5
_symmetry_space_group_name_H-M   'P 1'
_cell_length_a   15.66073997
_cell_length_b   15.66009548
_cell_length_c   15.45874128
_cell_angle_alpha   90.00139193
_cell_angle_beta   90.00431554
_cell_angle_gamma   89.99626878
_symmetry_Int_Tables_number   1
_chemical_formula_structural   BaYFeCuO5
_chemical_formula_sum   'Ba32 Y32 Fe32 Cu32 O160'
_cell_volume   3791.23592260
_cell_formula_units_Z   32
loop_
 _symmetry_equiv_pos_site_id
 _symmetry_equiv_pos_as_xyz
  1  'x, y, z'
loop_
 _atom_type_symbol
 _atom_type_oxidation_number
  Ba2+  2.0
  Y3+  3.0
  Fe3+  3.0
  Cu2+  2.0
  O2-  -2.0
loop_
 _atom_site_type_symbol
 _atom_site_label
 _atom_site_symmetry_multiplicity
 _atom_site_fract_x
 _atom_site_fract_y
 _atom_site_fract_z
 _atom_site_occupancy
  Ba2+  Ba0  1  0.00045756  -0.00816716  0.02005199  1
  Ba2+  Ba1  1  0.00613167  0.00685270  0.50669023  1
  Ba2+  Ba2  1  -0.00010191  0.26113479  0.00688090  1
  Ba2+  Ba3  1  0.00801540  0.25440701  0.50545959  1
  Ba2+  Ba4  1  -0.00749214  0.49587651  0.00728031  1
  Ba2+  Ba5  1  -0.00059858  0.49871481  0.50673909  1
  Ba2+  Ba6  1  -0.00834835  0.75032292  0.01647229  1
  Ba2+  Ba7  1  -0.00098032  0.73866911  0.50687146  1
  Ba2+  Ba8  1  0.25854408  -0.00377522  0.01712582  1
  Ba2+  Ba9  1  0.24878673  0.01169461  0.51131131  1
  Ba2+  Ba10  1  0.25341551  0.25321839  0.01775475  1
  Ba2+  Ba11  1  0.25122622  0.25338309  0.50716712  1
  Ba2+  Ba12  1  0.24783994  0.49001530  0.01128886  1
  Ba2+  Ba13  1  0.25166344  0.49590558  0.49925683  1
  Ba2+  Ba14  1  0.25311105  0.76031585  0.01206832  1
  Ba2+  Ba15  1  0.25081080  0.73890548  0.50716101  1
  Ba2+  Ba16  1  0.50006793  -0.00363610  0.01651619  1
  Ba2+  Ba17  1  0.49924037  0.00049556  0.51515211  1
  Ba2+  Ba18  1  0.50175436  0.25012356  0.02101620  1
  Ba2+  Ba19  1  0.49317195  0.25823256  0.51446328  1
  Ba2+  Ba20  1  0.50897253  0.49698661  0.01019751  1
  Ba2+  Ba21  1  0.49768039  0.49755349  0.51403492  1
  Ba2+  Ba22  1  0.50678021  0.75622418  0.00559106  1
  Ba2+  Ba23  1  0.50415409  0.74324099  0.51280540  1
  Ba2+  Ba24  1  0.74230764  -0.00621560  0.01535829  1
  Ba2+  Ba25  1  0.74573621  -0.00495251  0.51092503  1
  Ba2+  Ba26  1  0.74598058  0.25850939  0.00957330  1
  Ba2+  Ba27  1  0.74991862  0.26119441  0.51781692  1
  Ba2+  Ba28  1  0.74993806  0.50107627  0.00623409  1
  Ba2+  Ba29  1  0.75075745  0.50014477  0.52198657  1
  Ba2+  Ba30  1  0.74624680  0.74637050  0.01045953  1
  Ba2+  Ba31  1  0.74595308  0.74298184  0.51215919  1
  Y3+  Y32  1  0.00136529  0.00039626  0.25983673  1
  Y3+  Y33  1  0.00144382  0.00243390  0.75445034  1
  Y3+  Y34  1  0.00205970  0.25200379  0.25617154  1
  Y3+  Y35  1  0.00098409  0.25251124  0.75918889  1
  Y3+  Y36  1  -0.00021001  0.49860614  0.25265330  1
  Y3+  Y37  1  -0.00351396  0.49849383  0.76363041  1
  Y3+  Y38  1  -0.00123317  0.74876532  0.25548077  1
  Y3+  Y39  1  -0.00192265  0.74708936  0.75910645  1
  Y3+  Y40  1  0.25100311  0.00062283  0.25731829  1
  Y3+  Y41  1  0.25099408  0.00193346  0.75573875  1
  Y3+  Y42  1  0.25007416  0.25268019  0.25960972  1
  Y3+  Y43  1  0.24995883  0.25018740  0.75545981  1
  Y3+  Y44  1  0.24931837  0.49635570  0.25698526  1
  Y3+  Y45  1  0.25136022  0.49794884  0.75954430  1
  Y3+  Y46  1  0.25053620  0.75015841  0.25597639  1
  Y3+  Y47  1  0.25238503  0.75005262  0.75940498  1
  Y3+  Y48  1  0.50005353  -0.00028989  0.25383510  1
  Y3+  Y49  1  0.49942438  -0.00234278  0.75803390  1
  Y3+  Y50  1  0.49913741  0.25243052  0.25602337  1
  Y3+  Y51  1  0.49862816  0.25268803  0.75475858  1
  Y3+  Y52  1  0.50179176  0.49857169  0.25485573  1
  Y3+  Y53  1  0.50087154  0.49926165  0.76004334  1
  Y3+  Y54  1  0.50260943  0.74907839  0.25282228  1
  Y3+  Y55  1  0.50142061  0.75105854  0.76181700  1
  Y3+  Y56  1  0.74795987  -0.00106456  0.25541268  1
  Y3+  Y57  1  0.74758585  -0.00118598  0.75613297  1
  Y3+  Y58  1  0.74864898  0.25214645  0.25222711  1
  Y3+  Y59  1  0.75026455  0.25449159  0.76022103  1
  Y3+  Y60  1  0.74925033  0.50078553  0.24940098  1
  Y3+  Y61  1  0.75049089  0.49952508  0.76581791  1
  Y3+  Y62  1  0.74862970  0.74768915  0.25186815  1
  Y3+  Y63  1  0.74776157  0.74780002  0.76228749  1
  Fe3+  Fe64  1  0.37694345  0.62408590  0.37448364  1
  Fe3+  Fe65  1  0.87374866  0.37586842  0.37476673  1
  Fe3+  Fe66  1  0.62398797  0.12533131  0.87618175  1
  Fe3+  Fe67  1  0.37568964  0.87423431  0.37971274  1
  Fe3+  Fe68  1  0.12581224  0.87379343  0.37979400  1
  Fe3+  Fe69  1  0.37557118  0.37342306  0.87800264  1
  Fe3+  Fe70  1  0.12503681  0.62516265  0.88230761  1
  Fe3+  Fe71  1  0.62443922  0.87338746  0.37702596  1
  Fe3+  Fe72  1  0.37628837  0.12578649  0.37590428  1
  Fe3+  Fe73  1  0.62527357  0.12663058  0.37910169  1
  Fe3+  Fe74  1  0.87320690  0.62334129  0.37439446  1
  Fe3+  Fe75  1  0.87389218  0.12664529  0.37918948  1
  Fe3+  Fe76  1  0.37585923  0.12512369  0.87678960  1
  Fe3+  Fe77  1  0.62581734  0.37706500  0.37615074  1
  Fe3+  Fe78  1  0.37509502  0.62525534  0.88159425  1
  Fe3+  Fe79  1  0.12537641  0.12495238  0.88143266  1
  Fe3+  Fe80  1  0.87454431  0.87409546  0.37925180  1
  Fe3+  Fe81  1  0.12473953  0.87598933  0.87602581  1
  Fe3+  Fe82  1  0.87464243  0.12398943  0.87976896  1
  Fe3+  Fe83  1  0.87466937  0.87653046  0.87468483  1
  Fe3+  Fe84  1  0.12513330  0.62295660  0.64101118  1
  Fe3+  Fe85  1  0.12496247  0.87374105  0.63327822  1
  Fe3+  Fe86  1  0.37549761  0.62434989  0.13405038  1
  Fe3+  Fe87  1  0.37458048  0.87371842  0.63404314  1
  Fe3+  Fe88  1  0.62454539  0.12660997  0.63411447  1
  Fe3+  Fe89  1  0.12486820  0.37658297  0.64063630  1
  Fe3+  Fe90  1  0.12546598  0.12488646  0.13563813  1
  Fe3+  Fe91  1  0.87523455  0.87353923  0.63311169  1
  Fe3+  Fe92  1  0.12534416  0.62502613  0.13501079  1
  Fe3+  Fe93  1  0.87516973  0.12685379  0.63372887  1
  Fe3+  Fe94  1  0.87454164  0.12519238  0.13399223  1
  Fe3+  Fe95  1  0.62473899  0.62388268  0.64307057  1
  Cu2+  Cu96  1  0.62324450  0.37358462  0.87187836  1
  Cu2+  Cu97  1  0.12457274  0.62448190  0.35922157  1
  Cu2+  Cu98  1  0.12409698  0.37580689  0.36149919  1
  Cu2+  Cu99  1  0.37634190  0.37560439  0.37075669  1
  Cu2+  Cu100  1  0.12625805  0.37417428  0.87416845  1
  Cu2+  Cu101  1  0.87484017  0.62609816  0.87449619  1
  Cu2+  Cu102  1  0.12577389  0.12603146  0.37189695  1
  Cu2+  Cu103  1  0.62524972  0.87670638  0.86999144  1
  Cu2+  Cu104  1  0.87449491  0.37386270  0.87272276  1
  Cu2+  Cu105  1  0.62566170  0.62410664  0.36026822  1
  Cu2+  Cu106  1  0.37491078  0.87649248  0.87122534  1
  Cu2+  Cu107  1  0.62416471  0.62480706  0.87396078  1
  Cu2+  Cu108  1  0.12475756  0.37459191  0.14232645  1
  Cu2+  Cu109  1  0.87502111  0.62442220  0.65564253  1
  Cu2+  Cu110  1  0.37504943  0.12535866  0.15171232  1
  Cu2+  Cu111  1  0.37483827  0.62475444  0.65468975  1
  Cu2+  Cu112  1  0.62489596  0.87438250  0.14363470  1
  Cu2+  Cu113  1  0.62514984  0.37597946  0.65385437  1
  Cu2+  Cu114  1  0.37528231  0.12536941  0.64909047  1
  Cu2+  Cu115  1  0.37597731  0.87393798  0.14531824  1
  Cu2+  Cu116  1  0.87476688  0.37442026  0.14203516  1
  Cu2+  Cu117  1  0.37352498  0.37681646  0.64285898  1
  Cu2+  Cu118  1  0.87587236  0.37568740  0.65437459  1
  Cu2+  Cu119  1  0.62511487  0.37512650  0.14184331  1
  Cu2+  Cu120  1  0.87472340  0.62454858  0.14062777  1
  Cu2+  Cu121  1  0.87434339  0.87573706  0.15437227  1
  Cu2+  Cu122  1  0.62495284  0.12504937  0.14955878  1
  Cu2+  Cu123  1  0.62502850  0.87424671  0.64989612  1
  Cu2+  Cu124  1  0.12521990  0.87487043  0.15413261  1
  Cu2+  Cu125  1  0.62441689  0.62451696  0.14061623  1
  Cu2+  Cu126  1  0.12484977  0.12691627  0.64212362  1
  Cu2+  Cu127  1  0.37526806  0.37565942  0.15049660  1
  O2-  O128  1  0.12482197  0.12246906  0.00733678  1
  O2-  O129  1  0.12443215  0.12686670  0.50652772  1
  O2-  O130  1  0.12634185  0.37304725  0.00861079  1
  O2-  O131  1  0.12478862  0.37819740  0.51942999  1
  O2-  O132  1  0.12497529  0.62766039  0.00856214  1
  O2-  O133  1  0.12503636  0.62204759  0.52026806  1
  O2-  O134  1  0.12490069  0.87742026  -0.00376584  1
  O2-  O135  1  0.12533989  0.87276946  0.50651775  1
  O2-  O136  1  0.37632792  0.12451452  -0.00317251  1
  O2-  O137  1  0.37622153  0.12549186  0.49665702  1
  O2-  O138  1  0.37594910  0.37189153  -0.00141699  1
  O2-  O139  1  0.37411549  0.37693742  0.50684263  1
  O2-  O140  1  0.37419807  0.62617522  0.00753556  1
  O2-  O141  1  0.37611310  0.62399218  0.49552808  1
  O2-  O142  1  0.37518526  0.87583878  0.00666315  1
  O2-  O143  1  0.37486573  0.87343736  0.50571095  1
  O2-  O144  1  0.62391248  0.12379653  -0.00344265  1
  O2-  O145  1  0.62591234  0.12660869  0.50521120  1
  O2-  O146  1  0.62360436  0.37289639  0.00618691  1
  O2-  O147  1  0.62650412  0.37744202  0.49684303  1
  O2-  O148  1  0.62409560  0.62578376  0.00702875  1
  O2-  O149  1  0.62535750  0.62283070  0.52152630  1
  O2-  O150  1  0.62543703  0.87655285  0.00661427  1
  O2-  O151  1  0.62450708  0.87322277  0.49751855  1
  O2-  O152  1  0.87495326  0.12229109  0.00640008  1
  O2-  O153  1  0.87440388  0.12776488  0.50604248  1
  O2-  O154  1  0.87402880  0.37309480  0.00680015  1
  O2-  O155  1  0.87407937  0.37654367  0.49504438  1
  O2-  O156  1  0.87604439  0.62701421  0.00739736  1
  O2-  O157  1  0.87354369  0.62286779  0.49518746  1
  O2-  O158  1  0.87543478  0.87862542  -0.00489391  1
  O2-  O159  1  0.87536768  0.87281619  0.50551597  1
  O2-  O160  1  0.12485457  0.00128240  0.16650823  1
  O2-  O161  1  0.12465590  -0.00308614  0.66005685  1
  O2-  O162  1  0.12502407  0.24620673  0.16435368  1
  O2-  O163  1  0.12440922  0.25251775  0.66823103  1
  O2-  O164  1  0.12586454  0.50267655  0.16234118  1
  O2-  O165  1  0.12411987  0.50038741  0.67553971  1
  O2-  O166  1  0.12523495  0.74921485  0.16502132  1
  O2-  O167  1  0.12450577  0.75087812  0.66553798  1
  O2-  O168  1  0.37483399  0.00071463  0.16720130  1
  O2-  O169  1  0.37452742  -0.00215712  0.65960678  1
  O2-  O170  1  0.37504301  0.25023596  0.16503731  1
  O2-  O171  1  0.37435969  0.24926664  0.66249917  1
  O2-  O172  1  0.37351205  0.50147253  0.16133316  1
  O2-  O173  1  0.37507073  0.50175826  0.67064206  1
  O2-  O174  1  0.37414005  0.74685652  0.16576753  1
  O2-  O175  1  0.37407610  0.75171791  0.66431210  1
  O2-  O176  1  0.62509603  0.00100946  0.16739853  1
  O2-  O177  1  0.62541618  0.00153741  0.65875261  1
  O2-  O178  1  0.62471854  0.24871866  0.16559780  1
  O2-  O179  1  0.62605452  0.24974046  0.66051789  1
  O2-  O180  1  0.62485364  0.49948838  0.16247555  1
  O2-  O181  1  0.62519650  0.50003627  0.67078797  1
  O2-  O182  1  0.62489959  0.74978819  0.16476018  1
  O2-  O183  1  0.62529301  0.74926790  0.66780898  1
  O2-  O184  1  0.87556831  0.00222816  0.16825412  1
  O2-  O185  1  0.87552711  0.00016935  0.65594662  1
  O2-  O186  1  0.87563186  0.24585500  0.16378441  1
  O2-  O187  1  0.87426099  0.24877930  0.66364170  1
  O2-  O188  1  0.87556542  0.49947529  0.16230273  1
  O2-  O189  1  0.87545748  0.49992340  0.66834180  1
  O2-  O190  1  0.87575700  0.75202270  0.16573969  1
  O2-  O191  1  0.87585495  0.75164465  0.66224161  1
  O2-  O192  1  0.00021578  0.12289440  0.16338441  1
  O2-  O193  1  -0.00357626  0.12519808  0.66613939  1
  O2-  O194  1  -0.00030859  0.37391613  0.16561806  1
  O2-  O195  1  0.00014951  0.37528869  0.66841296  1
  O2-  O196  1  0.00288705  0.62624109  0.16396656  1
  O2-  O197  1  0.00001296  0.62549471  0.66788567  1
  O2-  O198  1  -0.00020788  0.87631836  0.16694306  1
  O2-  O199  1  -0.00001562  0.87541899  0.65987015  1
  O2-  O200  1  0.24877412  0.12370940  0.16190449  1
  O2-  O201  1  0.25131096  0.12456015  0.66589330  1
  O2-  O202  1  0.25124358  0.37425834  0.16609371  1
  O2-  O203  1  0.24812479  0.37607655  0.66812850  1
  O2-  O204  1  0.24993082  0.62623524  0.16273933  1
  O2-  O205  1  0.24947509  0.62595245  0.66957648  1
  O2-  O206  1  0.24964636  0.87505184  0.16765052  1
  O2-  O207  1  0.24950876  0.87440014  0.66082222  1
  O2-  O208  1  0.49967050  0.12447016  0.16476515  1
  O2-  O209  1  0.50199878  0.12507694  0.65909010  1
  O2-  O210  1  0.49882905  0.37490127  0.16477146  1
  O2-  O211  1  0.50058756  0.37553473  0.66266017  1
  O2-  O212  1  0.49722506  0.62446476  0.16330732  1
  O2-  O213  1  0.49975195  0.62571935  0.66720569  1
  O2-  O214  1  0.50012134  0.87513421  0.16677992  1
  O2-  O215  1  0.49800889  0.87445866  0.66169402  1
  O2-  O216  1  0.75162502  0.12375969  0.16375139  1
  O2-  O217  1  0.75013495  0.12455112  0.66105992  1
  O2-  O218  1  0.75019964  0.37347575  0.16264050  1
  O2-  O219  1  0.75099768  0.37517716  0.66558393  1
  O2-  O220  1  0.74977852  0.62569323  0.16228765  1
  O2-  O221  1  0.75035973  0.62498791  0.66795890  1
  O2-  O222  1  0.75078741  0.87633457  0.16651991  1
  O2-  O223  1  0.75235367  0.87576769  0.66055197  1
  O2-  O224  1  0.12472700  -0.00402173  0.35090084  1
  O2-  O225  1  0.12469591  0.00215369  0.84307290  1
  O2-  O226  1  0.12431431  0.25182589  0.34790563  1
  O2-  O227  1  0.12404079  0.24613300  0.85058275  1
  O2-  O228  1  0.12454049  0.50011868  0.34681786  1
  O2-  O229  1  0.12622897  0.50273821  0.85683720  1
  O2-  O230  1  0.12488284  0.75187965  0.35017937  1
  O2-  O231  1  0.12499423  0.74946260  0.84791098  1
  O2-  O232  1  0.37550176  -0.00195030  0.35020708  1
  O2-  O233  1  0.37410183  0.00252368  0.84245026  1
  O2-  O234  1  0.37556520  0.24905981  0.34822143  1
  O2-  O235  1  0.37471340  0.24901356  0.84378725  1
  O2-  O236  1  0.37489172  0.50142317  0.34417227  1
  O2-  O237  1  0.37399929  0.50083269  0.85339296  1
  O2-  O238  1  0.37460543  0.75133333  0.34843476  1
  O2-  O239  1  0.37416584  0.74793296  0.84944726  1
  O2-  O240  1  0.62561219  0.00088318  0.35085562  1
  O2-  O241  1  0.62531770  0.00251587  0.84159360  1
  O2-  O242  1  0.62640965  0.24909919  0.34825052  1
  O2-  O243  1  0.62484553  0.24755446  0.84290567  1
  O2-  O244  1  0.62548849  0.50022664  0.34475542  1
  O2-  O245  1  0.62442814  0.49933704  0.85335492  1
  O2-  O246  1  0.62552545  0.74994683  0.34795640  1
  O2-  O247  1  0.62451470  0.75079188  0.85052339  1
  O2-  O248  1  0.87520415  -0.00049934  0.35423171  1
  O2-  O249  1  0.87537819  0.00193144  0.83956640  1
  O2-  O250  1  0.87443722  0.24949114  0.34677472  1
  O2-  O251  1  0.87576209  0.24551017  0.84854784  1
  O2-  O252  1  0.87564710  0.49974081  0.34271953  1
  O2-  O253  1  0.87483543  0.49983654  0.85328994  1
  O2-  O254  1  0.87541765  0.75105949  0.34911570  1
  O2-  O255  1  0.87579664  0.75297571  0.84585498  1
  O2-  O256  1  -0.00384451  0.12449573  0.34893421  1
  O2-  O257  1  0.00013084  0.12322955  0.85146733  1
  O2-  O258  1  -0.00102033  0.37453140  0.34815521  1
  O2-  O259  1  0.00031633  0.37412538  0.85114951  1
  O2-  O260  1  -0.00096597  0.62584230  0.34758729  1
  O2-  O261  1  0.00290154  0.62594452  0.85111927  1
  O2-  O262  1  -0.00044434  0.87516139  0.35233957  1
  O2-  O263  1  0.00070571  0.87666738  0.84158615  1
  O2-  O264  1  0.25268186  0.12405137  0.34572273  1
  O2-  O265  1  0.24873635  0.12450135  0.84929676  1
  O2-  O266  1  0.24834037  0.37544386  0.35044753  1
  O2-  O267  1  0.25239188  0.37407313  0.84834935  1
  O2-  O268  1  0.25023200  0.62559761  0.34715662  1
  O2-  O269  1  0.25003770  0.62644953  0.85252973  1
  O2-  O270  1  0.25083085  0.87434532  0.35191434  1
  O2-  O271  1  0.24710336  0.87573134  0.84366766  1
  O2-  O272  1  0.50211779  0.12453292  0.34809473  1
  O2-  O273  1  0.49953262  0.12450901  0.84156983  1
  O2-  O274  1  0.50301919  0.37493152  0.34675669  1
  O2-  O275  1  0.49719481  0.37453153  0.84482767  1
  O2-  O276  1  0.50071825  0.62597020  0.34613106  1
  O2-  O277  1  0.49664686  0.62529659  0.85021057  1
  O2-  O278  1  0.49913538  0.87459645  0.34897594  1
  O2-  O279  1  0.50012027  0.87614846  0.84652233  1
  O2-  O280  1  0.74992071  0.12400412  0.34918633  1
  O2-  O281  1  0.75129979  0.12432950  0.84644926  1
  O2-  O282  1  0.74987213  0.37450387  0.34274366  1
  O2-  O283  1  0.74957237  0.37323597  0.85045250  1
  O2-  O284  1  0.75037626  0.62564516  0.34460016  1
  O2-  O285  1  0.74962513  0.62599275  0.85117528  1
  O2-  O286  1  0.75104798  0.87580402  0.34980483  1
  O2-  O287  1  0.75164067  0.87699248  0.84412103  1
