# generated using pymatgen
data_BaYFeCuO5
_symmetry_space_group_name_H-M   'P 1'
_cell_length_a   15.67384608
_cell_length_b   15.67413629
_cell_length_c   15.48740223
_cell_angle_alpha   89.99709930
_cell_angle_beta   89.99722049
_cell_angle_gamma   89.99854594
_symmetry_Int_Tables_number   1
_chemical_formula_structural   BaYFeCuO5
_chemical_formula_sum   'Ba32 Y32 Fe32 Cu32 O160'
_cell_volume   3804.85203974
_cell_formula_units_Z   32
loop_
 _symmetry_equiv_pos_site_id
 _symmetry_equiv_pos_as_xyz
  1  'x, y, z'
loop_
 _atom_type_symbol
 _atom_type_oxidation_number
  Ba2+  2.0
  Y3+  3.0
  Fe3+  3.0
  Cu2+  2.0
  O2-  -2.0
loop_
 _atom_site_type_symbol
 _atom_site_label
 _atom_site_symmetry_multiplicity
 _atom_site_fract_x
 _atom_site_fract_y
 _atom_site_fract_z
 _atom_site_occupancy
  Ba2+  Ba0  1  0.00163360  -0.01084585  0.01088071  1
  Ba2+  Ba1  1  0.00512140  -0.00674953  0.52335029  1
  Ba2+  Ba2  1  -0.00047899  0.26108491  0.00711948  1
  Ba2+  Ba3  1  0.01237328  0.25166932  0.51117128  1
  Ba2+  Ba4  1  -0.00042259  0.50656294  0.00683276  1
  Ba2+  Ba5  1  0.00837334  0.50403170  0.51656473  1
  Ba2+  Ba6  1  0.00140498  0.74524568  0.01016323  1
  Ba2+  Ba7  1  0.00125419  0.75064693  0.52824440  1
  Ba2+  Ba8  1  0.24744176  -0.00329236  0.01086568  1
  Ba2+  Ba9  1  0.25224934  -0.00436325  0.51126275  1
  Ba2+  Ba10  1  0.25125605  0.25047427  0.01800796  1
  Ba2+  Ba11  1  0.25105241  0.25574283  0.50553038  1
  Ba2+  Ba12  1  0.24435989  0.50560985  0.01834432  1
  Ba2+  Ba13  1  0.25218060  0.49967131  0.51051929  1
  Ba2+  Ba14  1  0.24112906  0.74594974  0.01026104  1
  Ba2+  Ba15  1  0.25356510  0.74955755  0.51678042  1
  Ba2+  Ba16  1  0.49946224  0.00944144  0.01879825  1
  Ba2+  Ba17  1  0.49775825  -0.00235075  0.50495820  1
  Ba2+  Ba18  1  0.50448606  0.24785252  0.01575297  1
  Ba2+  Ba19  1  0.49356522  0.24548546  0.50127526  1
  Ba2+  Ba20  1  0.50542264  0.50033003  -0.00169581  1
  Ba2+  Ba21  1  0.48997740  0.50521693  0.50993765  1
  Ba2+  Ba22  1  0.50025865  0.74000510  0.00749974  1
  Ba2+  Ba23  1  0.49480687  0.75088394  0.51704553  1
  Ba2+  Ba24  1  0.74924714  0.00119146  0.01675333  1
  Ba2+  Ba25  1  0.74359159  -0.00525156  0.51625240  1
  Ba2+  Ba26  1  0.74575330  0.25687567  -0.00203703  1
  Ba2+  Ba27  1  0.74341212  0.24280380  0.50620045  1
  Ba2+  Ba28  1  0.75256457  0.50080987  -0.00984389  1
  Ba2+  Ba29  1  0.75047299  0.51137538  0.51617559  1
  Ba2+  Ba30  1  0.75617704  0.74190369  0.00654815  1
  Ba2+  Ba31  1  0.75100906  0.75225130  0.52668624  1
  Y3+  Y32  1  -0.00005088  -0.00340555  0.25245549  1
  Y3+  Y33  1  0.00268461  -0.00249152  0.75977772  1
  Y3+  Y34  1  0.00213356  0.25285506  0.25921814  1
  Y3+  Y35  1  0.00223705  0.25172443  0.75516674  1
  Y3+  Y36  1  0.00329883  0.50146824  0.25571923  1
  Y3+  Y37  1  0.00151323  0.50279544  0.75878843  1
  Y3+  Y38  1  0.00038948  0.74905249  0.24802801  1
  Y3+  Y39  1  0.00216766  0.74808581  0.76381356  1
  Y3+  Y40  1  0.25180893  -0.00191060  0.25631985  1
  Y3+  Y41  1  0.24908287  -0.00305252  0.75760778  1
  Y3+  Y42  1  0.25093134  0.25285557  0.26120311  1
  Y3+  Y43  1  0.24943369  0.25212271  0.75249808  1
  Y3+  Y44  1  0.24947597  0.50109066  0.26148608  1
  Y3+  Y45  1  0.24949410  0.50103929  0.75265880  1
  Y3+  Y46  1  0.25036824  0.74834480  0.25541491  1
  Y3+  Y47  1  0.24869826  0.74964104  0.75822560  1
  Y3+  Y48  1  0.49844409  0.00167800  0.26052336  1
  Y3+  Y49  1  0.50001406  -0.00101689  0.75297510  1
  Y3+  Y50  1  0.49833727  0.24792414  0.26175227  1
  Y3+  Y51  1  0.49982134  0.25067114  0.75363963  1
  Y3+  Y52  1  0.49549060  0.50145264  0.26138519  1
  Y3+  Y53  1  0.49881825  0.50118984  0.75307041  1
  Y3+  Y54  1  0.49573583  0.74896782  0.25927605  1
  Y3+  Y55  1  0.49881321  0.74905404  0.75492654  1
  Y3+  Y56  1  0.74942767  0.00035449  0.25835606  1
  Y3+  Y57  1  0.74850146  -0.00068357  0.75428435  1
  Y3+  Y58  1  0.74813086  0.24801801  0.26101305  1
  Y3+  Y59  1  0.74875409  0.25053659  0.75399107  1
  Y3+  Y60  1  0.75183029  0.50212928  0.25987931  1
  Y3+  Y61  1  0.75030079  0.50229339  0.75742168  1
  Y3+  Y62  1  0.75327177  0.74989777  0.25259138  1
  Y3+  Y63  1  0.75043319  0.74752831  0.75951411  1
  Fe3+  Fe64  1  0.87379927  0.87521383  0.87709474  1
  Fe3+  Fe65  1  0.87728266  0.12290646  0.38058277  1
  Fe3+  Fe66  1  0.87649643  0.87354310  0.37601879  1
  Fe3+  Fe67  1  0.37497559  0.37452507  0.87939596  1
  Fe3+  Fe68  1  0.62475889  0.37686062  0.38205098  1
  Fe3+  Fe69  1  0.12539863  0.12587126  0.87985636  1
  Fe3+  Fe70  1  0.12492549  0.12257788  0.37551261  1
  Fe3+  Fe71  1  0.37391128  0.62382741  0.87685238  1
  Fe3+  Fe72  1  0.37577522  0.87506792  0.88056585  1
  Fe3+  Fe73  1  0.62426618  0.12462755  0.87456429  1
  Fe3+  Fe74  1  0.12685367  0.37587764  0.87646656  1
  Fe3+  Fe75  1  0.87686680  0.62788419  0.37814786  1
  Fe3+  Fe76  1  0.12430645  0.87309624  0.37436774  1
  Fe3+  Fe77  1  0.62411327  0.87488013  0.87992338  1
  Fe3+  Fe78  1  0.87581406  0.37602426  0.38315301  1
  Fe3+  Fe79  1  0.62526791  0.87253197  0.37513966  1
  Fe3+  Fe80  1  0.12418912  0.62763828  0.37678364  1
  Fe3+  Fe81  1  0.62556853  0.62788704  0.37886741  1
  Fe3+  Fe82  1  0.87534290  0.12554519  0.87870273  1
  Fe3+  Fe83  1  0.37480655  0.12580513  0.87756712  1
  Fe3+  Fe84  1  0.87629405  0.12425751  0.63499812  1
  Fe3+  Fe85  1  0.62401604  0.37571630  0.63438964  1
  Fe3+  Fe86  1  0.87361557  0.37602156  0.14000772  1
  Fe3+  Fe87  1  0.37377817  0.12446679  0.63763019  1
  Fe3+  Fe88  1  0.62514196  0.62245262  0.13804515  1
  Fe3+  Fe89  1  0.37570939  0.37632268  0.13640446  1
  Fe3+  Fe90  1  0.87488324  0.12733280  0.13396784  1
  Fe3+  Fe91  1  0.87555346  0.37563938  0.63473527  1
  Fe3+  Fe92  1  0.12451117  0.12589045  0.13469692  1
  Fe3+  Fe93  1  0.62458125  0.87410359  0.13372236  1
  Fe3+  Fe94  1  0.62569713  0.37626528  0.14167054  1
  Fe3+  Fe95  1  0.37568668  0.87373318  0.13431862  1
  Cu2+  Cu96  1  0.12441994  0.37676694  0.37305293  1
  Cu2+  Cu97  1  0.37474121  0.37618447  0.37302546  1
  Cu2+  Cu98  1  0.87582052  0.37460765  0.85815177  1
  Cu2+  Cu99  1  0.37378997  0.87386308  0.37161002  1
  Cu2+  Cu100  1  0.62386280  0.37453260  0.85725034  1
  Cu2+  Cu101  1  0.37293544  0.12388537  0.36289522  1
  Cu2+  Cu102  1  0.37347878  0.62683000  0.37219410  1
  Cu2+  Cu103  1  0.62486702  0.12282222  0.37450803  1
  Cu2+  Cu104  1  0.12580474  0.87442335  0.87394207  1
  Cu2+  Cu105  1  0.87584338  0.62466936  0.87096346  1
  Cu2+  Cu106  1  0.62378127  0.62518021  0.86030625  1
  Cu2+  Cu107  1  0.12649084  0.62378544  0.87097363  1
  Cu2+  Cu108  1  0.12553824  0.37604234  0.64189576  1
  Cu2+  Cu109  1  0.87616271  0.62513838  0.65448492  1
  Cu2+  Cu110  1  0.37552128  0.62402737  0.14892246  1
  Cu2+  Cu111  1  0.12555725  0.87406322  0.65636956  1
  Cu2+  Cu112  1  0.62552126  0.12591719  0.15529475  1
  Cu2+  Cu113  1  0.62361571  0.12473753  0.63953442  1
  Cu2+  Cu114  1  0.87360696  0.87500065  0.14456837  1
  Cu2+  Cu115  1  0.37389124  0.62561821  0.64398434  1
  Cu2+  Cu116  1  0.87400762  0.62244143  0.14116038  1
  Cu2+  Cu117  1  0.12498489  0.62425260  0.14256053  1
  Cu2+  Cu118  1  0.12546058  0.62582135  0.65272296  1
  Cu2+  Cu119  1  0.37415596  0.12557618  0.15214742  1
  Cu2+  Cu120  1  0.12563188  0.87450544  0.13988503  1
  Cu2+  Cu121  1  0.12546822  0.37506355  0.15175767  1
  Cu2+  Cu122  1  0.12577719  0.12424669  0.65222375  1
  Cu2+  Cu123  1  0.37501712  0.37492684  0.64130442  1
  Cu2+  Cu124  1  0.62438250  0.87405819  0.65387308  1
  Cu2+  Cu125  1  0.62459229  0.62520346  0.65119050  1
  Cu2+  Cu126  1  0.87548964  0.87477154  0.65641312  1
  Cu2+  Cu127  1  0.37463204  0.87509627  0.64367783  1
  O2-  O128  1  0.12371577  0.12774758  0.00608691  1
  O2-  O129  1  0.12379371  0.12062797  0.49560679  1
  O2-  O130  1  0.12716276  0.37398465  -0.00318156  1
  O2-  O131  1  0.12447414  0.37598770  0.50714369  1
  O2-  O132  1  0.12446269  0.62323969  0.00667163  1
  O2-  O133  1  0.12315354  0.62964980  0.49712085  1
  O2-  O134  1  0.12633946  0.87580247  0.00644529  1
  O2-  O135  1  0.12332935  0.87382998  0.49451812  1
  O2-  O136  1  0.37706579  0.12807720  -0.00234478  1
  O2-  O137  1  0.37247432  0.12319177  0.51697879  1
  O2-  O138  1  0.37598926  0.37478417  0.00707151  1
  O2-  O139  1  0.37554871  0.37476871  0.50712738  1
  O2-  O140  1  0.37614171  0.62168223  -0.00271163  1
  O2-  O141  1  0.37355750  0.62705216  0.50802233  1
  O2-  O142  1  0.37728592  0.87494464  0.00686015  1
  O2-  O143  1  0.37442160  0.87541082  0.50750658  1
  O2-  O144  1  0.62580239  0.12660255  -0.00519602  1
  O2-  O145  1  0.62513760  0.12252029  0.50662526  1
  O2-  O146  1  0.62673740  0.37600549  0.02160858  1
  O2-  O147  1  0.62446502  0.37615485  0.50825765  1
  O2-  O148  1  0.62560090  0.61947345  0.01752126  1
  O2-  O149  1  0.62703475  0.63087959  0.49887598  1
  O2-  O150  1  0.62433705  0.87620908  0.00617040  1
  O2-  O151  1  0.62605999  0.87210760  0.49528974  1
  O2-  O152  1  0.87386301  0.12792956  0.00600470  1
  O2-  O153  1  0.87799090  0.12192168  0.50676239  1
  O2-  O154  1  0.87125871  0.37429987  0.01983116  1
  O2-  O155  1  0.87587924  0.37532570  0.50876781  1
  O2-  O156  1  0.87387403  0.62192372  0.00593390  1
  O2-  O157  1  0.87677202  0.63009909  0.49799968  1
  O2-  O158  1  0.87092964  0.87740983  -0.00261502  1
  O2-  O159  1  0.87694567  0.87403372  0.49548517  1
  O2-  O160  1  0.12345410  0.00323852  0.15956591  1
  O2-  O161  1  0.12452893  -0.00099658  0.66738521  1
  O2-  O162  1  0.12539097  0.24823099  0.16554640  1
  O2-  O163  1  0.12435401  0.24882404  0.66478300  1
  O2-  O164  1  0.12537333  0.49853084  0.16733064  1
  O2-  O165  1  0.12463764  0.50210068  0.66369991  1
  O2-  O166  1  0.12528764  0.74992288  0.15958302  1
  O2-  O167  1  0.12479474  0.75006056  0.66772369  1
  O2-  O168  1  0.37650048  -0.00130886  0.16139120  1
  O2-  O169  1  0.37435383  0.00110376  0.66881060  1
  O2-  O170  1  0.37487096  0.25199004  0.16514402  1
  O2-  O171  1  0.37440719  0.24821838  0.66627068  1
  O2-  O172  1  0.37556824  0.49805151  0.16633666  1
  O2-  O173  1  0.37490686  0.50048975  0.66433899  1
  O2-  O174  1  0.37609988  0.75076889  0.16030424  1
  O2-  O175  1  0.37491218  0.75026651  0.66742674  1
  O2-  O176  1  0.62474327  -0.00064905  0.15991569  1
  O2-  O177  1  0.62513430  -0.00175258  0.66551609  1
  O2-  O178  1  0.62499295  0.25078126  0.17113601  1
  O2-  O179  1  0.62621358  0.25321090  0.66252571  1
  O2-  O180  1  0.62399070  0.49919420  0.17548565  1
  O2-  O181  1  0.62580138  0.49881417  0.66211865  1
  O2-  O182  1  0.62557593  0.75035697  0.15731987  1
  O2-  O183  1  0.62533454  0.74974826  0.66907440  1
  O2-  O184  1  0.87471177  0.00316676  0.16034798  1
  O2-  O185  1  0.87575441  0.00103966  0.66467199  1
  O2-  O186  1  0.87456192  0.24946867  0.17094910  1
  O2-  O187  1  0.87518220  0.24992975  0.66225941  1
  O2-  O188  1  0.87506981  0.49725020  0.17320762  1
  O2-  O189  1  0.87494637  0.49888340  0.66168281  1
  O2-  O190  1  0.87318178  0.75034233  0.15769313  1
  O2-  O191  1  0.87485154  0.75020600  0.66802079  1
  O2-  O192  1  -0.00083917  0.12708254  0.15986906  1
  O2-  O193  1  -0.00110702  0.12473704  0.66566537  1
  O2-  O194  1  -0.00025248  0.37328438  0.16519736  1
  O2-  O195  1  -0.00283984  0.37444873  0.66395147  1
  O2-  O196  1  -0.00041757  0.62370136  0.16108113  1
  O2-  O197  1  0.00074638  0.62550471  0.66690184  1
  O2-  O198  1  -0.00197095  0.87566621  0.15887759  1
  O2-  O199  1  0.00076527  0.87554897  0.66711184  1
  O2-  O200  1  0.24794100  0.12458158  0.15952038  1
  O2-  O201  1  0.24989043  0.12406360  0.66918714  1
  O2-  O202  1  0.25180058  0.37480808  0.16249507  1
  O2-  O203  1  0.24983147  0.37490510  0.66504069  1
  O2-  O204  1  0.25166760  0.62415028  0.16397827  1
  O2-  O205  1  0.24828974  0.62593834  0.66592047  1
  O2-  O206  1  0.25378556  0.87578988  0.16170082  1
  O2-  O207  1  0.24846540  0.87506172  0.66818197  1
  O2-  O208  1  0.50009845  0.12623276  0.16493643  1
  O2-  O209  1  0.49776824  0.12500071  0.66620425  1
  O2-  O210  1  0.49901569  0.37401316  0.16657358  1
  O2-  O211  1  0.50267441  0.37529135  0.66594994  1
  O2-  O212  1  0.50103022  0.62493887  0.16739995  1
  O2-  O213  1  0.50067160  0.62521759  0.66567678  1
  O2-  O214  1  0.50047791  0.87485255  0.16259277  1
  O2-  O215  1  0.50109239  0.87441483  0.66735390  1
  O2-  O216  1  0.75214755  0.12563535  0.16587229  1
  O2-  O217  1  0.75345064  0.12459638  0.66215311  1
  O2-  O218  1  0.74955541  0.37407271  0.17576934  1
  O2-  O219  1  0.75048391  0.37500098  0.66136183  1
  O2-  O220  1  0.74782868  0.62358011  0.16842077  1
  O2-  O221  1  0.75064686  0.62504213  0.66458204  1
  O2-  O222  1  0.74733211  0.87683395  0.16262475  1
  O2-  O223  1  0.74986980  0.87551496  0.66458654  1
  O2-  O224  1  0.12433772  -0.00116361  0.34009420  1
  O2-  O225  1  0.12489989  0.00365315  0.85152288  1
  O2-  O226  1  0.12383447  0.24827325  0.34925050  1
  O2-  O227  1  0.12474288  0.24922057  0.84700858  1
  O2-  O228  1  0.12431899  0.50305217  0.34979108  1
  O2-  O229  1  0.12566582  0.49765955  0.84569700  1
  O2-  O230  1  0.12387156  0.75016864  0.33933380  1
  O2-  O231  1  0.12597224  0.74936974  0.85143302  1
  O2-  O232  1  0.37397145  0.00055526  0.34602368  1
  O2-  O233  1  0.37536750  -0.00040047  0.85064146  1
  O2-  O234  1  0.37463938  0.24867091  0.35009770  1
  O2-  O235  1  0.37560734  0.25094451  0.84738913  1
  O2-  O236  1  0.37444082  0.50143235  0.35011152  1
  O2-  O237  1  0.37621314  0.49782245  0.84731323  1
  O2-  O238  1  0.37435390  0.74990559  0.34407389  1
  O2-  O239  1  0.37634829  0.75095677  0.85101507  1
  O2-  O240  1  0.62563413  -0.00319702  0.34375247  1
  O2-  O241  1  0.62527397  -0.00086225  0.84766000  1
  O2-  O242  1  0.62518355  0.25264877  0.35451431  1
  O2-  O243  1  0.62569552  0.24897791  0.84468689  1
  O2-  O244  1  0.62711770  0.50062517  0.35452554  1
  O2-  O245  1  0.62472862  0.49923764  0.84698421  1
  O2-  O246  1  0.62528359  0.74999694  0.33779518  1
  O2-  O247  1  0.62408900  0.75183784  0.85408891  1
  O2-  O248  1  0.87551502  0.00004602  0.34420507  1
  O2-  O249  1  0.87441157  0.00207827  0.84816930  1
  O2-  O250  1  0.87580193  0.24949842  0.35534302  1
  O2-  O251  1  0.87467871  0.24784592  0.84751434  1
  O2-  O252  1  0.87341114  0.50007614  0.35439837  1
  O2-  O253  1  0.87458934  0.49838423  0.84608291  1
  O2-  O254  1  0.87585825  0.75050504  0.33899392  1
  O2-  O255  1  0.87388453  0.75160661  0.85075293  1
  O2-  O256  1  -0.00131643  0.12452555  0.34287411  1
  O2-  O257  1  0.00000846  0.12605711  0.85113024  1
  O2-  O258  1  -0.00387238  0.37527562  0.34843529  1
  O2-  O259  1  0.00135353  0.37335729  0.84771214  1
  O2-  O260  1  -0.00060281  0.62515748  0.34180859  1
  O2-  O261  1  0.00105712  0.62394860  0.85018965  1
  O2-  O262  1  -0.00023974  0.87544024  0.33948942  1
  O2-  O263  1  -0.00197912  0.87632828  0.85022945  1
  O2-  O264  1  0.24836211  0.12457333  0.34366407  1
  O2-  O265  1  0.24914755  0.12581700  0.85144554  1
  O2-  O266  1  0.24974447  0.37484356  0.34775099  1
  O2-  O267  1  0.25193607  0.37378590  0.84727121  1
  O2-  O268  1  0.24747626  0.62617956  0.34664415  1
  O2-  O269  1  0.25245413  0.62432130  0.84708496  1
  O2-  O270  1  0.24765668  0.87513763  0.34436842  1
  O2-  O271  1  0.25379100  0.87568602  0.85198404  1
  O2-  O272  1  0.49739964  0.12405522  0.35023209  1
  O2-  O273  1  0.49993135  0.12510599  0.84581965  1
  O2-  O274  1  0.50323961  0.37591736  0.34977000  1
  O2-  O275  1  0.49807482  0.37432182  0.85059390  1
  O2-  O276  1  0.50167968  0.62539100  0.34941460  1
  O2-  O277  1  0.49877753  0.62421171  0.84831282  1
  O2-  O278  1  0.50097035  0.87506247  0.34615939  1
  O2-  O279  1  0.50021388  0.87565875  0.85087547  1
  O2-  O280  1  0.75487271  0.12467114  0.35035764  1
  O2-  O281  1  0.75085833  0.12577091  0.84601498  1
  O2-  O282  1  0.75059685  0.37360943  0.35582296  1
  O2-  O283  1  0.75000001  0.37366099  0.84641197  1
  O2-  O284  1  0.75125775  0.62650427  0.34705155  1
  O2-  O285  1  0.74799159  0.62421499  0.84889393  1
  O2-  O286  1  0.75137443  0.87496450  0.34346967  1
  O2-  O287  1  0.74776241  0.87586415  0.84767143  1
