# generated using pymatgen
data_BaYFeCuO5
_symmetry_space_group_name_H-M   'P 1'
_cell_length_a   15.68204208
_cell_length_b   15.68486350
_cell_length_c   15.52105366
_cell_angle_alpha   89.98793668
_cell_angle_beta   90.00874307
_cell_angle_gamma   90.00668962
_symmetry_Int_Tables_number   1
_chemical_formula_structural   BaYFeCuO5
_chemical_formula_sum   'Ba32 Y32 Fe32 Cu32 O160'
_cell_volume   3817.72411454
_cell_formula_units_Z   32
loop_
 _symmetry_equiv_pos_site_id
 _symmetry_equiv_pos_as_xyz
  1  'x, y, z'
loop_
 _atom_type_symbol
 _atom_type_oxidation_number
  Ba2+  2.0
  Y3+  3.0
  Fe3+  3.0
  Cu2+  2.0
  O2-  -2.0
loop_
 _atom_site_type_symbol
 _atom_site_label
 _atom_site_symmetry_multiplicity
 _atom_site_fract_x
 _atom_site_fract_y
 _atom_site_fract_z
 _atom_site_occupancy
  Ba2+  Ba0  1  0.00111967  -0.00072394  0.00659843  1
  Ba2+  Ba1  1  -0.00139025  -0.00240910  0.51597843  1
  Ba2+  Ba2  1  -0.00201805  0.25128194  0.01106817  1
  Ba2+  Ba3  1  -0.00250341  0.24871070  0.52644753  1
  Ba2+  Ba4  1  0.00017482  0.49817341  0.01156602  1
  Ba2+  Ba5  1  -0.00783789  0.49442116  0.52238934  1
  Ba2+  Ba6  1  0.00309270  0.75054108  0.00726779  1
  Ba2+  Ba7  1  -0.00543339  0.75871259  0.51005797  1
  Ba2+  Ba8  1  0.25217077  -0.00373037  -0.00031174  1
  Ba2+  Ba9  1  0.24687862  -0.00137163  0.51136777  1
  Ba2+  Ba10  1  0.24419318  0.24354272  0.00079076  1
  Ba2+  Ba11  1  0.24538654  0.24401202  0.51164279  1
  Ba2+  Ba12  1  0.24481060  0.50766411  0.01937113  1
  Ba2+  Ba13  1  0.24462400  0.49456183  0.51065563  1
  Ba2+  Ba14  1  0.25156705  0.75255232  0.02011425  1
  Ba2+  Ba15  1  0.24807359  0.75995775  0.51115728  1
  Ba2+  Ba16  1  0.49879881  -0.00246789  0.00814281  1
  Ba2+  Ba17  1  0.50150440  0.00125591  0.50519302  1
  Ba2+  Ba18  1  0.50147891  0.23757160  0.00289782  1
  Ba2+  Ba19  1  0.50688434  0.24533443  0.51319786  1
  Ba2+  Ba20  1  0.49193657  0.50912394  0.00654031  1
  Ba2+  Ba21  1  0.51229407  0.49901126  0.51954588  1
  Ba2+  Ba22  1  0.48990449  0.75614386  0.01072564  1
  Ba2+  Ba23  1  0.50704370  0.75456865  0.51096990  1
  Ba2+  Ba24  1  0.74779791  0.00253601  0.01298006  1
  Ba2+  Ba25  1  0.75304394  -0.00089407  0.51149502  1
  Ba2+  Ba26  1  0.75483178  0.24466872  0.01076248  1
  Ba2+  Ba27  1  0.75074491  0.24982478  0.52927663  1
  Ba2+  Ba28  1  0.76119802  0.49856113  0.00267562  1
  Ba2+  Ba29  1  0.75084913  0.49935147  0.52932977  1
  Ba2+  Ba30  1  0.75586751  0.75557846  0.00027886  1
  Ba2+  Ba31  1  0.75312632  0.75244408  0.51157757  1
  Y3+  Y32  1  -0.00054468  -0.00224363  0.26155140  1
  Y3+  Y33  1  0.00038068  -0.00094192  0.75345027  1
  Y3+  Y34  1  -0.00170585  0.25064329  0.25176988  1
  Y3+  Y35  1  -0.00035250  0.24926972  0.75959852  1
  Y3+  Y36  1  0.00017280  0.49840967  0.25306200  1
  Y3+  Y37  1  -0.00279949  0.49910174  0.75951758  1
  Y3+  Y38  1  0.00131795  0.75305355  0.26156297  1
  Y3+  Y39  1  -0.00227877  0.75227257  0.75360791  1
  Y3+  Y40  1  0.25008530  -0.00255054  0.25989192  1
  Y3+  Y41  1  0.24984307  -0.00134325  0.75575923  1
  Y3+  Y42  1  0.24973679  0.24958064  0.25826973  1
  Y3+  Y43  1  0.24824844  0.24725500  0.75698896  1
  Y3+  Y44  1  0.24918350  0.50118743  0.25668221  1
  Y3+  Y45  1  0.25030033  0.50043047  0.75625398  1
  Y3+  Y46  1  0.24943183  0.75235858  0.25794847  1
  Y3+  Y47  1  0.25153436  0.75351276  0.75635035  1
  Y3+  Y48  1  0.50146045  -0.00107589  0.25472271  1
  Y3+  Y49  1  0.49852519  -0.00003201  0.76165391  1
  Y3+  Y50  1  0.50076507  0.24745670  0.25522395  1
  Y3+  Y51  1  0.50175638  0.24686812  0.76072100  1
  Y3+  Y52  1  0.49877798  0.50143702  0.25405765  1
  Y3+  Y53  1  0.49994825  0.50202526  0.76021694  1
  Y3+  Y54  1  0.49915623  0.75244909  0.25400505  1
  Y3+  Y55  1  0.49737325  0.75098572  0.76025220  1
  Y3+  Y56  1  0.74902033  -0.00101504  0.25672621  1
  Y3+  Y57  1  0.75108573  0.00065930  0.75850520  1
  Y3+  Y58  1  0.75119196  0.24828594  0.24899222  1
  Y3+  Y59  1  0.75024838  0.24858991  0.76320066  1
  Y3+  Y60  1  0.75187277  0.49875918  0.25107671  1
  Y3+  Y61  1  0.75242063  0.50003023  0.76184926  1
  Y3+  Y62  1  0.74968033  0.75419686  0.25935082  1
  Y3+  Y63  1  0.75311013  0.75032207  0.75628720  1
  Fe3+  Fe64  1  0.87407125  0.62310030  0.37733087  1
  Fe3+  Fe65  1  0.37688172  0.37410447  0.38032435  1
  Fe3+  Fe66  1  0.37625596  0.87566006  0.37774094  1
  Fe3+  Fe67  1  0.87450701  0.12699170  0.37596930  1
  Fe3+  Fe68  1  0.12453738  0.87460190  0.87419419  1
  Fe3+  Fe69  1  0.62662300  0.62397239  0.37456157  1
  Fe3+  Fe70  1  0.12330455  0.62433700  0.38068610  1
  Fe3+  Fe71  1  0.12229026  0.37408677  0.37666267  1
  Fe3+  Fe72  1  0.12535467  0.62630073  0.87312285  1
  Fe3+  Fe73  1  0.12526073  0.37533949  0.87595528  1
  Fe3+  Fe74  1  0.37599536  0.62441686  0.38078003  1
  Fe3+  Fe75  1  0.62772165  0.37496357  0.37359838  1
  Fe3+  Fe76  1  0.62551043  0.87516724  0.87798654  1
  Fe3+  Fe77  1  0.87310939  0.37396064  0.37440822  1
  Fe3+  Fe78  1  0.62465772  0.37504827  0.88043193  1
  Fe3+  Fe79  1  0.87643169  0.12315112  0.87638545  1
  Fe3+  Fe80  1  0.37350868  0.37491108  0.87990276  1
  Fe3+  Fe81  1  0.62554812  0.62669029  0.87972497  1
  Fe3+  Fe82  1  0.62692441  0.12611761  0.37454119  1
  Fe3+  Fe83  1  0.12340435  0.12560852  0.37773790  1
  Fe3+  Fe84  1  0.37332475  0.12365286  0.13891942  1
  Fe3+  Fe85  1  0.12381162  0.62514731  0.63347326  1
  Fe3+  Fe86  1  0.87604126  0.87554558  0.13921249  1
  Fe3+  Fe87  1  0.37608306  0.12398591  0.63909005  1
  Fe3+  Fe88  1  0.62366584  0.37547789  0.13041498  1
  Fe3+  Fe89  1  0.37391282  0.37388049  0.13377910  1
  Fe3+  Fe90  1  0.12501843  0.12289349  0.13786460  1
  Fe3+  Fe91  1  0.62470961  0.87614704  0.64027774  1
  Fe3+  Fe92  1  0.37560830  0.62565084  0.63324399  1
  Fe3+  Fe93  1  0.87598046  0.62731708  0.13677559  1
  Fe3+  Fe94  1  0.62581672  0.62704257  0.13209140  1
  Fe3+  Fe95  1  0.37612728  0.37394293  0.63561304  1
  Cu2+  Cu96  1  0.12486643  0.87555974  0.37487255  1
  Cu2+  Cu97  1  0.87399951  0.87607863  0.37360949  1
  Cu2+  Cu98  1  0.12440905  0.12374035  0.86156667  1
  Cu2+  Cu99  1  0.62467628  0.87523869  0.36271838  1
  Cu2+  Cu100  1  0.37379800  0.87480227  0.87116057  1
  Cu2+  Cu101  1  0.87674835  0.62621051  0.86356679  1
  Cu2+  Cu102  1  0.87612148  0.37381451  0.87298628  1
  Cu2+  Cu103  1  0.37555796  0.12575977  0.36487825  1
  Cu2+  Cu104  1  0.62570760  0.12313849  0.87423681  1
  Cu2+  Cu105  1  0.87590172  0.87570472  0.86144869  1
  Cu2+  Cu106  1  0.37400572  0.12467945  0.86349373  1
  Cu2+  Cu107  1  0.37158260  0.62611074  0.87232012  1
  Cu2+  Cu108  1  0.37645721  0.87546173  0.65009310  1
  Cu2+  Cu109  1  0.12505587  0.87501406  0.64157358  1
  Cu2+  Cu110  1  0.87493003  0.62507306  0.65334247  1
  Cu2+  Cu111  1  0.62501596  0.62609183  0.65737012  1
  Cu2+  Cu112  1  0.87448929  0.12488427  0.65498974  1
  Cu2+  Cu113  1  0.87550165  0.37487577  0.13740977  1
  Cu2+  Cu114  1  0.12396163  0.62673693  0.15587746  1
  Cu2+  Cu115  1  0.37418791  0.62633185  0.14400144  1
  Cu2+  Cu116  1  0.87624165  0.12306566  0.14927971  1
  Cu2+  Cu117  1  0.37404058  0.87657466  0.14381294  1
  Cu2+  Cu118  1  0.87416077  0.37405043  0.65970180  1
  Cu2+  Cu119  1  0.62551996  0.87446049  0.14749106  1
  Cu2+  Cu120  1  0.62463889  0.12406810  0.13978419  1
  Cu2+  Cu121  1  0.12492245  0.12480146  0.65237032  1
  Cu2+  Cu122  1  0.87356012  0.87582290  0.64321640  1
  Cu2+  Cu123  1  0.12537729  0.37511275  0.65238481  1
  Cu2+  Cu124  1  0.12638119  0.37415930  0.14851426  1
  Cu2+  Cu125  1  0.62497553  0.12394343  0.65678636  1
  Cu2+  Cu126  1  0.62434308  0.37444557  0.66009967  1
  Cu2+  Cu127  1  0.12452333  0.87597739  0.15425333  1
  O2-  O128  1  0.12657237  0.12205639  0.01780317  1
  O2-  O129  1  0.12208155  0.12752062  0.49791706  1
  O2-  O130  1  0.12766746  0.37674319  -0.00414569  1
  O2-  O131  1  0.12163664  0.37393728  0.49625153  1
  O2-  O132  1  0.12645428  0.62677623  -0.00696392  1
  O2-  O133  1  0.12188759  0.62248861  0.50608954  1
  O2-  O134  1  0.12523861  0.87347268  -0.00569604  1
  O2-  O135  1  0.12476748  0.87597253  0.50749737  1
  O2-  O136  1  0.37164735  0.12426946  0.01873129  1
  O2-  O137  1  0.37767019  0.12728309  0.51921310  1
  O2-  O138  1  0.37272247  0.37459188  0.00684211  1
  O2-  O139  1  0.37809010  0.37439651  0.50753337  1
  O2-  O140  1  0.37149433  0.62583582  0.00600383  1
  O2-  O141  1  0.37864918  0.62314745  0.50613246  1
  O2-  O142  1  0.37263537  0.87556934  0.00789391  1
  O2-  O143  1  0.37854394  0.87485600  0.49816384  1
  O2-  O144  1  0.62469436  0.12329380  0.00695546  1
  O2-  O145  1  0.62804662  0.12816150  0.49438877  1
  O2-  O146  1  0.62204922  0.37575887  0.00524451  1
  O2-  O147  1  0.62848522  0.37529063  0.49323394  1
  O2-  O148  1  0.62481436  0.62751994  0.00574895  1
  O2-  O149  1  0.62749946  0.62128322  0.49428361  1
  O2-  O150  1  0.62538485  0.87395832  -0.00179122  1
  O2-  O151  1  0.62535750  0.87621183  0.51946497  1
  O2-  O152  1  0.87776352  0.12253919  -0.00323716  1
  O2-  O153  1  0.87300274  0.12993580  0.49560384  1
  O2-  O154  1  0.87731306  0.37485443  0.00541132  1
  O2-  O155  1  0.87133828  0.37396568  0.49415717  1
  O2-  O156  1  0.87775327  0.62848191  0.01670795  1
  O2-  O157  1  0.87168013  0.62000510  0.49703153  1
  O2-  O158  1  0.87790290  0.87415579  0.01921934  1
  O2-  O159  1  0.87233264  0.87598053  0.50888381  1
  O2-  O160  1  0.12469012  0.00005858  0.16895709  1
  O2-  O161  1  0.12546361  0.00095361  0.66440340  1
  O2-  O162  1  0.12641391  0.24876365  0.16291818  1
  O2-  O163  1  0.12599357  0.25066845  0.66624242  1
  O2-  O164  1  0.12626030  0.50017670  0.16301445  1
  O2-  O165  1  0.12621422  0.50152523  0.66190555  1
  O2-  O166  1  0.12510756  0.75163490  0.16790177  1
  O2-  O167  1  0.12614804  0.74621753  0.66081699  1
  O2-  O168  1  0.37460944  0.00135485  0.16895179  1
  O2-  O169  1  0.37575949  0.00040469  0.66677267  1
  O2-  O170  1  0.37435908  0.25104645  0.16519807  1
  O2-  O171  1  0.37602533  0.25110565  0.66846659  1
  O2-  O172  1  0.37404858  0.49764841  0.16299995  1
  O2-  O173  1  0.37612175  0.49994909  0.66307472  1
  O2-  O174  1  0.37421554  0.75072473  0.16732786  1
  O2-  O175  1  0.37542837  0.74798753  0.66156951  1
  O2-  O176  1  0.62508154  -0.00128840  0.16549689  1
  O2-  O177  1  0.62442167  0.00001021  0.66674250  1
  O2-  O178  1  0.62357975  0.25325970  0.15886897  1
  O2-  O179  1  0.62381246  0.24912748  0.66818656  1
  O2-  O180  1  0.62308876  0.50055511  0.15721239  1
  O2-  O181  1  0.62393260  0.50062668  0.66838997  1
  O2-  O182  1  0.62523039  0.74812127  0.16559370  1
  O2-  O183  1  0.62448186  0.75033379  0.66611811  1
  O2-  O184  1  0.87547834  -0.00057246  0.16814068  1
  O2-  O185  1  0.87440923  0.00198215  0.66454415  1
  O2-  O186  1  0.87534858  0.24738773  0.15802821  1
  O2-  O187  1  0.87428530  0.24964521  0.66749776  1
  O2-  O188  1  0.87602523  0.50271837  0.16207592  1
  O2-  O189  1  0.87384263  0.49917817  0.66692759  1
  O2-  O190  1  0.87517014  0.75038914  0.17239553  1
  O2-  O191  1  0.87409572  0.74883001  0.66407588  1
  O2-  O192  1  0.00046348  0.12491125  0.16419434  1
  O2-  O193  1  0.00002051  0.12579825  0.66330773  1
  O2-  O194  1  0.00198748  0.37499515  0.16157832  1
  O2-  O195  1  -0.00044177  0.37513592  0.66425474  1
  O2-  O196  1  0.00003455  0.62606452  0.16687030  1
  O2-  O197  1  0.00089659  0.62357638  0.66151950  1
  O2-  O198  1  -0.00010521  0.87473793  0.16891062  1
  O2-  O199  1  -0.00038638  0.87481183  0.66303646  1
  O2-  O200  1  0.24964191  0.12510940  0.17305682  1
  O2-  O201  1  0.25082152  0.12580891  0.66498369  1
  O2-  O202  1  0.25234957  0.37570513  0.16825011  1
  O2-  O203  1  0.25298988  0.37516814  0.66022074  1
  O2-  O204  1  0.24762645  0.62543541  0.17163029  1
  O2-  O205  1  0.25118621  0.62284961  0.65411776  1
  O2-  O206  1  0.24789164  0.87482648  0.16858041  1
  O2-  O207  1  0.25206849  0.87527020  0.66157729  1
  O2-  O208  1  0.49753475  0.12558131  0.16657793  1
  O2-  O209  1  0.50005245  0.12554999  0.66947736  1
  O2-  O210  1  0.49855327  0.37592266  0.16292703  1
  O2-  O211  1  0.49845726  0.37562896  0.66673429  1
  O2-  O212  1  0.50275433  0.62491117  0.16316810  1
  O2-  O213  1  0.49771247  0.62410853  0.66559767  1
  O2-  O214  1  0.50118362  0.87461175  0.16360295  1
  O2-  O215  1  0.50075408  0.87412009  0.66959455  1
  O2-  O216  1  0.75217422  0.12448911  0.15851649  1
  O2-  O217  1  0.74920212  0.12578942  0.66770299  1
  O2-  O218  1  0.74679590  0.37623625  0.15626803  1
  O2-  O219  1  0.74880251  0.37493816  0.67060851  1
  O2-  O220  1  0.74922013  0.62449321  0.15993957  1
  O2-  O221  1  0.75012933  0.62415488  0.66948084  1
  O2-  O222  1  0.75101872  0.87488466  0.16529343  1
  O2-  O223  1  0.74778284  0.87497951  0.66977301  1
  O2-  O224  1  0.12578286  0.00266013  0.34953043  1
  O2-  O225  1  0.12509130  -0.00063512  0.84725251  1
  O2-  O226  1  0.12518740  0.25095055  0.34270753  1
  O2-  O227  1  0.12614538  0.24975740  0.84963557  1
  O2-  O228  1  0.12553885  0.50021558  0.34610655  1
  O2-  O229  1  0.12569806  0.49972794  0.84319416  1
  O2-  O230  1  0.12577652  0.74597184  0.35201825  1
  O2-  O231  1  0.12410691  0.75090874  0.84084941  1
  O2-  O232  1  0.37582404  0.00014784  0.35034316  1
  O2-  O233  1  0.37410511  0.00127629  0.84979638  1
  O2-  O234  1  0.37604126  0.25299404  0.34793889  1
  O2-  O235  1  0.37495086  0.25173080  0.85275936  1
  O2-  O236  1  0.37548131  0.49966852  0.34796324  1
  O2-  O237  1  0.37449962  0.49670760  0.84777397  1
  O2-  O238  1  0.37547218  0.74741666  0.35019694  1
  O2-  O239  1  0.37422965  0.75032381  0.84547485  1
  O2-  O240  1  0.62434346  0.00082102  0.34894395  1
  O2-  O241  1  0.62483937  -0.00270868  0.84749211  1
  O2-  O242  1  0.62468906  0.25097368  0.33929290  1
  O2-  O243  1  0.62370607  0.25247915  0.85209972  1
  O2-  O244  1  0.62465267  0.49945694  0.33742266  1
  O2-  O245  1  0.62462828  0.50064736  0.85294078  1
  O2-  O246  1  0.62420766  0.74902511  0.34889232  1
  O2-  O247  1  0.62574434  0.74923762  0.84786296  1
  O2-  O248  1  0.87414918  0.00232592  0.34979512  1
  O2-  O249  1  0.87607010  -0.00005512  0.84645403  1
  O2-  O250  1  0.87433917  0.25095314  0.33796325  1
  O2-  O251  1  0.87546854  0.24742707  0.84937353  1
  O2-  O252  1  0.87451901  0.49893197  0.34045435  1
  O2-  O253  1  0.87554252  0.50123992  0.85073609  1
  O2-  O254  1  0.87447729  0.74828708  0.35261508  1
  O2-  O255  1  0.87571551  0.75086683  0.84802882  1
  O2-  O256  1  -0.00055877  0.12629163  0.34391161  1
  O2-  O257  1  0.00007243  0.12429368  0.84606697  1
  O2-  O258  1  -0.00107744  0.37548457  0.34254280  1
  O2-  O259  1  0.00228374  0.37478182  0.84708105  1
  O2-  O260  1  0.00040443  0.62371713  0.34853169  1
  O2-  O261  1  0.00114415  0.62539290  0.84444406  1
  O2-  O262  1  -0.00016400  0.87489887  0.35089140  1
  O2-  O263  1  -0.00005791  0.87488963  0.84543816  1
  O2-  O264  1  0.24992551  0.12765667  0.35327593  1
  O2-  O265  1  0.24952935  0.12563412  0.84839510  1
  O2-  O266  1  0.25129385  0.37567858  0.35305442  1
  O2-  O267  1  0.25102128  0.37436327  0.84384230  1
  O2-  O268  1  0.25062484  0.62222272  0.35634610  1
  O2-  O269  1  0.24671029  0.62491609  0.83625378  1
  O2-  O270  1  0.25262482  0.87426022  0.35047127  1
  O2-  O271  1  0.24825472  0.87535943  0.84395826  1
  O2-  O272  1  0.50097824  0.12654096  0.34799589  1
  O2-  O273  1  0.49830794  0.12517069  0.85192820  1
  O2-  O274  1  0.49985739  0.37602325  0.34671693  1
  O2-  O275  1  0.49937686  0.37608922  0.85169417  1
  O2-  O276  1  0.49899025  0.62340409  0.34629377  1
  O2-  O277  1  0.50302114  0.62424591  0.85036022  1
  O2-  O278  1  0.49944983  0.87416187  0.34616395  1
  O2-  O279  1  0.50073809  0.87390683  0.85089362  1
  O2-  O280  1  0.74996405  0.12588248  0.33918347  1
  O2-  O281  1  0.75207722  0.12428526  0.84997648  1
  O2-  O282  1  0.75006646  0.37498871  0.33587889  1
  O2-  O283  1  0.74729308  0.37564065  0.85420031  1
  O2-  O284  1  0.75016250  0.62454603  0.33945579  1
  O2-  O285  1  0.74939538  0.62516603  0.85424577  1
  O2-  O286  1  0.74795554  0.87521208  0.34787474  1
  O2-  O287  1  0.75100022  0.87426976  0.85111239  1
