# generated using pymatgen
data_BaYFeCuO5
_symmetry_space_group_name_H-M   'P 1'
_cell_length_a   15.66960179
_cell_length_b   15.66767382
_cell_length_c   15.47901697
_cell_angle_alpha   89.99899682
_cell_angle_beta   89.99913806
_cell_angle_gamma   90.00286389
_symmetry_Int_Tables_number   1
_chemical_formula_structural   BaYFeCuO5
_chemical_formula_sum   'Ba32 Y32 Fe32 Cu32 O160'
_cell_volume   3800.19478351
_cell_formula_units_Z   32
loop_
 _symmetry_equiv_pos_site_id
 _symmetry_equiv_pos_as_xyz
  1  'x, y, z'
loop_
 _atom_type_symbol
 _atom_type_oxidation_number
  Ba2+  2.0
  Y3+  3.0
  Fe3+  3.0
  Cu2+  2.0
  O2-  -2.0
loop_
 _atom_site_type_symbol
 _atom_site_label
 _atom_site_symmetry_multiplicity
 _atom_site_fract_x
 _atom_site_fract_y
 _atom_site_fract_z
 _atom_site_occupancy
  Ba2+  Ba0  1  0.00236614  -0.00654604  0.00122150  1
  Ba2+  Ba1  1  0.00141641  0.00201165  0.52729554  1
  Ba2+  Ba2  1  0.00505619  0.24356459  0.00665504  1
  Ba2+  Ba3  1  0.00286160  0.25325139  0.51655704  1
  Ba2+  Ba4  1  -0.00028383  0.51069889  0.02034104  1
  Ba2+  Ba5  1  0.00777564  0.49387262  0.50529740  1
  Ba2+  Ba6  1  -0.00302867  0.75223048  0.01254221  1
  Ba2+  Ba7  1  0.00802830  0.75288329  0.51589534  1
  Ba2+  Ba8  1  0.24369160  0.00370532  0.00664212  1
  Ba2+  Ba9  1  0.24977743  0.00013736  0.52757740  1
  Ba2+  Ba10  1  0.24870499  0.24119680  0.01118383  1
  Ba2+  Ba11  1  0.24733631  0.25137004  0.52248935  1
  Ba2+  Ba12  1  0.25244054  0.51025296  0.01286100  1
  Ba2+  Ba13  1  0.24745048  0.50266369  0.51044737  1
  Ba2+  Ba14  1  0.24746837  0.74465520  0.00791197  1
  Ba2+  Ba15  1  0.25095060  0.74636281  0.51611904  1
  Ba2+  Ba16  1  0.50444979  0.00248031  0.00096182  1
  Ba2+  Ba17  1  0.49822634  -0.00081291  0.51826495  1
  Ba2+  Ba18  1  0.50353790  0.24736105  0.01107781  1
  Ba2+  Ba19  1  0.49398399  0.24436896  0.52221923  1
  Ba2+  Ba20  1  0.49773917  0.50282165  0.01300277  1
  Ba2+  Ba21  1  0.49437422  0.50821815  0.51072424  1
  Ba2+  Ba22  1  0.49832209  0.74764315  0.00158852  1
  Ba2+  Ba23  1  0.49773402  0.74677934  0.50625070  1
  Ba2+  Ba24  1  0.74898599  -0.00757110  -0.00327638  1
  Ba2+  Ba25  1  0.75072626  0.00109893  0.51885677  1
  Ba2+  Ba26  1  0.74263487  0.24973715  0.00630668  1
  Ba2+  Ba27  1  0.75743833  0.24638468  0.51697320  1
  Ba2+  Ba28  1  0.74986011  0.50151233  0.01901940  1
  Ba2+  Ba29  1  0.75063306  0.49933362  0.50581058  1
  Ba2+  Ba30  1  0.75637455  0.75542347  0.00727528  1
  Ba2+  Ba31  1  0.74274828  0.75275058  0.50527442  1
  Y3+  Y32  1  0.00046843  -0.00031641  0.25141141  1
  Y3+  Y33  1  0.00067923  -0.00196655  0.76147096  1
  Y3+  Y34  1  0.00193090  0.25113021  0.25848533  1
  Y3+  Y35  1  0.00123500  0.25062561  0.75593321  1
  Y3+  Y36  1  0.00149353  0.49991236  0.26351696  1
  Y3+  Y37  1  0.00128003  0.49919606  0.75063080  1
  Y3+  Y38  1  0.00013754  0.74912344  0.25723244  1
  Y3+  Y39  1  0.00099500  0.75255794  0.75669754  1
  Y3+  Y40  1  0.24962905  0.00172737  0.25123394  1
  Y3+  Y41  1  0.24745650  -0.00066303  0.76130784  1
  Y3+  Y42  1  0.24856171  0.24863908  0.25426750  1
  Y3+  Y43  1  0.24801738  0.25058358  0.75861627  1
  Y3+  Y44  1  0.24965245  0.50350151  0.26066819  1
  Y3+  Y45  1  0.25068616  0.50197054  0.75353264  1
  Y3+  Y46  1  0.25070597  0.74614534  0.25900739  1
  Y3+  Y47  1  0.25029584  0.74793623  0.75617483  1
  Y3+  Y48  1  0.49964277  -0.00040492  0.25679209  1
  Y3+  Y49  1  0.50083260  -0.00000569  0.75853192  1
  Y3+  Y50  1  0.49939132  0.24965881  0.25498477  1
  Y3+  Y51  1  0.49969416  0.24952409  0.75771662  1
  Y3+  Y52  1  0.49951552  0.50285038  0.25969518  1
  Y3+  Y53  1  0.49748973  0.50327802  0.75474558  1
  Y3+  Y54  1  0.49966662  0.74786618  0.26092958  1
  Y3+  Y55  1  0.49826533  0.74733165  0.75588816  1
  Y3+  Y56  1  0.75072027  -0.00251489  0.25712327  1
  Y3+  Y57  1  0.75082816  -0.00149999  0.75910202  1
  Y3+  Y58  1  0.75050607  0.25169133  0.25853933  1
  Y3+  Y59  1  0.75067146  0.24954552  0.75537030  1
  Y3+  Y60  1  0.75008839  0.49972339  0.26222816  1
  Y3+  Y61  1  0.75005757  0.50047354  0.75143002  1
  Y3+  Y62  1  0.75008753  0.75029393  0.25940478  1
  Y3+  Y63  1  0.75029262  0.75153885  0.75633763  1
  Fe3+  Fe64  1  0.87617013  0.62604330  0.37985876  1
  Fe3+  Fe65  1  0.87538053  0.37699256  0.87987537  1
  Fe3+  Fe66  1  0.62605061  0.62460649  0.87859469  1
  Fe3+  Fe67  1  0.12557387  0.12357212  0.37610971  1
  Fe3+  Fe68  1  0.87448786  0.12544922  0.87838335  1
  Fe3+  Fe69  1  0.87669939  0.87705702  0.37875050  1
  Fe3+  Fe70  1  0.87675493  0.12399755  0.37596169  1
  Fe3+  Fe71  1  0.87514480  0.62403120  0.87452367  1
  Fe3+  Fe72  1  0.37345317  0.87657881  0.37673493  1
  Fe3+  Fe73  1  0.37520445  0.12569857  0.87685902  1
  Fe3+  Fe74  1  0.37449814  0.37639106  0.87966749  1
  Fe3+  Fe75  1  0.12475672  0.37707002  0.88063284  1
  Fe3+  Fe76  1  0.62499458  0.37700627  0.87592561  1
  Fe3+  Fe77  1  0.62331176  0.37311103  0.38003372  1
  Fe3+  Fe78  1  0.12604067  0.87713416  0.37628611  1
  Fe3+  Fe79  1  0.37348371  0.12440491  0.37561531  1
  Fe3+  Fe80  1  0.62460956  0.12434835  0.37885591  1
  Fe3+  Fe81  1  0.37403715  0.37340252  0.37650041  1
  Fe3+  Fe82  1  0.37432468  0.87390496  0.87913448  1
  Fe3+  Fe83  1  0.12381013  0.62450169  0.87470028  1
  Fe3+  Fe84  1  0.37512292  0.37540632  0.13422333  1
  Fe3+  Fe85  1  0.87432864  0.12397148  0.13250974  1
  Fe3+  Fe86  1  0.62370411  0.37505461  0.63432794  1
  Fe3+  Fe87  1  0.12524420  0.37631222  0.13441148  1
  Fe3+  Fe88  1  0.87540615  0.62613288  0.63321156  1
  Fe3+  Fe89  1  0.37554605  0.87443163  0.13342817  1
  Fe3+  Fe90  1  0.62632913  0.12402504  0.13740025  1
  Fe3+  Fe91  1  0.62400862  0.87448123  0.64039346  1
  Fe3+  Fe92  1  0.62550149  0.62572939  0.13692984  1
  Fe3+  Fe93  1  0.87527124  0.37483841  0.13497173  1
  Fe3+  Fe94  1  0.62471309  0.87399581  0.13778263  1
  Fe3+  Fe95  1  0.12532500  0.87340713  0.13580981  1
  Cu2+  Cu96  1  0.87582346  0.37295428  0.37403895  1
  Cu2+  Cu97  1  0.62501079  0.62502057  0.37478192  1
  Cu2+  Cu98  1  0.12587408  0.87302159  0.86548950  1
  Cu2+  Cu99  1  0.37442018  0.62529128  0.37158184  1
  Cu2+  Cu100  1  0.62395655  0.87329553  0.86311227  1
  Cu2+  Cu101  1  0.12440169  0.12550936  0.87202928  1
  Cu2+  Cu102  1  0.87543858  0.87324685  0.87134982  1
  Cu2+  Cu103  1  0.37457716  0.62404243  0.87220988  1
  Cu2+  Cu104  1  0.62549765  0.12563621  0.86129320  1
  Cu2+  Cu105  1  0.12723889  0.37322504  0.37025869  1
  Cu2+  Cu106  1  0.12516270  0.62636968  0.37361340  1
  Cu2+  Cu107  1  0.62432241  0.87642710  0.36437157  1
  Cu2+  Cu108  1  0.37591216  0.62618406  0.14266691  1
  Cu2+  Cu109  1  0.62511417  0.12463042  0.65339464  1
  Cu2+  Cu110  1  0.12462244  0.62504303  0.15459041  1
  Cu2+  Cu111  1  0.37615974  0.12423518  0.14430478  1
  Cu2+  Cu112  1  0.37451916  0.62560784  0.64292931  1
  Cu2+  Cu113  1  0.87422555  0.62478627  0.15551319  1
  Cu2+  Cu114  1  0.87503582  0.87482659  0.64990781  1
  Cu2+  Cu115  1  0.87541738  0.37535146  0.64025562  1
  Cu2+  Cu116  1  0.12599507  0.37549210  0.64385748  1
  Cu2+  Cu117  1  0.37484441  0.87497831  0.65536778  1
  Cu2+  Cu118  1  0.12355030  0.12474031  0.13946468  1
  Cu2+  Cu119  1  0.37490398  0.37516450  0.65184264  1
  Cu2+  Cu120  1  0.87597531  0.12445983  0.65716821  1
  Cu2+  Cu121  1  0.12575947  0.87502082  0.65544132  1
  Cu2+  Cu122  1  0.37391855  0.12447566  0.65777823  1
  Cu2+  Cu123  1  0.12456216  0.62506849  0.64184082  1
  Cu2+  Cu124  1  0.12486434  0.12491943  0.65735593  1
  Cu2+  Cu125  1  0.62503516  0.37569663  0.15157833  1
  Cu2+  Cu126  1  0.87424870  0.87473354  0.14164155  1
  Cu2+  Cu127  1  0.62515108  0.62575183  0.64116794  1
  O2-  O128  1  0.12358991  0.12528426  0.00552625  1
  O2-  O129  1  0.12611363  0.12354317  0.49615160  1
  O2-  O130  1  0.12313095  0.37829547  0.00702531  1
  O2-  O131  1  0.12749181  0.37253594  0.50730419  1
  O2-  O132  1  0.12298917  0.62456996  -0.00453840  1
  O2-  O133  1  0.12458611  0.62607891  0.50691852  1
  O2-  O134  1  0.12516465  0.87181024  0.01507247  1
  O2-  O135  1  0.12603310  0.87991479  0.49645520  1
  O2-  O136  1  0.37742672  0.12589974  -0.00256162  1
  O2-  O137  1  0.37280570  0.12387763  0.49522056  1
  O2-  O138  1  0.37609129  0.37563985  0.00591318  1
  O2-  O139  1  0.37425834  0.37139414  0.49655998  1
  O2-  O140  1  0.37641475  0.62505769  0.00771944  1
  O2-  O141  1  0.37417302  0.62620385  0.50769667  1
  O2-  O142  1  0.37563944  0.87423697  0.00642704  1
  O2-  O143  1  0.37296074  0.87836594  0.49680833  1
  O2-  O144  1  0.62679285  0.12434306  0.01687234  1
  O2-  O145  1  0.62380329  0.12466184  0.49882853  1
  O2-  O146  1  0.62608346  0.37749787  -0.00379926  1
  O2-  O147  1  0.62256797  0.37221281  0.50652983  1
  O2-  O148  1  0.62661239  0.62452306  0.00730641  1
  O2-  O149  1  0.62539750  0.62562060  0.50726607  1
  O2-  O150  1  0.62446158  0.87332794  0.01767153  1
  O2-  O151  1  0.62364921  0.87699217  0.51960664  1
  O2-  O152  1  0.87251955  0.12461966  0.00579580  1
  O2-  O153  1  0.87724676  0.12380907  0.49602311  1
  O2-  O154  1  0.87457351  0.37792642  0.00616376  1
  O2-  O155  1  0.87482374  0.37207074  0.50677289  1
  O2-  O156  1  0.87367956  0.62357482  -0.00509030  1
  O2-  O157  1  0.87573165  0.62633750  0.50617336  1
  O2-  O158  1  0.87478533  0.87407312  0.00613811  1
  O2-  O159  1  0.87705447  0.87959470  0.49852280  1
  O2-  O160  1  0.12471421  -0.00210812  0.16089453  1
  O2-  O161  1  0.12539975  -0.00000571  0.66844752  1
  O2-  O162  1  0.12468854  0.25368350  0.16042187  1
  O2-  O163  1  0.12494131  0.24895230  0.66851226  1
  O2-  O164  1  0.12439488  0.49875038  0.16535737  1
  O2-  O165  1  0.12553383  0.50023997  0.66480957  1
  O2-  O166  1  0.12512828  0.74946416  0.16657589  1
  O2-  O167  1  0.12503482  0.75156333  0.66411166  1
  O2-  O168  1  0.37606814  -0.00218710  0.15914505  1
  O2-  O169  1  0.37461968  0.00019570  0.66865549  1
  O2-  O170  1  0.37535765  0.25178709  0.15916828  1
  O2-  O171  1  0.37526623  0.24930393  0.66676942  1
  O2-  O172  1  0.37579577  0.49758233  0.16357493  1
  O2-  O173  1  0.37521392  0.49910976  0.66548272  1
  O2-  O174  1  0.37571476  0.75296397  0.16478417  1
  O2-  O175  1  0.37514487  0.75132582  0.66765945  1
  O2-  O176  1  0.62530543  -0.00033804  0.16661943  1
  O2-  O177  1  0.62523299  -0.00027308  0.66898262  1
  O2-  O178  1  0.62571243  0.24989031  0.16352402  1
  O2-  O179  1  0.62424140  0.25079056  0.66385545  1
  O2-  O180  1  0.62560045  0.50143417  0.16449965  1
  O2-  O181  1  0.62460106  0.49732825  0.66232277  1
  O2-  O182  1  0.62541652  0.74878991  0.16707814  1
  O2-  O183  1  0.62464528  0.75172403  0.66959209  1
  O2-  O184  1  0.87373672  0.00249724  0.16062303  1
  O2-  O185  1  0.87487381  -0.00005152  0.66851006  1
  O2-  O186  1  0.87388709  0.25058802  0.15695304  1
  O2-  O187  1  0.87524896  0.24854985  0.66941220  1
  O2-  O188  1  0.87449294  0.49793179  0.16526473  1
  O2-  O189  1  0.87408308  0.50292858  0.66201067  1
  O2-  O190  1  0.87406473  0.74838200  0.16707045  1
  O2-  O191  1  0.87525959  0.74926742  0.66243042  1
  O2-  O192  1  -0.00389825  0.12621623  0.16098768  1
  O2-  O193  1  0.00051764  0.12514046  0.66748348  1
  O2-  O194  1  -0.00033049  0.37566149  0.16202937  1
  O2-  O195  1  0.00052152  0.37471719  0.66660674  1
  O2-  O196  1  -0.00089803  0.62432951  0.16440838  1
  O2-  O197  1  -0.00270967  0.62528982  0.66238754  1
  O2-  O198  1  0.00126932  0.87374851  0.16310551  1
  O2-  O199  1  0.00041945  0.87592540  0.66535026  1
  O2-  O200  1  0.25090274  0.12505479  0.15842133  1
  O2-  O201  1  0.24941456  0.12561029  0.66763971  1
  O2-  O202  1  0.24972439  0.37556258  0.15657463  1
  O2-  O203  1  0.25183502  0.37414811  0.66949658  1
  O2-  O204  1  0.24918883  0.62457795  0.16399004  1
  O2-  O205  1  0.24969252  0.62538107  0.66559312  1
  O2-  O206  1  0.25140897  0.87496346  0.16004545  1
  O2-  O207  1  0.25059335  0.87530804  0.66784467  1
  O2-  O208  1  0.50183634  0.12538143  0.16496469  1
  O2-  O209  1  0.49886132  0.12456691  0.66563668  1
  O2-  O210  1  0.49866840  0.37466775  0.16166430  1
  O2-  O211  1  0.50102768  0.37441381  0.66481723  1
  O2-  O212  1  0.50356593  0.62471821  0.16500582  1
  O2-  O213  1  0.49959428  0.62504775  0.66685248  1
  O2-  O214  1  0.49966407  0.87480248  0.16547034  1
  O2-  O215  1  0.49959454  0.87587183  0.66900009  1
  O2-  O216  1  0.75109873  0.12624275  0.16700407  1
  O2-  O217  1  0.75104532  0.12541331  0.66560686  1
  O2-  O218  1  0.75208029  0.37564195  0.16519139  1
  O2-  O219  1  0.74649201  0.37398142  0.66324833  1
  O2-  O220  1  0.74817360  0.62397751  0.16586718  1
  O2-  O221  1  0.75304659  0.62543266  0.66348099  1
  O2-  O222  1  0.74791888  0.87407362  0.16796367  1
  O2-  O223  1  0.74949610  0.87562073  0.66653745  1
  O2-  O224  1  0.12539889  0.00048581  0.33895339  1
  O2-  O225  1  0.12448124  -0.00177595  0.85257789  1
  O2-  O226  1  0.12550117  0.24704304  0.34252275  1
  O2-  O227  1  0.12462804  0.25469195  0.85201688  1
  O2-  O228  1  0.12545139  0.49987330  0.35008197  1
  O2-  O229  1  0.12398116  0.49840990  0.84596252  1
  O2-  O230  1  0.12504040  0.75303111  0.34804956  1
  O2-  O231  1  0.12522773  0.74831978  0.84650716  1
  O2-  O232  1  0.37476103  0.00082340  0.33979697  1
  O2-  O233  1  0.37607316  -0.00091374  0.85218963  1
  O2-  O234  1  0.37512807  0.24851288  0.34036058  1
  O2-  O235  1  0.37526674  0.25207180  0.85006261  1
  O2-  O236  1  0.37559095  0.49830946  0.34724111  1
  O2-  O237  1  0.37556517  0.49746923  0.84905647  1
  O2-  O238  1  0.37546861  0.75208168  0.34747106  1
  O2-  O239  1  0.37485369  0.75140068  0.85151042  1
  O2-  O240  1  0.62486903  0.00123178  0.34610749  1
  O2-  O241  1  0.62451003  -0.00052352  0.85282434  1
  O2-  O242  1  0.62443576  0.24986540  0.34537752  1
  O2-  O243  1  0.62577773  0.25230294  0.84769080  1
  O2-  O244  1  0.62500021  0.49606796  0.34972926  1
  O2-  O245  1  0.62543345  0.50130079  0.84489586  1
  O2-  O246  1  0.62493800  0.75236181  0.35008456  1
  O2-  O247  1  0.62563221  0.74713672  0.85228738  1
  O2-  O248  1  0.87528132  0.00013676  0.34057203  1
  O2-  O249  1  0.87465991  0.00198358  0.85297605  1
  O2-  O250  1  0.87539851  0.24666117  0.34038644  1
  O2-  O251  1  0.87358917  0.25180360  0.85431776  1
  O2-  O252  1  0.87462215  0.50241013  0.35108268  1
  O2-  O253  1  0.87463977  0.49861161  0.84406193  1
  O2-  O254  1  0.87497511  0.75078265  0.35046313  1
  O2-  O255  1  0.87420144  0.74717045  0.84529977  1
  O2-  O256  1  0.00099035  0.12451994  0.34160649  1
  O2-  O257  1  -0.00346946  0.12657278  0.85119002  1
  O2-  O258  1  0.00121256  0.37425904  0.34701443  1
  O2-  O259  1  -0.00086317  0.37516960  0.85117029  1
  O2-  O260  1  -0.00259385  0.62529170  0.34854028  1
  O2-  O261  1  -0.00031002  0.62389182  0.84324127  1
  O2-  O262  1  0.00027048  0.87588854  0.34313326  1
  O2-  O263  1  0.00159448  0.87377773  0.84952831  1
  O2-  O264  1  0.24992212  0.12477848  0.33977371  1
  O2-  O265  1  0.25174187  0.12536714  0.85020424  1
  O2-  O266  1  0.25245683  0.37396071  0.33984014  1
  O2-  O267  1  0.24978879  0.37584555  0.85427205  1
  O2-  O268  1  0.25030785  0.62518583  0.34799598  1
  O2-  O269  1  0.24796355  0.62361639  0.84843194  1
  O2-  O270  1  0.24998328  0.87591518  0.34028927  1
  O2-  O271  1  0.25190676  0.87493139  0.85202391  1
  O2-  O272  1  0.49955945  0.12488724  0.34556401  1
  O2-  O273  1  0.49982833  0.12608671  0.84886109  1
  O2-  O274  1  0.50035664  0.37393608  0.34508565  1
  O2-  O275  1  0.49909281  0.37540060  0.84875357  1
  O2-  O276  1  0.49965302  0.62484392  0.34879909  1
  O2-  O277  1  0.50281772  0.62434638  0.85121433  1
  O2-  O278  1  0.49923184  0.87600115  0.34747336  1
  O2-  O279  1  0.49821908  0.87403114  0.85236308  1
  O2-  O280  1  0.74993467  0.12498091  0.34744325  1
  O2-  O281  1  0.75140070  0.12579283  0.84998568  1
  O2-  O282  1  0.74659416  0.37381036  0.35031458  1
  O2-  O283  1  0.75150258  0.37612774  0.84702174  1
  O2-  O284  1  0.75320373  0.62522148  0.35019370  1
  O2-  O285  1  0.74916428  0.62361143  0.84596098  1
  O2-  O286  1  0.75070649  0.87546891  0.35003602  1
  O2-  O287  1  0.74798120  0.87431153  0.84930552  1
