# generated using pymatgen
data_BaYFeCuO5
_symmetry_space_group_name_H-M   'P 1'
_cell_length_a   15.65967653
_cell_length_b   15.65969476
_cell_length_c   15.46223753
_cell_angle_alpha   89.99986818
_cell_angle_beta   90.00055504
_cell_angle_gamma   90.00067499
_symmetry_Int_Tables_number   1
_chemical_formula_structural   BaYFeCuO5
_chemical_formula_sum   'Ba32 Y32 Fe32 Cu32 O160'
_cell_volume   3791.73886393
_cell_formula_units_Z   32
loop_
 _symmetry_equiv_pos_site_id
 _symmetry_equiv_pos_as_xyz
  1  'x, y, z'
loop_
 _atom_type_symbol
 _atom_type_oxidation_number
  Ba2+  2.0
  Y3+  3.0
  Fe3+  3.0
  Cu2+  2.0
  O2-  -2.0
loop_
 _atom_site_type_symbol
 _atom_site_label
 _atom_site_symmetry_multiplicity
 _atom_site_fract_x
 _atom_site_fract_y
 _atom_site_fract_z
 _atom_site_occupancy
  Ba2+  Ba0  1  -0.00584747  -0.00477348  0.01213017  1
  Ba2+  Ba1  1  -0.00516808  -0.00511793  0.50100281  1
  Ba2+  Ba2  1  -0.00790753  0.25683536  0.00682140  1
  Ba2+  Ba3  1  -0.00237350  0.26335743  0.51166686  1
  Ba2+  Ba4  1  -0.01194026  0.50060583  0.00711089  1
  Ba2+  Ba5  1  -0.00144912  0.50090015  0.51821255  1
  Ba2+  Ba6  1  -0.01164432  0.74715873  0.01244741  1
  Ba2+  Ba7  1  -0.00159563  0.74034212  0.50647755  1
  Ba2+  Ba8  1  0.26109677  -0.00042641  0.00659913  1
  Ba2+  Ba9  1  0.26173224  0.00189868  0.51092673  1
  Ba2+  Ba10  1  0.26060339  0.25020149  -0.00447087  1
  Ba2+  Ba11  1  0.25731969  0.25380306  0.51663580  1
  Ba2+  Ba12  1  0.25926072  0.50008628  0.00645230  1
  Ba2+  Ba13  1  0.24904119  0.50126923  0.52180560  1
  Ba2+  Ba14  1  0.26029532  0.75008839  0.01743533  1
  Ba2+  Ba15  1  0.25257171  0.74253810  0.51540157  1
  Ba2+  Ba16  1  0.50462622  0.00195166  0.01171969  1
  Ba2+  Ba17  1  0.49920119  0.00119143  0.52026744  1
  Ba2+  Ba18  1  0.50402151  0.24707712  0.00020647  1
  Ba2+  Ba19  1  0.50106979  0.25159182  0.51682614  1
  Ba2+  Ba20  1  0.50255131  0.50001832  0.00636429  1
  Ba2+  Ba21  1  0.50495378  0.49972605  0.51517534  1
  Ba2+  Ba22  1  0.50211593  0.75095765  0.01788452  1
  Ba2+  Ba23  1  0.50209043  0.74728843  0.51906174  1
  Ba2+  Ba24  1  0.74141367  -0.00271315  0.01750220  1
  Ba2+  Ba25  1  0.74351060  -0.00479169  0.51171805  1
  Ba2+  Ba26  1  0.74356529  0.25491002  0.01317231  1
  Ba2+  Ba27  1  0.74506846  0.25993867  0.51057823  1
  Ba2+  Ba28  1  0.75284859  0.50071894  0.00644123  1
  Ba2+  Ba29  1  0.74674217  0.49812971  0.51125777  1
  Ba2+  Ba30  1  0.74989523  0.74684899  0.01266290  1
  Ba2+  Ba31  1  0.74617557  0.74495620  0.51061234  1
  Y3+  Y32  1  -0.00167124  -0.00142751  0.25788904  1
  Y3+  Y33  1  -0.00041088  0.00026330  0.75753100  1
  Y3+  Y34  1  -0.00267150  0.25336861  0.25772954  1
  Y3+  Y35  1  -0.00240557  0.25410258  0.75748823  1
  Y3+  Y36  1  -0.00371023  0.49989360  0.25724801  1
  Y3+  Y37  1  -0.00392241  0.50039185  0.75792984  1
  Y3+  Y38  1  -0.00225793  0.74780953  0.25823699  1
  Y3+  Y39  1  -0.00105221  0.74542701  0.75658784  1
  Y3+  Y40  1  0.25236606  0.00089011  0.25950540  1
  Y3+  Y41  1  0.25345596  0.00105371  0.75498815  1
  Y3+  Y42  1  0.25195150  0.24908950  0.26039014  1
  Y3+  Y43  1  0.25368845  0.25073848  0.75561615  1
  Y3+  Y44  1  0.25008880  0.50166192  0.25687670  1
  Y3+  Y45  1  0.25038854  0.50007485  0.75634869  1
  Y3+  Y46  1  0.25022991  0.74833257  0.25827008  1
  Y3+  Y47  1  0.25057338  0.74853813  0.75374416  1
  Y3+  Y48  1  0.50093901  0.00110034  0.25634822  1
  Y3+  Y49  1  0.50130820  0.00296626  0.75612140  1
  Y3+  Y50  1  0.50336439  0.25006216  0.25909204  1
  Y3+  Y51  1  0.50112420  0.24868719  0.75618802  1
  Y3+  Y52  1  0.50356493  0.49964130  0.25970261  1
  Y3+  Y53  1  0.50173271  0.49992888  0.75458879  1
  Y3+  Y54  1  0.50091869  0.74900898  0.25716683  1
  Y3+  Y55  1  0.50235012  0.74868643  0.75329476  1
  Y3+  Y56  1  0.74859765  -0.00146921  0.25671742  1
  Y3+  Y57  1  0.74561396  0.00151816  0.75667773  1
  Y3+  Y58  1  0.74812802  0.25448043  0.25798651  1
  Y3+  Y59  1  0.74790714  0.25242998  0.75719026  1
  Y3+  Y60  1  0.74953814  0.49783767  0.25878450  1
  Y3+  Y61  1  0.75092212  0.50086697  0.75659518  1
  Y3+  Y62  1  0.75054708  0.74899102  0.25782493  1
  Y3+  Y63  1  0.74874794  0.74555281  0.75632454  1
  Fe3+  Fe64  1  0.12542046  0.37573893  0.87947755  1
  Fe3+  Fe65  1  0.12552533  0.87423308  0.87993275  1
  Fe3+  Fe66  1  0.62464308  0.12515434  0.37843270  1
  Fe3+  Fe67  1  0.87370700  0.62352119  0.37667876  1
  Fe3+  Fe68  1  0.87326949  0.87484270  0.87603686  1
  Fe3+  Fe69  1  0.12551294  0.87361981  0.37965258  1
  Fe3+  Fe70  1  0.37680490  0.87436915  0.87405517  1
  Fe3+  Fe71  1  0.37572339  0.37552202  0.37848899  1
  Fe3+  Fe72  1  0.12537892  0.62586703  0.88052128  1
  Fe3+  Fe73  1  0.87265928  0.12500612  0.87976355  1
  Fe3+  Fe74  1  0.62487513  0.37620937  0.87519588  1
  Fe3+  Fe75  1  0.12482345  0.12632608  0.38100999  1
  Fe3+  Fe76  1  0.37691588  0.62597643  0.87483769  1
  Fe3+  Fe77  1  0.62468426  0.87364554  0.87508204  1
  Fe3+  Fe78  1  0.37637622  0.87440113  0.37714820  1
  Fe3+  Fe79  1  0.12459832  0.12466157  0.88029486  1
  Fe3+  Fe80  1  0.62424130  0.87399441  0.37638456  1
  Fe3+  Fe81  1  0.12549364  0.37708659  0.37673368  1
  Fe3+  Fe82  1  0.87345546  0.12617883  0.37998666  1
  Fe3+  Fe83  1  0.37576636  0.62392257  0.37692672  1
  Fe3+  Fe84  1  0.12606899  0.37449077  0.13288559  1
  Fe3+  Fe85  1  0.87409274  0.12571653  0.63445703  1
  Fe3+  Fe86  1  0.87458030  0.87396755  0.63664337  1
  Fe3+  Fe87  1  0.37613197  0.12622356  0.13898663  1
  Fe3+  Fe88  1  0.12454736  0.87492584  0.63448067  1
  Fe3+  Fe89  1  0.62550489  0.62362485  0.13862875  1
  Fe3+  Fe90  1  0.87365475  0.12563144  0.13611146  1
  Fe3+  Fe91  1  0.12495218  0.62427479  0.13346009  1
  Fe3+  Fe92  1  0.37678499  0.37437989  0.13737263  1
  Fe3+  Fe93  1  0.12378739  0.12579687  0.63469058  1
  Fe3+  Fe94  1  0.12566112  0.87499866  0.13464675  1
  Fe3+  Fe95  1  0.12530435  0.12580350  0.13389053  1
  Cu2+  Cu96  1  0.37579018  0.12432183  0.86118591  1
  Cu2+  Cu97  1  0.62472601  0.62497081  0.37212723  1
  Cu2+  Cu98  1  0.37675966  0.12558220  0.37514476  1
  Cu2+  Cu99  1  0.37613760  0.37560819  0.86104951  1
  Cu2+  Cu100  1  0.87412154  0.87437693  0.36589967  1
  Cu2+  Cu101  1  0.87349743  0.37510296  0.87181166  1
  Cu2+  Cu102  1  0.87390916  0.62552189  0.87201456  1
  Cu2+  Cu103  1  0.62580997  0.12458014  0.87244661  1
  Cu2+  Cu104  1  0.87444690  0.37555078  0.37261815  1
  Cu2+  Cu105  1  0.62443446  0.37556718  0.37270689  1
  Cu2+  Cu106  1  0.12505507  0.62338572  0.37244116  1
  Cu2+  Cu107  1  0.62471792  0.62532334  0.86399514  1
  Cu2+  Cu108  1  0.37590053  0.37574966  0.65176506  1
  Cu2+  Cu109  1  0.37534477  0.87460216  0.64974346  1
  Cu2+  Cu110  1  0.37523320  0.87572331  0.15258234  1
  Cu2+  Cu111  1  0.37546548  0.62434809  0.65113811  1
  Cu2+  Cu112  1  0.12415391  0.62440253  0.64271257  1
  Cu2+  Cu113  1  0.87354003  0.37569417  0.64287501  1
  Cu2+  Cu114  1  0.62546262  0.87483232  0.65070382  1
  Cu2+  Cu115  1  0.87416764  0.62414189  0.14408129  1
  Cu2+  Cu116  1  0.87439823  0.62481974  0.65046208  1
  Cu2+  Cu117  1  0.37565032  0.62414089  0.15158090  1
  Cu2+  Cu118  1  0.62502217  0.37525855  0.64599134  1
  Cu2+  Cu119  1  0.62583386  0.62401366  0.64138184  1
  Cu2+  Cu120  1  0.12479320  0.37502719  0.65498381  1
  Cu2+  Cu121  1  0.62508925  0.12611487  0.14242310  1
  Cu2+  Cu122  1  0.37581434  0.12586578  0.64291289  1
  Cu2+  Cu123  1  0.87483643  0.87483100  0.15233237  1
  Cu2+  Cu124  1  0.62613122  0.12580844  0.64665022  1
  Cu2+  Cu125  1  0.62424007  0.37548232  0.15028042  1
  Cu2+  Cu126  1  0.62485242  0.87413066  0.15260142  1
  Cu2+  Cu127  1  0.87401569  0.37547577  0.14219478  1
  O2-  O128  1  0.12534632  0.12438950  0.00738132  1
  O2-  O129  1  0.12351820  0.12565483  0.50766790  1
  O2-  O130  1  0.12628971  0.37317311  0.00653942  1
  O2-  O131  1  0.12628180  0.37707646  0.49707247  1
  O2-  O132  1  0.12592316  0.62762012  0.00656582  1
  O2-  O133  1  0.12522031  0.62396946  0.50671359  1
  O2-  O134  1  0.12563575  0.87512652  0.00647687  1
  O2-  O135  1  0.12493933  0.87518310  0.50715115  1
  O2-  O136  1  0.37487508  0.12529018  0.01794692  1
  O2-  O137  1  0.37487528  0.12568639  0.50814699  1
  O2-  O138  1  0.37621973  0.37315255  0.01658893  1
  O2-  O139  1  0.37377928  0.37715480  0.49896702  1
  O2-  O140  1  0.37638057  0.62705438  -0.00426299  1
  O2-  O141  1  0.37428179  0.62401934  0.49732335  1
  O2-  O142  1  0.37646578  0.87453639  -0.00540669  1
  O2-  O143  1  0.37491241  0.87364090  0.49728009  1
  O2-  O144  1  0.62570509  0.12434888  0.00709702  1
  O2-  O145  1  0.62515254  0.12385939  0.49900123  1
  O2-  O146  1  0.62388766  0.37618980  -0.00349191  1
  O2-  O147  1  0.62340449  0.37496788  0.50745521  1
  O2-  O148  1  0.62470145  0.62458513  0.01752666  1
  O2-  O149  1  0.62468299  0.62562996  0.50792011  1
  O2-  O150  1  0.62443960  0.87361470  -0.00435583  1
  O2-  O151  1  0.62306346  0.87505206  0.49688463  1
  O2-  O152  1  0.87388997  0.12376101  0.00749816  1
  O2-  O153  1  0.87548690  0.12553758  0.50725683  1
  O2-  O154  1  0.87404713  0.37366932  0.00730062  1
  O2-  O155  1  0.87528093  0.37600435  0.50827631  1
  O2-  O156  1  0.87406359  0.62594869  0.00706881  1
  O2-  O157  1  0.87481300  0.62411239  0.49796009  1
  O2-  O158  1  0.87318748  0.87658138  -0.00335535  1
  O2-  O159  1  0.87647754  0.87468499  0.51601739  1
  O2-  O160  1  0.12465302  0.00084008  0.16374624  1
  O2-  O161  1  0.12368726  0.00045645  0.66412837  1
  O2-  O162  1  0.12371502  0.24881193  0.16366865  1
  O2-  O163  1  0.12393691  0.24836037  0.66552938  1
  O2-  O164  1  0.12749655  0.49958662  0.15616500  1
  O2-  O165  1  0.12463327  0.49845957  0.67052921  1
  O2-  O166  1  0.12535709  0.75027783  0.16177884  1
  O2-  O167  1  0.12475919  0.75320203  0.66441022  1
  O2-  O168  1  0.37326800  0.00134959  0.16670322  1
  O2-  O169  1  0.37435755  -0.00093178  0.66430594  1
  O2-  O170  1  0.37450793  0.24984929  0.17058122  1
  O2-  O171  1  0.37444465  0.25164073  0.66585126  1
  O2-  O172  1  0.37302838  0.49882638  0.16310926  1
  O2-  O173  1  0.37414144  0.49986946  0.66607581  1
  O2-  O174  1  0.37379503  0.75026041  0.16235202  1
  O2-  O175  1  0.37336345  0.74983473  0.66176354  1
  O2-  O176  1  0.62586722  -0.00193629  0.16389398  1
  O2-  O177  1  0.62513868  -0.00005524  0.66387925  1
  O2-  O178  1  0.62511900  0.25200292  0.16570199  1
  O2-  O179  1  0.62588501  0.25008824  0.66556294  1
  O2-  O180  1  0.62477411  0.49996623  0.16664817  1
  O2-  O181  1  0.62508436  0.49893395  0.66581357  1
  O2-  O182  1  0.62437911  0.74947681  0.16512343  1
  O2-  O183  1  0.62604492  0.75110691  0.66370567  1
  O2-  O184  1  0.87611781  0.00150625  0.16537293  1
  O2-  O185  1  0.87702699  0.00133246  0.66388084  1
  O2-  O186  1  0.87658277  0.24759877  0.16519504  1
  O2-  O187  1  0.87574985  0.24697877  0.66545205  1
  O2-  O188  1  0.87495559  0.49957979  0.16401572  1
  O2-  O189  1  0.87567935  0.50147587  0.66659621  1
  O2-  O190  1  0.87700891  0.75085416  0.16383293  1
  O2-  O191  1  0.87602373  0.75033494  0.66515993  1
  O2-  O192  1  0.00038821  0.12368894  0.16251544  1
  O2-  O193  1  -0.00007678  0.12504864  0.66633601  1
  O2-  O194  1  0.00407603  0.37477548  0.16327564  1
  O2-  O195  1  0.00043989  0.37466104  0.66779257  1
  O2-  O196  1  0.00364547  0.62447760  0.16353685  1
  O2-  O197  1  -0.00169110  0.62497498  0.66689034  1
  O2-  O198  1  0.00282453  0.87622118  0.16373050  1
  O2-  O199  1  0.00087569  0.87597113  0.66768542  1
  O2-  O200  1  0.24840933  0.12504858  0.16668419  1
  O2-  O201  1  0.24622567  0.12481789  0.66472141  1
  O2-  O202  1  0.24887734  0.37275423  0.16385476  1
  O2-  O203  1  0.24994590  0.37458888  0.66659433  1
  O2-  O204  1  0.24829196  0.62610744  0.16171031  1
  O2-  O205  1  0.25106392  0.62472487  0.66613942  1
  O2-  O206  1  0.24776911  0.87593622  0.16322786  1
  O2-  O207  1  0.24774835  0.87633775  0.66392162  1
  O2-  O208  1  0.49895522  0.12456499  0.16532359  1
  O2-  O209  1  0.50203072  0.12556541  0.66431776  1
  O2-  O210  1  0.49948941  0.37524420  0.16625873  1
  O2-  O211  1  0.49999915  0.37465615  0.66455805  1
  O2-  O212  1  0.50028124  0.62482255  0.16564930  1
  O2-  O213  1  0.49889684  0.62506419  0.66330422  1
  O2-  O214  1  0.49950810  0.87553930  0.16243576  1
  O2-  O215  1  0.50045279  0.87475453  0.66189029  1
  O2-  O216  1  0.75246160  0.12488103  0.16435040  1
  O2-  O217  1  0.75208331  0.12393219  0.66270996  1
  O2-  O218  1  0.74810521  0.37431449  0.16563762  1
  O2-  O219  1  0.74891705  0.37478723  0.66508119  1
  O2-  O220  1  0.74843407  0.62558352  0.16755188  1
  O2-  O221  1  0.75139977  0.62486873  0.66497502  1
  O2-  O222  1  0.75020200  0.87485486  0.16465281  1
  O2-  O223  1  0.75100309  0.87660544  0.66359159  1
  O2-  O224  1  0.12336180  -0.00005299  0.35091008  1
  O2-  O225  1  0.12480155  -0.00003114  0.85025319  1
  O2-  O226  1  0.12437834  0.24934204  0.34765625  1
  O2-  O227  1  0.12443810  0.24917164  0.85225206  1
  O2-  O228  1  0.12463933  0.49781436  0.33960167  1
  O2-  O229  1  0.12687681  0.50049389  0.85624223  1
  O2-  O230  1  0.12494309  0.75299887  0.34761559  1
  O2-  O231  1  0.12486362  0.75086440  0.84922713  1
  O2-  O232  1  0.37404992  -0.00164321  0.34827664  1
  O2-  O233  1  0.37358458  -0.00087869  0.84690730  1
  O2-  O234  1  0.37342108  0.25164468  0.34995184  1
  O2-  O235  1  0.37400830  0.24933990  0.85046835  1
  O2-  O236  1  0.37470593  0.49964999  0.34381541  1
  O2-  O237  1  0.37352686  0.50137880  0.84941680  1
  O2-  O238  1  0.37381410  0.75011276  0.34471987  1
  O2-  O239  1  0.37395603  0.75041868  0.84264920  1
  O2-  O240  1  0.62558084  -0.00027221  0.34546528  1
  O2-  O241  1  0.62518183  -0.00187501  0.84683909  1
  O2-  O242  1  0.62638342  0.24838718  0.34813679  1
  O2-  O243  1  0.62475306  0.25143687  0.84868748  1
  O2-  O244  1  0.62459718  0.50020232  0.34957189  1
  O2-  O245  1  0.62468476  0.50067901  0.84874143  1
  O2-  O246  1  0.62533843  0.75149510  0.34639095  1
  O2-  O247  1  0.62488129  0.74990162  0.84598273  1
  O2-  O248  1  0.87685425  0.00230507  0.35071777  1
  O2-  O249  1  0.87623967  0.00074462  0.84641393  1
  O2-  O250  1  0.87565412  0.24741449  0.34963298  1
  O2-  O251  1  0.87679677  0.24715417  0.84997492  1
  O2-  O252  1  0.87529332  0.50077863  0.34576058  1
  O2-  O253  1  0.87493636  0.50008909  0.85058112  1
  O2-  O254  1  0.87547064  0.74901921  0.34733273  1
  O2-  O255  1  0.87661817  0.75226330  0.84679747  1
  O2-  O256  1  0.00017590  0.12461701  0.34919029  1
  O2-  O257  1  0.00020935  0.12367818  0.85207064  1
  O2-  O258  1  0.00125596  0.37381629  0.34618412  1
  O2-  O259  1  0.00309212  0.37488525  0.85163224  1
  O2-  O260  1  -0.00221925  0.62546408  0.34648521  1
  O2-  O261  1  0.00374845  0.62517088  0.85073786  1
  O2-  O262  1  0.00145701  0.87566704  0.34939871  1
  O2-  O263  1  0.00169003  0.87680872  0.85065086  1
  O2-  O264  1  0.24572324  0.12401187  0.34988161  1
  O2-  O265  1  0.24766878  0.12448577  0.85043769  1
  O2-  O266  1  0.25012076  0.37488829  0.34365188  1
  O2-  O267  1  0.24863238  0.37368553  0.85106152  1
  O2-  O268  1  0.25199762  0.62502188  0.34406426  1
  O2-  O269  1  0.24868263  0.62639245  0.84867055  1
  O2-  O270  1  0.24894862  0.87584095  0.34694883  1
  O2-  O271  1  0.24866178  0.87581417  0.84793902  1
  O2-  O272  1  0.50272753  0.12485732  0.34597951  1
  O2-  O273  1  0.49910559  0.12467980  0.84867840  1
  O2-  O274  1  0.49829512  0.37452608  0.34745625  1
  O2-  O275  1  0.50038882  0.37530586  0.84723462  1
  O2-  O276  1  0.49849371  0.62561273  0.34691638  1
  O2-  O277  1  0.49964422  0.62527311  0.84606408  1
  O2-  O278  1  0.49977083  0.87492825  0.34398432  1
  O2-  O279  1  0.50004592  0.87497512  0.84349941  1
  O2-  O280  1  0.75096062  0.12398911  0.34854673  1
  O2-  O281  1  0.75293152  0.12470247  0.84670022  1
  O2-  O282  1  0.74972146  0.37477292  0.34984497  1
  O2-  O283  1  0.74808291  0.37473432  0.84655198  1
  O2-  O284  1  0.75091992  0.62509929  0.34868250  1
  O2-  O285  1  0.74845190  0.62569312  0.84867520  1
  O2-  O286  1  0.74927386  0.87612012  0.34849216  1
  O2-  O287  1  0.74977648  0.87521621  0.84422549  1
