# generated using pymatgen
data_BaYFeCuO5
_symmetry_space_group_name_H-M   'P 1'
_cell_length_a   15.66783730
_cell_length_b   15.66822788
_cell_length_c   15.48179188
_cell_angle_alpha   89.98687500
_cell_angle_beta   89.99574146
_cell_angle_gamma   89.99972696
_symmetry_Int_Tables_number   1
_chemical_formula_structural   BaYFeCuO5
_chemical_formula_sum   'Ba32 Y32 Fe32 Cu32 O160'
_cell_volume   3800.58233055
_cell_formula_units_Z   32
loop_
 _symmetry_equiv_pos_site_id
 _symmetry_equiv_pos_as_xyz
  1  'x, y, z'
loop_
 _atom_type_symbol
 _atom_type_oxidation_number
  Ba2+  2.0
  Y3+  3.0
  Fe3+  3.0
  Cu2+  2.0
  O2-  -2.0
loop_
 _atom_site_type_symbol
 _atom_site_label
 _atom_site_symmetry_multiplicity
 _atom_site_fract_x
 _atom_site_fract_y
 _atom_site_fract_z
 _atom_site_occupancy
  Ba2+  Ba0  1  -0.00151825  0.00185464  0.00127797  1
  Ba2+  Ba1  1  -0.00049732  0.00065951  0.50649997  1
  Ba2+  Ba2  1  -0.00525917  0.25378570  0.01564674  1
  Ba2+  Ba3  1  0.00582399  0.25668400  0.51613499  1
  Ba2+  Ba4  1  -0.00202058  0.50209563  0.01940503  1
  Ba2+  Ba5  1  0.00196735  0.49706969  0.51995712  1
  Ba2+  Ba6  1  0.00156471  0.74191837  0.00666928  1
  Ba2+  Ba7  1  -0.00345332  0.74398145  0.51325109  1
  Ba2+  Ba8  1  0.25726022  -0.00202265  0.00700163  1
  Ba2+  Ba9  1  0.24969966  0.01016637  0.51876813  1
  Ba2+  Ba10  1  0.25650727  0.25244565  0.00505348  1
  Ba2+  Ba11  1  0.24897918  0.25365752  0.52222266  1
  Ba2+  Ba12  1  0.25000751  0.50144395  0.01770903  1
  Ba2+  Ba13  1  0.24993171  0.49769305  0.51544079  1
  Ba2+  Ba14  1  0.25170680  0.74793470  0.01888752  1
  Ba2+  Ba15  1  0.25120276  0.73845730  0.51118685  1
  Ba2+  Ba16  1  0.49377631  -0.00212805  0.00699649  1
  Ba2+  Ba17  1  0.50218969  0.01192280  0.51195167  1
  Ba2+  Ba18  1  0.49394545  0.25271099  0.00539791  1
  Ba2+  Ba19  1  0.50327275  0.25212478  0.51742935  1
  Ba2+  Ba20  1  0.50054813  0.50116279  0.01880061  1
  Ba2+  Ba21  1  0.50008432  0.49737262  0.50614972  1
  Ba2+  Ba22  1  0.49908873  0.74783737  0.01983823  1
  Ba2+  Ba23  1  0.49802948  0.73926532  0.50274450  1
  Ba2+  Ba24  1  0.75049977  0.00164952  0.00131443  1
  Ba2+  Ba25  1  0.74724649  0.00409014  0.50166976  1
  Ba2+  Ba26  1  0.75480049  0.25381723  0.01692728  1
  Ba2+  Ba27  1  0.74171288  0.25466368  0.51083366  1
  Ba2+  Ba28  1  0.75148929  0.50179765  0.02126974  1
  Ba2+  Ba29  1  0.74792662  0.49569924  0.51114706  1
  Ba2+  Ba30  1  0.74747683  0.74209561  0.00702680  1
  Ba2+  Ba31  1  0.75430444  0.74533188  0.50142188  1
  Y3+  Y32  1  -0.00190937  0.00076937  0.25624155  1
  Y3+  Y33  1  0.00009954  0.00069231  0.75978590  1
  Y3+  Y34  1  -0.00007198  0.25213951  0.25484362  1
  Y3+  Y35  1  0.00004405  0.25127860  0.75728172  1
  Y3+  Y36  1  0.00113315  0.49841447  0.25482695  1
  Y3+  Y37  1  -0.00078625  0.50047033  0.75509772  1
  Y3+  Y38  1  -0.00121221  0.74888653  0.25615652  1
  Y3+  Y39  1  -0.00066635  0.74718041  0.75933108  1
  Y3+  Y40  1  0.25216507  0.00098328  0.25427861  1
  Y3+  Y41  1  0.25048485  0.00205474  0.76005826  1
  Y3+  Y42  1  0.24887641  0.25232381  0.25457212  1
  Y3+  Y43  1  0.25203137  0.25091779  0.75806674  1
  Y3+  Y44  1  0.24870994  0.49971628  0.25970104  1
  Y3+  Y45  1  0.25085206  0.49899328  0.75240991  1
  Y3+  Y46  1  0.25160109  0.74759325  0.25909085  1
  Y3+  Y47  1  0.24939015  0.74781035  0.75453594  1
  Y3+  Y48  1  0.49929134  0.00248334  0.25735564  1
  Y3+  Y49  1  0.50053017  0.00279164  0.75832262  1
  Y3+  Y50  1  0.50240776  0.25092381  0.25796623  1
  Y3+  Y51  1  0.49912947  0.25035753  0.75647600  1
  Y3+  Y52  1  0.50214304  0.50040275  0.26157449  1
  Y3+  Y53  1  0.49870503  0.49778031  0.75265870  1
  Y3+  Y54  1  0.49900222  0.74651914  0.26091557  1
  Y3+  Y55  1  0.50032843  0.74888401  0.75522494  1
  Y3+  Y56  1  0.75038017  0.00219262  0.25828641  1
  Y3+  Y57  1  0.74910023  0.00201054  0.75886233  1
  Y3+  Y58  1  0.74856478  0.25092032  0.25815394  1
  Y3+  Y59  1  0.74909664  0.25091028  0.75581988  1
  Y3+  Y60  1  0.74797055  0.49929942  0.25762170  1
  Y3+  Y61  1  0.75161447  0.49911383  0.75502130  1
  Y3+  Y62  1  0.75045887  0.74805443  0.25702688  1
  Y3+  Y63  1  0.75101117  0.74823488  0.76000736  1
  Fe3+  Fe64  1  0.87584476  0.62293200  0.37555366  1
  Fe3+  Fe65  1  0.62393539  0.62342361  0.87635036  1
  Fe3+  Fe66  1  0.37537531  0.62351648  0.87519261  1
  Fe3+  Fe67  1  0.12529058  0.12596915  0.87908931  1
  Fe3+  Fe68  1  0.12545707  0.37664403  0.87778280  1
  Fe3+  Fe69  1  0.12624260  0.62375019  0.87525817  1
  Fe3+  Fe70  1  0.37417643  0.12736376  0.37622779  1
  Fe3+  Fe71  1  0.87546365  0.12681909  0.37930851  1
  Fe3+  Fe72  1  0.37410767  0.37401504  0.37778306  1
  Fe3+  Fe73  1  0.62457746  0.87515954  0.38055325  1
  Fe3+  Fe74  1  0.62466158  0.37665218  0.87796908  1
  Fe3+  Fe75  1  0.12557210  0.12655701  0.37599107  1
  Fe3+  Fe76  1  0.87584214  0.37491152  0.37667577  1
  Fe3+  Fe77  1  0.37404124  0.87609336  0.38120725  1
  Fe3+  Fe78  1  0.12515419  0.87522590  0.38046959  1
  Fe3+  Fe79  1  0.87475215  0.37613156  0.87569915  1
  Fe3+  Fe80  1  0.37522871  0.87220586  0.87373477  1
  Fe3+  Fe81  1  0.62474059  0.12634990  0.87975113  1
  Fe3+  Fe82  1  0.12385793  0.62325586  0.37674504  1
  Fe3+  Fe83  1  0.87479371  0.87377945  0.87979949  1
  Fe3+  Fe84  1  0.37571987  0.87537119  0.63324289  1
  Fe3+  Fe85  1  0.87426374  0.87491327  0.13556919  1
  Fe3+  Fe86  1  0.12538895  0.12528191  0.13346084  1
  Fe3+  Fe87  1  0.37542401  0.37570870  0.13939708  1
  Fe3+  Fe88  1  0.87405153  0.87518773  0.63821900  1
  Fe3+  Fe89  1  0.62446370  0.12561778  0.13508484  1
  Fe3+  Fe90  1  0.62457970  0.87512804  0.13915161  1
  Fe3+  Fe91  1  0.87500636  0.12566931  0.63558427  1
  Fe3+  Fe92  1  0.12467267  0.87475277  0.63529080  1
  Fe3+  Fe93  1  0.62593563  0.62488917  0.63627514  1
  Fe3+  Fe94  1  0.12517516  0.87494022  0.13684257  1
  Fe3+  Fe95  1  0.62556173  0.87499359  0.63467854  1
  Cu2+  Cu96  1  0.87470917  0.62251424  0.87318347  1
  Cu2+  Cu97  1  0.62439625  0.12598417  0.37204937  1
  Cu2+  Cu98  1  0.37396877  0.62304925  0.37291034  1
  Cu2+  Cu99  1  0.87472215  0.12736436  0.87344231  1
  Cu2+  Cu100  1  0.62415265  0.87405312  0.86420358  1
  Cu2+  Cu101  1  0.37522413  0.37677554  0.86182789  1
  Cu2+  Cu102  1  0.62608830  0.62456583  0.36582558  1
  Cu2+  Cu103  1  0.12479048  0.37442718  0.37155836  1
  Cu2+  Cu104  1  0.62504893  0.37452897  0.37178754  1
  Cu2+  Cu105  1  0.87556159  0.87508255  0.36490276  1
  Cu2+  Cu106  1  0.12589303  0.87375579  0.86476574  1
  Cu2+  Cu107  1  0.37540148  0.12553005  0.87270885  1
  Cu2+  Cu108  1  0.37561676  0.12589614  0.14018923  1
  Cu2+  Cu109  1  0.87477332  0.62617958  0.14204442  1
  Cu2+  Cu110  1  0.87416171  0.62497052  0.65098821  1
  Cu2+  Cu111  1  0.37502709  0.12493740  0.65403918  1
  Cu2+  Cu112  1  0.87446278  0.37552349  0.15262296  1
  Cu2+  Cu113  1  0.87475506  0.37456064  0.64827065  1
  Cu2+  Cu114  1  0.87447390  0.12411774  0.14063673  1
  Cu2+  Cu115  1  0.12441493  0.62538149  0.64952565  1
  Cu2+  Cu116  1  0.62458698  0.62515581  0.15521822  1
  Cu2+  Cu117  1  0.37550235  0.37443877  0.64907674  1
  Cu2+  Cu118  1  0.62454981  0.37512067  0.14856901  1
  Cu2+  Cu119  1  0.62493451  0.37517281  0.64294359  1
  Cu2+  Cu120  1  0.12536258  0.62558793  0.15268732  1
  Cu2+  Cu121  1  0.62610980  0.12498628  0.64402212  1
  Cu2+  Cu122  1  0.12405886  0.12453039  0.65444430  1
  Cu2+  Cu123  1  0.37513714  0.62402799  0.15640502  1
  Cu2+  Cu124  1  0.37577516  0.87440060  0.15629843  1
  Cu2+  Cu125  1  0.12527850  0.37503399  0.64367045  1
  Cu2+  Cu126  1  0.12532616  0.37536484  0.14482221  1
  Cu2+  Cu127  1  0.37614247  0.62442408  0.63995691  1
  O2-  O128  1  0.12516866  0.12458396  0.00614308  1
  O2-  O129  1  0.12513238  0.12573807  0.49617850  1
  O2-  O130  1  0.12476085  0.37743700  -0.00208305  1
  O2-  O131  1  0.12537590  0.37418591  0.50765734  1
  O2-  O132  1  0.12764096  0.62494777  -0.00434357  1
  O2-  O133  1  0.12246214  0.62403286  0.49720430  1
  O2-  O134  1  0.12597598  0.87433450  0.01686864  1
  O2-  O135  1  0.12422552  0.87597578  0.50708766  1
  O2-  O136  1  0.37543059  0.12440434  0.00620436  1
  O2-  O137  1  0.37299569  0.12669104  0.49637173  1
  O2-  O138  1  0.37550682  0.37760847  0.01818058  1
  O2-  O139  1  0.37440501  0.37237033  0.49837642  1
  O2-  O140  1  0.37537723  0.62551853  -0.00485854  1
  O2-  O141  1  0.37465476  0.62359715  0.50623921  1
  O2-  O142  1  0.37566136  0.87067019  -0.00571721  1
  O2-  O143  1  0.37377358  0.87735095  0.50668034  1
  O2-  O144  1  0.62458911  0.12511599  0.00761268  1
  O2-  O145  1  0.62584050  0.12488256  0.50776294  1
  O2-  O146  1  0.62556436  0.37717318  -0.00188319  1
  O2-  O147  1  0.62419006  0.37506850  0.50713638  1
  O2-  O148  1  0.62264407  0.62411462  -0.00324241  1
  O2-  O149  1  0.62749058  0.62614315  0.51571049  1
  O2-  O150  1  0.62366236  0.87467026  0.01917042  1
  O2-  O151  1  0.62623453  0.87522631  0.50819646  1
  O2-  O152  1  0.87482090  0.12471223  0.00707748  1
  O2-  O153  1  0.87576147  0.12566162  0.50699889  1
  O2-  O154  1  0.87455822  0.37679555  -0.00358796  1
  O2-  O155  1  0.87618416  0.37430356  0.49691774  1
  O2-  O156  1  0.87455526  0.62528245  0.00740323  1
  O2-  O157  1  0.87643069  0.62359561  0.49596550  1
  O2-  O158  1  0.87451373  0.87428897  0.00866291  1
  O2-  O159  1  0.87524518  0.87555854  0.51833525  1
  O2-  O160  1  0.12489089  0.00039210  0.16654276  1
  O2-  O161  1  0.12464894  -0.00222811  0.66593341  1
  O2-  O162  1  0.12472617  0.24855752  0.15989067  1
  O2-  O163  1  0.12460332  0.24813582  0.66771509  1
  O2-  O164  1  0.12450466  0.50106819  0.16297561  1
  O2-  O165  1  0.12500328  0.50181076  0.66232824  1
  O2-  O166  1  0.12580941  0.75114685  0.16870121  1
  O2-  O167  1  0.12414836  0.75182360  0.66112619  1
  O2-  O168  1  0.37580957  -0.00061656  0.16560215  1
  O2-  O169  1  0.37472941  -0.00207435  0.66433350  1
  O2-  O170  1  0.37444829  0.25213660  0.16341097  1
  O2-  O171  1  0.37481314  0.24900021  0.66631783  1
  O2-  O172  1  0.37514523  0.49992020  0.16684449  1
  O2-  O173  1  0.37503203  0.49871666  0.66164028  1
  O2-  O174  1  0.37517483  0.74864768  0.16846927  1
  O2-  O175  1  0.37540819  0.75374352  0.66040125  1
  O2-  O176  1  0.62466462  0.00104207  0.16778070  1
  O2-  O177  1  0.62574502  -0.00307168  0.66660408  1
  O2-  O178  1  0.62577266  0.24883349  0.16211290  1
  O2-  O179  1  0.62523915  0.24987178  0.66634061  1
  O2-  O180  1  0.62488842  0.50065796  0.16505596  1
  O2-  O181  1  0.62583455  0.50137632  0.66275279  1
  O2-  O182  1  0.62442298  0.75061441  0.16951856  1
  O2-  O183  1  0.62568176  0.75175285  0.66460840  1
  O2-  O184  1  0.87466217  -0.00353427  0.16778168  1
  O2-  O185  1  0.87541570  0.00082459  0.66786639  1
  O2-  O186  1  0.87465791  0.25217374  0.16343470  1
  O2-  O187  1  0.87605014  0.24827197  0.66204279  1
  O2-  O188  1  0.87509817  0.49855783  0.16311359  1
  O2-  O189  1  0.87465117  0.49992644  0.66037375  1
  O2-  O190  1  0.87446096  0.75369968  0.16596431  1
  O2-  O191  1  0.87523493  0.75115243  0.66795967  1
  O2-  O192  1  0.00304620  0.12430120  0.16332643  1
  O2-  O193  1  -0.00194007  0.12347060  0.66411314  1
  O2-  O194  1  -0.00092631  0.37453249  0.16211128  1
  O2-  O195  1  -0.00120954  0.37473926  0.66507073  1
  O2-  O196  1  0.00124013  0.62696758  0.16270898  1
  O2-  O197  1  -0.00095067  0.62608708  0.66464872  1
  O2-  O198  1  -0.00093913  0.87541223  0.16502458  1
  O2-  O199  1  0.00078199  0.87551623  0.66635795  1
  O2-  O200  1  0.24723605  0.12374977  0.16098387  1
  O2-  O201  1  0.24948030  0.12374958  0.66524007  1
  O2-  O202  1  0.25042026  0.37609812  0.16544868  1
  O2-  O203  1  0.25145581  0.37381984  0.66499248  1
  O2-  O204  1  0.25022711  0.62575505  0.16500291  1
  O2-  O205  1  0.24923623  0.62607424  0.66103092  1
  O2-  O206  1  0.25049601  0.87500914  0.16672514  1
  O2-  O207  1  0.24961889  0.87545469  0.65874974  1
  O2-  O208  1  0.50293865  0.12499061  0.16424067  1
  O2-  O209  1  0.49915670  0.12413088  0.66628624  1
  O2-  O210  1  0.49967048  0.37543912  0.16741833  1
  O2-  O211  1  0.49890160  0.37374803  0.66537773  1
  O2-  O212  1  0.49985131  0.62574262  0.16743749  1
  O2-  O213  1  0.50246278  0.62594772  0.66414803  1
  O2-  O214  1  0.50025829  0.87459475  0.17059031  1
  O2-  O215  1  0.50066179  0.87591720  0.65908415  1
  O2-  O216  1  0.74670106  0.12420398  0.16566787  1
  O2-  O217  1  0.75365493  0.12413261  0.66605863  1
  O2-  O218  1  0.75034913  0.37512684  0.16484037  1
  O2-  O219  1  0.75141726  0.37412903  0.66429358  1
  O2-  O220  1  0.74868739  0.62600576  0.16535144  1
  O2-  O221  1  0.74953274  0.62638033  0.66721405  1
  O2-  O222  1  0.75032533  0.87560944  0.16733356  1
  O2-  O223  1  0.74918110  0.87545936  0.66802603  1
  O2-  O224  1  0.12478682  -0.00063862  0.34897965  1
  O2-  O225  1  0.12500191  0.00096734  0.85136607  1
  O2-  O226  1  0.12418407  0.24780154  0.34245941  1
  O2-  O227  1  0.12570814  0.24999914  0.85065639  1
  O2-  O228  1  0.12426108  0.50095060  0.34602605  1
  O2-  O229  1  0.12551565  0.49976394  0.84304646  1
  O2-  O230  1  0.12433979  0.75151556  0.35119847  1
  O2-  O231  1  0.12529277  0.74870616  0.84435470  1
  O2-  O232  1  0.37420562  -0.00045884  0.34825077  1
  O2-  O233  1  0.37516387  -0.00224528  0.84771365  1
  O2-  O234  1  0.37463294  0.24998627  0.34225212  1
  O2-  O235  1  0.37503372  0.25221558  0.85107566  1
  O2-  O236  1  0.37455891  0.49756472  0.34817010  1
  O2-  O237  1  0.37524266  0.50098099  0.84373416  1
  O2-  O238  1  0.37469188  0.75285193  0.35322726  1
  O2-  O239  1  0.37487726  0.74835120  0.84019106  1
  O2-  O240  1  0.62504305  -0.00280984  0.35094768  1
  O2-  O241  1  0.62503821  0.00094778  0.85180939  1
  O2-  O242  1  0.62541861  0.24956583  0.34581641  1
  O2-  O243  1  0.62468756  0.25013749  0.84948027  1
  O2-  O244  1  0.62592070  0.50087318  0.34945980  1
  O2-  O245  1  0.62419440  0.49965020  0.84261164  1
  O2-  O246  1  0.62480715  0.75228593  0.35328185  1
  O2-  O247  1  0.62501750  0.74900912  0.84652701  1
  O2-  O248  1  0.87545452  0.00192353  0.35187187  1
  O2-  O249  1  0.87500114  -0.00274127  0.85169079  1
  O2-  O250  1  0.87548979  0.24880616  0.34635092  1
  O2-  O251  1  0.87482777  0.25283590  0.84452299  1
  O2-  O252  1  0.87477203  0.49952666  0.34416445  1
  O2-  O253  1  0.87522944  0.49759846  0.84250331  1
  O2-  O254  1  0.87563259  0.74936439  0.34868473  1
  O2-  O255  1  0.87490622  0.75191159  0.85140423  1
  O2-  O256  1  -0.00110565  0.12393031  0.34704350  1
  O2-  O257  1  0.00327577  0.12442010  0.84852421  1
  O2-  O258  1  -0.00148429  0.37418889  0.34485052  1
  O2-  O259  1  0.00089205  0.37461789  0.84598596  1
  O2-  O260  1  -0.00019649  0.62556368  0.34306006  1
  O2-  O261  1  0.00190200  0.62523526  0.84798430  1
  O2-  O262  1  0.00229941  0.87653353  0.34897040  1
  O2-  O263  1  -0.00134125  0.87515513  0.85115677  1
  O2-  O264  1  0.25008479  0.12439423  0.34180434  1
  O2-  O265  1  0.24741881  0.12446912  0.85002195  1
  O2-  O266  1  0.25086244  0.37397377  0.34649976  1
  O2-  O267  1  0.24996321  0.37517844  0.84794344  1
  O2-  O268  1  0.24729935  0.62579177  0.34763722  1
  O2-  O269  1  0.25047421  0.62488900  0.84223937  1
  O2-  O270  1  0.24966504  0.87554161  0.35067471  1
  O2-  O271  1  0.25113970  0.87453137  0.84257294  1
  O2-  O272  1  0.49736231  0.12428492  0.34647551  1
  O2-  O273  1  0.50308104  0.12467757  0.85029340  1
  O2-  O274  1  0.49855922  0.37455698  0.34897789  1
  O2-  O275  1  0.50018451  0.37490289  0.84832497  1
  O2-  O276  1  0.50144092  0.62504762  0.35211280  1
  O2-  O277  1  0.49995641  0.62524615  0.84331402  1
  O2-  O278  1  0.49908774  0.87576085  0.35457040  1
  O2-  O279  1  0.49913358  0.87464480  0.84216997  1
  O2-  O280  1  0.75324818  0.12420614  0.35006952  1
  O2-  O281  1  0.74645233  0.12448313  0.84946264  1
  O2-  O282  1  0.75172887  0.37410878  0.34798839  1
  O2-  O283  1  0.74911687  0.37494002  0.84527348  1
  O2-  O284  1  0.75130141  0.62629173  0.34798241  1
  O2-  O285  1  0.74786569  0.62495513  0.84848847  1
  O2-  O286  1  0.74850221  0.87538353  0.35173616  1
  O2-  O287  1  0.75112428  0.87523974  0.85194712  1
