# generated using pymatgen
data_BaYFeCuO5
_symmetry_space_group_name_H-M   'P 1'
_cell_length_a   15.65096508
_cell_length_b   15.65288456
_cell_length_c   15.43759719
_cell_angle_alpha   89.99454775
_cell_angle_beta   89.99868273
_cell_angle_gamma   89.99838588
_symmetry_Int_Tables_number   1
_chemical_formula_structural   BaYFeCuO5
_chemical_formula_sum   'Ba32 Y32 Fe32 Cu32 O160'
_cell_volume   3781.94498745
_cell_formula_units_Z   32
loop_
 _symmetry_equiv_pos_site_id
 _symmetry_equiv_pos_as_xyz
  1  'x, y, z'
loop_
 _atom_type_symbol
 _atom_type_oxidation_number
  Ba2+  2.0
  Y3+  3.0
  Fe3+  3.0
  Cu2+  2.0
  O2-  -2.0
loop_
 _atom_site_type_symbol
 _atom_site_label
 _atom_site_symmetry_multiplicity
 _atom_site_fract_x
 _atom_site_fract_y
 _atom_site_fract_z
 _atom_site_occupancy
  Ba2+  Ba0  1  0.00106412  -0.00676072  0.00563051  1
  Ba2+  Ba1  1  -0.00069194  0.00155441  0.50640474  1
  Ba2+  Ba2  1  0.01009022  0.25128606  0.01269751  1
  Ba2+  Ba3  1  0.00609226  0.25631602  0.50700241  1
  Ba2+  Ba4  1  0.01201380  0.50097151  0.00710691  1
  Ba2+  Ba5  1  -0.00635073  0.49349436  0.50775114  1
  Ba2+  Ba6  1  0.00426899  0.75337764  -0.00067675  1
  Ba2+  Ba7  1  -0.01229309  0.74848732  0.50686204  1
  Ba2+  Ba8  1  0.24598722  -0.00310981  0.01334357  1
  Ba2+  Ba9  1  0.24820866  0.01223155  0.51068846  1
  Ba2+  Ba10  1  0.24528752  0.25552483  0.01742488  1
  Ba2+  Ba11  1  0.24830874  0.25352151  0.51131316  1
  Ba2+  Ba12  1  0.24241268  0.49620942  0.01159427  1
  Ba2+  Ba13  1  0.25314416  0.49006781  0.51109825  1
  Ba2+  Ba14  1  0.24225486  0.74986127  0.00556223  1
  Ba2+  Ba15  1  0.25387176  0.74446990  0.51146184  1
  Ba2+  Ba16  1  0.50402885  -0.00225035  0.02056091  1
  Ba2+  Ba17  1  0.50479485  0.00613140  0.51953403  1
  Ba2+  Ba18  1  0.50450957  0.25407589  0.01591485  1
  Ba2+  Ba19  1  0.49934914  0.25432134  0.51618447  1
  Ba2+  Ba20  1  0.49996422  0.48992315  0.01129890  1
  Ba2+  Ba21  1  0.49708811  0.49054449  0.51084078  1
  Ba2+  Ba22  1  0.49841963  0.75855159  0.01698935  1
  Ba2+  Ba23  1  0.50242589  0.74939364  0.51568861  1
  Ba2+  Ba24  1  0.74846134  -0.00508268  0.01689558  1
  Ba2+  Ba25  1  0.74811559  -0.00494630  0.51661150  1
  Ba2+  Ba26  1  0.74050920  0.25020685  0.01173433  1
  Ba2+  Ba27  1  0.74598346  0.25847279  0.51154505  1
  Ba2+  Ba28  1  0.74479000  0.49431315  0.00660018  1
  Ba2+  Ba29  1  0.75620838  0.49402820  0.50694389  1
  Ba2+  Ba30  1  0.75415544  0.76024333  0.01190206  1
  Ba2+  Ba31  1  0.75738465  0.75219166  0.51152113  1
  Y3+  Y32  1  -0.00093357  0.00049207  0.25992393  1
  Y3+  Y33  1  -0.00117319  -0.00099273  0.75582511  1
  Y3+  Y34  1  0.00315111  0.25143849  0.26144341  1
  Y3+  Y35  1  0.00224456  0.25209083  0.75469064  1
  Y3+  Y36  1  0.00084549  0.49915993  0.26019370  1
  Y3+  Y37  1  0.00129508  0.49881802  0.75704784  1
  Y3+  Y38  1  -0.00319946  0.74893029  0.25905100  1
  Y3+  Y39  1  -0.00215524  0.74999272  0.75779425  1
  Y3+  Y40  1  0.24817097  0.00269160  0.25897530  1
  Y3+  Y41  1  0.24862604  0.00317247  0.75391687  1
  Y3+  Y42  1  0.24727979  0.25292377  0.26043851  1
  Y3+  Y43  1  0.24869677  0.25170691  0.75282051  1
  Y3+  Y44  1  0.24800561  0.49646364  0.25747304  1
  Y3+  Y45  1  0.24830567  0.49787406  0.75707026  1
  Y3+  Y46  1  0.24898408  0.74836175  0.25641832  1
  Y3+  Y47  1  0.24810200  0.74725560  0.75800194  1
  Y3+  Y48  1  0.50083901  0.00030797  0.25476784  1
  Y3+  Y49  1  0.50110467  0.00242153  0.75391428  1
  Y3+  Y50  1  0.50101269  0.25415512  0.25726910  1
  Y3+  Y51  1  0.50087208  0.25209150  0.75482984  1
  Y3+  Y52  1  0.50030000  0.49523961  0.25804605  1
  Y3+  Y53  1  0.49952582  0.49675717  0.75573173  1
  Y3+  Y54  1  0.49985115  0.75044330  0.25634511  1
  Y3+  Y55  1  0.49995069  0.74833096  0.75524923  1
  Y3+  Y56  1  0.75184843  -0.00166004  0.25623624  1
  Y3+  Y57  1  0.75177450  -0.00182542  0.75583627  1
  Y3+  Y58  1  0.74866144  0.25272261  0.25771686  1
  Y3+  Y59  1  0.74831324  0.25250954  0.75651313  1
  Y3+  Y60  1  0.75079270  0.49799938  0.26017382  1
  Y3+  Y61  1  0.75078743  0.49763743  0.75577322  1
  Y3+  Y62  1  0.75387115  0.75096558  0.25894241  1
  Y3+  Y63  1  0.75374325  0.75121273  0.75554136  1
  Fe3+  Fe64  1  0.37480496  0.87639020  0.87492554  1
  Fe3+  Fe65  1  0.37505890  0.12544337  0.87952122  1
  Fe3+  Fe66  1  0.12468249  0.62418446  0.38093892  1
  Fe3+  Fe67  1  0.37596153  0.62380140  0.37680308  1
  Fe3+  Fe68  1  0.12562142  0.12522354  0.87641770  1
  Fe3+  Fe69  1  0.62541675  0.62414467  0.37915899  1
  Fe3+  Fe70  1  0.37413703  0.37350965  0.87735290  1
  Fe3+  Fe71  1  0.62477850  0.87525580  0.37638163  1
  Fe3+  Fe72  1  0.62445553  0.87498303  0.87338821  1
  Fe3+  Fe73  1  0.87481348  0.62448273  0.88031869  1
  Fe3+  Fe74  1  0.87589329  0.37378702  0.88081923  1
  Fe3+  Fe75  1  0.87488268  0.12511590  0.88002633  1
  Fe3+  Fe76  1  0.62468468  0.12449785  0.87604888  1
  Fe3+  Fe77  1  0.37539596  0.87608696  0.37918723  1
  Fe3+  Fe78  1  0.62522624  0.12562317  0.37598335  1
  Fe3+  Fe79  1  0.37507703  0.62445423  0.87971315  1
  Fe3+  Fe80  1  0.62462622  0.62553813  0.87991658  1
  Fe3+  Fe81  1  0.87374957  0.12635562  0.37959542  1
  Fe3+  Fe82  1  0.37633015  0.12662566  0.37580831  1
  Fe3+  Fe83  1  0.12520722  0.87429968  0.38143744  1
  Fe3+  Fe84  1  0.37429262  0.12611666  0.13479429  1
  Fe3+  Fe85  1  0.87616953  0.62464224  0.13456778  1
  Fe3+  Fe86  1  0.62561728  0.62535383  0.13455243  1
  Fe3+  Fe87  1  0.37388027  0.62398190  0.13423610  1
  Fe3+  Fe88  1  0.87491798  0.12688446  0.63516002  1
  Fe3+  Fe89  1  0.12441796  0.87450472  0.63440899  1
  Fe3+  Fe90  1  0.87593592  0.12546599  0.13499173  1
  Fe3+  Fe91  1  0.12375649  0.87447099  0.14253861  1
  Fe3+  Fe92  1  0.62631993  0.62343198  0.63532449  1
  Fe3+  Fe93  1  0.12388675  0.62392795  0.63523369  1
  Fe3+  Fe94  1  0.37450675  0.87552322  0.63404285  1
  Fe3+  Fe95  1  0.87597756  0.37516238  0.13534341  1
  Cu2+  Cu96  1  0.62438407  0.37464860  0.87135302  1
  Cu2+  Cu97  1  0.37496492  0.37429193  0.37045264  1
  Cu2+  Cu98  1  0.87500202  0.37369936  0.37030900  1
  Cu2+  Cu99  1  0.87440024  0.87626796  0.37307376  1
  Cu2+  Cu100  1  0.12547516  0.37391036  0.86975760  1
  Cu2+  Cu101  1  0.87474776  0.87611226  0.87275628  1
  Cu2+  Cu102  1  0.12530963  0.62431418  0.87169629  1
  Cu2+  Cu103  1  0.62466200  0.37498855  0.37251828  1
  Cu2+  Cu104  1  0.87410298  0.62389687  0.37230690  1
  Cu2+  Cu105  1  0.12536056  0.37610258  0.37308168  1
  Cu2+  Cu106  1  0.12499902  0.12550833  0.37369845  1
  Cu2+  Cu107  1  0.12595275  0.87620084  0.85732021  1
  Cu2+  Cu108  1  0.37454597  0.37464756  0.64397638  1
  Cu2+  Cu109  1  0.87542709  0.37437602  0.64536518  1
  Cu2+  Cu110  1  0.37478988  0.62411188  0.65017882  1
  Cu2+  Cu111  1  0.37314445  0.87520595  0.15150325  1
  Cu2+  Cu112  1  0.12390282  0.62544235  0.14408874  1
  Cu2+  Cu113  1  0.37424015  0.37498381  0.14990893  1
  Cu2+  Cu114  1  0.12364238  0.37533892  0.14699737  1
  Cu2+  Cu115  1  0.87607920  0.87539090  0.64242820  1
  Cu2+  Cu116  1  0.62500047  0.87391946  0.64977712  1
  Cu2+  Cu117  1  0.62540911  0.37608617  0.64315611  1
  Cu2+  Cu118  1  0.12419454  0.12492177  0.15248042  1
  Cu2+  Cu119  1  0.62612106  0.37623413  0.14411935  1
  Cu2+  Cu120  1  0.62661544  0.12604024  0.64964975  1
  Cu2+  Cu121  1  0.62567732  0.87371725  0.15423476  1
  Cu2+  Cu122  1  0.12342167  0.12569682  0.64096028  1
  Cu2+  Cu123  1  0.87528194  0.62351194  0.64390064  1
  Cu2+  Cu124  1  0.62563540  0.12510558  0.15079371  1
  Cu2+  Cu125  1  0.37517877  0.12585849  0.64936110  1
  Cu2+  Cu126  1  0.87716678  0.87484477  0.14330418  1
  Cu2+  Cu127  1  0.12451389  0.37586513  0.64274250  1
  O2-  O128  1  0.12669016  0.12336967  -0.00296277  1
  O2-  O129  1  0.12438469  0.12499449  0.50711207  1
  O2-  O130  1  0.12495799  0.37410133  0.00780826  1
  O2-  O131  1  0.12551465  0.37695820  0.50777206  1
  O2-  O132  1  0.12602403  0.62701172  0.00765238  1
  O2-  O133  1  0.12483164  0.62427087  0.50794970  1
  O2-  O134  1  0.12545564  0.87478030  0.02075332  1
  O2-  O135  1  0.12553993  0.87397808  0.50808144  1
  O2-  O136  1  0.37455151  0.12382257  0.00542592  1
  O2-  O137  1  0.37782802  0.12542248  0.49655853  1
  O2-  O138  1  0.37434934  0.37336637  -0.00202212  1
  O2-  O139  1  0.37541963  0.37334028  0.50736517  1
  O2-  O140  1  0.37473443  0.62596043  0.00639813  1
  O2-  O141  1  0.37751128  0.62602916  0.49709961  1
  O2-  O142  1  0.37498056  0.87718670  -0.00440988  1
  O2-  O143  1  0.37625665  0.87546412  0.50535446  1
  O2-  O144  1  0.62413302  0.12226240  -0.00332625  1
  O2-  O145  1  0.62539325  0.12448626  0.49650619  1
  O2-  O146  1  0.62495818  0.37523089  0.00756877  1
  O2-  O147  1  0.62462853  0.37628590  0.50726906  1
  O2-  O148  1  0.62394012  0.62737665  0.00686943  1
  O2-  O149  1  0.62548571  0.62393314  0.50646557  1
  O2-  O150  1  0.62305011  0.87495715  -0.00585480  1
  O2-  O151  1  0.62317058  0.87544082  0.49657406  1
  O2-  O152  1  0.87540567  0.12381942  0.00706415  1
  O2-  O153  1  0.87290479  0.12651162  0.50703032  1
  O2-  O154  1  0.87582474  0.37437765  0.00801661  1
  O2-  O155  1  0.87470888  0.37252217  0.50774029  1
  O2-  O156  1  0.87554356  0.62593355  0.00753903  1
  O2-  O157  1  0.87317182  0.62416335  0.50797176  1
  O2-  O158  1  0.87642846  0.87592678  0.00724306  1
  O2-  O159  1  0.87414236  0.87652901  0.50771359  1
  O2-  O160  1  0.12453540  -0.00006908  0.16879725  1
  O2-  O161  1  0.12534076  -0.00290638  0.66170923  1
  O2-  O162  1  0.12459666  0.24913356  0.16556748  1
  O2-  O163  1  0.12438322  0.25060802  0.66428285  1
  O2-  O164  1  0.12408074  0.49994409  0.16637990  1
  O2-  O165  1  0.12501277  0.50264609  0.66612066  1
  O2-  O166  1  0.12513116  0.75122730  0.17158512  1
  O2-  O167  1  0.12611869  0.74968571  0.66248165  1
  O2-  O168  1  0.37479765  0.00192160  0.16301914  1
  O2-  O169  1  0.37482671  -0.00116010  0.66135705  1
  O2-  O170  1  0.37481322  0.24881688  0.16081311  1
  O2-  O171  1  0.37545991  0.24858161  0.66622596  1
  O2-  O172  1  0.37592092  0.50122490  0.16191995  1
  O2-  O173  1  0.37494838  0.50090965  0.66793272  1
  O2-  O174  1  0.37433796  0.74829062  0.16411547  1
  O2-  O175  1  0.37488843  0.75174372  0.66274137  1
  O2-  O176  1  0.62489578  -0.00125908  0.16254411  1
  O2-  O177  1  0.62524362  -0.00049016  0.66097661  1
  O2-  O178  1  0.62600714  0.24978153  0.16356543  1
  O2-  O179  1  0.62571274  0.24991413  0.66523592  1
  O2-  O180  1  0.62491931  0.50418942  0.16453204  1
  O2-  O181  1  0.62486035  0.50238784  0.66766875  1
  O2-  O182  1  0.62506756  0.74774512  0.16498931  1
  O2-  O183  1  0.62415089  0.74784252  0.66205441  1
  O2-  O184  1  0.87568106  0.00287819  0.16452073  1
  O2-  O185  1  0.87475484  0.00291391  0.66295578  1
  O2-  O186  1  0.87433341  0.25013903  0.16059219  1
  O2-  O187  1  0.87438477  0.24776142  0.66795947  1
  O2-  O188  1  0.87479038  0.50012115  0.16233127  1
  O2-  O189  1  0.87521058  0.49923233  0.66967870  1
  O2-  O190  1  0.87484769  0.74720067  0.16561314  1
  O2-  O191  1  0.87529707  0.74993568  0.66600007  1
  O2-  O192  1  -0.00179547  0.12585917  0.16667049  1
  O2-  O193  1  -0.00312896  0.12491925  0.66558674  1
  O2-  O194  1  -0.00337899  0.37464859  0.16684121  1
  O2-  O195  1  0.00001032  0.37521960  0.66734200  1
  O2-  O196  1  -0.00314930  0.62475389  0.16712018  1
  O2-  O197  1  0.00273637  0.62562933  0.66675025  1
  O2-  O198  1  0.00144258  0.87526042  0.17215114  1
  O2-  O199  1  0.00315198  0.87435548  0.66543815  1
  O2-  O200  1  0.25097025  0.12434739  0.16301939  1
  O2-  O201  1  0.25057608  0.12489279  0.66323972  1
  O2-  O202  1  0.25016696  0.37545506  0.16597077  1
  O2-  O203  1  0.24991945  0.37525818  0.66386157  1
  O2-  O204  1  0.25259458  0.62479590  0.16513362  1
  O2-  O205  1  0.24820784  0.62568957  0.66300552  1
  O2-  O206  1  0.24851032  0.87572379  0.17102601  1
  O2-  O207  1  0.25002196  0.87442649  0.65948730  1
  O2-  O208  1  0.49910636  0.12464891  0.15960437  1
  O2-  O209  1  0.50122291  0.12462480  0.66327046  1
  O2-  O210  1  0.49937375  0.37548124  0.16397905  1
  O2-  O211  1  0.49981157  0.37535810  0.66452875  1
  O2-  O212  1  0.49955311  0.62667443  0.15957449  1
  O2-  O213  1  0.50158234  0.62531250  0.66383025  1
  O2-  O214  1  0.49950813  0.87371828  0.16187016  1
  O2-  O215  1  0.49800175  0.87456465  0.65998417  1
  O2-  O216  1  0.75161005  0.12451624  0.16176390  1
  O2-  O217  1  0.75159899  0.12501707  0.66490465  1
  O2-  O218  1  0.75361601  0.37601161  0.16413507  1
  O2-  O219  1  0.75018255  0.37548156  0.66757427  1
  O2-  O220  1  0.75057926  0.62535162  0.16037776  1
  O2-  O221  1  0.74763937  0.62493605  0.66778430  1
  O2-  O222  1  0.74998096  0.87465827  0.16281257  1
  O2-  O223  1  0.74913959  0.87437625  0.66461541  1
  O2-  O224  1  0.12591357  -0.00334155  0.35189512  1
  O2-  O225  1  0.12547252  0.00132464  0.84448184  1
  O2-  O226  1  0.12482592  0.25076614  0.34986530  1
  O2-  O227  1  0.12491106  0.24789946  0.84649696  1
  O2-  O228  1  0.12564353  0.50306473  0.34973166  1
  O2-  O229  1  0.12520587  0.49887602  0.84957942  1
  O2-  O230  1  0.12614623  0.74967127  0.35415965  1
  O2-  O231  1  0.12556426  0.75175495  0.84735023  1
  O2-  O232  1  0.37492656  -0.00120579  0.34681925  1
  O2-  O233  1  0.37503125  0.00186667  0.84478731  1
  O2-  O234  1  0.37560235  0.24863104  0.34404817  1
  O2-  O235  1  0.37513882  0.24804339  0.84874999  1
  O2-  O236  1  0.37511509  0.50167308  0.34573996  1
  O2-  O237  1  0.37565338  0.50092037  0.85133707  1
  O2-  O238  1  0.37565239  0.75139779  0.34820717  1
  O2-  O239  1  0.37510762  0.74896232  0.84759206  1
  O2-  O240  1  0.62474799  -0.00001024  0.34442032  1
  O2-  O241  1  0.62447205  -0.00001235  0.84242743  1
  O2-  O242  1  0.62497693  0.24869449  0.34645494  1
  O2-  O243  1  0.62493972  0.24800898  0.84799389  1
  O2-  O244  1  0.62478865  0.50225717  0.34870935  1
  O2-  O245  1  0.62480003  0.50326034  0.85210621  1
  O2-  O246  1  0.62363483  0.74916515  0.34876092  1
  O2-  O247  1  0.62433317  0.74857337  0.84546078  1
  O2-  O248  1  0.87443549  0.00336350  0.34879734  1
  O2-  O249  1  0.87518418  0.00332857  0.84715277  1
  O2-  O250  1  0.87462078  0.24709978  0.34566585  1
  O2-  O251  1  0.87501697  0.24952874  0.85247063  1
  O2-  O252  1  0.87442575  0.49933835  0.34724458  1
  O2-  O253  1  0.87410667  0.49961967  0.85429284  1
  O2-  O254  1  0.87447097  0.75007892  0.34988664  1
  O2-  O255  1  0.87495225  0.74735271  0.85026091  1
  O2-  O256  1  -0.00259093  0.12455232  0.35209648  1
  O2-  O257  1  -0.00092312  0.12445526  0.84946772  1
  O2-  O258  1  0.00010326  0.37533372  0.35014985  1
  O2-  O259  1  -0.00267736  0.37475404  0.85066574  1
  O2-  O260  1  0.00265261  0.62550796  0.35126731  1
  O2-  O261  1  -0.00292745  0.62486698  0.85109512  1
  O2-  O262  1  0.00261085  0.87471242  0.35424823  1
  O2-  O263  1  0.00179848  0.87568645  0.84955083  1
  O2-  O264  1  0.25189486  0.12455382  0.34726068  1
  O2-  O265  1  0.25154325  0.12412239  0.84673701  1
  O2-  O266  1  0.25015619  0.37538780  0.34962007  1
  O2-  O267  1  0.25188700  0.37469840  0.84568563  1
  O2-  O268  1  0.24933664  0.62647432  0.34950380  1
  O2-  O269  1  0.25324678  0.62552495  0.84829383  1
  O2-  O270  1  0.25086476  0.87396685  0.35392013  1
  O2-  O271  1  0.25134600  0.87523446  0.84297561  1
  O2-  O272  1  0.50062529  0.12411014  0.34158406  1
  O2-  O273  1  0.49866591  0.12426703  0.84696270  1
  O2-  O274  1  0.49966347  0.37550128  0.34765126  1
  O2-  O275  1  0.49773047  0.37508051  0.84669534  1
  O2-  O276  1  0.50131997  0.62551884  0.34433467  1
  O2-  O277  1  0.49970853  0.62589024  0.84946639  1
  O2-  O278  1  0.49844010  0.87495237  0.34525816  1
  O2-  O279  1  0.49935262  0.87454014  0.84121121  1
  O2-  O280  1  0.75028984  0.12508613  0.34539773  1
  O2-  O281  1  0.75087686  0.12493945  0.84893947  1
  O2-  O282  1  0.75005557  0.37491078  0.34757409  1
  O2-  O283  1  0.75299976  0.37487432  0.85142771  1
  O2-  O284  1  0.74669777  0.62532493  0.34583684  1
  O2-  O285  1  0.74984243  0.62524166  0.85309296  1
  O2-  O286  1  0.74800681  0.87479534  0.34608593  1
  O2-  O287  1  0.74777002  0.87469090  0.84695927  1
