# generated using pymatgen
data_BaYFeCuO5
_symmetry_space_group_name_H-M   'P 1'
_cell_length_a   15.65014781
_cell_length_b   15.65074321
_cell_length_c   15.44165056
_cell_angle_alpha   90.00006114
_cell_angle_beta   89.99691844
_cell_angle_gamma   90.00337565
_symmetry_Int_Tables_number   1
_chemical_formula_structural   BaYFeCuO5
_chemical_formula_sum   'Ba32 Y32 Fe32 Cu32 O160'
_cell_volume   3782.22297536
_cell_formula_units_Z   32
loop_
 _symmetry_equiv_pos_site_id
 _symmetry_equiv_pos_as_xyz
  1  'x, y, z'
loop_
 _atom_type_symbol
 _atom_type_oxidation_number
  Ba2+  2.0
  Y3+  3.0
  Fe3+  3.0
  Cu2+  2.0
  O2-  -2.0
loop_
 _atom_site_type_symbol
 _atom_site_label
 _atom_site_symmetry_multiplicity
 _atom_site_fract_x
 _atom_site_fract_y
 _atom_site_fract_z
 _atom_site_occupancy
  Ba2+  Ba0  1  -0.00179923  -0.00388388  0.01208606  1
  Ba2+  Ba1  1  0.00100876  -0.00088310  0.51715299  1
  Ba2+  Ba2  1  0.00039347  0.26061362  0.01189699  1
  Ba2+  Ba3  1  0.00577049  0.25039203  0.51546948  1
  Ba2+  Ba4  1  0.00663679  0.49714525  0.01178876  1
  Ba2+  Ba5  1  0.00420904  0.50067830  0.51583890  1
  Ba2+  Ba6  1  0.00526772  0.74561955  0.01112184  1
  Ba2+  Ba7  1  0.00009742  0.74969503  0.51611121  1
  Ba2+  Ba8  1  0.25908085  -0.00279437  0.00219965  1
  Ba2+  Ba9  1  0.24738428  0.00447747  0.50720586  1
  Ba2+  Ba10  1  0.25511090  0.25823405  0.00761960  1
  Ba2+  Ba11  1  0.24204737  0.24483134  0.50657214  1
  Ba2+  Ba12  1  0.25205429  0.50250524  0.01271351  1
  Ba2+  Ba13  1  0.23992318  0.50345809  0.51004030  1
  Ba2+  Ba14  1  0.25553986  0.74277888  0.00700127  1
  Ba2+  Ba15  1  0.24592447  0.74785257  0.51216422  1
  Ba2+  Ba16  1  0.48957004  -0.00317125  0.00213645  1
  Ba2+  Ba17  1  0.49245252  -0.00328279  0.50574940  1
  Ba2+  Ba18  1  0.48822303  0.25338819  0.00082014  1
  Ba2+  Ba19  1  0.49254002  0.24348039  0.50714483  1
  Ba2+  Ba20  1  0.49003118  0.50382537  0.01079999  1
  Ba2+  Ba21  1  0.49964478  0.51033981  0.51659849  1
  Ba2+  Ba22  1  0.49054995  0.74556833  0.01122952  1
  Ba2+  Ba23  1  0.50106587  0.75035561  0.51855775  1
  Ba2+  Ba24  1  0.75286036  -0.00359526  0.01143657  1
  Ba2+  Ba25  1  0.75708301  -0.00856332  0.51486556  1
  Ba2+  Ba26  1  0.75646136  0.25662312  0.00644744  1
  Ba2+  Ba27  1  0.76074859  0.24988198  0.51806985  1
  Ba2+  Ba28  1  0.75255335  0.49798607  0.01035115  1
  Ba2+  Ba29  1  0.75557733  0.50653158  0.52214190  1
  Ba2+  Ba30  1  0.74919364  0.74871325  0.01490923  1
  Ba2+  Ba31  1  0.75259269  0.75142293  0.52078244  1
  Y3+  Y32  1  0.00016399  -0.00206822  0.25941911  1
  Y3+  Y33  1  0.00151849  -0.00024658  0.75471837  1
  Y3+  Y34  1  0.00275392  0.25315122  0.25890610  1
  Y3+  Y35  1  0.00131989  0.25193339  0.75475311  1
  Y3+  Y36  1  0.00464873  0.49971398  0.25707787  1
  Y3+  Y37  1  0.00246023  0.49989350  0.75663087  1
  Y3+  Y38  1  0.00140107  0.74925777  0.25722757  1
  Y3+  Y39  1  0.00295252  0.74825066  0.75583360  1
  Y3+  Y40  1  0.25178903  0.00019930  0.26166724  1
  Y3+  Y41  1  0.25085618  0.00088059  0.75588953  1
  Y3+  Y42  1  0.24862363  0.25122459  0.26224496  1
  Y3+  Y43  1  0.25004017  0.24959202  0.75410006  1
  Y3+  Y44  1  0.24736149  0.50013522  0.25718232  1
  Y3+  Y45  1  0.24874671  0.50261082  0.75809143  1
  Y3+  Y46  1  0.25018915  0.74855799  0.25571669  1
  Y3+  Y47  1  0.24974939  0.74674700  0.75985968  1
  Y3+  Y48  1  0.49598305  -0.00126863  0.25950346  1
  Y3+  Y49  1  0.49656629  -0.00060507  0.75674833  1
  Y3+  Y50  1  0.49706142  0.25032875  0.25933160  1
  Y3+  Y51  1  0.49585327  0.24946402  0.75652350  1
  Y3+  Y52  1  0.49788108  0.50158961  0.25405949  1
  Y3+  Y53  1  0.49667766  0.50190620  0.75865511  1
  Y3+  Y54  1  0.49670788  0.74993420  0.25421247  1
  Y3+  Y55  1  0.49746644  0.74900893  0.75928881  1
  Y3+  Y56  1  0.75151406  -0.00295773  0.25741902  1
  Y3+  Y57  1  0.75126701  -0.00159402  0.75533923  1
  Y3+  Y58  1  0.75101142  0.25183574  0.25501198  1
  Y3+  Y59  1  0.75304348  0.25127769  0.75849956  1
  Y3+  Y60  1  0.75021728  0.50045810  0.25309699  1
  Y3+  Y61  1  0.75294765  0.49957751  0.75841439  1
  Y3+  Y62  1  0.75118004  0.75071085  0.25555514  1
  Y3+  Y63  1  0.75030137  0.75009129  0.75509717  1
  Fe3+  Fe64  1  0.12639802  0.37533814  0.87526378  1
  Fe3+  Fe65  1  0.37445466  0.62588372  0.37741696  1
  Fe3+  Fe66  1  0.87651056  0.12510951  0.87903107  1
  Fe3+  Fe67  1  0.12489735  0.87402562  0.37719125  1
  Fe3+  Fe68  1  0.12613634  0.87458480  0.87945203  1
  Fe3+  Fe69  1  0.37444381  0.37686511  0.38093049  1
  Fe3+  Fe70  1  0.62576220  0.62555065  0.37504551  1
  Fe3+  Fe71  1  0.12578340  0.12549205  0.88062368  1
  Fe3+  Fe72  1  0.62458964  0.12513339  0.87996752  1
  Fe3+  Fe73  1  0.87506114  0.37683421  0.37662287  1
  Fe3+  Fe74  1  0.62559884  0.37610189  0.38112946  1
  Fe3+  Fe75  1  0.87558465  0.12468365  0.37587640  1
  Fe3+  Fe76  1  0.62440314  0.87450503  0.87908365  1
  Fe3+  Fe77  1  0.62519867  0.62481322  0.87777798  1
  Fe3+  Fe78  1  0.62674599  0.12442440  0.37971110  1
  Fe3+  Fe79  1  0.87560724  0.87395129  0.87725198  1
  Fe3+  Fe80  1  0.87545728  0.62531795  0.37532845  1
  Fe3+  Fe81  1  0.62371677  0.37541959  0.87826909  1
  Fe3+  Fe82  1  0.87617405  0.62460739  0.87853036  1
  Fe3+  Fe83  1  0.62480630  0.87348211  0.37654165  1
  Fe3+  Fe84  1  0.37311914  0.87417256  0.63855243  1
  Fe3+  Fe85  1  0.62291821  0.87521309  0.13401492  1
  Fe3+  Fe86  1  0.62505759  0.12391607  0.63507543  1
  Fe3+  Fe87  1  0.12620750  0.12552191  0.13438690  1
  Fe3+  Fe88  1  0.12694104  0.87538908  0.13496335  1
  Fe3+  Fe89  1  0.62265470  0.37471988  0.13397041  1
  Fe3+  Fe90  1  0.62442614  0.37490284  0.63493949  1
  Fe3+  Fe91  1  0.37412563  0.12562394  0.14004347  1
  Fe3+  Fe92  1  0.62345958  0.12545835  0.13343503  1
  Fe3+  Fe93  1  0.87603209  0.62435196  0.13448585  1
  Fe3+  Fe94  1  0.87580434  0.12580682  0.13457870  1
  Fe3+  Fe95  1  0.37349542  0.37609727  0.63457553  1
  Cu2+  Cu96  1  0.87532511  0.87342328  0.37158524  1
  Cu2+  Cu97  1  0.12435977  0.37590447  0.37377503  1
  Cu2+  Cu98  1  0.12491426  0.62458181  0.87364587  1
  Cu2+  Cu99  1  0.37463108  0.87364113  0.87127362  1
  Cu2+  Cu100  1  0.37435851  0.12498766  0.37416878  1
  Cu2+  Cu101  1  0.37454136  0.62422519  0.87002423  1
  Cu2+  Cu102  1  0.12432121  0.62569911  0.37086972  1
  Cu2+  Cu103  1  0.37409836  0.12535840  0.86215913  1
  Cu2+  Cu104  1  0.87678670  0.37570814  0.87200074  1
  Cu2+  Cu105  1  0.37439220  0.87314437  0.36741475  1
  Cu2+  Cu106  1  0.12295266  0.12420713  0.37070878  1
  Cu2+  Cu107  1  0.37390864  0.37612129  0.86905165  1
  Cu2+  Cu108  1  0.12628892  0.87470784  0.65248741  1
  Cu2+  Cu109  1  0.62423165  0.62498951  0.14424276  1
  Cu2+  Cu110  1  0.12589858  0.37533708  0.64299218  1
  Cu2+  Cu111  1  0.12519499  0.12468064  0.64407748  1
  Cu2+  Cu112  1  0.87576792  0.37564979  0.65149875  1
  Cu2+  Cu113  1  0.62377126  0.87526782  0.65256362  1
  Cu2+  Cu114  1  0.87585667  0.37560233  0.14106899  1
  Cu2+  Cu115  1  0.87616636  0.62503051  0.65459721  1
  Cu2+  Cu116  1  0.87540135  0.12478041  0.65323027  1
  Cu2+  Cu117  1  0.12644415  0.37418952  0.15149149  1
  Cu2+  Cu118  1  0.87587427  0.87484212  0.14801808  1
  Cu2+  Cu119  1  0.37444450  0.12468441  0.64213591  1
  Cu2+  Cu120  1  0.12582457  0.62481726  0.14100010  1
  Cu2+  Cu121  1  0.37361884  0.87571092  0.14265059  1
  Cu2+  Cu122  1  0.37440020  0.37451913  0.14470632  1
  Cu2+  Cu123  1  0.62501572  0.62472281  0.65439163  1
  Cu2+  Cu124  1  0.37378015  0.62445051  0.14705269  1
  Cu2+  Cu125  1  0.12524297  0.62525316  0.64337999  1
  Cu2+  Cu126  1  0.87670783  0.87410374  0.64377023  1
  Cu2+  Cu127  1  0.37405763  0.62510972  0.64997831  1
  O2-  O128  1  0.12653577  0.12598463  0.00736607  1
  O2-  O129  1  0.12195482  0.12354487  0.50766178  1
  O2-  O130  1  0.12691433  0.37430194  -0.00313259  1
  O2-  O131  1  0.12407785  0.37505969  0.50729660  1
  O2-  O132  1  0.12452548  0.62460660  0.00772606  1
  O2-  O133  1  0.12321570  0.62645192  0.50783607  1
  O2-  O134  1  0.12615741  0.87578364  0.00693618  1
  O2-  O135  1  0.12403903  0.87498275  0.49820841  1
  O2-  O136  1  0.37489686  0.12593255  0.01892891  1
  O2-  O137  1  0.37562588  0.12404150  0.50817494  1
  O2-  O138  1  0.37513196  0.37583961  0.00810183  1
  O2-  O139  1  0.37579353  0.37656601  0.50756886  1
  O2-  O140  1  0.37453722  0.62340096  0.00637026  1
  O2-  O141  1  0.37656262  0.62696474  0.49807321  1
  O2-  O142  1  0.37526312  0.87485333  0.00737845  1
  O2-  O143  1  0.37464248  0.87338461  0.51718573  1
  O2-  O144  1  0.62302624  0.12634212  0.00678852  1
  O2-  O145  1  0.62807431  0.12383243  0.50678189  1
  O2-  O146  1  0.62281645  0.37379731  0.00598479  1
  O2-  O147  1  0.62668580  0.37542923  0.50666600  1
  O2-  O148  1  0.62587461  0.62405021  -0.00206330  1
  O2-  O149  1  0.62730447  0.62627584  0.49532960  1
  O2-  O150  1  0.62416724  0.87562704  0.00580252  1
  O2-  O151  1  0.62602386  0.87363644  0.49710465  1
  O2-  O152  1  0.87523898  0.12505881  0.00613605  1
  O2-  O153  1  0.87425824  0.12428387  0.49643128  1
  O2-  O154  1  0.87490845  0.37521462  0.00617415  1
  O2-  O155  1  0.87269141  0.37700366  0.49714400  1
  O2-  O156  1  0.87539741  0.62467355  0.00562653  1
  O2-  O157  1  0.87382800  0.62565164  0.49590461  1
  O2-  O158  1  0.87378367  0.87569788  -0.00238877  1
  O2-  O159  1  0.87530189  0.87345861  0.50715040  1
  O2-  O160  1  0.12435583  0.00114690  0.16129617  1
  O2-  O161  1  0.12517413  -0.00118170  0.66889676  1
  O2-  O162  1  0.12470364  0.24844696  0.16440227  1
  O2-  O163  1  0.12482401  0.25035939  0.66584404  1
  O2-  O164  1  0.12599955  0.49784746  0.16458739  1
  O2-  O165  1  0.12479704  0.50002661  0.66478740  1
  O2-  O166  1  0.12483797  0.75294270  0.16182901  1
  O2-  O167  1  0.12527568  0.75076443  0.66750670  1
  O2-  O168  1  0.37503836  0.00270200  0.16852415  1
  O2-  O169  1  0.37524770  -0.00194747  0.66788613  1
  O2-  O170  1  0.37571071  0.24790196  0.17053852  1
  O2-  O171  1  0.37642707  0.25300661  0.66339935  1
  O2-  O172  1  0.37493988  0.50045349  0.16602464  1
  O2-  O173  1  0.37636735  0.49933777  0.66214403  1
  O2-  O174  1  0.37484481  0.74916430  0.16238717  1
  O2-  O175  1  0.37532849  0.74976813  0.66710174  1
  O2-  O176  1  0.62602500  0.00101466  0.16136837  1
  O2-  O177  1  0.62563319  0.00189082  0.66741062  1
  O2-  O178  1  0.62440962  0.24911374  0.16528296  1
  O2-  O179  1  0.62551184  0.25016073  0.66284908  1
  O2-  O180  1  0.62457975  0.49820863  0.16178746  1
  O2-  O181  1  0.62541490  0.49786276  0.66262461  1
  O2-  O182  1  0.62451661  0.75208729  0.15824939  1
  O2-  O183  1  0.62504370  0.74958246  0.66591345  1
  O2-  O184  1  0.87402307  0.00249825  0.16202186  1
  O2-  O185  1  0.87488817  0.00055564  0.66738090  1
  O2-  O186  1  0.87455534  0.24742524  0.16339587  1
  O2-  O187  1  0.87398160  0.25012365  0.66540292  1
  O2-  O188  1  0.87360097  0.50199849  0.16093907  1
  O2-  O189  1  0.87418329  0.50042543  0.66530398  1
  O2-  O190  1  0.87507426  0.74848897  0.15948240  1
  O2-  O191  1  0.87523246  0.74858512  0.66749010  1
  O2-  O192  1  0.00059335  0.12497540  0.15709827  1
  O2-  O193  1  -0.00135290  0.12466035  0.66836339  1
  O2-  O194  1  0.00233689  0.37474311  0.16281577  1
  O2-  O195  1  -0.00092786  0.37488653  0.66452433  1
  O2-  O196  1  -0.00211767  0.62443336  0.16211734  1
  O2-  O197  1  -0.00063257  0.62515840  0.66709752  1
  O2-  O198  1  0.00195791  0.87648362  0.16032261  1
  O2-  O199  1  0.00254064  0.87513191  0.66738956  1
  O2-  O200  1  0.24847596  0.12552491  0.16780937  1
  O2-  O201  1  0.25012569  0.12489659  0.66704084  1
  O2-  O202  1  0.24888226  0.37347155  0.16833237  1
  O2-  O203  1  0.25293721  0.37528498  0.66345076  1
  O2-  O204  1  0.25038694  0.62461378  0.16620776  1
  O2-  O205  1  0.25071264  0.62520438  0.66623797  1
  O2-  O206  1  0.24751068  0.87651988  0.16602980  1
  O2-  O207  1  0.25042103  0.87456397  0.66846496  1
  O2-  O208  1  0.50131753  0.12495368  0.16832605  1
  O2-  O209  1  0.50328569  0.12522835  0.66454223  1
  O2-  O210  1  0.50254217  0.37417969  0.16799287  1
  O2-  O211  1  0.50004800  0.37493373  0.66248662  1
  O2-  O212  1  0.49953960  0.62464038  0.16428082  1
  O2-  O213  1  0.50021486  0.62450164  0.66392358  1
  O2-  O214  1  0.50184473  0.87673501  0.16447062  1
  O2-  O215  1  0.49872741  0.87498944  0.66689059  1
  O2-  O216  1  0.74899913  0.12601071  0.15716344  1
  O2-  O217  1  0.74832431  0.12551237  0.66661633  1
  O2-  O218  1  0.74603647  0.37364048  0.16107117  1
  O2-  O219  1  0.74835787  0.37439807  0.66556775  1
  O2-  O220  1  0.75155250  0.62524787  0.15929080  1
  O2-  O221  1  0.75034389  0.62464867  0.66598908  1
  O2-  O222  1  0.74830349  0.87568570  0.15989155  1
  O2-  O223  1  0.74859550  0.87521915  0.66633901  1
  O2-  O224  1  0.12432195  -0.00206425  0.34482639  1
  O2-  O225  1  0.12481269  0.00059110  0.85377161  1
  O2-  O226  1  0.12422782  0.24996132  0.34902077  1
  O2-  O227  1  0.12521943  0.24808299  0.84857310  1
  O2-  O228  1  0.12455643  0.50089773  0.34896951  1
  O2-  O229  1  0.12487268  0.49882869  0.84737799  1
  O2-  O230  1  0.12531954  0.75123514  0.34463253  1
  O2-  O231  1  0.12435577  0.75239338  0.85203088  1
  O2-  O232  1  0.37584705  -0.00154594  0.35109435  1
  O2-  O233  1  0.37605884  0.00094521  0.85113844  1
  O2-  O234  1  0.37631955  0.25346245  0.35274354  1
  O2-  O235  1  0.37581754  0.24908614  0.84764466  1
  O2-  O236  1  0.37688933  0.49948980  0.34875659  1
  O2-  O237  1  0.37545878  0.50005474  0.84558863  1
  O2-  O238  1  0.37533200  0.74874892  0.34489867  1
  O2-  O239  1  0.37543936  0.74939995  0.84969180  1
  O2-  O240  1  0.62530120  0.00087949  0.34678443  1
  O2-  O241  1  0.62550723  0.00070788  0.85308077  1
  O2-  O242  1  0.62589985  0.25065266  0.35139653  1
  O2-  O243  1  0.62511116  0.24918417  0.84937650  1
  O2-  O244  1  0.62471705  0.49870310  0.34600960  1
  O2-  O245  1  0.62547614  0.49882426  0.84730780  1
  O2-  O246  1  0.62486701  0.74962403  0.34070107  1
  O2-  O247  1  0.62619150  0.75103577  0.85006839  1
  O2-  O248  1  0.87383359  0.00099340  0.34528761  1
  O2-  O249  1  0.87434109  0.00088186  0.85041731  1
  O2-  O250  1  0.87297642  0.25109678  0.34483202  1
  O2-  O251  1  0.87455536  0.24680283  0.85003551  1
  O2-  O252  1  0.87356697  0.50031538  0.34197098  1
  O2-  O253  1  0.87448989  0.50250962  0.84952046  1
  O2-  O254  1  0.87408990  0.74770044  0.34219029  1
  O2-  O255  1  0.87423061  0.74956117  0.85014953  1
  O2-  O256  1  -0.00286822  0.12518540  0.34093530  1
  O2-  O257  1  0.00074299  0.12424742  0.85324578  1
  O2-  O258  1  -0.00246179  0.37530200  0.34589384  1
  O2-  O259  1  0.00278356  0.37397410  0.84719799  1
  O2-  O260  1  -0.00134391  0.62525724  0.34463352  1
  O2-  O261  1  -0.00254206  0.62556875  0.85078505  1
  O2-  O262  1  0.00143554  0.87427252  0.34386374  1
  O2-  O263  1  0.00083863  0.87611183  0.85091845  1
  O2-  O264  1  0.24936567  0.12480535  0.35119587  1
  O2-  O265  1  0.24834324  0.12457731  0.85162372  1
  O2-  O266  1  0.25265654  0.37565578  0.35243456  1
  O2-  O267  1  0.24851476  0.37373881  0.84522522  1
  O2-  O268  1  0.25131520  0.62468574  0.34891350  1
  O2-  O269  1  0.24946726  0.62493196  0.84969716  1
  O2-  O270  1  0.24985307  0.87501437  0.34893194  1
  O2-  O271  1  0.24746661  0.87599959  0.85118632  1
  O2-  O272  1  0.50411145  0.12556412  0.35206729  1
  O2-  O273  1  0.50164852  0.12540029  0.84988368  1
  O2-  O274  1  0.50107558  0.37432822  0.35235135  1
  O2-  O275  1  0.50226570  0.37390439  0.84716138  1
  O2-  O276  1  0.50036920  0.62472463  0.34554689  1
  O2-  O277  1  0.50230187  0.62463385  0.84719969  1
  O2-  O278  1  0.50034244  0.87528053  0.34777374  1
  O2-  O279  1  0.50309379  0.87571226  0.84976343  1
  O2-  O280  1  0.74872719  0.12532951  0.34146469  1
  O2-  O281  1  0.74975428  0.12521270  0.85245265  1
  O2-  O282  1  0.74833893  0.37520684  0.34361075  1
  O2-  O283  1  0.74707609  0.37389186  0.85047404  1
  O2-  O284  1  0.74930737  0.62442888  0.34026604  1
  O2-  O285  1  0.75123848  0.62474620  0.84924384  1
  O2-  O286  1  0.74777030  0.87499873  0.34311576  1
  O2-  O287  1  0.74912226  0.87613347  0.84942081  1
