# generated using pymatgen
data_BaYFeCuO5
_symmetry_space_group_name_H-M   'P 1'
_cell_length_a   15.66854430
_cell_length_b   15.66955295
_cell_length_c   15.48034664
_cell_angle_alpha   90.00471127
_cell_angle_beta   90.00192292
_cell_angle_gamma   89.99510645
_symmetry_Int_Tables_number   1
_chemical_formula_structural   BaYFeCuO5
_chemical_formula_sum   'Ba32 Y32 Fe32 Cu32 O160'
_cell_volume   3800.72050532
_cell_formula_units_Z   32
loop_
 _symmetry_equiv_pos_site_id
 _symmetry_equiv_pos_as_xyz
  1  'x, y, z'
loop_
 _atom_type_symbol
 _atom_type_oxidation_number
  Ba2+  2.0
  Y3+  3.0
  Fe3+  3.0
  Cu2+  2.0
  O2-  -2.0
loop_
 _atom_site_type_symbol
 _atom_site_label
 _atom_site_symmetry_multiplicity
 _atom_site_fract_x
 _atom_site_fract_y
 _atom_site_fract_z
 _atom_site_occupancy
  Ba2+  Ba0  1  -0.00543950  0.00425882  0.02158043  1
  Ba2+  Ba1  1  0.00617824  -0.00101230  0.51590634  1
  Ba2+  Ba2  1  -0.00092669  0.25121923  0.02012089  1
  Ba2+  Ba3  1  0.00874682  0.25297870  0.50352717  1
  Ba2+  Ba4  1  0.00251681  0.50078431  0.01246133  1
  Ba2+  Ba5  1  -0.00262609  0.49533099  0.50163314  1
  Ba2+  Ba6  1  -0.00184090  0.74225030  0.01676855  1
  Ba2+  Ba7  1  -0.00625587  0.75175887  0.51660971  1
  Ba2+  Ba8  1  0.24826568  0.01055959  0.01731219  1
  Ba2+  Ba9  1  0.24494383  0.00855155  0.50654340  1
  Ba2+  Ba10  1  0.25259930  0.25487504  0.01234700  1
  Ba2+  Ba11  1  0.24846803  0.25256598  0.50184099  1
  Ba2+  Ba12  1  0.24885411  0.49758817  0.00660501  1
  Ba2+  Ba13  1  0.25263820  0.49006494  0.50337182  1
  Ba2+  Ba14  1  0.24615267  0.73799107  0.01192196  1
  Ba2+  Ba15  1  0.24955658  0.74983196  0.50729594  1
  Ba2+  Ba16  1  0.50291001  0.01153829  0.01041486  1
  Ba2+  Ba17  1  0.50377001  0.00593497  0.51371726  1
  Ba2+  Ba18  1  0.50015309  0.25268301  0.00598220  1
  Ba2+  Ba19  1  0.49623337  0.25259433  0.51281687  1
  Ba2+  Ba20  1  0.49637855  0.49513312  0.01192781  1
  Ba2+  Ba21  1  0.49426833  0.49252363  0.50719700  1
  Ba2+  Ba22  1  0.50122955  0.73898591  0.01753382  1
  Ba2+  Ba23  1  0.50111081  0.75040257  0.50697077  1
  Ba2+  Ba24  1  0.75228401  0.00740339  0.01466734  1
  Ba2+  Ba25  1  0.74644349  -0.00430806  0.52260044  1
  Ba2+  Ba26  1  0.74801968  0.24947846  0.01167947  1
  Ba2+  Ba27  1  0.74483399  0.25315769  0.51365109  1
  Ba2+  Ba28  1  0.75161817  0.49887903  0.01867107  1
  Ba2+  Ba29  1  0.75625846  0.49925218  0.50604113  1
  Ba2+  Ba30  1  0.75581635  0.74522747  0.02153767  1
  Ba2+  Ba31  1  0.75617550  0.75135221  0.51536633  1
  Y3+  Y32  1  0.00033963  0.00309705  0.25791273  1
  Y3+  Y33  1  0.00163979  -0.00075125  0.75347599  1
  Y3+  Y34  1  0.00124926  0.25097236  0.26252051  1
  Y3+  Y35  1  0.00365197  0.25164848  0.75359431  1
  Y3+  Y36  1  -0.00064304  0.49962202  0.26031962  1
  Y3+  Y37  1  0.00247079  0.49989616  0.75585626  1
  Y3+  Y38  1  -0.00141490  0.74705204  0.25700821  1
  Y3+  Y39  1  0.00023500  0.74879674  0.75580257  1
  Y3+  Y40  1  0.24996061  0.00489527  0.25857833  1
  Y3+  Y41  1  0.24766964  0.00078443  0.75549470  1
  Y3+  Y42  1  0.25150982  0.25063013  0.26092745  1
  Y3+  Y43  1  0.24922471  0.25435099  0.75522948  1
  Y3+  Y44  1  0.25205908  0.49830509  0.25872101  1
  Y3+  Y45  1  0.24862404  0.49584173  0.75881673  1
  Y3+  Y46  1  0.25024767  0.74624934  0.25664670  1
  Y3+  Y47  1  0.24695790  0.74870812  0.75878473  1
  Y3+  Y48  1  0.49961073  0.00411160  0.25462938  1
  Y3+  Y49  1  0.50252561  0.00188411  0.75922706  1
  Y3+  Y50  1  0.49650539  0.25007122  0.25575517  1
  Y3+  Y51  1  0.50097937  0.25292745  0.75966291  1
  Y3+  Y52  1  0.49572026  0.49934325  0.25780430  1
  Y3+  Y53  1  0.49901440  0.49449888  0.75795666  1
  Y3+  Y54  1  0.49884171  0.74705827  0.25741234  1
  Y3+  Y55  1  0.50065628  0.75033491  0.75620469  1
  Y3+  Y56  1  0.75082352  0.00179822  0.25258021  1
  Y3+  Y57  1  0.74766528  0.00051974  0.75835993  1
  Y3+  Y58  1  0.75136625  0.25026253  0.25592368  1
  Y3+  Y59  1  0.74569109  0.25018978  0.75895322  1
  Y3+  Y60  1  0.75331787  0.50047142  0.25995221  1
  Y3+  Y61  1  0.75001334  0.49823370  0.75464036  1
  Y3+  Y62  1  0.75248877  0.74741806  0.25778756  1
  Y3+  Y63  1  0.75172785  0.75042900  0.75288889  1
  Fe3+  Fe64  1  0.87534474  0.87492442  0.87700537  1
  Fe3+  Fe65  1  0.12391127  0.87513757  0.88110217  1
  Fe3+  Fe66  1  0.87620289  0.12593651  0.87402946  1
  Fe3+  Fe67  1  0.87473688  0.87649482  0.37516671  1
  Fe3+  Fe68  1  0.87479527  0.62401935  0.87407505  1
  Fe3+  Fe69  1  0.62573228  0.87342840  0.88044090  1
  Fe3+  Fe70  1  0.12471355  0.87487224  0.37526775  1
  Fe3+  Fe71  1  0.62640561  0.62386173  0.87601045  1
  Fe3+  Fe72  1  0.87561388  0.37460873  0.87721216  1
  Fe3+  Fe73  1  0.62543605  0.12508235  0.37603914  1
  Fe3+  Fe74  1  0.12501504  0.62493326  0.37964326  1
  Fe3+  Fe75  1  0.37538573  0.87655568  0.37819053  1
  Fe3+  Fe76  1  0.87393520  0.12457929  0.38040413  1
  Fe3+  Fe77  1  0.37373689  0.12587113  0.87646409  1
  Fe3+  Fe78  1  0.37448681  0.87490873  0.88136497  1
  Fe3+  Fe79  1  0.12362406  0.12615150  0.87698574  1
  Fe3+  Fe80  1  0.62496267  0.62466069  0.37904959  1
  Fe3+  Fe81  1  0.62477978  0.37445179  0.37684043  1
  Fe3+  Fe82  1  0.62552523  0.87604189  0.37468658  1
  Fe3+  Fe83  1  0.37512675  0.62415931  0.87562130  1
  Fe3+  Fe84  1  0.62476301  0.37567904  0.13966348  1
  Fe3+  Fe85  1  0.87544986  0.37426707  0.63681504  1
  Fe3+  Fe86  1  0.37455592  0.87576514  0.63487676  1
  Fe3+  Fe87  1  0.37459445  0.87524359  0.13364586  1
  Fe3+  Fe88  1  0.12526326  0.37517747  0.14162586  1
  Fe3+  Fe89  1  0.87513492  0.12580429  0.63398292  1
  Fe3+  Fe90  1  0.12475516  0.87493559  0.13500966  1
  Fe3+  Fe91  1  0.62514465  0.87452953  0.13386724  1
  Fe3+  Fe92  1  0.37449543  0.12640157  0.63850299  1
  Fe3+  Fe93  1  0.37465467  0.62387258  0.63611043  1
  Fe3+  Fe94  1  0.62448221  0.62345065  0.63347135  1
  Fe3+  Fe95  1  0.12536031  0.62365005  0.63422894  1
  Cu2+  Cu96  1  0.12377507  0.37440315  0.86458041  1
  Cu2+  Cu97  1  0.12392681  0.62420145  0.87242206  1
  Cu2+  Cu98  1  0.87529114  0.62606122  0.37444776  1
  Cu2+  Cu99  1  0.37432689  0.37462411  0.87391379  1
  Cu2+  Cu100  1  0.37621298  0.12476095  0.36541244  1
  Cu2+  Cu101  1  0.37614652  0.37380528  0.37156516  1
  Cu2+  Cu102  1  0.62599939  0.37611574  0.86513871  1
  Cu2+  Cu103  1  0.37508053  0.62531477  0.36862684  1
  Cu2+  Cu104  1  0.87405250  0.37359782  0.36590392  1
  Cu2+  Cu105  1  0.12479051  0.12486397  0.37247445  1
  Cu2+  Cu106  1  0.62542195  0.12568472  0.87344880  1
  Cu2+  Cu107  1  0.12558923  0.37567925  0.37160463  1
  Cu2+  Cu108  1  0.62432198  0.12588332  0.65261329  1
  Cu2+  Cu109  1  0.37426511  0.62410786  0.15230699  1
  Cu2+  Cu110  1  0.87554560  0.12658411  0.15495658  1
  Cu2+  Cu111  1  0.87570967  0.62349604  0.15531683  1
  Cu2+  Cu112  1  0.12492018  0.12654851  0.15360885  1
  Cu2+  Cu113  1  0.37428126  0.37488100  0.14325614  1
  Cu2+  Cu114  1  0.12649015  0.87388952  0.64979127  1
  Cu2+  Cu115  1  0.62352936  0.87433131  0.65147730  1
  Cu2+  Cu116  1  0.87560133  0.62360751  0.64008176  1
  Cu2+  Cu117  1  0.62507790  0.62363586  0.15426010  1
  Cu2+  Cu118  1  0.87531234  0.87622269  0.65178145  1
  Cu2+  Cu119  1  0.37456854  0.37484069  0.64385427  1
  Cu2+  Cu120  1  0.37460944  0.12607111  0.15062970  1
  Cu2+  Cu121  1  0.87549656  0.87493167  0.14956223  1
  Cu2+  Cu122  1  0.12511997  0.62298926  0.14463802  1
  Cu2+  Cu123  1  0.12546408  0.37585914  0.64116369  1
  Cu2+  Cu124  1  0.62469835  0.37548038  0.64909268  1
  Cu2+  Cu125  1  0.12595518  0.12639088  0.64127059  1
  Cu2+  Cu126  1  0.87577734  0.37508457  0.15394131  1
  Cu2+  Cu127  1  0.62484465  0.12711400  0.14121780  1
  O2-  O128  1  0.12140296  0.12498613  -0.00291645  1
  O2-  O129  1  0.12494121  0.12419199  0.50651964  1
  O2-  O130  1  0.12400339  0.37484677  0.02040613  1
  O2-  O131  1  0.12529803  0.37628605  0.50695725  1
  O2-  O132  1  0.12374294  0.62389911  0.00785087  1
  O2-  O133  1  0.12526588  0.62624031  0.50698620  1
  O2-  O134  1  0.12399573  0.87550417  0.00663260  1
  O2-  O135  1  0.12588232  0.87404241  0.49556660  1
  O2-  O136  1  0.37360111  0.12493931  -0.00272120  1
  O2-  O137  1  0.37576163  0.12397537  0.51778663  1
  O2-  O138  1  0.37438770  0.37523463  0.00736927  1
  O2-  O139  1  0.37601986  0.37319641  0.50730930  1
  O2-  O140  1  0.37554677  0.62534090  -0.00352647  1
  O2-  O141  1  0.37571443  0.62654080  0.51572393  1
  O2-  O142  1  0.37471047  0.87434155  0.00655423  1
  O2-  O143  1  0.37543099  0.87653810  0.50650835  1
  O2-  O144  1  0.62623122  0.12598867  0.00669601  1
  O2-  O145  1  0.62670794  0.12263407  0.49617575  1
  O2-  O146  1  0.62579176  0.37676237  0.01859951  1
  O2-  O147  1  0.62460868  0.37418810  0.49744132  1
  O2-  O148  1  0.62791138  0.62514283  -0.00395831  1
  O2-  O149  1  0.62418786  0.62566447  0.50594595  1
  O2-  O150  1  0.62553564  0.87250300  0.00628318  1
  O2-  O151  1  0.62432399  0.87656984  0.49464861  1
  O2-  O152  1  0.87696484  0.12613757  -0.00574789  1
  O2-  O153  1  0.87311112  0.12355376  0.50666472  1
  O2-  O154  1  0.87553990  0.37485863  -0.00259621  1
  O2-  O155  1  0.87383630  0.37334887  0.51608907  1
  O2-  O156  1  0.87402850  0.62405744  -0.00546620  1
  O2-  O157  1  0.87468332  0.62656548  0.50664763  1
  O2-  O158  1  0.87529382  0.87453191  -0.00338880  1
  O2-  O159  1  0.87421074  0.87729530  0.49552731  1
  O2-  O160  1  0.12458873  -0.00063018  0.16197761  1
  O2-  O161  1  0.12619675  -0.00183894  0.66416339  1
  O2-  O162  1  0.12466689  0.25040101  0.16903079  1
  O2-  O163  1  0.12525147  0.25091453  0.66441459  1
  O2-  O164  1  0.12432547  0.49800972  0.17092632  1
  O2-  O165  1  0.12594287  0.50301537  0.66509720  1
  O2-  O166  1  0.12600801  0.75246833  0.16318181  1
  O2-  O167  1  0.12562340  0.74803455  0.66375928  1
  O2-  O168  1  0.37548472  -0.00176956  0.16251103  1
  O2-  O169  1  0.37489252  -0.00113926  0.66569284  1
  O2-  O170  1  0.37404265  0.24899023  0.16613931  1
  O2-  O171  1  0.37613621  0.24908145  0.66714799  1
  O2-  O172  1  0.37489993  0.50104552  0.16695583  1
  O2-  O173  1  0.37517911  0.50156988  0.66600273  1
  O2-  O174  1  0.37429481  0.75191913  0.16430020  1
  O2-  O175  1  0.37579852  0.75103064  0.66337552  1
  O2-  O176  1  0.62403072  -0.00270586  0.15953823  1
  O2-  O177  1  0.62421115  -0.00074355  0.66634920  1
  O2-  O178  1  0.62605318  0.25254844  0.16741353  1
  O2-  O179  1  0.62422501  0.25036814  0.66523231  1
  O2-  O180  1  0.62507925  0.49972937  0.17006973  1
  O2-  O181  1  0.62468526  0.50186000  0.66242889  1
  O2-  O182  1  0.62516619  0.75077497  0.16391816  1
  O2-  O183  1  0.62344858  0.74828030  0.66173915  1
  O2-  O184  1  0.87578410  0.00118616  0.16256823  1
  O2-  O185  1  0.87441167  0.00169285  0.66248126  1
  O2-  O186  1  0.87511366  0.25010975  0.16747183  1
  O2-  O187  1  0.87450877  0.24835063  0.66380705  1
  O2-  O188  1  0.87587736  0.50004158  0.16764449  1
  O2-  O189  1  0.87409774  0.49773717  0.66501996  1
  O2-  O190  1  0.87470698  0.74872316  0.16363407  1
  O2-  O191  1  0.87538111  0.75205920  0.66229133  1
  O2-  O192  1  -0.00032642  0.12559813  0.16751848  1
  O2-  O193  1  -0.00210348  0.12393562  0.65975520  1
  O2-  O194  1  -0.00002093  0.37428677  0.16859787  1
  O2-  O195  1  -0.00148867  0.37515375  0.66497006  1
  O2-  O196  1  -0.00107963  0.62531669  0.16708991  1
  O2-  O197  1  0.00287158  0.62560073  0.66229241  1
  O2-  O198  1  0.00147230  0.87460930  0.16183654  1
  O2-  O199  1  0.00094399  0.87519767  0.66278040  1
  O2-  O200  1  0.24994542  0.12374022  0.16485278  1
  O2-  O201  1  0.25156568  0.12421286  0.66752508  1
  O2-  O202  1  0.24900405  0.37501700  0.16803640  1
  O2-  O203  1  0.25017600  0.37572800  0.66638874  1
  O2-  O204  1  0.25100153  0.62518986  0.16812049  1
  O2-  O205  1  0.24949906  0.62695462  0.66472348  1
  O2-  O206  1  0.25023561  0.87586669  0.16128130  1
  O2-  O207  1  0.25279413  0.87375997  0.66667701  1
  O2-  O208  1  0.49860271  0.12515898  0.16440597  1
  O2-  O209  1  0.49978944  0.12351155  0.66690595  1
  O2-  O210  1  0.50038064  0.37561836  0.16556756  1
  O2-  O211  1  0.50111644  0.37519093  0.66624743  1
  O2-  O212  1  0.49927916  0.62629812  0.16478357  1
  O2-  O213  1  0.50064649  0.62584634  0.66385535  1
  O2-  O214  1  0.49958643  0.87341679  0.16087351  1
  O2-  O215  1  0.49722711  0.87531397  0.66588703  1
  O2-  O216  1  0.75170297  0.12483781  0.16349473  1
  O2-  O217  1  0.75037542  0.12451162  0.66238368  1
  O2-  O218  1  0.75082547  0.37645347  0.16564387  1
  O2-  O219  1  0.75016590  0.37384234  0.66495891  1
  O2-  O220  1  0.75106771  0.62445288  0.16570165  1
  O2-  O221  1  0.74708414  0.62607029  0.65931893  1
  O2-  O222  1  0.74882454  0.87510586  0.16024385  1
  O2-  O223  1  0.74908676  0.87504398  0.66317808  1
  O2-  O224  1  0.12609259  -0.00190766  0.34502252  1
  O2-  O225  1  0.12484605  -0.00151688  0.84689216  1
  O2-  O226  1  0.12477823  0.25038916  0.35187950  1
  O2-  O227  1  0.12481161  0.24955964  0.84701368  1
  O2-  O228  1  0.12582809  0.50289963  0.35287254  1
  O2-  O229  1  0.12432691  0.49769515  0.84880562  1
  O2-  O230  1  0.12558554  0.74916587  0.34591679  1
  O2-  O231  1  0.12513706  0.75365447  0.84834104  1
  O2-  O232  1  0.37505385  -0.00162089  0.34734921  1
  O2-  O233  1  0.37497651  -0.00214198  0.84823467  1
  O2-  O234  1  0.37634066  0.24808326  0.34967279  1
  O2-  O235  1  0.37415805  0.24849137  0.84819519  1
  O2-  O236  1  0.37523140  0.50099995  0.35106475  1
  O2-  O237  1  0.37539498  0.50112737  0.84749524  1
  O2-  O238  1  0.37600071  0.75268792  0.34975761  1
  O2-  O239  1  0.37469172  0.75173854  0.84587697  1
  O2-  O240  1  0.62500686  0.00013423  0.34063443  1
  O2-  O241  1  0.62441969  -0.00437338  0.85077200  1
  O2-  O242  1  0.62529185  0.24919398  0.34738993  1
  O2-  O243  1  0.62538476  0.25213971  0.85018434  1
  O2-  O244  1  0.62530016  0.50134090  0.35228588  1
  O2-  O245  1  0.62510667  0.50101448  0.84509587  1
  O2-  O246  1  0.62367515  0.74963415  0.34778811  1
  O2-  O247  1  0.62496483  0.75093631  0.84486797  1
  O2-  O248  1  0.87404318  0.00127114  0.34483641  1
  O2-  O249  1  0.87527748  -0.00059338  0.84386701  1
  O2-  O250  1  0.87425511  0.24759225  0.35223058  1
  O2-  O251  1  0.87508371  0.25007969  0.84373005  1
  O2-  O252  1  0.87431495  0.49857769  0.35251997  1
  O2-  O253  1  0.87501069  0.49953780  0.84444167  1
  O2-  O254  1  0.87518080  0.75296428  0.34620202  1
  O2-  O255  1  0.87472248  0.75038409  0.84351915  1
  O2-  O256  1  -0.00339734  0.12387473  0.35182735  1
  O2-  O257  1  0.00053687  0.12434828  0.83995272  1
  O2-  O258  1  -0.00157213  0.37533728  0.35167347  1
  O2-  O259  1  -0.00022431  0.37470578  0.84614828  1
  O2-  O260  1  0.00297679  0.62560008  0.35055755  1
  O2-  O261  1  -0.00219427  0.62548774  0.84433873  1
  O2-  O262  1  -0.00012679  0.87572354  0.34409554  1
  O2-  O263  1  0.00096720  0.87495310  0.84643715  1
  O2-  O264  1  0.25185324  0.12435321  0.35011291  1
  O2-  O265  1  0.24874815  0.12300934  0.84726336  1
  O2-  O266  1  0.25115195  0.37451997  0.35022624  1
  O2-  O267  1  0.24721214  0.37520694  0.85013105  1
  O2-  O268  1  0.24872248  0.62722393  0.35232910  1
  O2-  O269  1  0.25142518  0.62582166  0.84712830  1
  O2-  O270  1  0.25154347  0.87438319  0.34667636  1
  O2-  O271  1  0.24985632  0.87475064  0.85157791  1
  O2-  O272  1  0.50122121  0.12332064  0.34716223  1
  O2-  O273  1  0.49798250  0.12397852  0.84909383  1
  O2-  O274  1  0.50208462  0.37549005  0.34656275  1
  O2-  O275  1  0.50180434  0.37515273  0.85070939  1
  O2-  O276  1  0.50177171  0.62611743  0.34991943  1
  O2-  O277  1  0.50048177  0.62664930  0.84510360  1
  O2-  O278  1  0.49924615  0.87543428  0.34566535  1
  O2-  O279  1  0.49954174  0.87368514  0.85124442  1
  O2-  O280  1  0.75088157  0.12437171  0.34584675  1
  O2-  O281  1  0.75197752  0.12422013  0.84565745  1
  O2-  O282  1  0.74875834  0.37467050  0.34746104  1
  O2-  O283  1  0.75089499  0.37533093  0.84679550  1
  O2-  O284  1  0.74698586  0.62622225  0.34996730  1
  O2-  O285  1  0.75037612  0.62536970  0.84009536  1
  O2-  O286  1  0.74959497  0.87507374  0.34205172  1
  O2-  O287  1  0.74919709  0.87460850  0.84687459  1
