# generated using pymatgen
data_BaYFeCuO5
_symmetry_space_group_name_H-M   'P 1'
_cell_length_a   15.67307447
_cell_length_b   15.67398830
_cell_length_c   15.48557442
_cell_angle_alpha   90.00034771
_cell_angle_beta   90.00149270
_cell_angle_gamma   90.00042505
_symmetry_Int_Tables_number   1
_chemical_formula_structural   BaYFeCuO5
_chemical_formula_sum   'Ba32 Y32 Fe32 Cu32 O160'
_cell_volume   3804.17979630
_cell_formula_units_Z   32
loop_
 _symmetry_equiv_pos_site_id
 _symmetry_equiv_pos_as_xyz
  1  'x, y, z'
loop_
 _atom_type_symbol
 _atom_type_oxidation_number
  Ba2+  2.0
  Y3+  3.0
  Fe3+  3.0
  Cu2+  2.0
  O2-  -2.0
loop_
 _atom_site_type_symbol
 _atom_site_label
 _atom_site_symmetry_multiplicity
 _atom_site_fract_x
 _atom_site_fract_y
 _atom_site_fract_z
 _atom_site_occupancy
  Ba2+  Ba0  1  0.00706401  -0.00335203  0.02479482  1
  Ba2+  Ba1  1  -0.00368682  0.00340163  0.50276633  1
  Ba2+  Ba2  1  0.00756979  0.25166514  0.01319130  1
  Ba2+  Ba3  1  -0.00457488  0.25624583  0.51256218  1
  Ba2+  Ba4  1  0.00697711  0.49613982  0.01168308  1
  Ba2+  Ba5  1  0.00183436  0.49794289  0.51292793  1
  Ba2+  Ba6  1  0.00704192  0.75511456  0.02180176  1
  Ba2+  Ba7  1  0.00330020  0.74327994  0.50047931  1
  Ba2+  Ba8  1  0.24999318  0.00032157  0.03000398  1
  Ba2+  Ba9  1  0.25295161  -0.01051162  0.50232984  1
  Ba2+  Ba10  1  0.24879864  0.24766290  0.02135702  1
  Ba2+  Ba11  1  0.25036011  0.26274162  0.50711821  1
  Ba2+  Ba12  1  0.25176794  0.50273655  0.01168038  1
  Ba2+  Ba13  1  0.25115483  0.49753103  0.50612913  1
  Ba2+  Ba14  1  0.25191980  0.74931991  0.02236214  1
  Ba2+  Ba15  1  0.25414029  0.74889983  0.50121440  1
  Ba2+  Ba16  1  0.49474154  -0.00534073  0.01883851  1
  Ba2+  Ba17  1  0.50128378  -0.01389450  0.50652932  1
  Ba2+  Ba18  1  0.49219370  0.25198225  0.01143673  1
  Ba2+  Ba19  1  0.50155133  0.26479060  0.50633589  1
  Ba2+  Ba20  1  0.49081960  0.50021870  0.00572091  1
  Ba2+  Ba21  1  0.50098620  0.49947236  0.51914052  1
  Ba2+  Ba22  1  0.49338918  0.75404930  0.01137380  1
  Ba2+  Ba23  1  0.50037740  0.74959211  0.51822772  1
  Ba2+  Ba24  1  0.74739289  -0.00835930  0.01202058  1
  Ba2+  Ba25  1  0.74877043  -0.00081139  0.50677149  1
  Ba2+  Ba26  1  0.75060513  0.25525639  0.00628644  1
  Ba2+  Ba27  1  0.75277719  0.25691222  0.51302268  1
  Ba2+  Ba28  1  0.74996944  0.49328733  0.00600769  1
  Ba2+  Ba29  1  0.74774531  0.49973311  0.52500223  1
  Ba2+  Ba30  1  0.74669654  0.75958123  0.01061862  1
  Ba2+  Ba31  1  0.74291841  0.74537782  0.51897298  1
  Y3+  Y32  1  -0.00052998  -0.00034372  0.26203416  1
  Y3+  Y33  1  -0.00138681  0.00234829  0.75253480  1
  Y3+  Y34  1  0.00091632  0.25017532  0.26155177  1
  Y3+  Y35  1  -0.00119731  0.25126825  0.75412815  1
  Y3+  Y36  1  0.00460061  0.50028392  0.25829309  1
  Y3+  Y37  1  -0.00024581  0.49771160  0.75693849  1
  Y3+  Y38  1  0.00277045  0.75005636  0.25817444  1
  Y3+  Y39  1  -0.00037618  0.74856806  0.75555748  1
  Y3+  Y40  1  0.25123054  -0.00206392  0.26318660  1
  Y3+  Y41  1  0.25155375  -0.00099307  0.75033780  1
  Y3+  Y42  1  0.24972281  0.25273848  0.26277444  1
  Y3+  Y43  1  0.25060981  0.25332140  0.75271378  1
  Y3+  Y44  1  0.24893633  0.50069534  0.25908756  1
  Y3+  Y45  1  0.25327549  0.49974587  0.75596657  1
  Y3+  Y46  1  0.25029807  0.74898228  0.25903395  1
  Y3+  Y47  1  0.25422096  0.74848806  0.75489666  1
  Y3+  Y48  1  0.50075489  -0.00386476  0.26046027  1
  Y3+  Y49  1  0.50102226  -0.00397792  0.75454548  1
  Y3+  Y50  1  0.50106940  0.25339243  0.26010308  1
  Y3+  Y51  1  0.49867909  0.25217991  0.75465187  1
  Y3+  Y52  1  0.49938257  0.49846981  0.25665788  1
  Y3+  Y53  1  0.49655581  0.50076435  0.75817759  1
  Y3+  Y54  1  0.49936284  0.75173223  0.25634971  1
  Y3+  Y55  1  0.49905466  0.75063398  0.75812162  1
  Y3+  Y56  1  0.74862485  -0.00151493  0.25914876  1
  Y3+  Y57  1  0.74869408  -0.00096102  0.75555509  1
  Y3+  Y58  1  0.74862009  0.25078245  0.25976145  1
  Y3+  Y59  1  0.75184525  0.25057003  0.75584754  1
  Y3+  Y60  1  0.74737583  0.49809051  0.25383837  1
  Y3+  Y61  1  0.75029163  0.49883142  0.75938423  1
  Y3+  Y62  1  0.74754070  0.75277275  0.25475284  1
  Y3+  Y63  1  0.74686982  0.75121013  0.75899578  1
  Fe3+  Fe64  1  0.37261643  0.87645797  0.87507367  1
  Fe3+  Fe65  1  0.87739810  0.87595867  0.87620500  1
  Fe3+  Fe66  1  0.37684376  0.12573059  0.38058650  1
  Fe3+  Fe67  1  0.12532646  0.12584883  0.38022659  1
  Fe3+  Fe68  1  0.62335355  0.37385351  0.87714552  1
  Fe3+  Fe69  1  0.37312046  0.12408445  0.87493108  1
  Fe3+  Fe70  1  0.37698059  0.62422314  0.37624088  1
  Fe3+  Fe71  1  0.87278101  0.62361772  0.37527630  1
  Fe3+  Fe72  1  0.87352184  0.87297079  0.37868435  1
  Fe3+  Fe73  1  0.62486480  0.12573617  0.38015151  1
  Fe3+  Fe74  1  0.87629250  0.12425359  0.88066900  1
  Fe3+  Fe75  1  0.87630408  0.62569610  0.88055825  1
  Fe3+  Fe76  1  0.62388662  0.62588666  0.87986832  1
  Fe3+  Fe77  1  0.87393821  0.37732733  0.37577726  1
  Fe3+  Fe78  1  0.62342109  0.12397062  0.88003516  1
  Fe3+  Fe79  1  0.62533083  0.62421521  0.37440212  1
  Fe3+  Fe80  1  0.12664933  0.12347349  0.87388777  1
  Fe3+  Fe81  1  0.12672712  0.37388788  0.87500960  1
  Fe3+  Fe82  1  0.12629963  0.87638921  0.87423863  1
  Fe3+  Fe83  1  0.12592669  0.62647636  0.87727365  1
  Fe3+  Fe84  1  0.12563872  0.12575521  0.63166377  1
  Fe3+  Fe85  1  0.12437312  0.87362016  0.63310778  1
  Fe3+  Fe86  1  0.62384273  0.12574838  0.13535618  1
  Fe3+  Fe87  1  0.37393510  0.37511821  0.14078222  1
  Fe3+  Fe88  1  0.37634558  0.12500315  0.63107282  1
  Fe3+  Fe89  1  0.87522358  0.62563471  0.13304626  1
  Fe3+  Fe90  1  0.12609135  0.62445977  0.63698520  1
  Fe3+  Fe91  1  0.62441883  0.12553787  0.63445871  1
  Fe3+  Fe92  1  0.62385270  0.62441978  0.13215037  1
  Fe3+  Fe93  1  0.87526900  0.12484307  0.13593295  1
  Fe3+  Fe94  1  0.87620628  0.37437015  0.13715456  1
  Fe3+  Fe95  1  0.87500613  0.87336608  0.63368325  1
  Cu2+  Cu96  1  0.12409270  0.37599905  0.37377701  1
  Cu2+  Cu97  1  0.37596105  0.37717966  0.37179923  1
  Cu2+  Cu98  1  0.62352430  0.87631511  0.87306550  1
  Cu2+  Cu99  1  0.87632899  0.37403404  0.86512878  1
  Cu2+  Cu100  1  0.87324457  0.12634087  0.37474850  1
  Cu2+  Cu101  1  0.37639148  0.87268866  0.37137814  1
  Cu2+  Cu102  1  0.37373338  0.37388588  0.86232527  1
  Cu2+  Cu103  1  0.62569416  0.87233371  0.37272400  1
  Cu2+  Cu104  1  0.37368908  0.62614815  0.87397777  1
  Cu2+  Cu105  1  0.62608930  0.37791944  0.37280243  1
  Cu2+  Cu106  1  0.12517918  0.62469690  0.36448311  1
  Cu2+  Cu107  1  0.12435424  0.87465566  0.36755752  1
  Cu2+  Cu108  1  0.87526643  0.87549871  0.15399038  1
  Cu2+  Cu109  1  0.62490892  0.37513179  0.64563499  1
  Cu2+  Cu110  1  0.12587202  0.87544120  0.16006373  1
  Cu2+  Cu111  1  0.37506115  0.87383856  0.64039332  1
  Cu2+  Cu112  1  0.12525216  0.37465070  0.15541507  1
  Cu2+  Cu113  1  0.87466866  0.37607102  0.65381033  1
  Cu2+  Cu114  1  0.37517297  0.62490867  0.64923262  1
  Cu2+  Cu115  1  0.87387715  0.12496425  0.63885016  1
  Cu2+  Cu116  1  0.12528522  0.37608576  0.64152190  1
  Cu2+  Cu117  1  0.37521811  0.37585883  0.64277106  1
  Cu2+  Cu118  1  0.62454111  0.62445512  0.65848560  1
  Cu2+  Cu119  1  0.87506943  0.62522798  0.65337503  1
  Cu2+  Cu120  1  0.62551454  0.87444727  0.64250955  1
  Cu2+  Cu121  1  0.37539027  0.12556793  0.15929115  1
  Cu2+  Cu122  1  0.37447096  0.87532502  0.15731493  1
  Cu2+  Cu123  1  0.12523089  0.62474360  0.15164550  1
  Cu2+  Cu124  1  0.62461153  0.37431524  0.14620749  1
  Cu2+  Cu125  1  0.12498981  0.12523652  0.15976963  1
  Cu2+  Cu126  1  0.62396781  0.87566455  0.14275540  1
  Cu2+  Cu127  1  0.37506600  0.62461903  0.14267140  1
  O2-  O128  1  0.12717710  0.12219077  -0.00614667  1
  O2-  O129  1  0.12398109  0.12613593  0.50597458  1
  O2-  O130  1  0.12736890  0.37194897  -0.00420758  1
  O2-  O131  1  0.12281433  0.37647157  0.50743612  1
  O2-  O132  1  0.12473018  0.62704204  -0.00211148  1
  O2-  O133  1  0.12465267  0.62455284  0.51657113  1
  O2-  O134  1  0.12693233  0.87815361  -0.00546506  1
  O2-  O135  1  0.12232753  0.87202299  0.51309057  1
  O2-  O136  1  0.37082540  0.12300940  -0.00520562  1
  O2-  O137  1  0.37809888  0.12591531  0.50583369  1
  O2-  O138  1  0.37158368  0.37256797  0.01937849  1
  O2-  O139  1  0.37637008  0.37783900  0.50737166  1
  O2-  O140  1  0.37340461  0.62603498  0.00734810  1
  O2-  O141  1  0.37816782  0.62429357  0.49677501  1
  O2-  O142  1  0.37005487  0.87865602  -0.00442656  1
  O2-  O143  1  0.37611830  0.87180843  0.50602760  1
  O2-  O144  1  0.62300291  0.12425407  0.00680818  1
  O2-  O145  1  0.62525345  0.12610907  0.50720616  1
  O2-  O146  1  0.62347850  0.37066573  -0.00243312  1
  O2-  O147  1  0.62737648  0.37819539  0.50799044  1
  O2-  O148  1  0.62406481  0.62574882  0.00564643  1
  O2-  O149  1  0.62622612  0.62304607  0.49434611  1
  O2-  O150  1  0.62344678  0.87741290  0.00750811  1
  O2-  O151  1  0.62730146  0.87170810  0.50726176  1
  O2-  O152  1  0.87845435  0.12299681  0.00731243  1
  O2-  O153  1  0.87303506  0.12561549  0.50669690  1
  O2-  O154  1  0.87785456  0.37189037  0.01652199  1
  O2-  O155  1  0.87301288  0.37963157  0.49634075  1
  O2-  O156  1  0.87805429  0.62728959  0.00627834  1
  O2-  O157  1  0.87133462  0.62312322  0.49463393  1
  O2-  O158  1  0.87962130  0.87739128  -0.00358961  1
  O2-  O159  1  0.87363815  0.87137267  0.50618872  1
  O2-  O160  1  0.12481194  0.00042605  0.17022467  1
  O2-  O161  1  0.12358883  0.00056029  0.65811164  1
  O2-  O162  1  0.12459303  0.24944793  0.16722063  1
  O2-  O163  1  0.12557511  0.24778458  0.66120872  1
  O2-  O164  1  0.12461415  0.49961020  0.16275536  1
  O2-  O165  1  0.12434591  0.50192715  0.66870252  1
  O2-  O166  1  0.12455698  0.75075541  0.16407019  1
  O2-  O167  1  0.12437761  0.74966226  0.66707439  1
  O2-  O168  1  0.37505729  0.00065221  0.16989368  1
  O2-  O169  1  0.37610373  0.00250939  0.65832704  1
  O2-  O170  1  0.37483687  0.25065156  0.16970169  1
  O2-  O171  1  0.37508907  0.24662533  0.66251562  1
  O2-  O172  1  0.37419698  0.49816589  0.16464252  1
  O2-  O173  1  0.37588308  0.50158198  0.66768108  1
  O2-  O174  1  0.37481603  0.75134289  0.16314735  1
  O2-  O175  1  0.37582921  0.74868277  0.66491651  1
  O2-  O176  1  0.62503051  0.00359725  0.16813766  1
  O2-  O177  1  0.62526473  0.00227816  0.66184630  1
  O2-  O178  1  0.62535457  0.24785298  0.16644559  1
  O2-  O179  1  0.62534502  0.24768682  0.66400067  1
  O2-  O180  1  0.62643915  0.50084884  0.15748531  1
  O2-  O181  1  0.62553963  0.50100973  0.67073870  1
  O2-  O182  1  0.62576519  0.74762834  0.16102160  1
  O2-  O183  1  0.62575375  0.74824737  0.66726572  1
  O2-  O184  1  0.87506029  0.00211016  0.16781051  1
  O2-  O185  1  0.87500073  -0.00381461  0.66067523  1
  O2-  O186  1  0.87552162  0.24821671  0.16563190  1
  O2-  O187  1  0.87421886  0.25173962  0.66479662  1
  O2-  O188  1  0.87509470  0.50115031  0.15818976  1
  O2-  O189  1  0.87425288  0.50065229  0.66914126  1
  O2-  O190  1  0.87481819  0.74887087  0.16194130  1
  O2-  O191  1  0.87444163  0.75119524  0.66417044  1
  O2-  O192  1  -0.00143334  0.12446079  0.16488877  1
  O2-  O193  1  0.00284478  0.12555029  0.66287877  1
  O2-  O194  1  0.00022382  0.37441957  0.16632645  1
  O2-  O195  1  -0.00159327  0.37515506  0.66404451  1
  O2-  O196  1  -0.00147598  0.62563535  0.16384018  1
  O2-  O197  1  0.00026924  0.62515496  0.66539680  1
  O2-  O198  1  0.00050117  0.87593837  0.16718413  1
  O2-  O199  1  -0.00103214  0.87421004  0.66229779  1
  O2-  O200  1  0.24982168  0.12533943  0.17095233  1
  O2-  O201  1  0.25033711  0.12381623  0.65596818  1
  O2-  O202  1  0.24923091  0.37359599  0.16977986  1
  O2-  O203  1  0.25074291  0.37567872  0.66207515  1
  O2-  O204  1  0.24868744  0.62529828  0.16718612  1
  O2-  O205  1  0.25037047  0.62510749  0.66363804  1
  O2-  O206  1  0.25020239  0.87622209  0.16883628  1
  O2-  O207  1  0.24777598  0.87542376  0.65999174  1
  O2-  O208  1  0.50129267  0.12577816  0.16309811  1
  O2-  O209  1  0.50039983  0.12519498  0.66454024  1
  O2-  O210  1  0.49942334  0.37395583  0.16559752  1
  O2-  O211  1  0.49989606  0.37513535  0.66630242  1
  O2-  O212  1  0.50279682  0.62426162  0.16086400  1
  O2-  O213  1  0.49988649  0.62483037  0.66659755  1
  O2-  O214  1  0.49810680  0.87630256  0.16469160  1
  O2-  O215  1  0.50039422  0.87419900  0.66499353  1
  O2-  O216  1  0.75026326  0.12503766  0.15844261  1
  O2-  O217  1  0.74668227  0.12479326  0.66917270  1
  O2-  O218  1  0.75113067  0.37366981  0.16201038  1
  O2-  O219  1  0.75101413  0.37521750  0.66874040  1
  O2-  O220  1  0.75028449  0.62514587  0.15602572  1
  O2-  O221  1  0.75012327  0.62485032  0.66962729  1
  O2-  O222  1  0.75086790  0.87641325  0.16369540  1
  O2-  O223  1  0.75277089  0.87441072  0.66595337  1
  O2-  O224  1  0.12481113  0.00167295  0.35419904  1
  O2-  O225  1  0.12471617  0.00038416  0.83686913  1
  O2-  O226  1  0.12517079  0.24780213  0.35105268  1
  O2-  O227  1  0.12452524  0.24884987  0.84261719  1
  O2-  O228  1  0.12469271  0.50120848  0.34722175  1
  O2-  O229  1  0.12435871  0.49997268  0.84981837  1
  O2-  O230  1  0.12407544  0.74983150  0.34866300  1
  O2-  O231  1  0.12347891  0.75110222  0.84554567  1
  O2-  O232  1  0.37614069  0.00236181  0.35374030  1
  O2-  O233  1  0.37442301  0.00022832  0.83817431  1
  O2-  O234  1  0.37577497  0.24800138  0.35220412  1
  O2-  O235  1  0.37502252  0.24885720  0.84478231  1
  O2-  O236  1  0.37504302  0.50222087  0.34428387  1
  O2-  O237  1  0.37421808  0.49800984  0.85205235  1
  O2-  O238  1  0.37498964  0.74729057  0.34513353  1
  O2-  O239  1  0.37470135  0.75288270  0.84672588  1
  O2-  O240  1  0.62505917  0.00155185  0.35356898  1
  O2-  O241  1  0.62569060  0.00379010  0.84513700  1
  O2-  O242  1  0.62505818  0.24841746  0.35127118  1
  O2-  O243  1  0.62509894  0.24788890  0.84704066  1
  O2-  O244  1  0.62562241  0.50231218  0.33948625  1
  O2-  O245  1  0.62600599  0.50042863  0.85375178  1
  O2-  O246  1  0.62610791  0.74760682  0.34307393  1
  O2-  O247  1  0.62571919  0.74805654  0.85097642  1
  O2-  O248  1  0.87423868  -0.00317418  0.35307106  1
  O2-  O249  1  0.87487328  0.00194603  0.84335788  1
  O2-  O250  1  0.87417227  0.25265411  0.34762166  1
  O2-  O251  1  0.87514288  0.24676417  0.84951683  1
  O2-  O252  1  0.87506466  0.50058138  0.33868439  1
  O2-  O253  1  0.87517239  0.50178093  0.85447267  1
  O2-  O254  1  0.87498160  0.74993752  0.34605403  1
  O2-  O255  1  0.87551874  0.74941006  0.84747691  1
  O2-  O256  1  0.00282680  0.12462540  0.34962710  1
  O2-  O257  1  -0.00080748  0.12439716  0.84612328  1
  O2-  O258  1  -0.00199584  0.37558651  0.34800706  1
  O2-  O259  1  0.00145980  0.37397745  0.84685741  1
  O2-  O260  1  -0.00066396  0.62549334  0.34784387  1
  O2-  O261  1  -0.00090749  0.62511839  0.84703783  1
  O2-  O262  1  -0.00268541  0.87461022  0.35150310  1
  O2-  O263  1  0.00049200  0.87643216  0.84091857  1
  O2-  O264  1  0.25076038  0.12474835  0.35548772  1
  O2-  O265  1  0.24977369  0.12498630  0.83677296  1
  O2-  O266  1  0.25006115  0.37552289  0.35299235  1
  O2-  O267  1  0.24946674  0.37411842  0.84339205  1
  O2-  O268  1  0.25016390  0.62518726  0.35109737  1
  O2-  O269  1  0.24788016  0.62548483  0.84485861  1
  O2-  O270  1  0.24937795  0.87493643  0.35313628  1
  O2-  O271  1  0.24926836  0.87590143  0.83859327  1
  O2-  O272  1  0.50091452  0.12530971  0.34854089  1
  O2-  O273  1  0.50016496  0.12505953  0.84841776  1
  O2-  O274  1  0.50058859  0.37555887  0.34846538  1
  O2-  O275  1  0.49960844  0.37403592  0.84888114  1
  O2-  O276  1  0.50076023  0.62485718  0.34182987  1
  O2-  O277  1  0.50211074  0.62464116  0.85126054  1
  O2-  O278  1  0.50078884  0.87418478  0.34751556  1
  O2-  O279  1  0.49742448  0.87648244  0.84746913  1
  O2-  O280  1  0.74570382  0.12458817  0.34402953  1
  O2-  O281  1  0.75049079  0.12487158  0.85558847  1
  O2-  O282  1  0.75148559  0.37562740  0.34302422  1
  O2-  O283  1  0.74956355  0.37364191  0.85166619  1
  O2-  O284  1  0.75014796  0.62503727  0.33740218  1
  O2-  O285  1  0.75069397  0.62538591  0.85461381  1
  O2-  O286  1  0.75250446  0.87467855  0.34669602  1
  O2-  O287  1  0.75268534  0.87606595  0.84923305  1
