# generated using pymatgen
data_BaYFeCuO5
_symmetry_space_group_name_H-M   'P 1'
_cell_length_a   15.66940950
_cell_length_b   15.67543323
_cell_length_c   15.49189638
_cell_angle_alpha   90.00324077
_cell_angle_beta   90.00019276
_cell_angle_gamma   90.00395873
_symmetry_Int_Tables_number   1
_chemical_formula_structural   BaYFeCuO5
_chemical_formula_sum   'Ba32 Y32 Fe32 Cu32 O160'
_cell_volume   3805.19366444
_cell_formula_units_Z   32
loop_
 _symmetry_equiv_pos_site_id
 _symmetry_equiv_pos_as_xyz
  1  'x, y, z'
loop_
 _atom_type_symbol
 _atom_type_oxidation_number
  Ba2+  2.0
  Y3+  3.0
  Fe3+  3.0
  Cu2+  2.0
  O2-  -2.0
loop_
 _atom_site_type_symbol
 _atom_site_label
 _atom_site_symmetry_multiplicity
 _atom_site_fract_x
 _atom_site_fract_y
 _atom_site_fract_z
 _atom_site_occupancy
  Ba2+  Ba0  1  -0.00479040  0.00418838  0.00117608  1
  Ba2+  Ba1  1  0.00164190  0.00311232  0.52144469  1
  Ba2+  Ba2  1  -0.00794254  0.24812145  0.00585508  1
  Ba2+  Ba3  1  0.00245781  0.24584163  0.51277405  1
  Ba2+  Ba4  1  -0.01211078  0.49866346  0.00682892  1
  Ba2+  Ba5  1  -0.00107099  0.49035530  0.50625498  1
  Ba2+  Ba6  1  -0.01049875  0.74900862  0.00277572  1
  Ba2+  Ba7  1  -0.00048443  0.75907135  0.51907142  1
  Ba2+  Ba8  1  0.25600520  0.00553918  0.02357393  1
  Ba2+  Ba9  1  0.25037430  0.00539329  0.50585756  1
  Ba2+  Ba10  1  0.25711995  0.24719095  0.01731738  1
  Ba2+  Ba11  1  0.24654247  0.24113903  0.51058350  1
  Ba2+  Ba12  1  0.26099523  0.49576979  0.01030148  1
  Ba2+  Ba13  1  0.25038179  0.49975869  0.51675481  1
  Ba2+  Ba14  1  0.25983845  0.75152500  0.01725574  1
  Ba2+  Ba15  1  0.25510480  0.75478160  0.51075302  1
  Ba2+  Ba16  1  0.50049580  0.00281586  0.02064288  1
  Ba2+  Ba17  1  0.50255371  0.00172505  0.50147763  1
  Ba2+  Ba18  1  0.49952820  0.24986230  0.02318000  1
  Ba2+  Ba19  1  0.50387643  0.24170157  0.51001625  1
  Ba2+  Ba20  1  0.49639068  0.49221876  0.01473663  1
  Ba2+  Ba21  1  0.50431936  0.50491143  0.52232287  1
  Ba2+  Ba22  1  0.49768475  0.75563662  0.01248972  1
  Ba2+  Ba23  1  0.50321864  0.75336629  0.51147961  1
  Ba2+  Ba24  1  0.74882662  0.00060900  -0.00609030  1
  Ba2+  Ba25  1  0.74582663  0.00059852  0.51597561  1
  Ba2+  Ba26  1  0.74971800  0.25093774  0.01316393  1
  Ba2+  Ba27  1  0.74758053  0.24665390  0.51187450  1
  Ba2+  Ba28  1  0.75522322  0.49464094  0.01177822  1
  Ba2+  Ba29  1  0.74531132  0.49543793  0.51383869  1
  Ba2+  Ba30  1  0.75336148  0.75313428  -0.00423874  1
  Ba2+  Ba31  1  0.74357245  0.75629122  0.51594124  1
  Y3+  Y32  1  0.00203823  0.00286081  0.25830996  1
  Y3+  Y33  1  -0.00145536  0.00112669  0.75635054  1
  Y3+  Y34  1  -0.00057318  0.24963764  0.25744519  1
  Y3+  Y35  1  -0.00055450  0.24899719  0.75784294  1
  Y3+  Y36  1  -0.00335418  0.49888025  0.25409372  1
  Y3+  Y37  1  -0.00181138  0.49864261  0.76125674  1
  Y3+  Y38  1  -0.00157085  0.74861114  0.25523568  1
  Y3+  Y39  1  -0.00223547  0.75131351  0.75993562  1
  Y3+  Y40  1  0.25194483  0.00300372  0.26176535  1
  Y3+  Y41  1  0.24913447  0.00280084  0.75173933  1
  Y3+  Y42  1  0.25055634  0.24651308  0.25918432  1
  Y3+  Y43  1  0.25017708  0.24921987  0.75395817  1
  Y3+  Y44  1  0.25133754  0.49897430  0.25406468  1
  Y3+  Y45  1  0.25140821  0.49779422  0.75815612  1
  Y3+  Y46  1  0.25234345  0.75108917  0.25676428  1
  Y3+  Y47  1  0.25027092  0.75040080  0.75576338  1
  Y3+  Y48  1  0.50017055  0.00121809  0.26393989  1
  Y3+  Y49  1  0.50234738  0.00143636  0.75147394  1
  Y3+  Y50  1  0.50041970  0.24757612  0.25951169  1
  Y3+  Y51  1  0.49997558  0.24896025  0.75298605  1
  Y3+  Y52  1  0.49946325  0.49823230  0.25291851  1
  Y3+  Y53  1  0.50010010  0.49922340  0.75761750  1
  Y3+  Y54  1  0.49961295  0.75264703  0.25877090  1
  Y3+  Y55  1  0.50230948  0.75119613  0.75508973  1
  Y3+  Y56  1  0.74629191  0.00104006  0.26270233  1
  Y3+  Y57  1  0.74959168  -0.00004308  0.75398558  1
  Y3+  Y58  1  0.74948741  0.25101942  0.25832451  1
  Y3+  Y59  1  0.75033186  0.24829503  0.75720880  1
  Y3+  Y60  1  0.75280393  0.49792520  0.25419699  1
  Y3+  Y61  1  0.74998628  0.49962737  0.76093328  1
  Y3+  Y62  1  0.74973966  0.74957157  0.25789914  1
  Y3+  Y63  1  0.74935937  0.75274213  0.75746294  1
  Fe3+  Fe64  1  0.62341645  0.12516060  0.87550871  1
  Fe3+  Fe65  1  0.37561220  0.62396669  0.37644032  1
  Fe3+  Fe66  1  0.87528543  0.12532984  0.37955346  1
  Fe3+  Fe67  1  0.62419070  0.62526716  0.87961985  1
  Fe3+  Fe68  1  0.12456923  0.62499454  0.37902792  1
  Fe3+  Fe69  1  0.12595922  0.62502028  0.88028995  1
  Fe3+  Fe70  1  0.87522654  0.87558564  0.37923684  1
  Fe3+  Fe71  1  0.12426865  0.87491073  0.37624111  1
  Fe3+  Fe72  1  0.62475483  0.37611031  0.37613737  1
  Fe3+  Fe73  1  0.12542297  0.37493571  0.37591109  1
  Fe3+  Fe74  1  0.12645626  0.12495564  0.87795963  1
  Fe3+  Fe75  1  0.37555755  0.87808018  0.87548523  1
  Fe3+  Fe76  1  0.12697702  0.87587809  0.88020396  1
  Fe3+  Fe77  1  0.62363477  0.37323132  0.87653971  1
  Fe3+  Fe78  1  0.12603097  0.37391606  0.88025178  1
  Fe3+  Fe79  1  0.87483355  0.62476780  0.38165900  1
  Fe3+  Fe80  1  0.37601756  0.12513607  0.87412737  1
  Fe3+  Fe81  1  0.37605825  0.62558371  0.87560463  1
  Fe3+  Fe82  1  0.62520820  0.62407011  0.37549835  1
  Fe3+  Fe83  1  0.37553208  0.37511191  0.37990122  1
  Fe3+  Fe84  1  0.37529726  0.87622355  0.63628302  1
  Fe3+  Fe85  1  0.87372010  0.87650198  0.13809512  1
  Fe3+  Fe86  1  0.62537279  0.62522147  0.13349983  1
  Fe3+  Fe87  1  0.62623789  0.87619851  0.13881193  1
  Fe3+  Fe88  1  0.12455501  0.37357026  0.13370493  1
  Fe3+  Fe89  1  0.12454352  0.87602095  0.13363033  1
  Fe3+  Fe90  1  0.37543669  0.37416325  0.63388392  1
  Fe3+  Fe91  1  0.87431056  0.62468170  0.63582892  1
  Fe3+  Fe92  1  0.12403247  0.62467395  0.63540808  1
  Fe3+  Fe93  1  0.12485199  0.62478544  0.13277441  1
  Fe3+  Fe94  1  0.87346251  0.12322311  0.13917707  1
  Fe3+  Fe95  1  0.87470858  0.37426736  0.63940506  1
  Cu2+  Cu96  1  0.62336174  0.87616516  0.86261426  1
  Cu2+  Cu97  1  0.37584096  0.37246741  0.87013081  1
  Cu2+  Cu98  1  0.87434415  0.12510832  0.86127309  1
  Cu2+  Cu99  1  0.87515483  0.87608448  0.86075895  1
  Cu2+  Cu100  1  0.37531034  0.12583940  0.37373820  1
  Cu2+  Cu101  1  0.12349916  0.12513608  0.37188285  1
  Cu2+  Cu102  1  0.62558077  0.87390806  0.37340341  1
  Cu2+  Cu103  1  0.87376100  0.62458858  0.87145300  1
  Cu2+  Cu104  1  0.62638355  0.12586526  0.37266405  1
  Cu2+  Cu105  1  0.37473069  0.87459468  0.36516978  1
  Cu2+  Cu106  1  0.87370192  0.37359831  0.87200745  1
  Cu2+  Cu107  1  0.87492011  0.37500616  0.36441568  1
  Cu2+  Cu108  1  0.87529304  0.37305401  0.14324399  1
  Cu2+  Cu109  1  0.62529468  0.37419816  0.15089386  1
  Cu2+  Cu110  1  0.12530326  0.87467868  0.65287336  1
  Cu2+  Cu111  1  0.37553684  0.87623310  0.15557800  1
  Cu2+  Cu112  1  0.37598402  0.12489013  0.15818736  1
  Cu2+  Cu113  1  0.37607556  0.62510007  0.15042768  1
  Cu2+  Cu114  1  0.37451995  0.37345728  0.14522588  1
  Cu2+  Cu115  1  0.12451056  0.12537666  0.64372427  1
  Cu2+  Cu116  1  0.12417501  0.12494352  0.14799978  1
  Cu2+  Cu117  1  0.37511215  0.62549251  0.65087303  1
  Cu2+  Cu118  1  0.37542630  0.12465322  0.63924304  1
  Cu2+  Cu119  1  0.87365064  0.62626531  0.14124959  1
  Cu2+  Cu120  1  0.87494505  0.12533975  0.65017607  1
  Cu2+  Cu121  1  0.87481896  0.87537890  0.65225565  1
  Cu2+  Cu122  1  0.12441687  0.37569688  0.65219962  1
  Cu2+  Cu123  1  0.62541282  0.12505606  0.64161407  1
  Cu2+  Cu124  1  0.62584087  0.12438480  0.15379825  1
  Cu2+  Cu125  1  0.62621072  0.62506941  0.65405015  1
  Cu2+  Cu126  1  0.62538846  0.37473785  0.65140096  1
  Cu2+  Cu127  1  0.62449260  0.87576868  0.64284886  1
  O2-  O128  1  0.12761540  0.12375960  -0.00218998  1
  O2-  O129  1  0.12306814  0.12439674  0.50710967  1
  O2-  O130  1  0.12594253  0.37395073  0.00673282  1
  O2-  O131  1  0.12590913  0.37668903  0.49627825  1
  O2-  O132  1  0.12595610  0.62523176  0.00637578  1
  O2-  O133  1  0.12408140  0.62498619  0.50604337  1
  O2-  O134  1  0.12671739  0.87579593  0.00639067  1
  O2-  O135  1  0.12400392  0.87318361  0.49642419  1
  O2-  O136  1  0.37653431  0.12471592  -0.00539077  1
  O2-  O137  1  0.37456330  0.12528654  0.50615386  1
  O2-  O138  1  0.37559234  0.37262482  0.00595154  1
  O2-  O139  1  0.37481973  0.37688035  0.50556121  1
  O2-  O140  1  0.37606990  0.62611547  -0.00410081  1
  O2-  O141  1  0.37446744  0.62347033  0.49621112  1
  O2-  O142  1  0.37531379  0.87787232  -0.00403502  1
  O2-  O143  1  0.37461666  0.87399843  0.51558227  1
  O2-  O144  1  0.62275239  0.12507398  -0.00439215  1
  O2-  O145  1  0.62693174  0.12514349  0.50679367  1
  O2-  O146  1  0.62311154  0.37273825  -0.00327275  1
  O2-  O147  1  0.62398473  0.37805030  0.49625525  1
  O2-  O148  1  0.62455781  0.62607876  0.00611176  1
  O2-  O149  1  0.62552064  0.62374183  0.49548950  1
  O2-  O150  1  0.62582528  0.87667186  0.01864927  1
  O2-  O151  1  0.62458432  0.87374693  0.50757763  1
  O2-  O152  1  0.87284477  0.12266235  0.01846864  1
  O2-  O153  1  0.87614430  0.12540963  0.50017218  1
  O2-  O154  1  0.87452905  0.37288366  0.00759294  1
  O2-  O155  1  0.87525054  0.37589084  0.51893236  1
  O2-  O156  1  0.87355754  0.62609253  0.00688511  1
  O2-  O157  1  0.87535488  0.62463604  0.50788609  1
  O2-  O158  1  0.87319034  0.87706550  0.01775493  1
  O2-  O159  1  0.87683016  0.87420950  0.49937013  1
  O2-  O160  1  0.12497737  -0.00200294  0.16315250  1
  O2-  O161  1  0.12421834  -0.00146098  0.66601492  1
  O2-  O162  1  0.12546023  0.25096149  0.16242191  1
  O2-  O163  1  0.12417779  0.25211408  0.66567240  1
  O2-  O164  1  0.12525826  0.50020100  0.16077938  1
  O2-  O165  1  0.12455627  0.50261182  0.66611898  1
  O2-  O166  1  0.12624837  0.75014409  0.16090738  1
  O2-  O167  1  0.12370528  0.74725195  0.66601680  1
  O2-  O168  1  0.37531238  0.00099121  0.16710072  1
  O2-  O169  1  0.37373943  -0.00127362  0.66415261  1
  O2-  O170  1  0.37425074  0.24818587  0.16796869  1
  O2-  O171  1  0.37444046  0.25271675  0.66012193  1
  O2-  O172  1  0.37459758  0.50053983  0.16323081  1
  O2-  O173  1  0.37455074  0.49889937  0.66316760  1
  O2-  O174  1  0.37454731  0.75018741  0.16327327  1
  O2-  O175  1  0.37429626  0.75021316  0.66593961  1
  O2-  O176  1  0.62382247  -0.00038152  0.17005043  1
  O2-  O177  1  0.62583123  0.00040000  0.66433709  1
  O2-  O178  1  0.62580959  0.24932546  0.16467150  1
  O2-  O179  1  0.62530089  0.25126508  0.66224683  1
  O2-  O180  1  0.62435690  0.50088701  0.15883751  1
  O2-  O181  1  0.62544544  0.50024328  0.66669145  1
  O2-  O182  1  0.62452332  0.74956709  0.16472016  1
  O2-  O183  1  0.62577462  0.74879504  0.66729843  1
  O2-  O184  1  0.87619090  -0.00071783  0.17116538  1
  O2-  O185  1  0.87586944  0.00009249  0.66402953  1
  O2-  O186  1  0.87492825  0.24722005  0.16667055  1
  O2-  O187  1  0.87580502  0.25067134  0.66640796  1
  O2-  O188  1  0.87560449  0.49965110  0.16452356  1
  O2-  O189  1  0.87507367  0.50136432  0.66683082  1
  O2-  O190  1  0.87505433  0.75289812  0.16847185  1
  O2-  O191  1  0.87567746  0.74808226  0.66444614  1
  O2-  O192  1  -0.00084076  0.12457093  0.16579686  1
  O2-  O193  1  -0.00068804  0.12523686  0.66769072  1
  O2-  O194  1  0.00319054  0.37525365  0.16430111  1
  O2-  O195  1  -0.00079139  0.37664461  0.66945777  1
  O2-  O196  1  0.00349865  0.62560869  0.16564275  1
  O2-  O197  1  -0.00076412  0.62491365  0.66403900  1
  O2-  O198  1  0.00138463  0.87348159  0.16251167  1
  O2-  O199  1  0.00057165  0.87387794  0.66769700  1
  O2-  O200  1  0.25014712  0.12444635  0.16551607  1
  O2-  O201  1  0.24928972  0.12584445  0.66267609  1
  O2-  O202  1  0.24689626  0.37551577  0.16393978  1
  O2-  O203  1  0.25113961  0.37680426  0.66270537  1
  O2-  O204  1  0.24846483  0.62493688  0.16283223  1
  O2-  O205  1  0.24758636  0.62495542  0.66218363  1
  O2-  O206  1  0.24894021  0.87469316  0.16220034  1
  O2-  O207  1  0.25004998  0.87310954  0.66525098  1
  O2-  O208  1  0.50083116  0.12556998  0.16627547  1
  O2-  O209  1  0.50041901  0.12529465  0.66123220  1
  O2-  O210  1  0.50069770  0.37419493  0.16530860  1
  O2-  O211  1  0.49894100  0.37639067  0.66014191  1
  O2-  O212  1  0.50187681  0.62504110  0.16108273  1
  O2-  O213  1  0.50099643  0.62493677  0.66319092  1
  O2-  O214  1  0.50050337  0.87488036  0.16663398  1
  O2-  O215  1  0.49839541  0.87395698  0.66473172  1
  O2-  O216  1  0.75006169  0.12406635  0.16886159  1
  O2-  O217  1  0.75098321  0.12528593  0.66542733  1
  O2-  O218  1  0.74918415  0.37499539  0.16523596  1
  O2-  O219  1  0.75037195  0.37580078  0.66655595  1
  O2-  O220  1  0.74621367  0.62471361  0.16657784  1
  O2-  O221  1  0.75223802  0.62492195  0.66355440  1
  O2-  O222  1  0.74963197  0.87527714  0.17134797  1
  O2-  O223  1  0.75074963  0.87452217  0.66538532  1
  O2-  O224  1  0.12517177  -0.00217127  0.34606710  1
  O2-  O225  1  0.12437786  -0.00101749  0.84888837  1
  O2-  O226  1  0.12462890  0.25254070  0.34565569  1
  O2-  O227  1  0.12514804  0.25027467  0.84885121  1
  O2-  O228  1  0.12500233  0.50177859  0.34533309  1
  O2-  O229  1  0.12569524  0.50026050  0.85158298  1
  O2-  O230  1  0.12445704  0.74757202  0.34507944  1
  O2-  O231  1  0.12570921  0.75027018  0.85157671  1
  O2-  O232  1  0.37424332  -0.00108123  0.35170018  1
  O2-  O233  1  0.37424059  0.00098473  0.84244941  1
  O2-  O234  1  0.37479003  0.25382635  0.35078495  1
  O2-  O235  1  0.37426841  0.24714135  0.84139852  1
  O2-  O236  1  0.37364976  0.49886545  0.34481464  1
  O2-  O237  1  0.37456081  0.50195718  0.84662884  1
  O2-  O238  1  0.37429656  0.74836693  0.34674213  1
  O2-  O239  1  0.37395338  0.75062286  0.84689687  1
  O2-  O240  1  0.62557807  -0.00025404  0.35261651  1
  O2-  O241  1  0.62514503  0.00038111  0.84635852  1
  O2-  O242  1  0.62502914  0.25306525  0.34759912  1
  O2-  O243  1  0.62489615  0.24900080  0.84304396  1
  O2-  O244  1  0.62575540  0.50032682  0.34042172  1
  O2-  O245  1  0.62385755  0.50126577  0.85031140  1
  O2-  O246  1  0.62501267  0.74692554  0.34553779  1
  O2-  O247  1  0.62433851  0.74981225  0.85218725  1
  O2-  O248  1  0.87556188  -0.00015600  0.34892384  1
  O2-  O249  1  0.87593706  0.00000017  0.84905280  1
  O2-  O250  1  0.87603149  0.25036682  0.34886197  1
  O2-  O251  1  0.87508398  0.24877548  0.84882102  1
  O2-  O252  1  0.87620868  0.50206367  0.34954895  1
  O2-  O253  1  0.87509041  0.49957649  0.84867728  1
  O2-  O254  1  0.87649484  0.74783879  0.34930011  1
  O2-  O255  1  0.87524648  0.75136490  0.84892235  1
  O2-  O256  1  -0.00195718  0.12544300  0.34640086  1
  O2-  O257  1  0.00051508  0.12510990  0.85109652  1
  O2-  O258  1  0.00050058  0.37714902  0.34712610  1
  O2-  O259  1  0.00321689  0.37557365  0.85245569  1
  O2-  O260  1  -0.00001764  0.62418606  0.35056832  1
  O2-  O261  1  0.00385385  0.62540295  0.84958359  1
  O2-  O262  1  -0.00046542  0.87334509  0.34254288  1
  O2-  O263  1  0.00266140  0.87389434  0.85305109  1
  O2-  O264  1  0.24921832  0.12557279  0.35020212  1
  O2-  O265  1  0.24948489  0.12488386  0.84294280  1
  O2-  O266  1  0.25118526  0.37637470  0.34658612  1
  O2-  O267  1  0.24706796  0.37554179  0.84718181  1
  O2-  O268  1  0.24849387  0.62481032  0.34709728  1
  O2-  O269  1  0.24890316  0.62502441  0.84617299  1
  O2-  O270  1  0.24885859  0.87313385  0.34613329  1
  O2-  O271  1  0.24898739  0.87462841  0.84632508  1
  O2-  O272  1  0.50085600  0.12551655  0.35083271  1
  O2-  O273  1  0.50005494  0.12459853  0.84106102  1
  O2-  O274  1  0.49847206  0.37676508  0.34736643  1
  O2-  O275  1  0.50187013  0.37495912  0.84195452  1
  O2-  O276  1  0.49969808  0.62382171  0.34352954  1
  O2-  O277  1  0.50112361  0.62585003  0.84644305  1
  O2-  O278  1  0.49889382  0.87395574  0.35036731  1
  O2-  O279  1  0.49842486  0.87484834  0.84528643  1
  O2-  O280  1  0.75247813  0.12609725  0.34919748  1
  O2-  O281  1  0.74942524  0.12418050  0.84863810  1
  O2-  O282  1  0.75015280  0.37657898  0.34841644  1
  O2-  O283  1  0.74712262  0.37546610  0.84756380  1
  O2-  O284  1  0.75222636  0.62458188  0.34906452  1
  O2-  O285  1  0.74581120  0.62588310  0.84829833  1
  O2-  O286  1  0.75270457  0.87275684  0.34958895  1
  O2-  O287  1  0.74966286  0.87486586  0.85036320  1
