# generated using pymatgen
data_BaYFeCuO5
_symmetry_space_group_name_H-M   'P 1'
_cell_length_a   15.66045481
_cell_length_b   15.65960184
_cell_length_c   15.45976347
_cell_angle_alpha   90.00595444
_cell_angle_beta   90.00537306
_cell_angle_gamma   89.99535381
_symmetry_Int_Tables_number   1
_chemical_formula_structural   BaYFeCuO5
_chemical_formula_sum   'Ba32 Y32 Fe32 Cu32 O160'
_cell_volume   3791.29803184
_cell_formula_units_Z   32
loop_
 _symmetry_equiv_pos_site_id
 _symmetry_equiv_pos_as_xyz
  1  'x, y, z'
loop_
 _atom_type_symbol
 _atom_type_oxidation_number
  Ba2+  2.0
  Y3+  3.0
  Fe3+  3.0
  Cu2+  2.0
  O2-  -2.0
loop_
 _atom_site_type_symbol
 _atom_site_label
 _atom_site_symmetry_multiplicity
 _atom_site_fract_x
 _atom_site_fract_y
 _atom_site_fract_z
 _atom_site_occupancy
  Ba2+  Ba0  1  -0.01228599  0.00167814  0.01207986  1
  Ba2+  Ba1  1  0.00413322  0.00979649  0.50228139  1
  Ba2+  Ba2  1  -0.00763064  0.25243131  0.00513693  1
  Ba2+  Ba3  1  -0.00362600  0.24860026  0.51212115  1
  Ba2+  Ba4  1  -0.00107647  0.50022591  0.01959340  1
  Ba2+  Ba5  1  -0.00831089  0.49448883  0.51050490  1
  Ba2+  Ba6  1  -0.00615898  0.74566061  0.02394341  1
  Ba2+  Ba7  1  -0.00198043  0.74789159  0.50222924  1
  Ba2+  Ba8  1  0.25381054  -0.00372853  0.00174167  1
  Ba2+  Ba9  1  0.25024843  0.00090553  0.50655815  1
  Ba2+  Ba10  1  0.24795182  0.25915069  0.01652317  1
  Ba2+  Ba11  1  0.24390421  0.24337341  0.51669964  1
  Ba2+  Ba12  1  0.24448489  0.49695919  0.02166073  1
  Ba2+  Ba13  1  0.25049851  0.49920357  0.51540420  1
  Ba2+  Ba14  1  0.24958657  0.74865255  0.00624877  1
  Ba2+  Ba15  1  0.25615690  0.75790082  0.50642284  1
  Ba2+  Ba16  1  0.50736274  -0.00494522  0.01227574  1
  Ba2+  Ba17  1  0.49527572  0.00461615  0.51312164  1
  Ba2+  Ba18  1  0.50200752  0.24968440  0.01572750  1
  Ba2+  Ba19  1  0.50951127  0.24688800  0.51049678  1
  Ba2+  Ba20  1  0.50434417  0.50339733  0.01052761  1
  Ba2+  Ba21  1  0.50746083  0.50051538  0.51763977  1
  Ba2+  Ba22  1  0.50911656  0.75089365  0.00579710  1
  Ba2+  Ba23  1  0.49399870  0.74869388  0.51791726  1
  Ba2+  Ba24  1  0.75146300  0.00061777  0.02416450  1
  Ba2+  Ba25  1  0.74924996  0.01249528  0.50689721  1
  Ba2+  Ba26  1  0.75658454  0.24353758  0.00626300  1
  Ba2+  Ba27  1  0.75126216  0.25165209  0.50654973  1
  Ba2+  Ba28  1  0.75304878  0.50667676  0.00615236  1
  Ba2+  Ba29  1  0.75237635  0.49458459  0.51111631  1
  Ba2+  Ba30  1  0.74922504  0.74908356  0.02339806  1
  Ba2+  Ba31  1  0.75092266  0.73920045  0.51097302  1
  Y3+  Y32  1  -0.00140293  0.00265000  0.26025097  1
  Y3+  Y33  1  -0.00189121  0.00366218  0.75581376  1
  Y3+  Y34  1  -0.00264719  0.24871169  0.26094057  1
  Y3+  Y35  1  -0.00316651  0.24913307  0.75434667  1
  Y3+  Y36  1  -0.00204400  0.50000306  0.26121895  1
  Y3+  Y37  1  -0.00344877  0.49728990  0.75277706  1
  Y3+  Y38  1  -0.00144959  0.74911756  0.26050933  1
  Y3+  Y39  1  -0.00161732  0.74890793  0.75314783  1
  Y3+  Y40  1  0.24889972  -0.00108131  0.26105511  1
  Y3+  Y41  1  0.25151702  -0.00017299  0.75491802  1
  Y3+  Y42  1  0.24897347  0.25076600  0.25703325  1
  Y3+  Y43  1  0.24768987  0.24847812  0.75548272  1
  Y3+  Y44  1  0.24916422  0.49870657  0.25591719  1
  Y3+  Y45  1  0.24976341  0.49933539  0.75488413  1
  Y3+  Y46  1  0.24956721  0.75206274  0.25944162  1
  Y3+  Y47  1  0.25297690  0.75147564  0.75594656  1
  Y3+  Y48  1  0.50209200  0.00051737  0.25991743  1
  Y3+  Y49  1  0.49872865  -0.00074367  0.75499613  1
  Y3+  Y50  1  0.50335810  0.25070730  0.25890379  1
  Y3+  Y51  1  0.50276796  0.24898799  0.75419414  1
  Y3+  Y52  1  0.50238643  0.49836540  0.25575708  1
  Y3+  Y53  1  0.50401697  0.50141858  0.75744069  1
  Y3+  Y54  1  0.50146165  0.75104212  0.25641752  1
  Y3+  Y55  1  0.49930536  0.74951079  0.75774478  1
  Y3+  Y56  1  0.75011394  0.00406186  0.25993672  1
  Y3+  Y57  1  0.75128367  0.00420428  0.75462428  1
  Y3+  Y58  1  0.75023814  0.24859786  0.26269758  1
  Y3+  Y59  1  0.75249861  0.24971740  0.75317179  1
  Y3+  Y60  1  0.75056843  0.49979136  0.26186268  1
  Y3+  Y61  1  0.75049913  0.49943698  0.75354806  1
  Y3+  Y62  1  0.75012563  0.74858407  0.25856760  1
  Y3+  Y63  1  0.74888612  0.74611166  0.75455815  1
  Fe3+  Fe64  1  0.62429581  0.87511731  0.38066000  1
  Fe3+  Fe65  1  0.37590383  0.37491255  0.37919739  1
  Fe3+  Fe66  1  0.12513894  0.37439144  0.37798597  1
  Fe3+  Fe67  1  0.87362559  0.87411940  0.87539954  1
  Fe3+  Fe68  1  0.87392786  0.87578371  0.37963933  1
  Fe3+  Fe69  1  0.62386679  0.62464615  0.37688514  1
  Fe3+  Fe70  1  0.37476259  0.62392997  0.87879634  1
  Fe3+  Fe71  1  0.12278841  0.87418779  0.88016930  1
  Fe3+  Fe72  1  0.12334197  0.62432241  0.87601110  1
  Fe3+  Fe73  1  0.62597741  0.12438881  0.87661968  1
  Fe3+  Fe74  1  0.87547778  0.62519520  0.87432266  1
  Fe3+  Fe75  1  0.37570311  0.12571187  0.87948054  1
  Fe3+  Fe76  1  0.37491731  0.12621963  0.37562777  1
  Fe3+  Fe77  1  0.12330316  0.37592276  0.87480930  1
  Fe3+  Fe78  1  0.62702719  0.37458675  0.87916885  1
  Fe3+  Fe79  1  0.37518411  0.37508350  0.87668191  1
  Fe3+  Fe80  1  0.12408942  0.12500839  0.88053016  1
  Fe3+  Fe81  1  0.62783489  0.87518198  0.87391081  1
  Fe3+  Fe82  1  0.37578438  0.62434604  0.37634126  1
  Fe3+  Fe83  1  0.12598234  0.62448128  0.37922551  1
  Fe3+  Fe84  1  0.87388797  0.37465453  0.14033561  1
  Fe3+  Fe85  1  0.12423424  0.87593927  0.63683865  1
  Fe3+  Fe86  1  0.12412356  0.12516490  0.13430694  1
  Fe3+  Fe87  1  0.37554131  0.87514945  0.13718761  1
  Fe3+  Fe88  1  0.12518232  0.62509360  0.63346361  1
  Fe3+  Fe89  1  0.37513446  0.12471662  0.13469280  1
  Fe3+  Fe90  1  0.37588269  0.37372390  0.63466536  1
  Fe3+  Fe91  1  0.62553898  0.87527023  0.63341180  1
  Fe3+  Fe92  1  0.37529836  0.62540720  0.13492995  1
  Fe3+  Fe93  1  0.62742158  0.37480476  0.13557593  1
  Fe3+  Fe94  1  0.87478339  0.87588378  0.63230746  1
  Fe3+  Fe95  1  0.12403487  0.87565407  0.13604265  1
  Cu2+  Cu96  1  0.87450974  0.62435048  0.37379591  1
  Cu2+  Cu97  1  0.62482305  0.37558841  0.37363656  1
  Cu2+  Cu98  1  0.87504639  0.12594327  0.37292548  1
  Cu2+  Cu99  1  0.87463262  0.37466344  0.37175456  1
  Cu2+  Cu100  1  0.37564044  0.87499495  0.86553512  1
  Cu2+  Cu101  1  0.87465651  0.37537532  0.86236439  1
  Cu2+  Cu102  1  0.12433874  0.87527960  0.36586063  1
  Cu2+  Cu103  1  0.62661090  0.62533156  0.87226339  1
  Cu2+  Cu104  1  0.37646231  0.87525987  0.37237460  1
  Cu2+  Cu105  1  0.62399732  0.12538022  0.37209348  1
  Cu2+  Cu106  1  0.12602560  0.12641615  0.37090619  1
  Cu2+  Cu107  1  0.87447203  0.12429732  0.87140813  1
  Cu2+  Cu108  1  0.87460297  0.62405401  0.15785981  1
  Cu2+  Cu109  1  0.12500863  0.62573965  0.15380499  1
  Cu2+  Cu110  1  0.12280641  0.37413723  0.15435004  1
  Cu2+  Cu111  1  0.37486856  0.87575968  0.64183948  1
  Cu2+  Cu112  1  0.62536909  0.12473203  0.64218817  1
  Cu2+  Cu113  1  0.62509973  0.12583211  0.15175161  1
  Cu2+  Cu114  1  0.37450923  0.62407107  0.65163363  1
  Cu2+  Cu115  1  0.87434699  0.37386559  0.64280652  1
  Cu2+  Cu116  1  0.87547927  0.62461290  0.63940828  1
  Cu2+  Cu117  1  0.12469238  0.37443506  0.64730638  1
  Cu2+  Cu118  1  0.37584977  0.37490883  0.15018825  1
  Cu2+  Cu119  1  0.87508733  0.12462043  0.64164493  1
  Cu2+  Cu120  1  0.12441695  0.12403038  0.64453058  1
  Cu2+  Cu121  1  0.87518860  0.12627232  0.14669578  1
  Cu2+  Cu122  1  0.62568252  0.37435158  0.64312485  1
  Cu2+  Cu123  1  0.37493721  0.12560461  0.65171645  1
  Cu2+  Cu124  1  0.62481629  0.62527060  0.65025782  1
  Cu2+  Cu125  1  0.87498719  0.87543806  0.15728972  1
  Cu2+  Cu126  1  0.62543154  0.62438461  0.14227869  1
  Cu2+  Cu127  1  0.62557207  0.87557277  0.15628332  1
  O2-  O128  1  0.12401073  0.12511468  0.00716198  1
  O2-  O129  1  0.12688881  0.12477264  0.50684738  1
  O2-  O130  1  0.12411742  0.37779463  -0.00485174  1
  O2-  O131  1  0.12786877  0.37486361  0.49805008  1
  O2-  O132  1  0.12270585  0.62442378  -0.00401959  1
  O2-  O133  1  0.12708222  0.62509914  0.50584919  1
  O2-  O134  1  0.12305885  0.87351720  0.00781426  1
  O2-  O135  1  0.12563244  0.87569569  0.51648936  1
  O2-  O136  1  0.37560013  0.12514500  0.00655044  1
  O2-  O137  1  0.37394704  0.12705427  0.49637452  1
  O2-  O138  1  0.37381435  0.37618141  -0.00341979  1
  O2-  O139  1  0.37564850  0.37424507  0.50582876  1
  O2-  O140  1  0.37385214  0.62449674  0.00646317  1
  O2-  O141  1  0.37503134  0.62369585  0.49636551  1
  O2-  O142  1  0.37443914  0.87427089  0.01695406  1
  O2-  O143  1  0.37542959  0.87585291  0.50794518  1
  O2-  O144  1  0.62524710  0.12313554  -0.00294109  1
  O2-  O145  1  0.62306982  0.12431235  0.50694444  1
  O2-  O146  1  0.62711284  0.37456406  0.00715641  1
  O2-  O147  1  0.62393265  0.37578844  0.50754666  1
  O2-  O148  1  0.62604914  0.62570299  0.00679251  1
  O2-  O149  1  0.62137009  0.62562971  0.49738034  1
  O2-  O150  1  0.62944278  0.87543025  -0.00533915  1
  O2-  O151  1  0.62290559  0.87438693  0.50651897  1
  O2-  O152  1  0.87503663  0.12435635  0.00751590  1
  O2-  O153  1  0.87604279  0.12555256  0.50699616  1
  O2-  O154  1  0.87380163  0.37629177  0.01942288  1
  O2-  O155  1  0.87437970  0.37370210  0.50811008  1
  O2-  O156  1  0.87651982  0.62630442  -0.00501122  1
  O2-  O157  1  0.87641450  0.62523388  0.50630704  1
  O2-  O158  1  0.87267079  0.87232902  -0.00412159  1
  O2-  O159  1  0.87575274  0.87596369  0.50607732  1
  O2-  O160  1  0.12551371  0.00000469  0.16209984  1
  O2-  O161  1  0.12510277  -0.00183843  0.67100542  1
  O2-  O162  1  0.12594566  0.24797969  0.16116731  1
  O2-  O163  1  0.12548614  0.25055227  0.66679619  1
  O2-  O164  1  0.12522108  0.50005642  0.16494625  1
  O2-  O165  1  0.12663659  0.50123674  0.65934728  1
  O2-  O166  1  0.12487570  0.75252889  0.16545580  1
  O2-  O167  1  0.12535720  0.74928486  0.66460520  1
  O2-  O168  1  0.37468026  0.00096667  0.16417925  1
  O2-  O169  1  0.37464940  0.00210067  0.66668437  1
  O2-  O170  1  0.37428707  0.24822602  0.16157813  1
  O2-  O171  1  0.37479685  0.25134949  0.66484589  1
  O2-  O172  1  0.37457579  0.50133511  0.16290290  1
  O2-  O173  1  0.37417247  0.49793075  0.66168610  1
  O2-  O174  1  0.37440291  0.74975362  0.16537351  1
  O2-  O175  1  0.37475782  0.74798955  0.66629116  1
  O2-  O176  1  0.62501569  0.00052346  0.16652317  1
  O2-  O177  1  0.62516916  -0.00288785  0.66260571  1
  O2-  O178  1  0.62450354  0.25185019  0.16338300  1
  O2-  O179  1  0.62431504  0.24926111  0.66719027  1
  O2-  O180  1  0.62460572  0.49688341  0.16322638  1
  O2-  O181  1  0.62434094  0.50174223  0.66622583  1
  O2-  O182  1  0.62505152  0.75127347  0.16628198  1
  O2-  O183  1  0.62424380  0.75105573  0.66116440  1
  O2-  O184  1  0.87490942  0.00018747  0.16678770  1
  O2-  O185  1  0.87482624  -0.00294935  0.66398662  1
  O2-  O186  1  0.87503698  0.25124492  0.16751258  1
  O2-  O187  1  0.87539372  0.24930584  0.66580938  1
  O2-  O188  1  0.87532811  0.49965450  0.16807629  1
  O2-  O189  1  0.87484498  0.49971161  0.66333472  1
  O2-  O190  1  0.87557951  0.74938180  0.16698114  1
  O2-  O191  1  0.87595290  0.75291590  0.65993007  1
  O2-  O192  1  0.00316224  0.12450807  0.16552946  1
  O2-  O193  1  -0.00010777  0.12432043  0.66633479  1
  O2-  O194  1  -0.00119070  0.37558863  0.16813111  1
  O2-  O195  1  0.00113896  0.37459975  0.66360198  1
  O2-  O196  1  0.00006441  0.62554448  0.16742708  1
  O2-  O197  1  0.00367063  0.62498391  0.66084319  1
  O2-  O198  1  0.00132828  0.87537512  0.16507972  1
  O2-  O199  1  -0.00113474  0.87506186  0.66516744  1
  O2-  O200  1  0.24973196  0.12476699  0.15900877  1
  O2-  O201  1  0.25081818  0.12487112  0.66834669  1
  O2-  O202  1  0.24881964  0.37527924  0.16258336  1
  O2-  O203  1  0.25191527  0.37430967  0.66211900  1
  O2-  O204  1  0.25184598  0.62538887  0.16234983  1
  O2-  O205  1  0.24779473  0.62509518  0.66479818  1
  O2-  O206  1  0.24898647  0.87506741  0.16460497  1
  O2-  O207  1  0.24812000  0.87478591  0.66945845  1
  O2-  O208  1  0.49831922  0.12526161  0.16096316  1
  O2-  O209  1  0.49882568  0.12463984  0.66619247  1
  O2-  O210  1  0.50249364  0.37447431  0.16195990  1
  O2-  O211  1  0.49752944  0.37539826  0.66553176  1
  O2-  O212  1  0.49708680  0.62508803  0.16026713  1
  O2-  O213  1  0.49943434  0.62468474  0.66745651  1
  O2-  O214  1  0.49970770  0.87567616  0.16457890  1
  O2-  O215  1  0.50287159  0.87456489  0.66462456  1
  O2-  O216  1  0.74873761  0.12529575  0.16749861  1
  O2-  O217  1  0.75034676  0.12489284  0.66342017  1
  O2-  O218  1  0.74919792  0.37499717  0.16918168  1
  O2-  O219  1  0.74964375  0.37489897  0.66648336  1
  O2-  O220  1  0.75087108  0.62529370  0.16703358  1
  O2-  O221  1  0.74914737  0.62506760  0.66206967  1
  O2-  O222  1  0.75023035  0.87506276  0.16858029  1
  O2-  O223  1  0.75010053  0.87390220  0.65687923  1
  O2-  O224  1  0.12525259  -0.00065770  0.34685947  1
  O2-  O225  1  0.12550266  -0.00043775  0.85486378  1
  O2-  O226  1  0.12626722  0.25256153  0.34409858  1
  O2-  O227  1  0.12554403  0.24888492  0.85030216  1
  O2-  O228  1  0.12636100  0.50096625  0.34870462  1
  O2-  O229  1  0.12489764  0.50023289  0.84097154  1
  O2-  O230  1  0.12585836  0.74810110  0.35110162  1
  O2-  O231  1  0.12579968  0.75058966  0.84717394  1
  O2-  O232  1  0.37479683  0.00167823  0.34681297  1
  O2-  O233  1  0.37477487  0.00237170  0.85120844  1
  O2-  O234  1  0.37477241  0.25227731  0.34542420  1
  O2-  O235  1  0.37445464  0.24905511  0.84824933  1
  O2-  O236  1  0.37458512  0.49883449  0.34663272  1
  O2-  O237  1  0.37495794  0.50037194  0.84526025  1
  O2-  O238  1  0.37420153  0.74807340  0.34736424  1
  O2-  O239  1  0.37397583  0.74785025  0.85089483  1
  O2-  O240  1  0.62460334  -0.00239714  0.35102853  1
  O2-  O241  1  0.62427748  0.00027770  0.84324978  1
  O2-  O242  1  0.62393026  0.25030168  0.34811366  1
  O2-  O243  1  0.62453348  0.25059117  0.85001443  1
  O2-  O244  1  0.62365968  0.50205174  0.34563339  1
  O2-  O245  1  0.62473789  0.49685293  0.85072869  1
  O2-  O246  1  0.62450735  0.75082849  0.34882178  1
  O2-  O247  1  0.62499903  0.75167418  0.84389037  1
  O2-  O248  1  0.87500334  -0.00213608  0.35057096  1
  O2-  O249  1  0.87570965  -0.00199200  0.84572645  1
  O2-  O250  1  0.87503946  0.25061008  0.34955359  1
  O2-  O251  1  0.87525300  0.25113895  0.85055557  1
  O2-  O252  1  0.87501751  0.49941999  0.35049901  1
  O2-  O253  1  0.87570571  0.50039140  0.84634669  1
  O2-  O254  1  0.87525623  0.75284303  0.35123873  1
  O2-  O255  1  0.87540797  0.74977412  0.84018335  1
  O2-  O256  1  0.00022351  0.12508533  0.34911627  1
  O2-  O257  1  0.00281646  0.12456289  0.85023284  1
  O2-  O258  1  0.00127472  0.37556104  0.35007868  1
  O2-  O259  1  -0.00004100  0.37444051  0.84627095  1
  O2-  O260  1  0.00336690  0.62546188  0.35189824  1
  O2-  O261  1  0.00011060  0.62554291  0.84091041  1
  O2-  O262  1  -0.00184655  0.87478751  0.35060097  1
  O2-  O263  1  0.00082581  0.87443546  0.84686895  1
  O2-  O264  1  0.25221023  0.12561368  0.34220985  1
  O2-  O265  1  0.24977029  0.12450919  0.85301579  1
  O2-  O266  1  0.25180977  0.37578851  0.34655696  1
  O2-  O267  1  0.24971569  0.37503380  0.84374860  1
  O2-  O268  1  0.24922172  0.62467336  0.34617761  1
  O2-  O269  1  0.25041939  0.62450141  0.84825512  1
  O2-  O270  1  0.24888880  0.87499072  0.34800714  1
  O2-  O271  1  0.24804559  0.87486372  0.85388441  1
  O2-  O272  1  0.49786077  0.12592037  0.34429584  1
  O2-  O273  1  0.49918592  0.12547478  0.84894897  1
  O2-  O274  1  0.49683119  0.37547281  0.34659797  1
  O2-  O275  1  0.50109922  0.37456654  0.84912322  1
  O2-  O276  1  0.49953578  0.62495234  0.34121824  1
  O2-  O277  1  0.49739932  0.62472114  0.85230612  1
  O2-  O278  1  0.50301737  0.87459751  0.34711388  1
  O2-  O279  1  0.50087315  0.87484828  0.84866523  1
  O2-  O280  1  0.74967790  0.12515872  0.35155588  1
  O2-  O281  1  0.74832859  0.12520113  0.84538985  1
  O2-  O282  1  0.75042746  0.37539774  0.35145597  1
  O2-  O283  1  0.74923559  0.37491276  0.85058871  1
  O2-  O284  1  0.74764695  0.62565609  0.34979248  1
  O2-  O285  1  0.75248000  0.62446259  0.84456536  1
  O2-  O286  1  0.74925564  0.87483934  0.35341354  1
  O2-  O287  1  0.75063161  0.87500562  0.83792321  1
