# generated using pymatgen
data_BaYFeCuO5
_symmetry_space_group_name_H-M   'P 1'
_cell_length_a   15.66151993
_cell_length_b   15.66049289
_cell_length_c   15.45916005
_cell_angle_alpha   90.00218639
_cell_angle_beta   90.00046580
_cell_angle_gamma   90.00069261
_symmetry_Int_Tables_number   1
_chemical_formula_structural   BaYFeCuO5
_chemical_formula_sum   'Ba32 Y32 Fe32 Cu32 O160'
_cell_volume   3791.62368341
_cell_formula_units_Z   32
loop_
 _symmetry_equiv_pos_site_id
 _symmetry_equiv_pos_as_xyz
  1  'x, y, z'
loop_
 _atom_type_symbol
 _atom_type_oxidation_number
  Ba2+  2.0
  Y3+  3.0
  Fe3+  3.0
  Cu2+  2.0
  O2-  -2.0
loop_
 _atom_site_type_symbol
 _atom_site_label
 _atom_site_symmetry_multiplicity
 _atom_site_fract_x
 _atom_site_fract_y
 _atom_site_fract_z
 _atom_site_occupancy
  Ba2+  Ba0  1  -0.00424974  -0.00451245  0.02218037  1
  Ba2+  Ba1  1  -0.00994695  -0.00185833  0.50573444  1
  Ba2+  Ba2  1  -0.00673025  0.25736887  0.01658432  1
  Ba2+  Ba3  1  -0.01130574  0.25288836  0.51099850  1
  Ba2+  Ba4  1  -0.00962196  0.49771535  0.01188088  1
  Ba2+  Ba5  1  -0.00455422  0.50428384  0.51227517  1
  Ba2+  Ba6  1  -0.00738214  0.75034050  0.01714423  1
  Ba2+  Ba7  1  -0.00190963  0.74343572  0.50687852  1
  Ba2+  Ba8  1  0.25155892  -0.01063549  0.01120450  1
  Ba2+  Ba9  1  0.25980341  -0.00300116  0.50652202  1
  Ba2+  Ba10  1  0.24929529  0.25913231  0.01832439  1
  Ba2+  Ba11  1  0.25447509  0.24671994  0.51163183  1
  Ba2+  Ba12  1  0.25474314  0.49752377  0.02422777  1
  Ba2+  Ba13  1  0.24969816  0.51184892  0.50672587  1
  Ba2+  Ba14  1  0.25633352  0.75395101  0.01708901  1
  Ba2+  Ba15  1  0.25514610  0.74295421  0.50214868  1
  Ba2+  Ba16  1  0.49877784  -0.01130383  0.01086946  1
  Ba2+  Ba17  1  0.50540648  -0.00077889  0.51299251  1
  Ba2+  Ba18  1  0.50112680  0.26010486  0.00626544  1
  Ba2+  Ba19  1  0.50496755  0.23964157  0.51197165  1
  Ba2+  Ba20  1  0.50416003  0.50521398  0.01207948  1
  Ba2+  Ba21  1  0.50142319  0.51224217  0.50720095  1
  Ba2+  Ba22  1  0.50146520  0.74843881  0.01706053  1
  Ba2+  Ba23  1  0.50119841  0.74691081  0.50658185  1
  Ba2+  Ba24  1  0.75403621  -0.00529868  0.02130918  1
  Ba2+  Ba25  1  0.74542729  0.00139088  0.51190245  1
  Ba2+  Ba26  1  0.75597971  0.25792123  0.00662110  1
  Ba2+  Ba27  1  0.75255583  0.24616400  0.51264605  1
  Ba2+  Ba28  1  0.75119711  0.50323873  0.00033897  1
  Ba2+  Ba29  1  0.75351346  0.50412646  0.51264334  1
  Ba2+  Ba30  1  0.74866631  0.74422665  0.01589436  1
  Ba2+  Ba31  1  0.74589130  0.74805755  0.51201216  1
  Y3+  Y32  1  -0.00214933  -0.00217724  0.25722743  1
  Y3+  Y33  1  -0.00058649  0.00016557  0.75480576  1
  Y3+  Y34  1  -0.00367408  0.25334731  0.25682577  1
  Y3+  Y35  1  -0.00362459  0.25241756  0.75617130  1
  Y3+  Y36  1  -0.00242883  0.49955013  0.25815973  1
  Y3+  Y37  1  -0.00378116  0.50135969  0.75699641  1
  Y3+  Y38  1  -0.00121308  0.74898621  0.25760966  1
  Y3+  Y39  1  -0.00064045  0.74560110  0.75669917  1
  Y3+  Y40  1  0.25106943  -0.00364098  0.25569135  1
  Y3+  Y41  1  0.25202159  -0.00152446  0.75860932  1
  Y3+  Y42  1  0.24941549  0.25225060  0.25746145  1
  Y3+  Y43  1  0.25009614  0.24894729  0.75579701  1
  Y3+  Y44  1  0.25050399  0.50255452  0.26102473  1
  Y3+  Y45  1  0.24923153  0.50418642  0.75241631  1
  Y3+  Y46  1  0.25258211  0.74895703  0.25916903  1
  Y3+  Y47  1  0.25119429  0.74839042  0.75576258  1
  Y3+  Y48  1  0.50118881  -0.00310605  0.25695660  1
  Y3+  Y49  1  0.50096034  -0.00080490  0.75726947  1
  Y3+  Y50  1  0.50254578  0.25016863  0.25913585  1
  Y3+  Y51  1  0.50207695  0.24887584  0.75628255  1
  Y3+  Y52  1  0.50079405  0.50454423  0.25892356  1
  Y3+  Y53  1  0.50317758  0.50399705  0.75697254  1
  Y3+  Y54  1  0.49992542  0.74821481  0.25749098  1
  Y3+  Y55  1  0.50180893  0.74799077  0.75765902  1
  Y3+  Y56  1  0.74988865  -0.00130838  0.25832897  1
  Y3+  Y57  1  0.74800854  0.00111583  0.75409277  1
  Y3+  Y58  1  0.75168499  0.25128515  0.25944126  1
  Y3+  Y59  1  0.75124352  0.25222573  0.75639131  1
  Y3+  Y60  1  0.75094651  0.50182921  0.25688232  1
  Y3+  Y61  1  0.75100838  0.50136860  0.75965475  1
  Y3+  Y62  1  0.74880024  0.74832923  0.25559013  1
  Y3+  Y63  1  0.74810840  0.74520132  0.75863681  1
  Fe3+  Fe64  1  0.37470495  0.12523946  0.88050186  1
  Fe3+  Fe65  1  0.62546081  0.87424224  0.37548877  1
  Fe3+  Fe66  1  0.87410139  0.62566753  0.37544480  1
  Fe3+  Fe67  1  0.12387736  0.87387038  0.87690723  1
  Fe3+  Fe68  1  0.12403530  0.37527260  0.38026064  1
  Fe3+  Fe69  1  0.87450846  0.87470293  0.87472095  1
  Fe3+  Fe70  1  0.37632834  0.37519091  0.38035134  1
  Fe3+  Fe71  1  0.12397288  0.12551742  0.88058949  1
  Fe3+  Fe72  1  0.87539395  0.12415916  0.87736425  1
  Fe3+  Fe73  1  0.37428887  0.37711312  0.87317217  1
  Fe3+  Fe74  1  0.12538974  0.37641926  0.87587860  1
  Fe3+  Fe75  1  0.12501819  0.87442807  0.37911345  1
  Fe3+  Fe76  1  0.87388876  0.12435384  0.37487196  1
  Fe3+  Fe77  1  0.62610777  0.37562830  0.38164123  1
  Fe3+  Fe78  1  0.12470520  0.12483268  0.37833072  1
  Fe3+  Fe79  1  0.37451267  0.62535413  0.87758357  1
  Fe3+  Fe80  1  0.62592415  0.12516001  0.88099745  1
  Fe3+  Fe81  1  0.62593944  0.87423304  0.87706417  1
  Fe3+  Fe82  1  0.37616212  0.12401423  0.37453065  1
  Fe3+  Fe83  1  0.12514850  0.62442388  0.88142851  1
  Fe3+  Fe84  1  0.62527015  0.37594383  0.63577983  1
  Fe3+  Fe85  1  0.12504926  0.87391951  0.63295208  1
  Fe3+  Fe86  1  0.12453374  0.62473589  0.13626455  1
  Fe3+  Fe87  1  0.12441915  0.12384747  0.63261033  1
  Fe3+  Fe88  1  0.37587030  0.12568883  0.13392807  1
  Fe3+  Fe89  1  0.37617554  0.37594668  0.63307325  1
  Fe3+  Fe90  1  0.12429817  0.12541059  0.13510328  1
  Fe3+  Fe91  1  0.12457043  0.37573904  0.63318141  1
  Fe3+  Fe92  1  0.37630062  0.87361022  0.63815715  1
  Fe3+  Fe93  1  0.62582270  0.12559493  0.13418417  1
  Fe3+  Fe94  1  0.62589135  0.37625131  0.13981634  1
  Fe3+  Fe95  1  0.87360523  0.87353315  0.63584411  1
  Cu2+  Cu96  1  0.62454382  0.37518563  0.86202744  1
  Cu2+  Cu97  1  0.62533373  0.12442837  0.37081587  1
  Cu2+  Cu98  1  0.62609280  0.62532953  0.37210346  1
  Cu2+  Cu99  1  0.37589475  0.62539146  0.37076263  1
  Cu2+  Cu100  1  0.87412674  0.37584411  0.37432306  1
  Cu2+  Cu101  1  0.37547063  0.87374679  0.87187251  1
  Cu2+  Cu102  1  0.87539726  0.37539756  0.87005026  1
  Cu2+  Cu103  1  0.87409412  0.87403721  0.36608974  1
  Cu2+  Cu104  1  0.62472381  0.62528359  0.87320756  1
  Cu2+  Cu105  1  0.12377583  0.62507103  0.37136589  1
  Cu2+  Cu106  1  0.87552659  0.62580095  0.87316650  1
  Cu2+  Cu107  1  0.37599739  0.87488061  0.36391067  1
  Cu2+  Cu108  1  0.37490774  0.12424576  0.65304879  1
  Cu2+  Cu109  1  0.37513731  0.62476102  0.15273721  1
  Cu2+  Cu110  1  0.37677154  0.37518692  0.15723775  1
  Cu2+  Cu111  1  0.62524303  0.87462736  0.15066671  1
  Cu2+  Cu112  1  0.62534142  0.62439300  0.14344577  1
  Cu2+  Cu113  1  0.62501594  0.87390690  0.65166151  1
  Cu2+  Cu114  1  0.62559447  0.12511154  0.64332302  1
  Cu2+  Cu115  1  0.87301213  0.37641141  0.14560746  1
  Cu2+  Cu116  1  0.87406952  0.37618222  0.64123869  1
  Cu2+  Cu117  1  0.87428949  0.12569417  0.15025782  1
  Cu2+  Cu118  1  0.12473899  0.87386485  0.15293482  1
  Cu2+  Cu119  1  0.37582042  0.87456197  0.14436948  1
  Cu2+  Cu120  1  0.87426455  0.87390886  0.15540266  1
  Cu2+  Cu121  1  0.87510856  0.12432099  0.65140648  1
  Cu2+  Cu122  1  0.87439601  0.62571485  0.65190192  1
  Cu2+  Cu123  1  0.37580676  0.62577950  0.64323379  1
  Cu2+  Cu124  1  0.87436654  0.62399601  0.14311162  1
  Cu2+  Cu125  1  0.62531357  0.62497096  0.64202083  1
  Cu2+  Cu126  1  0.12431797  0.37629171  0.15411601  1
  Cu2+  Cu127  1  0.12453651  0.62606603  0.63986839  1
  O2-  O128  1  0.12428436  0.12571244  0.00596227  1
  O2-  O129  1  0.12511465  0.12422967  0.50506430  1
  O2-  O130  1  0.12686815  0.37543690  -0.00398768  1
  O2-  O131  1  0.12457151  0.37354279  0.50633098  1
  O2-  O132  1  0.12619549  0.62395113  0.00729907  1
  O2-  O133  1  0.12378927  0.62604392  0.50639088  1
  O2-  O134  1  0.12306209  0.87525305  -0.00288913  1
  O2-  O135  1  0.12574413  0.87571369  0.50622539  1
  O2-  O136  1  0.37359288  0.12690375  0.00685374  1
  O2-  O137  1  0.37522056  0.12413458  0.49557344  1
  O2-  O138  1  0.37291911  0.37554373  -0.00633153  1
  O2-  O139  1  0.37623044  0.37375679  0.50630490  1
  O2-  O140  1  0.37310939  0.62327723  -0.00190378  1
  O2-  O141  1  0.37564735  0.62570901  0.50617012  1
  O2-  O142  1  0.37442358  0.87471417  0.00799111  1
  O2-  O143  1  0.37638962  0.87544077  0.51732629  1
  O2-  O144  1  0.62556042  0.12571540  0.00704819  1
  O2-  O145  1  0.62532346  0.12406868  0.50713910  1
  O2-  O146  1  0.62478026  0.37543651  0.01888204  1
  O2-  O147  1  0.62472303  0.37429382  0.50874804  1
  O2-  O148  1  0.62393684  0.62476471  0.00812415  1
  O2-  O149  1  0.62634596  0.62559212  0.50776898  1
  O2-  O150  1  0.62695768  0.87532274  -0.00226905  1
  O2-  O151  1  0.62475833  0.87563127  0.49649675  1
  O2-  O152  1  0.87702162  0.12371055  -0.00253201  1
  O2-  O153  1  0.87437154  0.12361216  0.49618068  1
  O2-  O154  1  0.87441020  0.37542109  0.00659381  1
  O2-  O155  1  0.87437896  0.37522652  0.50807457  1
  O2-  O156  1  0.87586813  0.62530012  0.00741304  1
  O2-  O157  1  0.87422307  0.62641172  0.49705683  1
  O2-  O158  1  0.87611168  0.87633603  -0.00484667  1
  O2-  O159  1  0.87399147  0.87401691  0.51498625  1
  O2-  O160  1  0.12493509  0.00172508  0.16421962  1
  O2-  O161  1  0.12502768  -0.00019131  0.66206098  1
  O2-  O162  1  0.12534347  0.24949307  0.16483463  1
  O2-  O163  1  0.12592076  0.24934705  0.66095345  1
  O2-  O164  1  0.12610702  0.50122985  0.16575594  1
  O2-  O165  1  0.12561798  0.49722923  0.66209535  1
  O2-  O166  1  0.12524819  0.74810779  0.16359001  1
  O2-  O167  1  0.12439910  0.75354660  0.66511258  1
  O2-  O168  1  0.37424854  0.00417949  0.16274687  1
  O2-  O169  1  0.37467132  -0.00108613  0.66838092  1
  O2-  O170  1  0.37417395  0.24794191  0.16449584  1
  O2-  O171  1  0.37407801  0.25126893  0.66244509  1
  O2-  O172  1  0.37506688  0.49969973  0.16728968  1
  O2-  O173  1  0.37434213  0.49715579  0.66091401  1
  O2-  O174  1  0.37451400  0.74870184  0.16540938  1
  O2-  O175  1  0.37491965  0.75166122  0.66739804  1
  O2-  O176  1  0.62449843  0.00199460  0.16169674  1
  O2-  O177  1  0.62447618  -0.00119497  0.66568388  1
  O2-  O178  1  0.62502656  0.24856947  0.16743338  1
  O2-  O179  1  0.62457840  0.25290228  0.66547813  1
  O2-  O180  1  0.62367973  0.49880816  0.17028915  1
  O2-  O181  1  0.62452330  0.49755178  0.66444623  1
  O2-  O182  1  0.62472878  0.75092543  0.16411604  1
  O2-  O183  1  0.62538598  0.75034133  0.66534661  1
  O2-  O184  1  0.87604972  -0.00042552  0.16421166  1
  O2-  O185  1  0.87546935  -0.00098480  0.66349802  1
  O2-  O186  1  0.87474734  0.24996878  0.16601034  1
  O2-  O187  1  0.87521021  0.24822294  0.66447787  1
  O2-  O188  1  0.87518956  0.49991904  0.16791324  1
  O2-  O189  1  0.87518021  0.50273939  0.66484924  1
  O2-  O190  1  0.87560503  0.75056293  0.16438340  1
  O2-  O191  1  0.87545259  0.74999986  0.66558439  1
  O2-  O192  1  0.00153697  0.12570387  0.16338473  1
  O2-  O193  1  0.00233085  0.12487710  0.66133354  1
  O2-  O194  1  -0.00020131  0.37498792  0.16616625  1
  O2-  O195  1  0.00254206  0.37429025  0.66180897  1
  O2-  O196  1  0.00250700  0.62452286  0.16371100  1
  O2-  O197  1  -0.00209674  0.62494904  0.66489614  1
  O2-  O198  1  -0.00034339  0.87527657  0.16645799  1
  O2-  O199  1  0.00095182  0.87613358  0.66058506  1
  O2-  O200  1  0.24940500  0.12624342  0.16189412  1
  O2-  O201  1  0.24736264  0.12434229  0.66344384  1
  O2-  O202  1  0.25122391  0.37444081  0.16755747  1
  O2-  O203  1  0.25011619  0.37321756  0.65766633  1
  O2-  O204  1  0.24873906  0.62441830  0.16514105  1
  O2-  O205  1  0.25056834  0.62582196  0.66405314  1
  O2-  O206  1  0.24915407  0.87540052  0.16737133  1
  O2-  O207  1  0.24891060  0.87626638  0.66409902  1
  O2-  O208  1  0.50038419  0.12617522  0.15974599  1
  O2-  O209  1  0.49866382  0.12522627  0.66863396  1
  O2-  O210  1  0.50113636  0.37342240  0.16920610  1
  O2-  O211  1  0.49958759  0.37363830  0.66241742  1
  O2-  O212  1  0.49866382  0.62471486  0.16563035  1
  O2-  O213  1  0.49989522  0.62487788  0.66566912  1
  O2-  O214  1  0.50134267  0.87575259  0.16435415  1
  O2-  O215  1  0.50058814  0.87565843  0.66620051  1
  O2-  O216  1  0.74835412  0.12480914  0.16154573  1
  O2-  O217  1  0.75153564  0.12509523  0.66626869  1
  O2-  O218  1  0.74800498  0.37445270  0.17006121  1
  O2-  O219  1  0.74761702  0.37503674  0.66449055  1
  O2-  O220  1  0.74994992  0.62473227  0.16515475  1
  O2-  O221  1  0.75168413  0.62469297  0.66582572  1
  O2-  O222  1  0.74999910  0.87591442  0.16316149  1
  O2-  O223  1  0.74966579  0.87551086  0.66309548  1
  O2-  O224  1  0.12590406  0.00029592  0.34998377  1
  O2-  O225  1  0.12521242  0.00209286  0.84659257  1
  O2-  O226  1  0.12544781  0.24938317  0.35042135  1
  O2-  O227  1  0.12604454  0.24845006  0.84578684  1
  O2-  O228  1  0.12590220  0.49667726  0.35044501  1
  O2-  O229  1  0.12600193  0.50164760  0.84556439  1
  O2-  O230  1  0.12503533  0.75331818  0.34887874  1
  O2-  O231  1  0.12496408  0.74817452  0.84820530  1
  O2-  O232  1  0.37376543  0.00063385  0.34508890  1
  O2-  O233  1  0.37398871  0.00343598  0.85182959  1
  O2-  O234  1  0.37439572  0.25107692  0.34766019  1
  O2-  O235  1  0.37405643  0.24852488  0.84646991  1
  O2-  O236  1  0.37442080  0.49633511  0.35142493  1
  O2-  O237  1  0.37393478  0.50082408  0.84184117  1
  O2-  O238  1  0.37455687  0.75142642  0.34916992  1
  O2-  O239  1  0.37383532  0.74798222  0.84759195  1
  O2-  O240  1  0.62481101  -0.00189301  0.34489025  1
  O2-  O241  1  0.62478825  0.00226433  0.84838808  1
  O2-  O242  1  0.62414312  0.25261014  0.35084678  1
  O2-  O243  1  0.62400864  0.24803285  0.85015831  1
  O2-  O244  1  0.62425457  0.49759373  0.35291492  1
  O2-  O245  1  0.62446949  0.49873805  0.84865555  1
  O2-  O246  1  0.62487855  0.75100877  0.34710408  1
  O2-  O247  1  0.62512506  0.75133048  0.84755775  1
  O2-  O248  1  0.87574789  -0.00006245  0.34732450  1
  O2-  O249  1  0.87592704  0.00054855  0.84295215  1
  O2-  O250  1  0.87583378  0.24838459  0.34850960  1
  O2-  O251  1  0.87572440  0.24796976  0.84712903  1
  O2-  O252  1  0.87523712  0.50163591  0.34922753  1
  O2-  O253  1  0.87562272  0.49990312  0.84880264  1
  O2-  O254  1  0.87594296  0.74971478  0.34722604  1
  O2-  O255  1  0.87610558  0.75199154  0.84656471  1
  O2-  O256  1  0.00175793  0.12424168  0.34788423  1
  O2-  O257  1  0.00171814  0.12524791  0.84483025  1
  O2-  O258  1  0.00219874  0.37399868  0.35046491  1
  O2-  O259  1  0.00282058  0.37453567  0.84401628  1
  O2-  O260  1  -0.00201536  0.62522406  0.34612559  1
  O2-  O261  1  0.00351601  0.62453648  0.84889151  1
  O2-  O262  1  0.00173040  0.87645258  0.35147160  1
  O2-  O263  1  0.00050455  0.87586419  0.84092448  1
  O2-  O264  1  0.24858132  0.12552740  0.34702518  1
  O2-  O265  1  0.24927968  0.12533143  0.84923653  1
  O2-  O266  1  0.25012467  0.37297583  0.35324567  1
  O2-  O267  1  0.24969102  0.37427124  0.83867161  1
  O2-  O268  1  0.25008776  0.62506898  0.34922312  1
  O2-  O269  1  0.24831812  0.62491544  0.84582769  1
  O2-  O270  1  0.24914582  0.87631633  0.35205746  1
  O2-  O271  1  0.24739710  0.87597727  0.84588896  1
  O2-  O272  1  0.49831785  0.12520190  0.34357340  1
  O2-  O273  1  0.49996015  0.12601182  0.85371057  1
  O2-  O274  1  0.49995585  0.37373883  0.35291583  1
  O2-  O275  1  0.49850697  0.37379140  0.84568381  1
  O2-  O276  1  0.50047558  0.62509708  0.34964885  1
  O2-  O277  1  0.49829208  0.62422592  0.84816824  1
  O2-  O278  1  0.50016370  0.87553101  0.34731388  1
  O2-  O279  1  0.50207127  0.87648905  0.84802855  1
  O2-  O280  1  0.75142986  0.12481038  0.34495061  1
  O2-  O281  1  0.74904125  0.12569246  0.84953690  1
  O2-  O282  1  0.74755585  0.37435970  0.35187347  1
  O2-  O283  1  0.74853512  0.37422948  0.84887954  1
  O2-  O284  1  0.75159441  0.62543964  0.34667803  1
  O2-  O285  1  0.74986877  0.62448973  0.85006389  1
  O2-  O286  1  0.74948215  0.87500740  0.34642501  1
  O2-  O287  1  0.75005109  0.87642380  0.84366254  1
