# generated using pymatgen
data_BaYFeCuO5
_symmetry_space_group_name_H-M   'P 1'
_cell_length_a   15.67797272
_cell_length_b   15.68168697
_cell_length_c   15.50893757
_cell_angle_alpha   89.99665500
_cell_angle_beta   90.00653306
_cell_angle_gamma   89.99895487
_symmetry_Int_Tables_number   1
_chemical_formula_structural   BaYFeCuO5
_chemical_formula_sum   'Ba32 Y32 Fe32 Cu32 O160'
_cell_volume   3812.98177044
_cell_formula_units_Z   32
loop_
 _symmetry_equiv_pos_site_id
 _symmetry_equiv_pos_as_xyz
  1  'x, y, z'
loop_
 _atom_type_symbol
 _atom_type_oxidation_number
  Ba2+  2.0
  Y3+  3.0
  Fe3+  3.0
  Cu2+  2.0
  O2-  -2.0
loop_
 _atom_site_type_symbol
 _atom_site_label
 _atom_site_symmetry_multiplicity
 _atom_site_fract_x
 _atom_site_fract_y
 _atom_site_fract_z
 _atom_site_occupancy
  Ba2+  Ba0  1  -0.00312826  0.00662231  0.02660482  1
  Ba2+  Ba1  1  -0.00479248  0.00309708  0.50285200  1
  Ba2+  Ba2  1  -0.00219056  0.25093371  0.02428173  1
  Ba2+  Ba3  1  -0.00857010  0.25285249  0.50592674  1
  Ba2+  Ba4  1  -0.00837260  0.49436250  0.01119730  1
  Ba2+  Ba5  1  -0.00747550  0.50544495  0.51605755  1
  Ba2+  Ba6  1  -0.01050988  0.74757221  0.01299684  1
  Ba2+  Ba7  1  -0.00268666  0.73824554  0.51092127  1
  Ba2+  Ba8  1  0.25519715  0.00322606  0.00636747  1
  Ba2+  Ba9  1  0.26185703  -0.00108466  0.49527358  1
  Ba2+  Ba10  1  0.25104693  0.25200609  0.01284995  1
  Ba2+  Ba11  1  0.26121248  0.25270808  0.50614281  1
  Ba2+  Ba12  1  0.25746060  0.49572582  0.01009148  1
  Ba2+  Ba13  1  0.25657821  0.50498336  0.52445612  1
  Ba2+  Ba14  1  0.26000580  0.75040486  0.00722410  1
  Ba2+  Ba15  1  0.25705163  0.74337095  0.51323523  1
  Ba2+  Ba16  1  0.49461226  0.00228187  0.00631770  1
  Ba2+  Ba17  1  0.50144021  -0.00027511  0.50618084  1
  Ba2+  Ba18  1  0.50112652  0.25508160  0.00664069  1
  Ba2+  Ba19  1  0.50248552  0.25299431  0.51965933  1
  Ba2+  Ba20  1  0.49942645  0.49643045  0.00311760  1
  Ba2+  Ba21  1  0.50163297  0.50052076  0.53057066  1
  Ba2+  Ba22  1  0.49399343  0.74582974  0.00340804  1
  Ba2+  Ba23  1  0.50181126  0.74702951  0.52139059  1
  Ba2+  Ba24  1  0.75486865  0.00586759  0.02308666  1
  Ba2+  Ba25  1  0.74111834  0.00363291  0.51119841  1
  Ba2+  Ba26  1  0.75038110  0.25461780  0.01536962  1
  Ba2+  Ba27  1  0.74532602  0.25354425  0.51717480  1
  Ba2+  Ba28  1  0.75139549  0.49555555  0.00209995  1
  Ba2+  Ba29  1  0.74878428  0.50143583  0.52417289  1
  Ba2+  Ba30  1  0.75495003  0.74269722  0.00681447  1
  Ba2+  Ba31  1  0.74515086  0.74132081  0.51739440  1
  Y3+  Y32  1  -0.00101806  0.00121839  0.26131260  1
  Y3+  Y33  1  0.00076191  -0.00017015  0.75332900  1
  Y3+  Y34  1  -0.00147104  0.25151346  0.25890938  1
  Y3+  Y35  1  -0.00183861  0.25244025  0.75477566  1
  Y3+  Y36  1  -0.00313452  0.50018224  0.25526368  1
  Y3+  Y37  1  -0.00378371  0.50094049  0.75820494  1
  Y3+  Y38  1  -0.00299448  0.74695891  0.25771941  1
  Y3+  Y39  1  -0.00157745  0.74634703  0.75690285  1
  Y3+  Y40  1  0.25298319  -0.00079163  0.25629271  1
  Y3+  Y41  1  0.25183680  -0.00079193  0.76073411  1
  Y3+  Y42  1  0.25090547  0.25200706  0.25655316  1
  Y3+  Y43  1  0.25275735  0.25106154  0.75922606  1
  Y3+  Y44  1  0.25193413  0.49945723  0.25084858  1
  Y3+  Y45  1  0.25178496  0.50063263  0.76182029  1
  Y3+  Y46  1  0.25374298  0.74957117  0.25345775  1
  Y3+  Y47  1  0.25126418  0.74905336  0.76175714  1
  Y3+  Y48  1  0.49943650  -0.00040473  0.25544669  1
  Y3+  Y49  1  0.49991914  -0.00052085  0.76015004  1
  Y3+  Y50  1  0.50154788  0.25204985  0.25243235  1
  Y3+  Y51  1  0.50025819  0.25287182  0.76202685  1
  Y3+  Y52  1  0.49952830  0.49859689  0.24729295  1
  Y3+  Y53  1  0.50065290  0.49954335  0.76620497  1
  Y3+  Y54  1  0.49765006  0.74989977  0.25164446  1
  Y3+  Y55  1  0.50011193  0.74839899  0.76415569  1
  Y3+  Y56  1  0.74976250  0.00204900  0.25874736  1
  Y3+  Y57  1  0.74693822  0.00024517  0.75436198  1
  Y3+  Y58  1  0.74946309  0.25141328  0.25427895  1
  Y3+  Y59  1  0.74861138  0.25412510  0.75914778  1
  Y3+  Y60  1  0.75148514  0.49941284  0.25201806  1
  Y3+  Y61  1  0.75088986  0.49965914  0.76299202  1
  Y3+  Y62  1  0.75201755  0.74704915  0.25593211  1
  Y3+  Y63  1  0.74962622  0.74576320  0.75954140  1
  Fe3+  Fe64  1  0.62634545  0.12479727  0.87810501  1
  Fe3+  Fe65  1  0.62372668  0.87206847  0.37556633  1
  Fe3+  Fe66  1  0.12327386  0.37395976  0.87648966  1
  Fe3+  Fe67  1  0.12620860  0.87235584  0.37982738  1
  Fe3+  Fe68  1  0.62396301  0.37792781  0.37511042  1
  Fe3+  Fe69  1  0.62353627  0.12755294  0.37474545  1
  Fe3+  Fe70  1  0.87239210  0.37668114  0.37709999  1
  Fe3+  Fe71  1  0.12673334  0.62342089  0.37536652  1
  Fe3+  Fe72  1  0.12307125  0.12575143  0.87592813  1
  Fe3+  Fe73  1  0.12615024  0.37796162  0.38014140  1
  Fe3+  Fe74  1  0.62386513  0.62282408  0.37413061  1
  Fe3+  Fe75  1  0.62697607  0.87545350  0.88040898  1
  Fe3+  Fe76  1  0.87291055  0.87350615  0.37997127  1
  Fe3+  Fe77  1  0.12263874  0.87551623  0.88113253  1
  Fe3+  Fe78  1  0.37758956  0.37754300  0.37546495  1
  Fe3+  Fe79  1  0.12667706  0.12638603  0.37982932  1
  Fe3+  Fe80  1  0.12365438  0.62439475  0.88063846  1
  Fe3+  Fe81  1  0.87549806  0.87769273  0.87509901  1
  Fe3+  Fe82  1  0.37774371  0.62322781  0.37362891  1
  Fe3+  Fe83  1  0.87575871  0.12521403  0.87404508  1
  Fe3+  Fe84  1  0.87327586  0.87429492  0.63315937  1
  Fe3+  Fe85  1  0.87330603  0.12537020  0.63483294  1
  Fe3+  Fe86  1  0.62540240  0.62464544  0.13300754  1
  Fe3+  Fe87  1  0.12460611  0.87485613  0.13557127  1
  Fe3+  Fe88  1  0.37577035  0.87446756  0.64106769  1
  Fe3+  Fe89  1  0.62589877  0.87483448  0.13338172  1
  Fe3+  Fe90  1  0.12607686  0.87423626  0.63305217  1
  Fe3+  Fe91  1  0.12523392  0.37579054  0.63355910  1
  Fe3+  Fe92  1  0.12462323  0.62428236  0.13261624  1
  Fe3+  Fe93  1  0.37604596  0.12480895  0.64036855  1
  Fe3+  Fe94  1  0.12685003  0.12504393  0.63172643  1
  Fe3+  Fe95  1  0.37560137  0.12574594  0.13930696  1
  Cu2+  Cu96  1  0.37641772  0.87315360  0.36104717  1
  Cu2+  Cu97  1  0.87316160  0.12631529  0.36671959  1
  Cu2+  Cu98  1  0.37495710  0.12541634  0.86497430  1
  Cu2+  Cu99  1  0.87600250  0.62453147  0.87223059  1
  Cu2+  Cu100  1  0.87627627  0.37300328  0.87129768  1
  Cu2+  Cu101  1  0.37491270  0.87561724  0.87414927  1
  Cu2+  Cu102  1  0.62583800  0.62493540  0.86939567  1
  Cu2+  Cu103  1  0.37683626  0.12663411  0.36088975  1
  Cu2+  Cu104  1  0.62595145  0.37445020  0.87315635  1
  Cu2+  Cu105  1  0.87305325  0.62355593  0.37229732  1
  Cu2+  Cu106  1  0.37422433  0.62429292  0.87292590  1
  Cu2+  Cu107  1  0.37386727  0.37408849  0.87275284  1
  Cu2+  Cu108  1  0.62434913  0.62453049  0.66053125  1
  Cu2+  Cu109  1  0.12459988  0.37529595  0.15111502  1
  Cu2+  Cu110  1  0.12585455  0.12510871  0.15746667  1
  Cu2+  Cu111  1  0.12547375  0.62512405  0.65477930  1
  Cu2+  Cu112  1  0.62465271  0.37581747  0.65807963  1
  Cu2+  Cu113  1  0.62474876  0.12489676  0.14753413  1
  Cu2+  Cu114  1  0.87468249  0.62383721  0.14184641  1
  Cu2+  Cu115  1  0.37518684  0.62462257  0.13892806  1
  Cu2+  Cu116  1  0.37486534  0.37555867  0.65695377  1
  Cu2+  Cu117  1  0.87451032  0.37512744  0.65123976  1
  Cu2+  Cu118  1  0.87467750  0.37492215  0.14316333  1
  Cu2+  Cu119  1  0.62348333  0.12548692  0.65405277  1
  Cu2+  Cu120  1  0.87490951  0.12577739  0.15878019  1
  Cu2+  Cu121  1  0.62551412  0.37497629  0.13900191  1
  Cu2+  Cu122  1  0.87502558  0.87515376  0.15542750  1
  Cu2+  Cu123  1  0.87380208  0.62500827  0.64584565  1
  Cu2+  Cu124  1  0.37530009  0.87598071  0.14033711  1
  Cu2+  Cu125  1  0.37517473  0.37371472  0.14036092  1
  Cu2+  Cu126  1  0.62402861  0.87425329  0.65376135  1
  Cu2+  Cu127  1  0.37560766  0.62531491  0.66112030  1
  O2-  O128  1  0.12079079  0.12562454  -0.00501461  1
  O2-  O129  1  0.12839267  0.12432127  0.50651682  1
  O2-  O130  1  0.12233341  0.37105503  -0.00370088  1
  O2-  O131  1  0.12736047  0.37883897  0.50569959  1
  O2-  O132  1  0.12324951  0.62527014  0.00637622  1
  O2-  O133  1  0.12831905  0.62387690  0.49528906  1
  O2-  O134  1  0.12123436  0.87764691  0.00693584  1
  O2-  O135  1  0.12831848  0.87200388  0.50655962  1
  O2-  O136  1  0.37295628  0.12537480  0.01834003  1
  O2-  O137  1  0.37687381  0.12419395  0.51987468  1
  O2-  O138  1  0.37347506  0.37193198  0.00590774  1
  O2-  O139  1  0.37809092  0.37947631  0.49555916  1
  O2-  O140  1  0.37333250  0.62485359  0.00579007  1
  O2-  O141  1  0.37823005  0.62333108  0.49396898  1
  O2-  O142  1  0.37353702  0.87780315  0.00738639  1
  O2-  O143  1  0.37655947  0.87357717  0.52064918  1
  O2-  O144  1  0.62860410  0.12257842  -0.00233918  1
  O2-  O145  1  0.62241463  0.12752914  0.49506698  1
  O2-  O146  1  0.62630811  0.37346021  0.00551964  1
  O2-  O147  1  0.62298545  0.37798252  0.49500727  1
  O2-  O148  1  0.62704731  0.62679985  0.01318064  1
  O2-  O149  1  0.62181503  0.62291576  0.49447029  1
  O2-  O150  1  0.62850827  0.87708037  0.00641315  1
  O2-  O151  1  0.62289722  0.87188681  0.49532875  1
  O2-  O152  1  0.87789871  0.12390569  -0.00613284  1
  O2-  O153  1  0.87230537  0.12531696  0.51424683  1
  O2-  O154  1  0.87666117  0.37175019  0.00694573  1
  O2-  O155  1  0.87170917  0.37705099  0.49750948  1
  O2-  O156  1  0.87618552  0.62497805  0.00668670  1
  O2-  O157  1  0.87291875  0.62493596  0.50818090  1
  O2-  O158  1  0.87827412  0.88088049  -0.00528139  1
  O2-  O159  1  0.87195504  0.87306109  0.50630840  1
  O2-  O160  1  0.12385031  -0.00190779  0.16850225  1
  O2-  O161  1  0.12568382  -0.00057260  0.66130175  1
  O2-  O162  1  0.12465765  0.25001599  0.16955494  1
  O2-  O163  1  0.12457237  0.24966754  0.65638422  1
  O2-  O164  1  0.12467736  0.50139618  0.15939372  1
  O2-  O165  1  0.12565774  0.49878842  0.66440725  1
  O2-  O166  1  0.12353661  0.75026676  0.16030285  1
  O2-  O167  1  0.12446050  0.75220525  0.66656659  1
  O2-  O168  1  0.37440071  0.00206786  0.16893660  1
  O2-  O169  1  0.37461857  -0.00046083  0.66991405  1
  O2-  O170  1  0.37378675  0.24834700  0.16825899  1
  O2-  O171  1  0.37466352  0.24989514  0.66472662  1
  O2-  O172  1  0.37397310  0.49942299  0.15824891  1
  O2-  O173  1  0.37378052  0.50059565  0.66777858  1
  O2-  O174  1  0.37428538  0.75026945  0.16217266  1
  O2-  O175  1  0.37467299  0.75014811  0.66924442  1
  O2-  O176  1  0.62651324  -0.00186326  0.16550166  1
  O2-  O177  1  0.62338537  -0.00027533  0.66287252  1
  O2-  O178  1  0.62557956  0.24882837  0.16332876  1
  O2-  O179  1  0.62445531  0.25108124  0.66407260  1
  O2-  O180  1  0.62526296  0.50144487  0.16022959  1
  O2-  O181  1  0.62483164  0.50017026  0.66880501  1
  O2-  O182  1  0.62640208  0.75141412  0.16206070  1
  O2-  O183  1  0.62498675  0.74919991  0.66845006  1
  O2-  O184  1  0.87620380  0.00080434  0.16952940  1
  O2-  O185  1  0.87525185  -0.00133541  0.65973523  1
  O2-  O186  1  0.87644137  0.24883245  0.16703868  1
  O2-  O187  1  0.87530088  0.24919725  0.66231241  1
  O2-  O188  1  0.87611321  0.49967682  0.16306391  1
  O2-  O189  1  0.87481293  0.49880481  0.66724224  1
  O2-  O190  1  0.87610565  0.75075739  0.16482297  1
  O2-  O191  1  0.87503008  0.75371144  0.66587744  1
  O2-  O192  1  0.00068963  0.12433545  0.17026000  1
  O2-  O193  1  0.00177050  0.12319463  0.65668154  1
  O2-  O194  1  0.00098900  0.37440888  0.16947201  1
  O2-  O195  1  0.00195220  0.37520549  0.65875804  1
  O2-  O196  1  0.00261894  0.62550572  0.16585712  1
  O2-  O197  1  0.00072321  0.62553663  0.66408302  1
  O2-  O198  1  0.00110398  0.87584523  0.16928386  1
  O2-  O199  1  0.00031531  0.87599781  0.65623571  1
  O2-  O200  1  0.25020214  0.12445584  0.16902468  1
  O2-  O201  1  0.24882840  0.12486318  0.66694571  1
  O2-  O202  1  0.24847459  0.37419230  0.16592804  1
  O2-  O203  1  0.24810969  0.37465324  0.66322977  1
  O2-  O204  1  0.24661864  0.62589017  0.16227197  1
  O2-  O205  1  0.25032014  0.62643742  0.66699980  1
  O2-  O206  1  0.24649412  0.87542133  0.16503569  1
  O2-  O207  1  0.24886999  0.87421802  0.66830458  1
  O2-  O208  1  0.50007254  0.12417898  0.16292320  1
  O2-  O209  1  0.49951584  0.12513707  0.67013598  1
  O2-  O210  1  0.50009186  0.37384218  0.15951559  1
  O2-  O211  1  0.49947655  0.37542459  0.66893284  1
  O2-  O212  1  0.50197377  0.62621488  0.16052216  1
  O2-  O213  1  0.49999472  0.62535162  0.66986468  1
  O2-  O214  1  0.50352634  0.87579256  0.16017352  1
  O2-  O215  1  0.49944733  0.87402472  0.67095244  1
  O2-  O216  1  0.75034002  0.12410488  0.16318566  1
  O2-  O217  1  0.74883811  0.12386455  0.66216862  1
  O2-  O218  1  0.75029074  0.37423124  0.16353412  1
  O2-  O219  1  0.74951500  0.37496037  0.66529078  1
  O2-  O220  1  0.74862340  0.62590910  0.16512869  1
  O2-  O221  1  0.74843677  0.62545978  0.66685768  1
  O2-  O222  1  0.74978654  0.87596352  0.16346538  1
  O2-  O223  1  0.75028455  0.87580408  0.66082122  1
  O2-  O224  1  0.12545044  -0.00086591  0.35472713  1
  O2-  O225  1  0.12399556  -0.00095024  0.84469312  1
  O2-  O226  1  0.12593596  0.25128831  0.35537504  1
  O2-  O227  1  0.12472822  0.24913188  0.83903899  1
  O2-  O228  1  0.12561751  0.49899051  0.34231947  1
  O2-  O229  1  0.12390959  0.50068620  0.84977351  1
  O2-  O230  1  0.12536525  0.75073920  0.34483504  1
  O2-  O231  1  0.12358429  0.75073604  0.85297063  1
  O2-  O232  1  0.37516083  -0.00027218  0.35241854  1
  O2-  O233  1  0.37399154  0.00103241  0.85042744  1
  O2-  O234  1  0.37433965  0.25213278  0.34958800  1
  O2-  O235  1  0.37405359  0.24835052  0.84710932  1
  O2-  O236  1  0.37459263  0.49991175  0.33777792  1
  O2-  O237  1  0.37349875  0.49975735  0.85114215  1
  O2-  O238  1  0.37471793  0.74844944  0.34407433  1
  O2-  O239  1  0.37388670  0.75061888  0.85142131  1
  O2-  O240  1  0.62442707  -0.00037838  0.34853240  1
  O2-  O241  1  0.62572656  -0.00108980  0.84562855  1
  O2-  O242  1  0.62423581  0.25186804  0.34442204  1
  O2-  O243  1  0.62532705  0.24749213  0.84701254  1
  O2-  O244  1  0.62452379  0.50004786  0.33854704  1
  O2-  O245  1  0.62565355  0.50082629  0.85274691  1
  O2-  O246  1  0.62487298  0.74883770  0.34203135  1
  O2-  O247  1  0.62663545  0.75212093  0.85290566  1
  O2-  O248  1  0.87553528  -0.00203069  0.35357624  1
  O2-  O249  1  0.87596153  0.00042151  0.83788688  1
  O2-  O250  1  0.87566090  0.25193263  0.34921703  1
  O2-  O251  1  0.87594881  0.24744295  0.84259969  1
  O2-  O252  1  0.87551318  0.49787631  0.34359781  1
  O2-  O253  1  0.87654824  0.49937265  0.85120543  1
  O2-  O254  1  0.87549471  0.75258722  0.34828531  1
  O2-  O255  1  0.87600775  0.75272107  0.84854437  1
  O2-  O256  1  0.00264591  0.12479453  0.35470580  1
  O2-  O257  1  0.00017471  0.12436694  0.83640875  1
  O2-  O258  1  0.00164199  0.37499346  0.35287083  1
  O2-  O259  1  0.00185425  0.37433364  0.84050880  1
  O2-  O260  1  0.00177511  0.62547373  0.34877580  1
  O2-  O261  1  0.00269727  0.62595792  0.84693133  1
  O2-  O262  1  0.00057584  0.87516397  0.35531704  1
  O2-  O263  1  0.00136265  0.87551460  0.83994459  1
  O2-  O264  1  0.24936922  0.12457616  0.35190287  1
  O2-  O265  1  0.24879583  0.12400108  0.84852868  1
  O2-  O266  1  0.24951256  0.37526626  0.34871549  1
  O2-  O267  1  0.24693174  0.37451791  0.84610283  1
  O2-  O268  1  0.25125022  0.62547705  0.34290758  1
  O2-  O269  1  0.24551901  0.62574673  0.85019660  1
  O2-  O270  1  0.24904957  0.87481531  0.35010996  1
  O2-  O271  1  0.24492924  0.87577511  0.85161556  1
  O2-  O272  1  0.50052662  0.12468800  0.34343506  1
  O2-  O273  1  0.50049985  0.12368934  0.85263573  1
  O2-  O274  1  0.50010886  0.37569155  0.33951645  1
  O2-  O275  1  0.49989849  0.37442666  0.85310411  1
  O2-  O276  1  0.49977180  0.62514620  0.33847646  1
  O2-  O277  1  0.50109627  0.62559147  0.85335346  1
  O2-  O278  1  0.50053753  0.87475605  0.34266403  1
  O2-  O279  1  0.50401381  0.87553425  0.85427523  1
  O2-  O280  1  0.74772293  0.12498565  0.34590054  1
  O2-  O281  1  0.75059082  0.12375623  0.84303334  1
  O2-  O282  1  0.74886305  0.37512039  0.34382701  1
  O2-  O283  1  0.75098677  0.37440883  0.84937508  1
  O2-  O284  1  0.74789703  0.62527805  0.34563096  1
  O2-  O285  1  0.75014705  0.62541018  0.85015536  1
  O2-  O286  1  0.75022096  0.87491000  0.34679897  1
  O2-  O287  1  0.74975259  0.87580290  0.84501596  1
