# generated using pymatgen
data_BaYFeCuO5
_symmetry_space_group_name_H-M   'P 1'
_cell_length_a   15.65898672
_cell_length_b   15.66048909
_cell_length_c   15.46016095
_cell_angle_alpha   90.00152815
_cell_angle_beta   89.99682231
_cell_angle_gamma   89.99450728
_symmetry_Int_Tables_number   1
_chemical_formula_structural   BaYFeCuO5
_chemical_formula_sum   'Ba32 Y32 Fe32 Cu32 O160'
_cell_volume   3791.25490674
_cell_formula_units_Z   32
loop_
 _symmetry_equiv_pos_site_id
 _symmetry_equiv_pos_as_xyz
  1  'x, y, z'
loop_
 _atom_type_symbol
 _atom_type_oxidation_number
  Ba2+  2.0
  Y3+  3.0
  Fe3+  3.0
  Cu2+  2.0
  O2-  -2.0
loop_
 _atom_site_type_symbol
 _atom_site_label
 _atom_site_symmetry_multiplicity
 _atom_site_fract_x
 _atom_site_fract_y
 _atom_site_fract_z
 _atom_site_occupancy
  Ba2+  Ba0  1  0.00192771  -0.00161028  0.00188360  1
  Ba2+  Ba1  1  0.00319926  0.00782355  0.51200282  1
  Ba2+  Ba2  1  -0.00150171  0.25734699  0.00743175  1
  Ba2+  Ba3  1  -0.00536290  0.24204590  0.51136971  1
  Ba2+  Ba4  1  0.00702423  0.49394792  0.00648214  1
  Ba2+  Ba5  1  -0.00358205  0.50556621  0.50602100  1
  Ba2+  Ba6  1  0.01012478  0.75126471  0.00282439  1
  Ba2+  Ba7  1  0.00596851  0.74478973  0.50729795  1
  Ba2+  Ba8  1  0.24886263  -0.00199159  0.01176321  1
  Ba2+  Ba9  1  0.24579160  -0.00474357  0.51354016  1
  Ba2+  Ba10  1  0.25510967  0.25889704  0.01074677  1
  Ba2+  Ba11  1  0.24194116  0.24221804  0.50682839  1
  Ba2+  Ba12  1  0.25167965  0.49519679  0.00558952  1
  Ba2+  Ba13  1  0.24272799  0.50762064  0.50749395  1
  Ba2+  Ba14  1  0.24610052  0.74671462  0.00557445  1
  Ba2+  Ba15  1  0.24679937  0.75518417  0.51291901  1
  Ba2+  Ba16  1  0.50418924  0.00519610  0.02295710  1
  Ba2+  Ba17  1  0.50351709  -0.00859305  0.50960481  1
  Ba2+  Ba18  1  0.49864471  0.25290981  0.02099500  1
  Ba2+  Ba19  1  0.50914359  0.24891689  0.51526947  1
  Ba2+  Ba20  1  0.49722603  0.49721515  0.02233506  1
  Ba2+  Ba21  1  0.51032904  0.50326704  0.51002794  1
  Ba2+  Ba22  1  0.50261732  0.74424093  0.02400658  1
  Ba2+  Ba23  1  0.50533990  0.75615782  0.50625309  1
  Ba2+  Ba24  1  0.74460248  0.00525065  0.01176617  1
  Ba2+  Ba25  1  0.74708994  0.00428507  0.51238679  1
  Ba2+  Ba26  1  0.74749870  0.25114589  0.01635604  1
  Ba2+  Ba27  1  0.75336476  0.24859458  0.51995982  1
  Ba2+  Ba28  1  0.74430532  0.49458046  0.02185418  1
  Ba2+  Ba29  1  0.74908216  0.50142891  0.51192051  1
  Ba2+  Ba30  1  0.74060172  0.74926878  0.01768085  1
  Ba2+  Ba31  1  0.74306430  0.74635859  0.50208772  1
  Y3+  Y32  1  0.00042066  0.00139480  0.25855562  1
  Y3+  Y33  1  0.00074262  0.00157554  0.75777484  1
  Y3+  Y34  1  0.00047337  0.24958639  0.25856518  1
  Y3+  Y35  1  -0.00148947  0.24887583  0.75704588  1
  Y3+  Y36  1  0.00086319  0.49955802  0.25749884  1
  Y3+  Y37  1  0.00204457  0.49948154  0.75800864  1
  Y3+  Y38  1  0.00109114  0.74903801  0.25812321  1
  Y3+  Y39  1  0.00407464  0.75031273  0.75924317  1
  Y3+  Y40  1  0.24980624  -0.00056460  0.25844708  1
  Y3+  Y41  1  0.24852232  -0.00222489  0.75676095  1
  Y3+  Y42  1  0.24927992  0.24989847  0.25558595  1
  Y3+  Y43  1  0.24914337  0.25155851  0.75901359  1
  Y3+  Y44  1  0.24984525  0.49960041  0.25635161  1
  Y3+  Y45  1  0.24827479  0.49979713  0.75940141  1
  Y3+  Y46  1  0.24992401  0.75085201  0.25886903  1
  Y3+  Y47  1  0.24774314  0.75110279  0.75669600  1
  Y3+  Y48  1  0.50016318  -0.00203634  0.26037177  1
  Y3+  Y49  1  0.50085535  -0.00233118  0.75133829  1
  Y3+  Y50  1  0.49831388  0.24978789  0.25534680  1
  Y3+  Y51  1  0.50037601  0.25121384  0.75545256  1
  Y3+  Y52  1  0.49966040  0.50110404  0.25798586  1
  Y3+  Y53  1  0.50045577  0.49984198  0.75376615  1
  Y3+  Y54  1  0.50139390  0.75074696  0.26280303  1
  Y3+  Y55  1  0.50079757  0.75140234  0.75036745  1
  Y3+  Y56  1  0.74946690  -0.00022347  0.25937152  1
  Y3+  Y57  1  0.75071238  0.00192820  0.75520828  1
  Y3+  Y58  1  0.75156875  0.24968522  0.25694205  1
  Y3+  Y59  1  0.75194153  0.24865930  0.75457713  1
  Y3+  Y60  1  0.74947708  0.50116341  0.25935877  1
  Y3+  Y61  1  0.74934246  0.49897224  0.75290841  1
  Y3+  Y62  1  0.74740375  0.74922444  0.26078880  1
  Y3+  Y63  1  0.74797504  0.75035853  0.75449227  1
  Fe3+  Fe64  1  0.62556919  0.37404727  0.37594681  1
  Fe3+  Fe65  1  0.62340892  0.87495323  0.87675630  1
  Fe3+  Fe66  1  0.87380999  0.62469081  0.88147497  1
  Fe3+  Fe67  1  0.37672139  0.12484789  0.87650484  1
  Fe3+  Fe68  1  0.37704223  0.87474910  0.87977178  1
  Fe3+  Fe69  1  0.37480318  0.37457614  0.38110141  1
  Fe3+  Fe70  1  0.37696652  0.62501665  0.87580355  1
  Fe3+  Fe71  1  0.12549662  0.12623201  0.87940605  1
  Fe3+  Fe72  1  0.12424542  0.37460699  0.38008326  1
  Fe3+  Fe73  1  0.87306883  0.37539277  0.87599716  1
  Fe3+  Fe74  1  0.62406009  0.37535331  0.87426163  1
  Fe3+  Fe75  1  0.87327783  0.87469210  0.88030715  1
  Fe3+  Fe76  1  0.62559447  0.12574726  0.37586201  1
  Fe3+  Fe77  1  0.62412056  0.62434602  0.87584097  1
  Fe3+  Fe78  1  0.87526716  0.87532175  0.38049819  1
  Fe3+  Fe79  1  0.12435789  0.87558024  0.37588719  1
  Fe3+  Fe80  1  0.62404840  0.12577217  0.87416448  1
  Fe3+  Fe81  1  0.87459936  0.37464466  0.37748295  1
  Fe3+  Fe82  1  0.37447039  0.62572305  0.37976960  1
  Fe3+  Fe83  1  0.37475559  0.12428723  0.37944769  1
  Fe3+  Fe84  1  0.87609351  0.87451661  0.63527658  1
  Fe3+  Fe85  1  0.37463296  0.62568673  0.63374832  1
  Fe3+  Fe86  1  0.12519509  0.12541802  0.13504654  1
  Fe3+  Fe87  1  0.87555620  0.12503715  0.13627792  1
  Fe3+  Fe88  1  0.12593152  0.62473424  0.13909441  1
  Fe3+  Fe89  1  0.37465572  0.12438722  0.63376198  1
  Fe3+  Fe90  1  0.87584520  0.62601417  0.63903327  1
  Fe3+  Fe91  1  0.37477272  0.87415479  0.13624704  1
  Fe3+  Fe92  1  0.37416537  0.37529385  0.63215967  1
  Fe3+  Fe93  1  0.87491403  0.87455704  0.13520509  1
  Fe3+  Fe94  1  0.12370285  0.37472922  0.63528041  1
  Fe3+  Fe95  1  0.87548529  0.62455576  0.13505912  1
  Cu2+  Cu96  1  0.12541909  0.62434898  0.86389681  1
  Cu2+  Cu97  1  0.62451351  0.62382852  0.37164505  1
  Cu2+  Cu98  1  0.37696678  0.37544551  0.86976838  1
  Cu2+  Cu99  1  0.87522416  0.62517078  0.36322132  1
  Cu2+  Cu100  1  0.12628484  0.87603156  0.87291101  1
  Cu2+  Cu101  1  0.87452828  0.12486580  0.37215658  1
  Cu2+  Cu102  1  0.37410130  0.87525686  0.37384077  1
  Cu2+  Cu103  1  0.62615841  0.87604176  0.37165617  1
  Cu2+  Cu104  1  0.87411412  0.12512358  0.86766728  1
  Cu2+  Cu105  1  0.12463223  0.12465888  0.37094921  1
  Cu2+  Cu106  1  0.12530600  0.37404914  0.87089696  1
  Cu2+  Cu107  1  0.12525869  0.62522620  0.37220108  1
  Cu2+  Cu108  1  0.87547768  0.37542672  0.15129002  1
  Cu2+  Cu109  1  0.12466407  0.62470264  0.64364857  1
  Cu2+  Cu110  1  0.37423507  0.87467987  0.64046244  1
  Cu2+  Cu111  1  0.62489084  0.62437890  0.15601683  1
  Cu2+  Cu112  1  0.37434295  0.12413151  0.15140433  1
  Cu2+  Cu113  1  0.87575268  0.12397781  0.64345249  1
  Cu2+  Cu114  1  0.37436418  0.62566544  0.15373733  1
  Cu2+  Cu115  1  0.37426114  0.37557210  0.14551431  1
  Cu2+  Cu116  1  0.62740639  0.87493490  0.64083359  1
  Cu2+  Cu117  1  0.12569346  0.12553504  0.64601297  1
  Cu2+  Cu118  1  0.62548750  0.37481514  0.64814994  1
  Cu2+  Cu119  1  0.62532568  0.87536909  0.15359871  1
  Cu2+  Cu120  1  0.62446292  0.12463938  0.64948472  1
  Cu2+  Cu121  1  0.87623974  0.37546908  0.64841910  1
  Cu2+  Cu122  1  0.62568682  0.62560640  0.64094615  1
  Cu2+  Cu123  1  0.62532039  0.12539448  0.15484240  1
  Cu2+  Cu124  1  0.12341916  0.87538775  0.65256805  1
  Cu2+  Cu125  1  0.12513353  0.37485005  0.14362462  1
  Cu2+  Cu126  1  0.62477352  0.37468738  0.15563980  1
  Cu2+  Cu127  1  0.12445997  0.87490739  0.14194347  1
  O2-  O128  1  0.12555056  0.12667229  0.00716105  1
  O2-  O129  1  0.12503841  0.12429213  0.50704514  1
  O2-  O130  1  0.12609166  0.37438825  0.00768390  1
  O2-  O131  1  0.12333061  0.37458662  0.50744994  1
  O2-  O132  1  0.12610365  0.62359324  0.01803586  1
  O2-  O133  1  0.12417302  0.62518998  0.50818343  1
  O2-  O134  1  0.12656446  0.87547416  0.00720622  1
  O2-  O135  1  0.12288649  0.87599172  0.49705655  1
  O2-  O136  1  0.37822013  0.12519674  -0.00336238  1
  O2-  O137  1  0.37449099  0.12422054  0.50621557  1
  O2-  O138  1  0.37692043  0.37588702  0.00670345  1
  O2-  O139  1  0.37395380  0.37452600  0.50631554  1
  O2-  O140  1  0.37784647  0.62451514  -0.00374165  1
  O2-  O141  1  0.37441709  0.62607378  0.50664636  1
  O2-  O142  1  0.37801233  0.87435688  0.00651213  1
  O2-  O143  1  0.37340885  0.87537906  0.50690255  1
  O2-  O144  1  0.62288960  0.12666114  -0.00524028  1
  O2-  O145  1  0.62584431  0.12621902  0.49633226  1
  O2-  O146  1  0.62331624  0.37526057  -0.00538568  1
  O2-  O147  1  0.62720362  0.37330267  0.49622990  1
  O2-  O148  1  0.62313171  0.62345984  -0.00387501  1
  O2-  O149  1  0.62599244  0.62456417  0.50597295  1
  O2-  O150  1  0.62243282  0.87464890  -0.00294368  1
  O2-  O151  1  0.62777560  0.87576266  0.50606173  1
  O2-  O152  1  0.87445469  0.12468340  0.01591021  1
  O2-  O153  1  0.87435196  0.12395192  0.50794964  1
  O2-  O154  1  0.87150659  0.37610227  -0.00331192  1
  O2-  O155  1  0.87489357  0.37516225  0.49766793  1
  O2-  O156  1  0.87365152  0.62427255  0.00799769  1
  O2-  O157  1  0.87551636  0.62688827  0.51818854  1
  O2-  O158  1  0.87257833  0.87472598  0.00786646  1
  O2-  O159  1  0.87619800  0.87430207  0.50772158  1
  O2-  O160  1  0.12456575  0.00286193  0.16176057  1
  O2-  O161  1  0.12494734  -0.00057463  0.66771532  1
  O2-  O162  1  0.12525269  0.24679150  0.16560227  1
  O2-  O163  1  0.12540187  0.25302015  0.66434727  1
  O2-  O164  1  0.12495754  0.50200678  0.16966726  1
  O2-  O165  1  0.12519196  0.49663192  0.66400412  1
  O2-  O166  1  0.12450935  0.74829650  0.16651308  1
  O2-  O167  1  0.12450840  0.75119297  0.66642693  1
  O2-  O168  1  0.37524933  -0.00199364  0.16305535  1
  O2-  O169  1  0.37410543  0.00228573  0.66407052  1
  O2-  O170  1  0.37434466  0.24826084  0.16718175  1
  O2-  O171  1  0.37523178  0.25060387  0.65974222  1
  O2-  O172  1  0.37487678  0.50189952  0.16918579  1
  O2-  O173  1  0.37456560  0.49934252  0.65920525  1
  O2-  O174  1  0.37550653  0.75155936  0.16445093  1
  O2-  O175  1  0.37417704  0.74780141  0.66423031  1
  O2-  O176  1  0.62544229  0.00037945  0.16392093  1
  O2-  O177  1  0.62583839  0.00118315  0.66429722  1
  O2-  O178  1  0.62460990  0.25021659  0.16344329  1
  O2-  O179  1  0.62428948  0.24986437  0.66120789  1
  O2-  O180  1  0.62436846  0.49948483  0.16570800  1
  O2-  O181  1  0.62555401  0.49885181  0.66100031  1
  O2-  O182  1  0.62566416  0.74970201  0.16557642  1
  O2-  O183  1  0.62599979  0.74998203  0.66486998  1
  O2-  O184  1  0.87438280  -0.00095264  0.16513886  1
  O2-  O185  1  0.87616470  -0.00278459  0.66617909  1
  O2-  O186  1  0.87539409  0.24971279  0.16455158  1
  O2-  O187  1  0.87579820  0.25092042  0.66353840  1
  O2-  O188  1  0.87529444  0.50170828  0.16380010  1
  O2-  O189  1  0.87578649  0.50047186  0.66498236  1
  O2-  O190  1  0.87388738  0.74928331  0.16308508  1
  O2-  O191  1  0.87636183  0.75150978  0.66956746  1
  O2-  O192  1  0.00061066  0.12501532  0.16532396  1
  O2-  O193  1  0.00112385  0.12491144  0.66879827  1
  O2-  O194  1  -0.00073961  0.37499275  0.16582385  1
  O2-  O195  1  0.00172858  0.37479583  0.66610445  1
  O2-  O196  1  -0.00131121  0.62519458  0.16531949  1
  O2-  O197  1  -0.00126515  0.62524772  0.67121561  1
  O2-  O198  1  -0.00372988  0.87449542  0.16408054  1
  O2-  O199  1  -0.00132582  0.87505493  0.66783755  1
  O2-  O200  1  0.24837532  0.12434035  0.16415745  1
  O2-  O201  1  0.25288376  0.12580519  0.66464257  1
  O2-  O202  1  0.24997713  0.37486302  0.16942924  1
  O2-  O203  1  0.25028344  0.37461277  0.66288105  1
  O2-  O204  1  0.24978498  0.62557627  0.16862266  1
  O2-  O205  1  0.25256394  0.62459576  0.66371551  1
  O2-  O206  1  0.25253806  0.87505925  0.16384459  1
  O2-  O207  1  0.24729698  0.87516842  0.66611682  1
  O2-  O208  1  0.50044062  0.12483158  0.16564355  1
  O2-  O209  1  0.49808482  0.12481712  0.65816518  1
  O2-  O210  1  0.50062664  0.37488723  0.16765726  1
  O2-  O211  1  0.49792611  0.37524346  0.65784818  1
  O2-  O212  1  0.49997104  0.62514102  0.16648816  1
  O2-  O213  1  0.49733858  0.62473521  0.65891748  1
  O2-  O214  1  0.49903510  0.87491278  0.16535590  1
  O2-  O215  1  0.50105616  0.87509928  0.66059181  1
  O2-  O216  1  0.75067459  0.12509077  0.16408314  1
  O2-  O217  1  0.74864321  0.12472098  0.66415573  1
  O2-  O218  1  0.74970381  0.37530468  0.16280195  1
  O2-  O219  1  0.75049503  0.37493106  0.66198190  1
  O2-  O220  1  0.75149664  0.62450070  0.16297326  1
  O2-  O221  1  0.75219529  0.62538660  0.66746505  1
  O2-  O222  1  0.75156303  0.87475304  0.16360125  1
  O2-  O223  1  0.75392873  0.87503785  0.66491901  1
  O2-  O224  1  0.12444793  -0.00157476  0.34407063  1
  O2-  O225  1  0.12516126  0.00359084  0.85140059  1
  O2-  O226  1  0.12511278  0.25322709  0.34961770  1
  O2-  O227  1  0.12526680  0.24703031  0.84762358  1
  O2-  O228  1  0.12512355  0.49674320  0.35242937  1
  O2-  O229  1  0.12510041  0.50048816  0.84767486  1
  O2-  O230  1  0.12433443  0.75164571  0.34755477  1
  O2-  O231  1  0.12573300  0.74925708  0.85079850  1
  O2-  O232  1  0.37477969  0.00291883  0.34752716  1
  O2-  O233  1  0.37561669  -0.00145361  0.84770387  1
  O2-  O234  1  0.37440813  0.25030303  0.35150686  1
  O2-  O235  1  0.37529983  0.24795657  0.84304564  1
  O2-  O236  1  0.37420534  0.49898221  0.35319759  1
  O2-  O237  1  0.37531100  0.50233490  0.84237248  1
  O2-  O238  1  0.37468566  0.74768033  0.34894116  1
  O2-  O239  1  0.37513027  0.75135770  0.84766365  1
  O2-  O240  1  0.62489686  0.00233496  0.34688993  1
  O2-  O241  1  0.62485877  -0.00052637  0.84568098  1
  O2-  O242  1  0.62417705  0.25039166  0.34418264  1
  O2-  O243  1  0.62502819  0.25007358  0.84279823  1
  O2-  O244  1  0.62457321  0.49735485  0.34828802  1
  O2-  O245  1  0.62533675  0.50063392  0.84187795  1
  O2-  O246  1  0.62518951  0.74968782  0.35024284  1
  O2-  O247  1  0.62506035  0.75021346  0.84532646  1
  O2-  O248  1  0.87546641  -0.00278579  0.34892376  1
  O2-  O249  1  0.87446530  -0.00193908  0.85162598  1
  O2-  O250  1  0.87557812  0.25172487  0.34668452  1
  O2-  O251  1  0.87440671  0.25060451  0.84700303  1
  O2-  O252  1  0.87546187  0.49961848  0.34805218  1
  O2-  O253  1  0.87476072  0.50181569  0.84733863  1
  O2-  O254  1  0.87549787  0.75121461  0.34927345  1
  O2-  O255  1  0.87484941  0.74969093  0.85368867  1
  O2-  O256  1  -0.00008011  0.12486125  0.34790355  1
  O2-  O257  1  0.00107671  0.12499831  0.85319316  1
  O2-  O258  1  0.00071748  0.37535509  0.34899902  1
  O2-  O259  1  -0.00222875  0.37522856  0.84958863  1
  O2-  O260  1  -0.00065162  0.62480204  0.34837444  1
  O2-  O261  1  -0.00139622  0.62522307  0.85492277  1
  O2-  O262  1  -0.00132875  0.87456291  0.34694161  1
  O2-  O263  1  -0.00299426  0.87500864  0.85332910  1
  O2-  O264  1  0.25250268  0.12570422  0.34904054  1
  O2-  O265  1  0.24993977  0.12482360  0.84836993  1
  O2-  O266  1  0.25026305  0.37449683  0.35326884  1
  O2-  O267  1  0.25032203  0.37496828  0.84746457  1
  O2-  O268  1  0.25248639  0.62448820  0.35123483  1
  O2-  O269  1  0.25064675  0.62524617  0.84771531  1
  O2-  O270  1  0.24775682  0.87541660  0.34676342  1
  O2-  O271  1  0.25394576  0.87545384  0.85053245  1
  O2-  O272  1  0.49856094  0.12562337  0.34936934  1
  O2-  O273  1  0.50040983  0.12446262  0.83906101  1
  O2-  O274  1  0.49817498  0.37465449  0.35062173  1
  O2-  O275  1  0.50239484  0.37541517  0.83976118  1
  O2-  O276  1  0.49665725  0.62422320  0.35085758  1
  O2-  O277  1  0.50088740  0.62571966  0.83923710  1
  O2-  O278  1  0.50021916  0.87528539  0.35020655  1
  O2-  O279  1  0.49928716  0.87476410  0.84243645  1
  O2-  O280  1  0.74861343  0.12516007  0.34557381  1
  O2-  O281  1  0.74866421  0.12430716  0.84705045  1
  O2-  O282  1  0.75012149  0.37511989  0.34476374  1
  O2-  O283  1  0.74930035  0.37535311  0.84316494  1
  O2-  O284  1  0.75107023  0.62501388  0.34749495  1
  O2-  O285  1  0.75050781  0.62590842  0.84845239  1
  O2-  O286  1  0.75332780  0.87450294  0.34829340  1
  O2-  O287  1  0.74992239  0.87462099  0.84805431  1
