# generated using pymatgen
data_BaYFeCuO5
_symmetry_space_group_name_H-M   'P 1'
_cell_length_a   15.67256710
_cell_length_b   15.67145893
_cell_length_c   15.48987127
_cell_angle_alpha   89.99395258
_cell_angle_beta   89.99216871
_cell_angle_gamma   90.00293251
_symmetry_Int_Tables_number   1
_chemical_formula_structural   BaYFeCuO5
_chemical_formula_sum   'Ba32 Y32 Fe32 Cu32 O160'
_cell_volume   3804.49807293
_cell_formula_units_Z   32
loop_
 _symmetry_equiv_pos_site_id
 _symmetry_equiv_pos_as_xyz
  1  'x, y, z'
loop_
 _atom_type_symbol
 _atom_type_oxidation_number
  Ba2+  2.0
  Y3+  3.0
  Fe3+  3.0
  Cu2+  2.0
  O2-  -2.0
loop_
 _atom_site_type_symbol
 _atom_site_label
 _atom_site_symmetry_multiplicity
 _atom_site_fract_x
 _atom_site_fract_y
 _atom_site_fract_z
 _atom_site_occupancy
  Ba2+  Ba0  1  -0.00919725  0.00218991  0.00243409  1
  Ba2+  Ba1  1  -0.00178840  0.00228797  0.51462582  1
  Ba2+  Ba2  1  -0.00280300  0.23895940  0.00231375  1
  Ba2+  Ba3  1  0.00227340  0.24311714  0.49570357  1
  Ba2+  Ba4  1  0.00413174  0.50476829  0.01084504  1
  Ba2+  Ba5  1  0.00368178  0.50318625  0.49927213  1
  Ba2+  Ba6  1  -0.00406060  0.75492388  0.00992742  1
  Ba2+  Ba7  1  -0.00086958  0.75218927  0.52027789  1
  Ba2+  Ba8  1  0.25684247  0.00176424  0.01249563  1
  Ba2+  Ba9  1  0.25035296  -0.00041144  0.51215487  1
  Ba2+  Ba10  1  0.25271587  0.24081131  0.00659950  1
  Ba2+  Ba11  1  0.25148749  0.25152345  0.50208736  1
  Ba2+  Ba12  1  0.25382394  0.50961944  0.01777480  1
  Ba2+  Ba13  1  0.24794417  0.49271583  0.49643507  1
  Ba2+  Ba14  1  0.25727767  0.74797814  0.02321953  1
  Ba2+  Ba15  1  0.24746871  0.75652928  0.50662993  1
  Ba2+  Ba16  1  0.50157651  -0.00109678  0.02696681  1
  Ba2+  Ba17  1  0.49434255  0.00324286  0.51346855  1
  Ba2+  Ba18  1  0.50671734  0.24677711  0.01731728  1
  Ba2+  Ba19  1  0.49986144  0.25354758  0.51626920  1
  Ba2+  Ba20  1  0.50504119  0.50315872  0.01946137  1
  Ba2+  Ba21  1  0.50541898  0.49293687  0.50648278  1
  Ba2+  Ba22  1  0.50070258  0.75099721  0.02950662  1
  Ba2+  Ba23  1  0.50065295  0.74900316  0.50564398  1
  Ba2+  Ba24  1  0.75116820  0.00026516  0.01569813  1
  Ba2+  Ba25  1  0.75727530  0.00639820  0.51597932  1
  Ba2+  Ba26  1  0.74410944  0.24380219  0.01153623  1
  Ba2+  Ba27  1  0.74651187  0.24645997  0.51368373  1
  Ba2+  Ba28  1  0.73734773  0.49812638  0.01086957  1
  Ba2+  Ba29  1  0.74258658  0.50209185  0.51158037  1
  Ba2+  Ba30  1  0.74477727  0.75797704  0.01598619  1
  Ba2+  Ba31  1  0.75332391  0.74425334  0.51666708  1
  Y3+  Y32  1  -0.00353163  0.00207783  0.25590124  1
  Y3+  Y33  1  -0.00310806  0.00065398  0.76024148  1
  Y3+  Y34  1  -0.00179289  0.24657823  0.25784942  1
  Y3+  Y35  1  -0.00210132  0.24609227  0.76090946  1
  Y3+  Y36  1  0.00128125  0.50007857  0.25635009  1
  Y3+  Y37  1  -0.00137841  0.50079993  0.75961989  1
  Y3+  Y38  1  0.00016715  0.75039953  0.25407250  1
  Y3+  Y39  1  -0.00252044  0.75342991  0.75915573  1
  Y3+  Y40  1  0.25161572  -0.00062823  0.25930483  1
  Y3+  Y41  1  0.25058152  -0.00046479  0.75530888  1
  Y3+  Y42  1  0.24999417  0.25018041  0.25930900  1
  Y3+  Y43  1  0.25261857  0.24945431  0.75751324  1
  Y3+  Y44  1  0.24971175  0.50012501  0.25938769  1
  Y3+  Y45  1  0.25239236  0.49867580  0.75726994  1
  Y3+  Y46  1  0.25067133  0.74958825  0.25988557  1
  Y3+  Y47  1  0.25092086  0.75278626  0.75307296  1
  Y3+  Y48  1  0.49927176  -0.00078048  0.25998440  1
  Y3+  Y49  1  0.49900319  0.00114561  0.74939608  1
  Y3+  Y50  1  0.50237938  0.25210293  0.25970029  1
  Y3+  Y51  1  0.50165683  0.25263258  0.75377883  1
  Y3+  Y52  1  0.50343044  0.49830221  0.26253002  1
  Y3+  Y53  1  0.50250018  0.49683615  0.75261571  1
  Y3+  Y54  1  0.50032159  0.74959063  0.26320973  1
  Y3+  Y55  1  0.50019669  0.75000196  0.74813016  1
  Y3+  Y56  1  0.75225109  0.00157869  0.25482929  1
  Y3+  Y57  1  0.75351798  0.00178607  0.75726098  1
  Y3+  Y58  1  0.74927667  0.24855838  0.25738410  1
  Y3+  Y59  1  0.74824161  0.24945779  0.75772725  1
  Y3+  Y60  1  0.74554258  0.49836631  0.25934872  1
  Y3+  Y61  1  0.74625421  0.49931917  0.75534886  1
  Y3+  Y62  1  0.74857775  0.75092858  0.25690024  1
  Y3+  Y63  1  0.75114060  0.75033314  0.75524864  1
  Fe3+  Fe64  1  0.37795798  0.87403319  0.87450750  1
  Fe3+  Fe65  1  0.87515653  0.87513396  0.37638423  1
  Fe3+  Fe66  1  0.87409176  0.37451172  0.37974777  1
  Fe3+  Fe67  1  0.37721082  0.37587764  0.88179805  1
  Fe3+  Fe68  1  0.12612774  0.37483216  0.88281672  1
  Fe3+  Fe69  1  0.37793058  0.12371439  0.87527159  1
  Fe3+  Fe70  1  0.37523451  0.12560302  0.37633834  1
  Fe3+  Fe71  1  0.37734845  0.62667693  0.87463039  1
  Fe3+  Fe72  1  0.12678457  0.87560028  0.87986095  1
  Fe3+  Fe73  1  0.62691154  0.87614767  0.37952176  1
  Fe3+  Fe74  1  0.12280603  0.87615055  0.37547770  1
  Fe3+  Fe75  1  0.62240155  0.62685796  0.87382392  1
  Fe3+  Fe76  1  0.12710130  0.62707146  0.87830469  1
  Fe3+  Fe77  1  0.62329715  0.12325328  0.87372421  1
  Fe3+  Fe78  1  0.87295066  0.37541371  0.88164219  1
  Fe3+  Fe79  1  0.87264331  0.62534905  0.88011748  1
  Fe3+  Fe80  1  0.62272233  0.87540439  0.87304803  1
  Fe3+  Fe81  1  0.87521480  0.62570114  0.37510802  1
  Fe3+  Fe82  1  0.62577999  0.12449272  0.37746516  1
  Fe3+  Fe83  1  0.37453030  0.62393687  0.37879432  1
  Fe3+  Fe84  1  0.12517021  0.37384574  0.13534573  1
  Fe3+  Fe85  1  0.62666025  0.87624541  0.63201383  1
  Fe3+  Fe86  1  0.37411052  0.62309555  0.63186159  1
  Fe3+  Fe87  1  0.12508741  0.87574993  0.13432266  1
  Fe3+  Fe88  1  0.12499034  0.12580940  0.64061012  1
  Fe3+  Fe89  1  0.12361833  0.37422797  0.64057238  1
  Fe3+  Fe90  1  0.12543917  0.12392408  0.13804071  1
  Fe3+  Fe91  1  0.87429384  0.37444090  0.13466567  1
  Fe3+  Fe92  1  0.87657455  0.37479576  0.63586607  1
  Fe3+  Fe93  1  0.12504998  0.62441800  0.63828273  1
  Fe3+  Fe94  1  0.37547560  0.37452328  0.13642727  1
  Fe3+  Fe95  1  0.87289617  0.62439535  0.13431211  1
  Cu2+  Cu96  1  0.12649771  0.12385047  0.86553402  1
  Cu2+  Cu97  1  0.12390960  0.62632166  0.36237162  1
  Cu2+  Cu98  1  0.12489829  0.12348476  0.36173908  1
  Cu2+  Cu99  1  0.87420772  0.12435870  0.37248824  1
  Cu2+  Cu100  1  0.12330776  0.37385607  0.35956683  1
  Cu2+  Cu101  1  0.62653680  0.37314650  0.37305921  1
  Cu2+  Cu102  1  0.87253605  0.87469903  0.87296308  1
  Cu2+  Cu103  1  0.62369930  0.37490523  0.87292714  1
  Cu2+  Cu104  1  0.37484514  0.87547599  0.37435056  1
  Cu2+  Cu105  1  0.87246938  0.12511313  0.87227501  1
  Cu2+  Cu106  1  0.62647778  0.62553912  0.37361380  1
  Cu2+  Cu107  1  0.37573847  0.37400492  0.37182357  1
  Cu2+  Cu108  1  0.37343297  0.37553642  0.64107028  1
  Cu2+  Cu109  1  0.87476838  0.12583185  0.14200505  1
  Cu2+  Cu110  1  0.37480612  0.87479397  0.15754863  1
  Cu2+  Cu111  1  0.37403107  0.12646013  0.64875057  1
  Cu2+  Cu112  1  0.62537496  0.12480188  0.64750533  1
  Cu2+  Cu113  1  0.87492462  0.87572961  0.65218579  1
  Cu2+  Cu114  1  0.87637752  0.12734434  0.64359213  1
  Cu2+  Cu115  1  0.62643603  0.37440308  0.64212555  1
  Cu2+  Cu116  1  0.62519689  0.37422164  0.14338362  1
  Cu2+  Cu117  1  0.62517236  0.62527319  0.15699600  1
  Cu2+  Cu118  1  0.37433544  0.87493925  0.63732995  1
  Cu2+  Cu119  1  0.37513240  0.12584867  0.15455836  1
  Cu2+  Cu120  1  0.87488356  0.87528437  0.14068469  1
  Cu2+  Cu121  1  0.12388420  0.87600019  0.65317697  1
  Cu2+  Cu122  1  0.37628930  0.62373895  0.15901792  1
  Cu2+  Cu123  1  0.87610165  0.62343964  0.65289551  1
  Cu2+  Cu124  1  0.12464236  0.62545757  0.15100607  1
  Cu2+  Cu125  1  0.62457706  0.87543403  0.15735170  1
  Cu2+  Cu126  1  0.62509166  0.62504219  0.63941617  1
  Cu2+  Cu127  1  0.62443376  0.12443129  0.15535954  1
  O2-  O128  1  0.12690245  0.12353686  0.01771944  1
  O2-  O129  1  0.12505697  0.12633442  0.52023767  1
  O2-  O130  1  0.12707740  0.37510133  0.00937356  1
  O2-  O131  1  0.12201798  0.37419807  0.52065980  1
  O2-  O132  1  0.12936524  0.62724639  -0.00174958  1
  O2-  O133  1  0.12332377  0.62356261  0.51816120  1
  O2-  O134  1  0.12816347  0.87487975  0.00661630  1
  O2-  O135  1  0.12157057  0.87585369  0.49576759  1
  O2-  O136  1  0.37925331  0.12235933  -0.00466077  1
  O2-  O137  1  0.37298567  0.12667480  0.49683800  1
  O2-  O138  1  0.37647870  0.37590874  0.00800525  1
  O2-  O139  1  0.37303319  0.37491407  0.50678824  1
  O2-  O140  1  0.37853346  0.62798336  -0.00527955  1
  O2-  O141  1  0.37129478  0.62203144  0.50576547  1
  O2-  O142  1  0.37883457  0.87323423  -0.00574190  1
  O2-  O143  1  0.37284453  0.87508477  0.50532369  1
  O2-  O144  1  0.62207554  0.12094809  -0.00582435  1
  O2-  O145  1  0.62553994  0.12411046  0.49768833  1
  O2-  O146  1  0.62274383  0.37522376  0.00823906  1
  O2-  O147  1  0.62731469  0.37352725  0.50751381  1
  O2-  O148  1  0.62104838  0.62855732  -0.00605151  1
  O2-  O149  1  0.62697686  0.62584981  0.50592207  1
  O2-  O150  1  0.62044810  0.87457847  -0.00679771  1
  O2-  O151  1  0.62867479  0.87620654  0.50502529  1
  O2-  O152  1  0.87247682  0.12541199  0.00762904  1
  O2-  O153  1  0.87688965  0.12632834  0.50790710  1
  O2-  O154  1  0.87337215  0.37585057  0.00828879  1
  O2-  O155  1  0.87775251  0.37525403  0.50786933  1
  O2-  O156  1  0.87197456  0.62467618  0.00644429  1
  O2-  O157  1  0.87812458  0.62549151  0.49532054  1
  O2-  O158  1  0.87294149  0.87391520  0.00631171  1
  O2-  O159  1  0.87715854  0.87403122  0.49615342  1
  O2-  O160  1  0.12652623  -0.00135974  0.16458151  1
  O2-  O161  1  0.12426106  0.00023301  0.66668054  1
  O2-  O162  1  0.12541482  0.25111007  0.16544623  1
  O2-  O163  1  0.12473280  0.25025979  0.67470544  1
  O2-  O164  1  0.12499810  0.49812885  0.16289463  1
  O2-  O165  1  0.12388165  0.49999527  0.67248458  1
  O2-  O166  1  0.12559011  0.75169778  0.16182221  1
  O2-  O167  1  0.12437577  0.75042890  0.66414264  1
  O2-  O168  1  0.37474968  0.00028462  0.16464567  1
  O2-  O169  1  0.37401312  0.00164246  0.66082072  1
  O2-  O170  1  0.37403953  0.25196257  0.16156427  1
  O2-  O171  1  0.37413184  0.24960599  0.66833882  1
  O2-  O172  1  0.37445693  0.49807931  0.16394250  1
  O2-  O173  1  0.37412290  0.50274188  0.66730452  1
  O2-  O174  1  0.37518880  0.74880684  0.16784006  1
  O2-  O175  1  0.37303990  0.74664919  0.65788453  1
  O2-  O176  1  0.62415319  -0.00008654  0.16530002  1
  O2-  O177  1  0.62523567  -0.00100786  0.65864900  1
  O2-  O178  1  0.62508594  0.24810363  0.16515276  1
  O2-  O179  1  0.62597844  0.24827915  0.66594749  1
  O2-  O180  1  0.62483582  0.50102144  0.16693262  1
  O2-  O181  1  0.62545641  0.50001127  0.66516823  1
  O2-  O182  1  0.62461621  0.75030652  0.16690047  1
  O2-  O183  1  0.62691547  0.75312528  0.65872889  1
  O2-  O184  1  0.87487462  0.00034010  0.16418457  1
  O2-  O185  1  0.87633848  0.00015875  0.66454450  1
  O2-  O186  1  0.87572354  0.25322150  0.16568872  1
  O2-  O187  1  0.87577410  0.25354793  0.66842111  1
  O2-  O188  1  0.87562843  0.49973235  0.16259169  1
  O2-  O189  1  0.87703201  0.49770728  0.66751740  1
  O2-  O190  1  0.87436984  0.74664525  0.16117484  1
  O2-  O191  1  0.87559057  0.74953721  0.66396355  1
  O2-  O192  1  0.00209617  0.12561285  0.16664693  1
  O2-  O193  1  0.00177777  0.12548350  0.67213006  1
  O2-  O194  1  0.00056960  0.37589819  0.16165244  1
  O2-  O195  1  -0.00056102  0.37531737  0.67464891  1
  O2-  O196  1  -0.00239341  0.62403888  0.15895031  1
  O2-  O197  1  0.00123555  0.62552168  0.67244353  1
  O2-  O198  1  0.00295479  0.87463837  0.15975857  1
  O2-  O199  1  -0.00127451  0.87480086  0.66967464  1
  O2-  O200  1  0.24990102  0.12540300  0.16578045  1
  O2-  O201  1  0.24927089  0.12547751  0.66849106  1
  O2-  O202  1  0.24963988  0.37558377  0.16298012  1
  O2-  O203  1  0.24699832  0.37526810  0.67129665  1
  O2-  O204  1  0.25056204  0.62429131  0.16540342  1
  O2-  O205  1  0.24995347  0.62440774  0.66595192  1
  O2-  O206  1  0.24914499  0.87408549  0.16305909  1
  O2-  O207  1  0.24849196  0.87563359  0.66505429  1
  O2-  O208  1  0.49945155  0.12516879  0.16610097  1
  O2-  O209  1  0.49932172  0.12579046  0.65746480  1
  O2-  O210  1  0.49744012  0.37513291  0.16556657  1
  O2-  O211  1  0.50044907  0.37473481  0.66204771  1
  O2-  O212  1  0.50100846  0.62460759  0.16983634  1
  O2-  O213  1  0.49712184  0.62516730  0.65595394  1
  O2-  O214  1  0.49942773  0.87438294  0.16943042  1
  O2-  O215  1  0.50287337  0.87477425  0.65527604  1
  O2-  O216  1  0.74838114  0.12545824  0.16378320  1
  O2-  O217  1  0.74994226  0.12573459  0.66349182  1
  O2-  O218  1  0.75243284  0.37544547  0.16422099  1
  O2-  O219  1  0.75337186  0.37573943  0.66408130  1
  O2-  O220  1  0.75047915  0.62397419  0.16132718  1
  O2-  O221  1  0.75198590  0.62387175  0.66425687  1
  O2-  O222  1  0.74842266  0.87477973  0.16380169  1
  O2-  O223  1  0.74983661  0.87568177  0.66184754  1
  O2-  O224  1  0.12423938  -0.00055044  0.34547209  1
  O2-  O225  1  0.12650063  -0.00221974  0.85041326  1
  O2-  O226  1  0.12417654  0.24869398  0.34907405  1
  O2-  O227  1  0.12506554  0.25210047  0.85624405  1
  O2-  O228  1  0.12375163  0.49976374  0.34856280  1
  O2-  O229  1  0.12576858  0.49944881  0.85262971  1
  O2-  O230  1  0.12388183  0.75154074  0.34483783  1
  O2-  O231  1  0.12509435  0.75139537  0.84609001  1
  O2-  O232  1  0.37477535  0.00211173  0.34737026  1
  O2-  O233  1  0.37509312  -0.00086106  0.84239093  1
  O2-  O234  1  0.37422826  0.24839510  0.34436858  1
  O2-  O235  1  0.37498187  0.25144613  0.85196343  1
  O2-  O236  1  0.37363838  0.50174137  0.34853196  1
  O2-  O237  1  0.37397530  0.49947469  0.85006554  1
  O2-  O238  1  0.37412061  0.74680911  0.35183962  1
  O2-  O239  1  0.37560596  0.75043090  0.83798717  1
  O2-  O240  1  0.62565069  -0.00095217  0.34761757  1
  O2-  O241  1  0.62415540  -0.00037459  0.83917886  1
  O2-  O242  1  0.62605233  0.24776689  0.34693898  1
  O2-  O243  1  0.62397263  0.24850981  0.84878856  1
  O2-  O244  1  0.62619592  0.49921765  0.35078933  1
  O2-  O245  1  0.62475546  0.50215968  0.84749350  1
  O2-  O246  1  0.62608783  0.75314502  0.35062120  1
  O2-  O247  1  0.62402073  0.74991481  0.83838468  1
  O2-  O248  1  0.87509601  -0.00158265  0.34671806  1
  O2-  O249  1  0.87405874  0.00054312  0.84859169  1
  O2-  O250  1  0.87610605  0.25208180  0.35003506  1
  O2-  O251  1  0.87556421  0.25320680  0.85213087  1
  O2-  O252  1  0.87653951  0.49860900  0.34748502  1
  O2-  O253  1  0.87503997  0.50074790  0.85199724  1
  O2-  O254  1  0.87554458  0.75050465  0.34242528  1
  O2-  O255  1  0.87493375  0.74629422  0.84852112  1
  O2-  O256  1  0.00090220  0.12489997  0.34893624  1
  O2-  O257  1  0.00120664  0.12486870  0.85462252  1
  O2-  O258  1  -0.00189486  0.37505707  0.34727274  1
  O2-  O259  1  0.00027812  0.37687322  0.85817950  1
  O2-  O260  1  -0.00101958  0.62431194  0.34207326  1
  O2-  O261  1  -0.00064404  0.62427309  0.85540240  1
  O2-  O262  1  -0.00101304  0.87497605  0.34028656  1
  O2-  O263  1  0.00254473  0.87482500  0.85500942  1
  O2-  O264  1  0.24973236  0.12517607  0.34784861  1
  O2-  O265  1  0.25222088  0.12536303  0.84997404  1
  O2-  O266  1  0.24728270  0.37473069  0.34783198  1
  O2-  O267  1  0.25093771  0.37520507  0.85381048  1
  O2-  O268  1  0.25001555  0.62430728  0.35061191  1
  O2-  O269  1  0.25104448  0.62552765  0.84511945  1
  O2-  O270  1  0.24738615  0.87469724  0.34660060  1
  O2-  O271  1  0.25056550  0.87434919  0.84790529  1
  O2-  O272  1  0.50070029  0.12479830  0.34749597  1
  O2-  O273  1  0.49944902  0.12510097  0.83792289  1
  O2-  O274  1  0.50125597  0.37475879  0.34934231  1
  O2-  O275  1  0.49672032  0.37595990  0.84582015  1
  O2-  O276  1  0.49785976  0.62451852  0.35391643  1
  O2-  O277  1  0.49923784  0.62464627  0.83618831  1
  O2-  O278  1  0.50327076  0.87492878  0.35335757  1
  O2-  O279  1  0.49963938  0.87474418  0.83460759  1
  O2-  O280  1  0.74892652  0.12462778  0.34622908  1
  O2-  O281  1  0.74721457  0.12569689  0.84549610  1
  O2-  O282  1  0.75339381  0.37488762  0.34825789  1
  O2-  O283  1  0.75206231  0.37595421  0.84903339  1
  O2-  O284  1  0.75295335  0.62458897  0.34376426  1
  O2-  O285  1  0.74983737  0.62500320  0.84747719  1
  O2-  O286  1  0.75017115  0.87500454  0.34584058  1
  O2-  O287  1  0.74703243  0.87406446  0.84453407  1
