# generated using pymatgen
data_BaYFeCuO5
_symmetry_space_group_name_H-M   'P 1'
_cell_length_a   15.66667545
_cell_length_b   15.66527665
_cell_length_c   15.46543986
_cell_angle_alpha   89.99906411
_cell_angle_beta   89.99633021
_cell_angle_gamma   90.00402996
_symmetry_Int_Tables_number   1
_chemical_formula_structural   BaYFeCuO5
_chemical_formula_sum   'Ba32 Y32 Fe32 Cu32 O160'
_cell_volume   3795.57161536
_cell_formula_units_Z   32
loop_
 _symmetry_equiv_pos_site_id
 _symmetry_equiv_pos_as_xyz
  1  'x, y, z'
loop_
 _atom_type_symbol
 _atom_type_oxidation_number
  Ba2+  2.0
  Y3+  3.0
  Fe3+  3.0
  Cu2+  2.0
  O2-  -2.0
loop_
 _atom_site_type_symbol
 _atom_site_label
 _atom_site_symmetry_multiplicity
 _atom_site_fract_x
 _atom_site_fract_y
 _atom_site_fract_z
 _atom_site_occupancy
  Ba2+  Ba0  1  -0.00532886  -0.00764994  0.00795173  1
  Ba2+  Ba1  1  -0.00411538  0.00308224  0.49790835  1
  Ba2+  Ba2  1  0.00126889  0.26075629  0.01758449  1
  Ba2+  Ba3  1  -0.00851659  0.24270031  0.50537953  1
  Ba2+  Ba4  1  -0.00040360  0.50565173  0.01625100  1
  Ba2+  Ba5  1  -0.00972404  0.49896545  0.51650312  1
  Ba2+  Ba6  1  -0.00621932  0.74226408  0.00685948  1
  Ba2+  Ba7  1  -0.00563226  0.75558728  0.51321119  1
  Ba2+  Ba8  1  0.25809184  -0.00184005  0.00676872  1
  Ba2+  Ba9  1  0.24505655  -0.00244818  0.49957006  1
  Ba2+  Ba10  1  0.25690545  0.25901102  0.00680393  1
  Ba2+  Ba11  1  0.24910969  0.24824645  0.50678841  1
  Ba2+  Ba12  1  0.25346974  0.50338062  0.01237965  1
  Ba2+  Ba13  1  0.25338001  0.49535444  0.51150490  1
  Ba2+  Ba14  1  0.25422613  0.73980175  0.01140761  1
  Ba2+  Ba15  1  0.24931887  0.75931801  0.50673463  1
  Ba2+  Ba16  1  0.49687617  -0.00594352  0.01252587  1
  Ba2+  Ba17  1  0.50833678  -0.00449624  0.51577883  1
  Ba2+  Ba18  1  0.49650486  0.26021130  0.00223443  1
  Ba2+  Ba19  1  0.50697225  0.25254538  0.52349903  1
  Ba2+  Ba20  1  0.49998376  0.50173571  0.00493490  1
  Ba2+  Ba21  1  0.50252738  0.49137731  0.51830529  1
  Ba2+  Ba22  1  0.50088011  0.74406665  0.01716235  1
  Ba2+  Ba23  1  0.50346987  0.76021802  0.51085873  1
  Ba2+  Ba24  1  0.75077890  -0.01178779  0.01146078  1
  Ba2+  Ba25  1  0.75075976  0.00081885  0.51821611  1
  Ba2+  Ba26  1  0.74666053  0.26145503  0.00996514  1
  Ba2+  Ba27  1  0.75186082  0.24727847  0.52276343  1
  Ba2+  Ba28  1  0.74657530  0.50431538  0.01041313  1
  Ba2+  Ba29  1  0.75382942  0.49501429  0.52299117  1
  Ba2+  Ba30  1  0.75141254  0.74506887  0.01122421  1
  Ba2+  Ba31  1  0.75190642  0.75713424  0.51735218  1
  Y3+  Y32  1  -0.00141597  0.00016807  0.25739305  1
  Y3+  Y33  1  -0.00403989  -0.00091680  0.75901870  1
  Y3+  Y34  1  -0.00074779  0.24963482  0.25855123  1
  Y3+  Y35  1  -0.00181956  0.24910569  0.75593707  1
  Y3+  Y36  1  -0.00040042  0.50091228  0.25335197  1
  Y3+  Y37  1  -0.00186699  0.50343573  0.75966975  1
  Y3+  Y38  1  -0.00113542  0.74895810  0.25328502  1
  Y3+  Y39  1  -0.00307333  0.74865858  0.76235757  1
  Y3+  Y40  1  0.24879342  -0.00058309  0.25737254  1
  Y3+  Y41  1  0.25241263  -0.00022166  0.75842038  1
  Y3+  Y42  1  0.24972091  0.25183027  0.25619178  1
  Y3+  Y43  1  0.25328230  0.25083129  0.75916051  1
  Y3+  Y44  1  0.25037236  0.50084749  0.25379126  1
  Y3+  Y45  1  0.25258347  0.50112094  0.76075117  1
  Y3+  Y46  1  0.25034189  0.74842409  0.25549435  1
  Y3+  Y47  1  0.24956035  0.74768848  0.75929383  1
  Y3+  Y48  1  0.50225792  -0.00298295  0.25740934  1
  Y3+  Y49  1  0.50116912  -0.00063159  0.75588074  1
  Y3+  Y50  1  0.50101138  0.25287679  0.25230626  1
  Y3+  Y51  1  0.49977764  0.25261960  0.76107737  1
  Y3+  Y52  1  0.50090967  0.50058251  0.25105555  1
  Y3+  Y53  1  0.50029438  0.49904233  0.76222387  1
  Y3+  Y54  1  0.50222038  0.74985781  0.25591681  1
  Y3+  Y55  1  0.50132657  0.74880055  0.75715339  1
  Y3+  Y56  1  0.74989804  -0.00286144  0.25677330  1
  Y3+  Y57  1  0.75072149  -0.00151555  0.75698920  1
  Y3+  Y58  1  0.75003596  0.25134804  0.25353574  1
  Y3+  Y59  1  0.74892427  0.25023824  0.75811683  1
  Y3+  Y60  1  0.74890840  0.50119383  0.25027586  1
  Y3+  Y61  1  0.74910432  0.50116497  0.76170663  1
  Y3+  Y62  1  0.74876865  0.75012628  0.25302055  1
  Y3+  Y63  1  0.75220246  0.74951665  0.76073945  1
  Fe3+  Fe64  1  0.12551736  0.12548273  0.88226471  1
  Fe3+  Fe65  1  0.12531767  0.87369032  0.88120071  1
  Fe3+  Fe66  1  0.62585043  0.12589096  0.37551874  1
  Fe3+  Fe67  1  0.37581685  0.87539165  0.37559117  1
  Fe3+  Fe68  1  0.12382120  0.37547459  0.37951288  1
  Fe3+  Fe69  1  0.87348797  0.62459531  0.37671240  1
  Fe3+  Fe70  1  0.37685280  0.37470403  0.37714165  1
  Fe3+  Fe71  1  0.87559932  0.37596139  0.87665294  1
  Fe3+  Fe72  1  0.62605344  0.37548315  0.37520392  1
  Fe3+  Fe73  1  0.62472702  0.87352719  0.87695220  1
  Fe3+  Fe74  1  0.87284487  0.37550221  0.37450576  1
  Fe3+  Fe75  1  0.87455359  0.12578755  0.88126897  1
  Fe3+  Fe76  1  0.37602490  0.87307335  0.87590763  1
  Fe3+  Fe77  1  0.37727744  0.12565908  0.37971667  1
  Fe3+  Fe78  1  0.12479534  0.37638434  0.87606798  1
  Fe3+  Fe79  1  0.87367265  0.87432332  0.37390703  1
  Fe3+  Fe80  1  0.12409455  0.62502392  0.38073153  1
  Fe3+  Fe81  1  0.62429481  0.12441024  0.87990410  1
  Fe3+  Fe82  1  0.62592852  0.62428005  0.38102687  1
  Fe3+  Fe83  1  0.37613453  0.62442808  0.38080702  1
  Fe3+  Fe84  1  0.12409433  0.37423166  0.63474401  1
  Fe3+  Fe85  1  0.12542695  0.87391689  0.13508124  1
  Fe3+  Fe86  1  0.37547337  0.12535766  0.13731401  1
  Fe3+  Fe87  1  0.12573535  0.12539410  0.13496101  1
  Fe3+  Fe88  1  0.12429214  0.12402651  0.63909965  1
  Fe3+  Fe89  1  0.37517041  0.62550065  0.63441397  1
  Fe3+  Fe90  1  0.12401260  0.87618895  0.64033412  1
  Fe3+  Fe91  1  0.62577198  0.62522437  0.63591461  1
  Fe3+  Fe92  1  0.87438851  0.12528354  0.13349025  1
  Fe3+  Fe93  1  0.62443300  0.12487248  0.13216033  1
  Fe3+  Fe94  1  0.37522477  0.12419563  0.63559148  1
  Fe3+  Fe95  1  0.12442437  0.62541454  0.63455893  1
  Cu2+  Cu96  1  0.37447987  0.37654174  0.87063625  1
  Cu2+  Cu97  1  0.87163651  0.12543858  0.36928555  1
  Cu2+  Cu98  1  0.12526259  0.62450884  0.87383810  1
  Cu2+  Cu99  1  0.12528262  0.12560579  0.36251146  1
  Cu2+  Cu100  1  0.37583218  0.12441132  0.86535655  1
  Cu2+  Cu101  1  0.87438541  0.87444556  0.87356448  1
  Cu2+  Cu102  1  0.37582127  0.62569800  0.86955687  1
  Cu2+  Cu103  1  0.62621924  0.87435506  0.37133463  1
  Cu2+  Cu104  1  0.62461083  0.62582205  0.87103302  1
  Cu2+  Cu105  1  0.87406994  0.62410127  0.87178962  1
  Cu2+  Cu106  1  0.12396962  0.87378721  0.35971670  1
  Cu2+  Cu107  1  0.62545838  0.37573344  0.87163203  1
  Cu2+  Cu108  1  0.87530764  0.12395970  0.64455032  1
  Cu2+  Cu109  1  0.87551682  0.87429891  0.14154461  1
  Cu2+  Cu110  1  0.62469272  0.87504368  0.14855176  1
  Cu2+  Cu111  1  0.37451575  0.87506327  0.15233233  1
  Cu2+  Cu112  1  0.37409318  0.87476370  0.65080883  1
  Cu2+  Cu113  1  0.87617645  0.87499222  0.65501690  1
  Cu2+  Cu114  1  0.87436545  0.62502415  0.14264489  1
  Cu2+  Cu115  1  0.62486988  0.12512964  0.65596901  1
  Cu2+  Cu116  1  0.12517548  0.62533848  0.14317729  1
  Cu2+  Cu117  1  0.87491866  0.62566207  0.65152469  1
  Cu2+  Cu118  1  0.62580802  0.37581655  0.65685844  1
  Cu2+  Cu119  1  0.87502976  0.37509116  0.14902951  1
  Cu2+  Cu120  1  0.37506890  0.37585624  0.14300047  1
  Cu2+  Cu121  1  0.62408339  0.37567936  0.13906893  1
  Cu2+  Cu122  1  0.87597944  0.37460428  0.65476944  1
  Cu2+  Cu123  1  0.62461800  0.62527268  0.14214312  1
  Cu2+  Cu124  1  0.37406194  0.37500065  0.65169227  1
  Cu2+  Cu125  1  0.12543789  0.37529739  0.15153023  1
  Cu2+  Cu126  1  0.37569352  0.62489900  0.14455576  1
  Cu2+  Cu127  1  0.62595147  0.87429861  0.64461300  1
  O2-  O128  1  0.12637097  0.12643942  0.00869255  1
  O2-  O129  1  0.12429084  0.12337776  0.51909067  1
  O2-  O130  1  0.12536962  0.37662952  -0.00357451  1
  O2-  O131  1  0.12367245  0.37324942  0.50680858  1
  O2-  O132  1  0.12559969  0.62472450  0.00701730  1
  O2-  O133  1  0.12406740  0.62579571  0.50732356  1
  O2-  O134  1  0.12654497  0.87284752  0.00814266  1
  O2-  O135  1  0.12326783  0.87820123  0.51953994  1
  O2-  O136  1  0.37391675  0.12485572  0.01678251  1
  O2-  O137  1  0.37648007  0.12514278  0.50703838  1
  O2-  O138  1  0.37373912  0.37713717  0.00686970  1
  O2-  O139  1  0.37691438  0.37256719  0.49746646  1
  O2-  O140  1  0.37613191  0.62518215  0.00790561  1
  O2-  O141  1  0.37494508  0.62435949  0.50683118  1
  O2-  O142  1  0.37552185  0.87308751  -0.00357710  1
  O2-  O143  1  0.37455014  0.87774478  0.49649316  1
  O2-  O144  1  0.62262767  0.12392462  0.00603723  1
  O2-  O145  1  0.62654213  0.12678930  0.49593003  1
  O2-  O146  1  0.62387857  0.37560735  0.00551086  1
  O2-  O147  1  0.62707099  0.37370235  0.49588345  1
  O2-  O148  1  0.62435119  0.62606724  0.00653010  1
  O2-  O149  1  0.62625071  0.62357812  0.50743004  1
  O2-  O150  1  0.62235836  0.87425662  -0.00257880  1
  O2-  O151  1  0.62694102  0.87540619  0.50752746  1
  O2-  O152  1  0.87633185  0.12655514  0.00703186  1
  O2-  O153  1  0.87337367  0.12434078  0.50661498  1
  O2-  O154  1  0.87756766  0.37573764  -0.00306204  1
  O2-  O155  1  0.87295352  0.37373201  0.49510699  1
  O2-  O156  1  0.87411422  0.62323831  0.00743619  1
  O2-  O157  1  0.87451204  0.62507445  0.49702227  1
  O2-  O158  1  0.87578103  0.87433977  0.00747799  1
  O2-  O159  1  0.87468281  0.87617216  0.49531124  1
  O2-  O160  1  0.12572991  0.00077909  0.16101486  1
  O2-  O161  1  0.12533666  0.00035591  0.67581616  1
  O2-  O162  1  0.12510143  0.24804941  0.16406092  1
  O2-  O163  1  0.12570014  0.25030564  0.66614213  1
  O2-  O164  1  0.12516502  0.49884424  0.16822661  1
  O2-  O165  1  0.12433617  0.50036483  0.65642489  1
  O2-  O166  1  0.12586101  0.75264412  0.16681632  1
  O2-  O167  1  0.12529817  0.74856501  0.66371722  1
  O2-  O168  1  0.37430797  0.00088215  0.16551426  1
  O2-  O169  1  0.37492046  0.00159655  0.66463845  1
  O2-  O170  1  0.37406793  0.24835495  0.16637222  1
  O2-  O171  1  0.37443705  0.24827928  0.66410149  1
  O2-  O172  1  0.37420552  0.50007512  0.16786828  1
  O2-  O173  1  0.37424999  0.50184417  0.66153568  1
  O2-  O174  1  0.37458373  0.75168130  0.16835544  1
  O2-  O175  1  0.37372065  0.74779146  0.65993574  1
  O2-  O176  1  0.62454134  0.00173413  0.16182073  1
  O2-  O177  1  0.62512951  0.00053239  0.66674974  1
  O2-  O178  1  0.62446719  0.24681013  0.16044192  1
  O2-  O179  1  0.62500403  0.25094788  0.66713064  1
  O2-  O180  1  0.62470720  0.50013032  0.16480467  1
  O2-  O181  1  0.62497225  0.50165160  0.66337082  1
  O2-  O182  1  0.62420526  0.75180290  0.16675480  1
  O2-  O183  1  0.62509762  0.74677441  0.66257819  1
  O2-  O184  1  0.87545826  0.00372454  0.16202294  1
  O2-  O185  1  0.87543059  -0.00151712  0.66942242  1
  O2-  O186  1  0.87614619  0.24786086  0.16200134  1
  O2-  O187  1  0.87521275  0.25072057  0.66716848  1
  O2-  O188  1  0.87568003  0.49849876  0.16460872  1
  O2-  O189  1  0.87630913  0.49983451  0.66162795  1
  O2-  O190  1  0.87527994  0.75003812  0.16555677  1
  O2-  O191  1  0.87621253  0.75035850  0.66518884  1
  O2-  O192  1  0.00070857  0.12537457  0.16200322  1
  O2-  O193  1  0.00187809  0.12485183  0.67043501  1
  O2-  O194  1  0.00026604  0.37403532  0.16507870  1
  O2-  O195  1  0.00203635  0.37405229  0.66236284  1
  O2-  O196  1  0.00008406  0.62482027  0.16520321  1
  O2-  O197  1  0.00170038  0.62546969  0.66433969  1
  O2-  O198  1  0.00337267  0.87627879  0.16311634  1
  O2-  O199  1  0.00089007  0.87453807  0.67055586  1
  O2-  O200  1  0.24862656  0.12494880  0.16896271  1
  O2-  O201  1  0.25105881  0.12472907  0.66577916  1
  O2-  O202  1  0.24892368  0.37452360  0.16898895  1
  O2-  O203  1  0.24712446  0.37510459  0.66211684  1
  O2-  O204  1  0.25002503  0.62512712  0.16836310  1
  O2-  O205  1  0.24929734  0.62448547  0.66255846  1
  O2-  O206  1  0.24809963  0.87619298  0.16509408  1
  O2-  O207  1  0.24872001  0.87498244  0.66770399  1
  O2-  O208  1  0.50080541  0.12411281  0.16493865  1
  O2-  O209  1  0.49860942  0.12523876  0.66274880  1
  O2-  O210  1  0.49970208  0.37474538  0.16427566  1
  O2-  O211  1  0.49983480  0.37498163  0.66417474  1
  O2-  O212  1  0.50019169  0.62595214  0.16825543  1
  O2-  O213  1  0.49973110  0.62478303  0.66033432  1
  O2-  O214  1  0.49949996  0.87564477  0.16439791  1
  O2-  O215  1  0.49833662  0.87484826  0.66221853  1
  O2-  O216  1  0.74975726  0.12542113  0.15566569  1
  O2-  O217  1  0.74852307  0.12482743  0.66857945  1
  O2-  O218  1  0.75096944  0.37436334  0.15973272  1
  O2-  O219  1  0.75107404  0.37480987  0.66543534  1
  O2-  O220  1  0.74962285  0.62530043  0.16316104  1
  O2-  O221  1  0.74919833  0.62475258  0.66331409  1
  O2-  O222  1  0.74906552  0.87552394  0.16140652  1
  O2-  O223  1  0.75235486  0.87521103  0.66541653  1
  O2-  O224  1  0.12486512  0.00023048  0.34672484  1
  O2-  O225  1  0.12626493  0.00021852  0.85878734  1
  O2-  O226  1  0.12535621  0.25242535  0.34951695  1
  O2-  O227  1  0.12543006  0.24845912  0.84892704  1
  O2-  O228  1  0.12553111  0.50016505  0.35317760  1
  O2-  O229  1  0.12510758  0.49787205  0.84041611  1
  O2-  O230  1  0.12566207  0.74711143  0.35151433  1
  O2-  O231  1  0.12541573  0.75347541  0.84777441  1
  O2-  O232  1  0.37437341  0.00172272  0.34779138  1
  O2-  O233  1  0.37497472  -0.00154440  0.84833899  1
  O2-  O234  1  0.37434084  0.24948032  0.34757278  1
  O2-  O235  1  0.37492536  0.24888507  0.84927473  1
  O2-  O236  1  0.37413173  0.50077037  0.35065619  1
  O2-  O237  1  0.37486429  0.50079583  0.84623895  1
  O2-  O238  1  0.37383448  0.74816485  0.35174508  1
  O2-  O239  1  0.37472828  0.75188624  0.84239568  1
  O2-  O240  1  0.62467072  0.00113643  0.34506709  1
  O2-  O241  1  0.62483338  0.00067723  0.84968299  1
  O2-  O242  1  0.62447351  0.25133450  0.34101746  1
  O2-  O243  1  0.62430175  0.24700114  0.85160702  1
  O2-  O244  1  0.62418558  0.50123289  0.34749723  1
  O2-  O245  1  0.62493484  0.50034703  0.84778217  1
  O2-  O246  1  0.62430310  0.74615877  0.35108532  1
  O2-  O247  1  0.62469642  0.75183038  0.84430836  1
  O2-  O248  1  0.87516913  -0.00170228  0.34426235  1
  O2-  O249  1  0.87501707  0.00361536  0.85284531  1
  O2-  O250  1  0.87492411  0.25254202  0.34376804  1
  O2-  O251  1  0.87593217  0.24838589  0.84938686  1
  O2-  O252  1  0.87568438  0.50022805  0.34549917  1
  O2-  O253  1  0.87537730  0.49827428  0.84510350  1
  O2-  O254  1  0.87589740  0.74880614  0.34598624  1
  O2-  O255  1  0.87513556  0.74971599  0.84979978  1
  O2-  O256  1  0.00076246  0.12533372  0.34757469  1
  O2-  O257  1  0.00055849  0.12447108  0.85309931  1
  O2-  O258  1  0.00075003  0.37489433  0.34906295  1
  O2-  O259  1  0.00006328  0.37401169  0.84372097  1
  O2-  O260  1  0.00099448  0.62449185  0.34799864  1
  O2-  O261  1  -0.00042612  0.62491782  0.84915354  1
  O2-  O262  1  -0.00058326  0.87505217  0.34567068  1
  O2-  O263  1  0.00256036  0.87614973  0.85313997  1
  O2-  O264  1  0.25249539  0.12513474  0.35388631  1
  O2-  O265  1  0.24822340  0.12466068  0.84968973  1
  O2-  O266  1  0.24931217  0.37480936  0.35242092  1
  O2-  O267  1  0.24852351  0.37422294  0.84505717  1
  O2-  O268  1  0.25019016  0.62455616  0.35327947  1
  O2-  O269  1  0.25064296  0.62532199  0.84704020  1
  O2-  O270  1  0.24999404  0.87541053  0.34858523  1
  O2-  O271  1  0.24919644  0.87574002  0.84935637  1
  O2-  O272  1  0.49915910  0.12541320  0.34651499  1
  O2-  O273  1  0.50173014  0.12439695  0.84796884  1
  O2-  O274  1  0.50000192  0.37532152  0.34453635  1
  O2-  O275  1  0.49964885  0.37511458  0.84897330  1
  O2-  O276  1  0.49955729  0.62474359  0.35241924  1
  O2-  O277  1  0.49984589  0.62536466  0.84483185  1
  O2-  O278  1  0.49845495  0.87456802  0.34732019  1
  O2-  O279  1  0.50035378  0.87547761  0.84339959  1
  O2-  O280  1  0.74708061  0.12552303  0.33813537  1
  O2-  O281  1  0.74992611  0.12556887  0.85321958  1
  O2-  O282  1  0.74929722  0.37594807  0.34060790  1
  O2-  O283  1  0.75223084  0.37376687  0.84851555  1
  O2-  O284  1  0.74884791  0.62442100  0.34562261  1
  O2-  O285  1  0.74998012  0.62509116  0.84787605  1
  O2-  O286  1  0.75147452  0.87387676  0.34331454  1
  O2-  O287  1  0.74829988  0.87562718  0.84847978  1
