# generated using pymatgen
data_BaYFeCuO5
_symmetry_space_group_name_H-M   'P 1'
_cell_length_a   15.66515748
_cell_length_b   15.66338136
_cell_length_c   15.47002503
_cell_angle_alpha   90.00751996
_cell_angle_beta   90.00331677
_cell_angle_gamma   89.99436350
_symmetry_Int_Tables_number   1
_chemical_formula_structural   BaYFeCuO5
_chemical_formula_sum   'Ba32 Y32 Fe32 Cu32 O160'
_cell_volume   3795.86970753
_cell_formula_units_Z   32
loop_
 _symmetry_equiv_pos_site_id
 _symmetry_equiv_pos_as_xyz
  1  'x, y, z'
loop_
 _atom_type_symbol
 _atom_type_oxidation_number
  Ba2+  2.0
  Y3+  3.0
  Fe3+  3.0
  Cu2+  2.0
  O2-  -2.0
loop_
 _atom_site_type_symbol
 _atom_site_label
 _atom_site_symmetry_multiplicity
 _atom_site_fract_x
 _atom_site_fract_y
 _atom_site_fract_z
 _atom_site_occupancy
  Ba2+  Ba0  1  0.00317602  -0.00862763  0.01026726  1
  Ba2+  Ba1  1  -0.00387698  0.00372077  0.51404757  1
  Ba2+  Ba2  1  0.00641275  0.25654226  0.00504357  1
  Ba2+  Ba3  1  -0.00354906  0.24522296  0.52287771  1
  Ba2+  Ba4  1  0.00345017  0.49928909  0.01281870  1
  Ba2+  Ba5  1  -0.00228001  0.50867753  0.51126720  1
  Ba2+  Ba6  1  -0.00058784  0.75252471  0.01793546  1
  Ba2+  Ba7  1  -0.00293651  0.74299025  0.50262571  1
  Ba2+  Ba8  1  0.24321120  0.00222599  0.00733137  1
  Ba2+  Ba9  1  0.25581498  0.00171087  0.51783818  1
  Ba2+  Ba10  1  0.24738560  0.25305849  0.01236374  1
  Ba2+  Ba11  1  0.25536977  0.24753277  0.51671621  1
  Ba2+  Ba12  1  0.24325597  0.49374481  0.01728488  1
  Ba2+  Ba13  1  0.25196668  0.50416788  0.51150582  1
  Ba2+  Ba14  1  0.23869805  0.75127572  0.01212379  1
  Ba2+  Ba15  1  0.25273246  0.74710481  0.51293896  1
  Ba2+  Ba16  1  0.50606811  0.00310530  0.00747469  1
  Ba2+  Ba17  1  0.49798318  -0.00121483  0.51286693  1
  Ba2+  Ba18  1  0.49944179  0.25037476  0.01731607  1
  Ba2+  Ba19  1  0.49470097  0.24554722  0.51635038  1
  Ba2+  Ba20  1  0.49944310  0.49089776  0.01908930  1
  Ba2+  Ba21  1  0.49039989  0.49741552  0.51059154  1
  Ba2+  Ba22  1  0.50635863  0.75570751  0.00731097  1
  Ba2+  Ba23  1  0.49385849  0.75869053  0.50621797  1
  Ba2+  Ba24  1  0.74764576  -0.00788899  0.01083737  1
  Ba2+  Ba25  1  0.74915889  -0.00008353  0.50647040  1
  Ba2+  Ba26  1  0.74608123  0.25307478  0.01203032  1
  Ba2+  Ba27  1  0.75345551  0.24341796  0.52252939  1
  Ba2+  Ba28  1  0.75584510  0.49735566  0.01128629  1
  Ba2+  Ba29  1  0.76043871  0.50232957  0.51213747  1
  Ba2+  Ba30  1  0.75589515  0.75699981  0.01120596  1
  Ba2+  Ba31  1  0.75629196  0.75367461  0.49493095  1
  Y3+  Y32  1  0.00066599  -0.00287769  0.25402082  1
  Y3+  Y33  1  0.00053765  -0.00158449  0.76100345  1
  Y3+  Y34  1  0.00292088  0.25005726  0.25366024  1
  Y3+  Y35  1  0.00010232  0.25182158  0.75905635  1
  Y3+  Y36  1  0.00148835  0.50338107  0.25953094  1
  Y3+  Y37  1  -0.00035324  0.50055836  0.75480583  1
  Y3+  Y38  1  -0.00071122  0.74874546  0.25832087  1
  Y3+  Y39  1  0.00038082  0.74972868  0.75806217  1
  Y3+  Y40  1  0.24852854  -0.00162852  0.25629962  1
  Y3+  Y41  1  0.25105404  -0.00005651  0.75852314  1
  Y3+  Y42  1  0.24952873  0.25247823  0.25623672  1
  Y3+  Y43  1  0.25065067  0.24989279  0.75745920  1
  Y3+  Y44  1  0.24761863  0.49834198  0.26010441  1
  Y3+  Y45  1  0.24922264  0.50025188  0.75361132  1
  Y3+  Y46  1  0.24652025  0.75030363  0.25982384  1
  Y3+  Y47  1  0.24939112  0.75011896  0.75553744  1
  Y3+  Y48  1  0.50171717  -0.00239158  0.25683457  1
  Y3+  Y49  1  0.49890181  -0.00007833  0.75854703  1
  Y3+  Y50  1  0.49916379  0.25109557  0.25706522  1
  Y3+  Y51  1  0.49734845  0.24784376  0.75553875  1
  Y3+  Y52  1  0.49848457  0.49719009  0.25949730  1
  Y3+  Y53  1  0.49772488  0.50000184  0.75361953  1
  Y3+  Y54  1  0.50081680  0.75391534  0.25820118  1
  Y3+  Y55  1  0.49897085  0.75194144  0.75793647  1
  Y3+  Y56  1  0.74897450  -0.00372379  0.25391772  1
  Y3+  Y57  1  0.74966032  -0.00140867  0.76175504  1
  Y3+  Y58  1  0.74782620  0.24893258  0.25438566  1
  Y3+  Y59  1  0.75215966  0.24970241  0.75759595  1
  Y3+  Y60  1  0.75187071  0.50184945  0.25878020  1
  Y3+  Y61  1  0.75363748  0.50057363  0.75499251  1
  Y3+  Y62  1  0.75299931  0.75238702  0.25559227  1
  Y3+  Y63  1  0.75121937  0.75152760  0.76126072  1
  Fe3+  Fe64  1  0.62446988  0.12629159  0.87629718  1
  Fe3+  Fe65  1  0.87608764  0.62481615  0.87810148  1
  Fe3+  Fe66  1  0.62496376  0.12463977  0.37586224  1
  Fe3+  Fe67  1  0.12558977  0.12576836  0.87589851  1
  Fe3+  Fe68  1  0.12430856  0.37417053  0.38138495  1
  Fe3+  Fe69  1  0.12457965  0.87571973  0.38081599  1
  Fe3+  Fe70  1  0.12472720  0.12508732  0.37710301  1
  Fe3+  Fe71  1  0.62459579  0.37600219  0.87366164  1
  Fe3+  Fe72  1  0.12517466  0.62426628  0.87585808  1
  Fe3+  Fe73  1  0.87523515  0.12500821  0.37261519  1
  Fe3+  Fe74  1  0.62471016  0.62563707  0.37972713  1
  Fe3+  Fe75  1  0.37403441  0.87527837  0.88045136  1
  Fe3+  Fe76  1  0.87548762  0.37270700  0.37808604  1
  Fe3+  Fe77  1  0.62576250  0.37391730  0.38065931  1
  Fe3+  Fe78  1  0.37452406  0.12416190  0.37425566  1
  Fe3+  Fe79  1  0.37447789  0.37504260  0.87549173  1
  Fe3+  Fe80  1  0.87525067  0.12527935  0.88024635  1
  Fe3+  Fe81  1  0.62496450  0.62371113  0.88008447  1
  Fe3+  Fe82  1  0.37459785  0.62398253  0.88114537  1
  Fe3+  Fe83  1  0.37495753  0.62586457  0.37459710  1
  Fe3+  Fe84  1  0.62531308  0.37463807  0.63373584  1
  Fe3+  Fe85  1  0.12461002  0.87511270  0.63560145  1
  Fe3+  Fe86  1  0.62542341  0.62701710  0.63357586  1
  Fe3+  Fe87  1  0.62575511  0.87500734  0.63874555  1
  Fe3+  Fe88  1  0.37420656  0.62505409  0.13436242  1
  Fe3+  Fe89  1  0.37435335  0.12456159  0.13584741  1
  Fe3+  Fe90  1  0.12465001  0.37502715  0.63493650  1
  Fe3+  Fe91  1  0.37423705  0.87475133  0.13453453  1
  Fe3+  Fe92  1  0.87600486  0.37523200  0.13849908  1
  Fe3+  Fe93  1  0.62566949  0.62477202  0.13555902  1
  Fe3+  Fe94  1  0.87562025  0.12458392  0.13268554  1
  Fe3+  Fe95  1  0.87465733  0.87462759  0.63922044  1
  Cu2+  Cu96  1  0.87439066  0.62474595  0.37036869  1
  Cu2+  Cu97  1  0.87628141  0.87458281  0.87404531  1
  Cu2+  Cu98  1  0.37350034  0.87630330  0.37127341  1
  Cu2+  Cu99  1  0.12570551  0.37668579  0.86876812  1
  Cu2+  Cu100  1  0.37490158  0.12555099  0.86785524  1
  Cu2+  Cu101  1  0.37435556  0.37355406  0.37379693  1
  Cu2+  Cu102  1  0.87534702  0.37578999  0.86328530  1
  Cu2+  Cu103  1  0.62542004  0.87548618  0.36476785  1
  Cu2+  Cu104  1  0.62481996  0.87472702  0.87334247  1
  Cu2+  Cu105  1  0.87622229  0.87656679  0.36208619  1
  Cu2+  Cu106  1  0.12526785  0.62495113  0.37383920  1
  Cu2+  Cu107  1  0.12533859  0.87367455  0.87089546  1
  Cu2+  Cu108  1  0.87550554  0.62473666  0.14980935  1
  Cu2+  Cu109  1  0.62447732  0.87399782  0.14246107  1
  Cu2+  Cu110  1  0.12432459  0.62621219  0.64036149  1
  Cu2+  Cu111  1  0.37505944  0.87506170  0.64399124  1
  Cu2+  Cu112  1  0.37412746  0.37538377  0.15289994  1
  Cu2+  Cu113  1  0.12496675  0.12431343  0.65221888  1
  Cu2+  Cu114  1  0.87487539  0.12270647  0.65801734  1
  Cu2+  Cu115  1  0.62510137  0.12377587  0.65223225  1
  Cu2+  Cu116  1  0.12521732  0.62479972  0.15311702  1
  Cu2+  Cu117  1  0.62486382  0.12480847  0.14909659  1
  Cu2+  Cu118  1  0.37497202  0.12404234  0.65521127  1
  Cu2+  Cu119  1  0.12494492  0.12491641  0.14761928  1
  Cu2+  Cu120  1  0.37613952  0.62614087  0.65184612  1
  Cu2+  Cu121  1  0.87519951  0.37495156  0.64935545  1
  Cu2+  Cu122  1  0.12402984  0.37525661  0.14499069  1
  Cu2+  Cu123  1  0.37463399  0.37489956  0.64063423  1
  Cu2+  Cu124  1  0.62581619  0.37613632  0.15460043  1
  Cu2+  Cu125  1  0.12552430  0.87450002  0.14458655  1
  Cu2+  Cu126  1  0.87589682  0.87487826  0.14376384  1
  Cu2+  Cu127  1  0.87388065  0.62786638  0.64414993  1
  O2-  O128  1  0.12524751  0.12680591  -0.00320418  1
  O2-  O129  1  0.12370283  0.12521574  0.49681299  1
  O2-  O130  1  0.12511626  0.37599858  0.00603700  1
  O2-  O131  1  0.12385325  0.37286096  0.50728876  1
  O2-  O132  1  0.12488923  0.62331465  -0.00349540  1
  O2-  O133  1  0.12576355  0.62526870  0.50717221  1
  O2-  O134  1  0.12584086  0.87395137  0.00716663  1
  O2-  O135  1  0.12446939  0.87675931  0.50798440  1
  O2-  O136  1  0.37529327  0.12574170  0.01528552  1
  O2-  O137  1  0.37543163  0.12354118  0.49500250  1
  O2-  O138  1  0.37524483  0.37584026  -0.00382518  1
  O2-  O139  1  0.37508227  0.37336182  0.50659075  1
  O2-  O140  1  0.37458118  0.62304960  0.00675261  1
  O2-  O141  1  0.37705180  0.62667325  0.49572891  1
  O2-  O142  1  0.37421773  0.87493052  0.00763898  1
  O2-  O143  1  0.37405156  0.87656510  0.50737025  1
  O2-  O144  1  0.62442451  0.12872947  -0.00334558  1
  O2-  O145  1  0.62567364  0.12487925  0.49581011  1
  O2-  O146  1  0.62440141  0.37653219  -0.00589946  1
  O2-  O147  1  0.62628160  0.37283995  0.50640671  1
  O2-  O148  1  0.62574721  0.62206781  0.00701940  1
  O2-  O149  1  0.62436385  0.62724964  0.50667391  1
  O2-  O150  1  0.62415005  0.87398760  0.00802034  1
  O2-  O151  1  0.62638129  0.87508922  0.51837841  1
  O2-  O152  1  0.87508854  0.12598101  0.00615075  1
  O2-  O153  1  0.87457399  0.12492496  0.49308582  1
  O2-  O154  1  0.87539365  0.37568138  0.01756045  1
  O2-  O155  1  0.87409152  0.37028061  0.49844590  1
  O2-  O156  1  0.87585093  0.62320104  -0.00147214  1
  O2-  O157  1  0.87294924  0.62650736  0.50609108  1
  O2-  O158  1  0.87631322  0.87521880  0.00854952  1
  O2-  O159  1  0.87416586  0.87685554  0.51878790  1
  O2-  O160  1  0.12559411  0.00072800  0.16491930  1
  O2-  O161  1  0.12471521  -0.00127712  0.66418123  1
  O2-  O162  1  0.12519950  0.24935376  0.16429782  1
  O2-  O163  1  0.12465553  0.25064714  0.66264683  1
  O2-  O164  1  0.12501802  0.50114179  0.16827707  1
  O2-  O165  1  0.12454797  0.49789153  0.66038605  1
  O2-  O166  1  0.12529862  0.74838718  0.16822222  1
  O2-  O167  1  0.12558119  0.75314182  0.66398034  1
  O2-  O168  1  0.37459455  -0.00137128  0.16267711  1
  O2-  O169  1  0.37533601  0.00099276  0.66880170  1
  O2-  O170  1  0.37515537  0.25044831  0.16374198  1
  O2-  O171  1  0.37503722  0.24806733  0.66373232  1
  O2-  O172  1  0.37518932  0.50114501  0.16395138  1
  O2-  O173  1  0.37616935  0.50173275  0.66270361  1
  O2-  O174  1  0.37554470  0.74938987  0.16105431  1
  O2-  O175  1  0.37581017  0.74925125  0.66949199  1
  O2-  O176  1  0.62460414  0.00028674  0.16366718  1
  O2-  O177  1  0.62487605  -0.00052712  0.66774431  1
  O2-  O178  1  0.62496078  0.25123985  0.16283798  1
  O2-  O179  1  0.62559018  0.25035726  0.66018761  1
  O2-  O180  1  0.62481180  0.50225091  0.16769619  1
  O2-  O181  1  0.62492012  0.50041579  0.65750325  1
  O2-  O182  1  0.62406074  0.74609122  0.16574720  1
  O2-  O183  1  0.62452958  0.74978879  0.66890614  1
  O2-  O184  1  0.87504578  0.00305350  0.16251598  1
  O2-  O185  1  0.87530246  -0.00150218  0.66970156  1
  O2-  O186  1  0.87449710  0.24863245  0.16206360  1
  O2-  O187  1  0.87448618  0.24796547  0.66558161  1
  O2-  O188  1  0.87472895  0.49978092  0.16737580  1
  O2-  O189  1  0.87405830  0.50046115  0.66181916  1
  O2-  O190  1  0.87553590  0.74837782  0.16580355  1
  O2-  O191  1  0.87403973  0.75274913  0.66982306  1
  O2-  O192  1  -0.00093002  0.12535689  0.16091784  1
  O2-  O193  1  -0.00053670  0.12445295  0.66552459  1
  O2-  O194  1  -0.00164604  0.37525525  0.16841244  1
  O2-  O195  1  0.00099084  0.37409975  0.66343642  1
  O2-  O196  1  0.00068149  0.62477510  0.16554111  1
  O2-  O197  1  -0.00121751  0.62615127  0.66380812  1
  O2-  O198  1  0.00087454  0.87442555  0.16661856  1
  O2-  O199  1  0.00087803  0.87575006  0.66575535  1
  O2-  O200  1  0.25026178  0.12514741  0.16425293  1
  O2-  O201  1  0.25023369  0.12415566  0.66419622  1
  O2-  O202  1  0.24997995  0.37564479  0.16631854  1
  O2-  O203  1  0.24728758  0.37492287  0.66210561  1
  O2-  O204  1  0.25193299  0.62491501  0.16235813  1
  O2-  O205  1  0.25194486  0.62560720  0.66399191  1
  O2-  O206  1  0.25289534  0.87378008  0.16476210  1
  O2-  O207  1  0.24751880  0.87563015  0.66418477  1
  O2-  O208  1  0.49947811  0.12555924  0.16423409  1
  O2-  O209  1  0.49982074  0.12444740  0.66408682  1
  O2-  O210  1  0.50060344  0.37617014  0.16476984  1
  O2-  O211  1  0.50331048  0.37512825  0.66183845  1
  O2-  O212  1  0.49932839  0.62369780  0.16014198  1
  O2-  O213  1  0.50273892  0.62556807  0.66655504  1
  O2-  O214  1  0.49651215  0.87411921  0.16378600  1
  O2-  O215  1  0.50178172  0.87476933  0.66807090  1
  O2-  O216  1  0.75081961  0.12580973  0.15992561  1
  O2-  O217  1  0.75037734  0.12421437  0.66667773  1
  O2-  O218  1  0.75105139  0.37579276  0.16643007  1
  O2-  O219  1  0.74837692  0.37493359  0.66333159  1
  O2-  O220  1  0.74862468  0.62440449  0.16333213  1
  O2-  O221  1  0.74638141  0.62532565  0.66638031  1
  O2-  O222  1  0.75021368  0.87397362  0.16436124  1
  O2-  O223  1  0.74968421  0.87573629  0.67156779  1
  O2-  O224  1  0.12417089  -0.00071062  0.34780746  1
  O2-  O225  1  0.12582570  0.00153146  0.84791834  1
  O2-  O226  1  0.12473850  0.25071920  0.34646277  1
  O2-  O227  1  0.12485723  0.24933591  0.84577377  1
  O2-  O228  1  0.12459195  0.49711278  0.35224436  1
  O2-  O229  1  0.12576730  0.50235200  0.84214166  1
  O2-  O230  1  0.12461473  0.75276680  0.35259273  1
  O2-  O231  1  0.12625874  0.74722491  0.84573944  1
  O2-  O232  1  0.37478568  0.00189913  0.34334978  1
  O2-  O233  1  0.37467147  -0.00147884  0.85299686  1
  O2-  O234  1  0.37511637  0.24721490  0.34506661  1
  O2-  O235  1  0.37541686  0.25101975  0.84650233  1
  O2-  O236  1  0.37602521  0.50162851  0.34768869  1
  O2-  O237  1  0.37554608  0.50157590  0.84530496  1
  O2-  O238  1  0.37560643  0.74918019  0.34461492  1
  O2-  O239  1  0.37589991  0.74885725  0.85377885  1
  O2-  O240  1  0.62568564  -0.00004980  0.34699382  1
  O2-  O241  1  0.62485457  0.00209503  0.84996308  1
  O2-  O242  1  0.62528054  0.25053304  0.34594961  1
  O2-  O243  1  0.62492683  0.25102124  0.84248341  1
  O2-  O244  1  0.62484910  0.49991209  0.35305164  1
  O2-  O245  1  0.62462380  0.50161730  0.84195858  1
  O2-  O246  1  0.62456596  0.74946413  0.35120951  1
  O2-  O247  1  0.62404021  0.74570666  0.85207612  1
  O2-  O248  1  0.87508874  0.00109306  0.34481277  1
  O2-  O249  1  0.87501353  0.00280336  0.85232942  1
  O2-  O250  1  0.87444476  0.24964376  0.34055998  1
  O2-  O251  1  0.87521051  0.24918109  0.85067593  1
  O2-  O252  1  0.87389099  0.49681535  0.34929590  1
  O2-  O253  1  0.87455955  0.50089236  0.84534409  1
  O2-  O254  1  0.87441361  0.75211723  0.35010478  1
  O2-  O255  1  0.87471254  0.74781906  0.84958141  1
  O2-  O256  1  0.00036338  0.12514494  0.34244735  1
  O2-  O257  1  -0.00101403  0.12573253  0.84914890  1
  O2-  O258  1  0.00098306  0.37386123  0.34944361  1
  O2-  O259  1  -0.00090380  0.37594799  0.84771756  1
  O2-  O260  1  -0.00061267  0.62491769  0.35004146  1
  O2-  O261  1  0.00007420  0.62421985  0.84512164  1
  O2-  O262  1  0.00162661  0.87584182  0.35083188  1
  O2-  O263  1  0.00075707  0.87481434  0.84786300  1
  O2-  O264  1  0.24873455  0.12456954  0.34473982  1
  O2-  O265  1  0.24997721  0.12549499  0.84787362  1
  O2-  O266  1  0.24652299  0.37458395  0.35004452  1
  O2-  O267  1  0.25233011  0.37588542  0.84396055  1
  O2-  O268  1  0.25156781  0.62506943  0.34595046  1
  O2-  O269  1  0.25214565  0.62496816  0.84761169  1
  O2-  O270  1  0.24612344  0.87546477  0.34799534  1
  O2-  O271  1  0.25321853  0.87397986  0.84845242  1
  O2-  O272  1  0.50076259  0.12457710  0.34476195  1
  O2-  O273  1  0.50031093  0.12541091  0.84756003  1
  O2-  O274  1  0.50366893  0.37499445  0.34961178  1
  O2-  O275  1  0.49949928  0.37614787  0.84249817  1
  O2-  O276  1  0.50195759  0.62536663  0.34469208  1
  O2-  O277  1  0.49938925  0.62428143  0.85196573  1
  O2-  O278  1  0.50076386  0.87507380  0.34768564  1
  O2-  O279  1  0.49675164  0.87434833  0.85133962  1
  O2-  O280  1  0.74963899  0.12457659  0.34204825  1
  O2-  O281  1  0.75109354  0.12652344  0.84988529  1
  O2-  O282  1  0.74861369  0.37471676  0.34817578  1
  O2-  O283  1  0.74912878  0.37593729  0.84639967  1
  O2-  O284  1  0.74638435  0.62535765  0.34825818  1
  O2-  O285  1  0.74918908  0.62368844  0.84970856  1
  O2-  O286  1  0.75118204  0.87533348  0.34891426  1
  O2-  O287  1  0.74984307  0.87436320  0.85245189  1
