# generated using pymatgen
data_BaYFeCuO5
_symmetry_space_group_name_H-M   'P 1'
_cell_length_a   15.65907564
_cell_length_b   15.66065081
_cell_length_c   15.46000249
_cell_angle_alpha   89.99951040
_cell_angle_beta   90.00394850
_cell_angle_gamma   89.99827043
_symmetry_Int_Tables_number   1
_chemical_formula_structural   BaYFeCuO5
_chemical_formula_sum   'Ba32 Y32 Fe32 Cu32 O160'
_cell_volume   3791.27673929
_cell_formula_units_Z   32
loop_
 _symmetry_equiv_pos_site_id
 _symmetry_equiv_pos_as_xyz
  1  'x, y, z'
loop_
 _atom_type_symbol
 _atom_type_oxidation_number
  Ba2+  2.0
  Y3+  3.0
  Fe3+  3.0
  Cu2+  2.0
  O2-  -2.0
loop_
 _atom_site_type_symbol
 _atom_site_label
 _atom_site_symmetry_multiplicity
 _atom_site_fract_x
 _atom_site_fract_y
 _atom_site_fract_z
 _atom_site_occupancy
  Ba2+  Ba0  1  -0.00118549  -0.00490307  0.00709842  1
  Ba2+  Ba1  1  0.00727474  0.00478866  0.50638828  1
  Ba2+  Ba2  1  0.00585427  0.24629148  0.00795279  1
  Ba2+  Ba3  1  0.00437519  0.24149094  0.51221537  1
  Ba2+  Ba4  1  0.00249621  0.49782145  0.00211159  1
  Ba2+  Ba5  1  0.00329339  0.50449429  0.52518955  1
  Ba2+  Ba6  1  -0.00406647  0.75866276  0.00286656  1
  Ba2+  Ba7  1  0.00654870  0.74901984  0.51915894  1
  Ba2+  Ba8  1  0.24437937  -0.00522572  0.01676149  1
  Ba2+  Ba9  1  0.24550486  0.00230881  0.51156647  1
  Ba2+  Ba10  1  0.24537967  0.25484140  0.01657255  1
  Ba2+  Ba11  1  0.24501538  0.24064771  0.50991691  1
  Ba2+  Ba12  1  0.25350287  0.49442970  0.01617433  1
  Ba2+  Ba13  1  0.24049961  0.50010815  0.51720152  1
  Ba2+  Ba14  1  0.25270752  0.75660792  0.01615051  1
  Ba2+  Ba15  1  0.24338746  0.75744260  0.51523259  1
  Ba2+  Ba16  1  0.50613468  -0.00579948  0.01731083  1
  Ba2+  Ba17  1  0.48833357  0.00169673  0.51082655  1
  Ba2+  Ba18  1  0.50512228  0.25557225  0.01793302  1
  Ba2+  Ba19  1  0.49598546  0.24709142  0.50204042  1
  Ba2+  Ba20  1  0.50147825  0.49898254  0.02140553  1
  Ba2+  Ba21  1  0.50760025  0.49976562  0.50596128  1
  Ba2+  Ba22  1  0.50261618  0.75190787  0.02054600  1
  Ba2+  Ba23  1  0.49884460  0.74967992  0.51453320  1
  Ba2+  Ba24  1  0.75076869  -0.00535276  0.00689065  1
  Ba2+  Ba25  1  0.75821819  0.00615575  0.50760286  1
  Ba2+  Ba26  1  0.74317267  0.24673258  0.00767499  1
  Ba2+  Ba27  1  0.75427895  0.24898142  0.50205901  1
  Ba2+  Ba28  1  0.74192484  0.50206484  0.00687058  1
  Ba2+  Ba29  1  0.74912001  0.50416558  0.51369558  1
  Ba2+  Ba30  1  0.74914916  0.75633653  0.00570111  1
  Ba2+  Ba31  1  0.75252061  0.74081225  0.51866020  1
  Y3+  Y32  1  0.00238914  -0.00032571  0.25856508  1
  Y3+  Y33  1  0.00008263  0.00006483  0.75821235  1
  Y3+  Y34  1  0.00162611  0.24689572  0.25834156  1
  Y3+  Y35  1  0.00097497  0.24779552  0.75838491  1
  Y3+  Y36  1  0.00081392  0.49881134  0.25263201  1
  Y3+  Y37  1  0.00083803  0.50025273  0.76180005  1
  Y3+  Y38  1  0.00090943  0.75473542  0.25474026  1
  Y3+  Y39  1  0.00014300  0.75225920  0.76142080  1
  Y3+  Y40  1  0.24658370  0.00021195  0.26016216  1
  Y3+  Y41  1  0.24871970  -0.00042893  0.75379458  1
  Y3+  Y42  1  0.24836494  0.24791236  0.25773738  1
  Y3+  Y43  1  0.24802473  0.24830301  0.75553633  1
  Y3+  Y44  1  0.25060382  0.49886878  0.25312940  1
  Y3+  Y45  1  0.24721144  0.49819600  0.75886365  1
  Y3+  Y46  1  0.24909362  0.75304614  0.25522576  1
  Y3+  Y47  1  0.24785214  0.75391934  0.75637479  1
  Y3+  Y48  1  0.49978341  0.00002352  0.25742519  1
  Y3+  Y49  1  0.49825297  -0.00025036  0.75530171  1
  Y3+  Y50  1  0.50102051  0.25096788  0.25847849  1
  Y3+  Y51  1  0.49924646  0.24894125  0.75644851  1
  Y3+  Y52  1  0.50130163  0.49877476  0.25573838  1
  Y3+  Y53  1  0.50149215  0.49928479  0.75658012  1
  Y3+  Y54  1  0.50008868  0.75052620  0.25437981  1
  Y3+  Y55  1  0.50041887  0.75177879  0.75601637  1
  Y3+  Y56  1  0.75161922  -0.00040142  0.25664884  1
  Y3+  Y57  1  0.75279468  -0.00005668  0.76007969  1
  Y3+  Y58  1  0.74909486  0.25016408  0.25880150  1
  Y3+  Y59  1  0.75134786  0.24859501  0.75885038  1
  Y3+  Y60  1  0.74767812  0.49846124  0.25636328  1
  Y3+  Y61  1  0.75010981  0.50108592  0.75994655  1
  Y3+  Y62  1  0.75019608  0.75177905  0.25334392  1
  Y3+  Y63  1  0.75174319  0.75013605  0.76135996  1
  Fe3+  Fe64  1  0.87676137  0.37628995  0.38031480  1
  Fe3+  Fe65  1  0.37571967  0.37438641  0.87608917  1
  Fe3+  Fe66  1  0.37343770  0.37553442  0.37886749  1
  Fe3+  Fe67  1  0.37418233  0.87452038  0.37645313  1
  Fe3+  Fe68  1  0.87419283  0.37368756  0.87993626  1
  Fe3+  Fe69  1  0.12388737  0.37590372  0.37647032  1
  Fe3+  Fe70  1  0.37344868  0.62495917  0.37854276  1
  Fe3+  Fe71  1  0.37522220  0.62542064  0.87665787  1
  Fe3+  Fe72  1  0.87699835  0.62496583  0.37605447  1
  Fe3+  Fe73  1  0.62304454  0.62588988  0.87579372  1
  Fe3+  Fe74  1  0.62357904  0.12409550  0.87632625  1
  Fe3+  Fe75  1  0.37552396  0.87570837  0.87622646  1
  Fe3+  Fe76  1  0.37474682  0.12463464  0.88114119  1
  Fe3+  Fe77  1  0.12614671  0.12376774  0.87750411  1
  Fe3+  Fe78  1  0.62581121  0.87443806  0.38064648  1
  Fe3+  Fe79  1  0.62567806  0.62593365  0.37529024  1
  Fe3+  Fe80  1  0.87609264  0.87390401  0.38114828  1
  Fe3+  Fe81  1  0.12673636  0.62634387  0.87939424  1
  Fe3+  Fe82  1  0.12430485  0.62533894  0.37368341  1
  Fe3+  Fe83  1  0.62485619  0.12436135  0.37929369  1
  Fe3+  Fe84  1  0.87584683  0.87527287  0.63644602  1
  Fe3+  Fe85  1  0.62574452  0.87539200  0.63368467  1
  Fe3+  Fe86  1  0.87454306  0.37400028  0.13484360  1
  Fe3+  Fe87  1  0.37501605  0.12459932  0.13554605  1
  Fe3+  Fe88  1  0.87450247  0.62539101  0.13394029  1
  Fe3+  Fe89  1  0.12475742  0.62590785  0.13291237  1
  Fe3+  Fe90  1  0.62541700  0.12491881  0.63433286  1
  Fe3+  Fe91  1  0.62564451  0.37424374  0.63612667  1
  Fe3+  Fe92  1  0.87582835  0.37451211  0.63702848  1
  Fe3+  Fe93  1  0.37379436  0.37451521  0.63299654  1
  Fe3+  Fe94  1  0.87505159  0.12449693  0.13785946  1
  Fe3+  Fe95  1  0.37388691  0.62460635  0.63350825  1
  Cu2+  Cu96  1  0.87603638  0.12505335  0.37271992  1
  Cu2+  Cu97  1  0.37426546  0.12459050  0.37085028  1
  Cu2+  Cu98  1  0.12513323  0.12492647  0.36963794  1
  Cu2+  Cu99  1  0.87498504  0.62480877  0.86897640  1
  Cu2+  Cu100  1  0.12466998  0.87419415  0.37242585  1
  Cu2+  Cu101  1  0.62554339  0.37558856  0.36809998  1
  Cu2+  Cu102  1  0.62363247  0.37452574  0.87158231  1
  Cu2+  Cu103  1  0.62363815  0.87545193  0.86967999  1
  Cu2+  Cu104  1  0.12620245  0.87594400  0.87202214  1
  Cu2+  Cu105  1  0.12615093  0.37381797  0.87302195  1
  Cu2+  Cu106  1  0.87476896  0.87600117  0.87057932  1
  Cu2+  Cu107  1  0.87521401  0.12508348  0.86819719  1
  Cu2+  Cu108  1  0.12418612  0.37377441  0.65188304  1
  Cu2+  Cu109  1  0.12464745  0.12429154  0.14976397  1
  Cu2+  Cu110  1  0.37532853  0.37359553  0.15407417  1
  Cu2+  Cu111  1  0.87510674  0.87591094  0.14416693  1
  Cu2+  Cu112  1  0.62566655  0.12454493  0.15414154  1
  Cu2+  Cu113  1  0.12376996  0.37452230  0.14136152  1
  Cu2+  Cu114  1  0.12419308  0.12447616  0.64765874  1
  Cu2+  Cu115  1  0.12554256  0.62562951  0.65773758  1
  Cu2+  Cu116  1  0.87515094  0.12509756  0.64222562  1
  Cu2+  Cu117  1  0.37501759  0.62535780  0.14874797  1
  Cu2+  Cu118  1  0.12363660  0.87651812  0.64293616  1
  Cu2+  Cu119  1  0.62634189  0.87564911  0.14449563  1
  Cu2+  Cu120  1  0.37467438  0.87500224  0.64826732  1
  Cu2+  Cu121  1  0.12386646  0.87541467  0.14217703  1
  Cu2+  Cu122  1  0.62570449  0.62552217  0.15093863  1
  Cu2+  Cu123  1  0.37517023  0.87642260  0.15227569  1
  Cu2+  Cu124  1  0.37453220  0.12564507  0.64073615  1
  Cu2+  Cu125  1  0.87566347  0.62505603  0.65631762  1
  Cu2+  Cu126  1  0.62432866  0.62500287  0.65208475  1
  Cu2+  Cu127  1  0.62674803  0.37441923  0.14373606  1
  O2-  O128  1  0.12758081  0.12457682  -0.00163344  1
  O2-  O129  1  0.12537606  0.12457719  0.50649516  1
  O2-  O130  1  0.12572433  0.37528496  0.00648708  1
  O2-  O131  1  0.12232597  0.37790467  0.49683361  1
  O2-  O132  1  0.12746661  0.62591162  0.00601660  1
  O2-  O133  1  0.12380028  0.62412088  0.49436065  1
  O2-  O134  1  0.12565450  0.87453096  0.00705829  1
  O2-  O135  1  0.12360486  0.87433636  0.50798089  1
  O2-  O136  1  0.37584113  0.12520175  0.00663709  1
  O2-  O137  1  0.37465959  0.12613193  0.50650946  1
  O2-  O138  1  0.37701051  0.37507642  -0.00349135  1
  O2-  O139  1  0.37294794  0.37617065  0.50582566  1
  O2-  O140  1  0.37654248  0.62471874  -0.00343396  1
  O2-  O141  1  0.37283892  0.62433715  0.50461723  1
  O2-  O142  1  0.37708427  0.87516156  -0.00336644  1
  O2-  O143  1  0.37472626  0.87258665  0.49700120  1
  O2-  O144  1  0.62212146  0.12437203  -0.00304707  1
  O2-  O145  1  0.62495064  0.12547340  0.50736624  1
  O2-  O146  1  0.62438163  0.37487351  0.00733829  1
  O2-  O147  1  0.62752778  0.37585622  0.51580283  1
  O2-  O148  1  0.62148072  0.62574831  -0.00351125  1
  O2-  O149  1  0.62598774  0.62532738  0.49603703  1
  O2-  O150  1  0.62439856  0.87518702  0.00610639  1
  O2-  O151  1  0.62631023  0.87377366  0.50633420  1
  O2-  O152  1  0.87375091  0.12564537  0.01726749  1
  O2-  O153  1  0.87497580  0.12643621  0.50815256  1
  O2-  O154  1  0.87313982  0.37343198  0.00807381  1
  O2-  O155  1  0.87738472  0.37756745  0.50832951  1
  O2-  O156  1  0.87331996  0.62450855  0.01404896  1
  O2-  O157  1  0.87794958  0.62388216  0.49624242  1
  O2-  O158  1  0.87356404  0.87615109  0.00766074  1
  O2-  O159  1  0.87563503  0.87249150  0.50830595  1
  O2-  O160  1  0.12524664  0.00086453  0.16688121  1
  O2-  O161  1  0.12471939  0.00114645  0.66538834  1
  O2-  O162  1  0.12452717  0.24864172  0.16541454  1
  O2-  O163  1  0.12388544  0.24953291  0.66484722  1
  O2-  O164  1  0.12561337  0.50290135  0.16081006  1
  O2-  O165  1  0.12511201  0.50026841  0.66641152  1
  O2-  O166  1  0.12481134  0.74750532  0.16296543  1
  O2-  O167  1  0.12462882  0.74938364  0.66610035  1
  O2-  O168  1  0.37593830  0.00216438  0.16337567  1
  O2-  O169  1  0.37518779  -0.00112334  0.66437812  1
  O2-  O170  1  0.37573665  0.24774243  0.16506439  1
  O2-  O171  1  0.37547959  0.25373186  0.66439734  1
  O2-  O172  1  0.37545440  0.49890940  0.16500493  1
  O2-  O173  1  0.37319796  0.49930791  0.66002567  1
  O2-  O174  1  0.37590195  0.75124373  0.16397622  1
  O2-  O175  1  0.37551416  0.74805917  0.66025497  1
  O2-  O176  1  0.62524147  0.00111914  0.17001663  1
  O2-  O177  1  0.62566655  -0.00057634  0.65909035  1
  O2-  O178  1  0.62531978  0.24857516  0.16872819  1
  O2-  O179  1  0.62460960  0.24981515  0.66450391  1
  O2-  O180  1  0.62518104  0.50116034  0.16434046  1
  O2-  O181  1  0.62581653  0.49923488  0.66483890  1
  O2-  O182  1  0.62491432  0.74930960  0.16528229  1
  O2-  O183  1  0.62391482  0.75139765  0.66033272  1
  O2-  O184  1  0.87457326  0.00206086  0.17007200  1
  O2-  O185  1  0.87346499  -0.00267884  0.66353899  1
  O2-  O186  1  0.87471457  0.25033839  0.16811853  1
  O2-  O187  1  0.87519460  0.25285328  0.66518568  1
  O2-  O188  1  0.87427805  0.49914314  0.16367046  1
  O2-  O189  1  0.87500896  0.49892456  0.66584011  1
  O2-  O190  1  0.87520599  0.74829181  0.16615150  1
  O2-  O191  1  0.87511808  0.75080956  0.66374995  1
  O2-  O192  1  -0.00021751  0.12519660  0.16559919  1
  O2-  O193  1  0.00048905  0.12506951  0.66771351  1
  O2-  O194  1  -0.00351044  0.37516485  0.16249132  1
  O2-  O195  1  -0.00121879  0.37604179  0.66755481  1
  O2-  O196  1  0.00065550  0.62382619  0.16059578  1
  O2-  O197  1  0.00112697  0.62416365  0.66898815  1
  O2-  O198  1  -0.00038676  0.87583394  0.16602296  1
  O2-  O199  1  -0.00304780  0.87467749  0.66700602  1
  O2-  O200  1  0.25125003  0.12521665  0.16204737  1
  O2-  O201  1  0.24880090  0.12562125  0.66489936  1
  O2-  O202  1  0.25087804  0.37464206  0.16431846  1
  O2-  O203  1  0.25020096  0.37473635  0.66105570  1
  O2-  O204  1  0.24887933  0.62515113  0.16230402  1
  O2-  O205  1  0.25140889  0.62492740  0.66222803  1
  O2-  O206  1  0.25104177  0.87492946  0.16367090  1
  O2-  O207  1  0.25071261  0.87483787  0.66319242  1
  O2-  O208  1  0.49912013  0.12519625  0.16507151  1
  O2-  O209  1  0.50347528  0.12471956  0.66218900  1
  O2-  O210  1  0.49952239  0.37436515  0.16829919  1
  O2-  O211  1  0.49890492  0.37635966  0.65937336  1
  O2-  O212  1  0.50020823  0.62481665  0.16648988  1
  O2-  O213  1  0.49732339  0.62319254  0.65800189  1
  O2-  O214  1  0.49945661  0.87570851  0.16717363  1
  O2-  O215  1  0.50194636  0.87556275  0.65898452  1
  O2-  O216  1  0.75042402  0.12571050  0.16928779  1
  O2-  O217  1  0.74645813  0.12559627  0.66483696  1
  O2-  O218  1  0.75336574  0.37433492  0.16790316  1
  O2-  O219  1  0.75112753  0.37521329  0.66590444  1
  O2-  O220  1  0.75056273  0.62465255  0.16647282  1
  O2-  O221  1  0.74971394  0.62506903  0.66428738  1
  O2-  O222  1  0.75042486  0.87553946  0.16869523  1
  O2-  O223  1  0.74987910  0.87360384  0.66278298  1
  O2-  O224  1  0.12482539  -0.00061157  0.35024243  1
  O2-  O225  1  0.12514197  0.00167066  0.84684150  1
  O2-  O226  1  0.12521199  0.25253662  0.34786121  1
  O2-  O227  1  0.12574137  0.24710555  0.84706906  1
  O2-  O228  1  0.12502783  0.50014237  0.34096650  1
  O2-  O229  1  0.12522988  0.50278932  0.85079289  1
  O2-  O230  1  0.12537376  0.74811116  0.34453645  1
  O2-  O231  1  0.12585811  0.74831877  0.84978400  1
  O2-  O232  1  0.37622485  -0.00220718  0.34680613  1
  O2-  O233  1  0.37593820  0.00187457  0.84778871  1
  O2-  O234  1  0.37499398  0.25337359  0.34998601  1
  O2-  O235  1  0.37507387  0.24781930  0.84756990  1
  O2-  O236  1  0.37500930  0.50033228  0.34980560  1
  O2-  O237  1  0.37514079  0.50051743  0.84282111  1
  O2-  O238  1  0.37501974  0.74827353  0.34720365  1
  O2-  O239  1  0.37479191  0.74980920  0.84307030  1
  O2-  O240  1  0.62503362  -0.00125239  0.35386269  1
  O2-  O241  1  0.62417070  0.00230830  0.84238730  1
  O2-  O242  1  0.62517481  0.24906438  0.35322487  1
  O2-  O243  1  0.62480732  0.24743395  0.84561567  1
  O2-  O244  1  0.62469648  0.50140880  0.34739354  1
  O2-  O245  1  0.62404124  0.50185463  0.84641283  1
  O2-  O246  1  0.62549694  0.75115357  0.34740898  1
  O2-  O247  1  0.62455373  0.74849332  0.84365515  1
  O2-  O248  1  0.87444622  -0.00315904  0.35399380  1
  O2-  O249  1  0.87476311  0.00139909  0.84741063  1
  O2-  O250  1  0.87495528  0.25338919  0.35214546  1
  O2-  O251  1  0.87425008  0.25137173  0.84952688  1
  O2-  O252  1  0.87558738  0.49935384  0.34575248  1
  O2-  O253  1  0.87539010  0.49767267  0.85097506  1
  O2-  O254  1  0.87443680  0.75076729  0.34787503  1
  O2-  O255  1  0.87473332  0.74940944  0.84849350  1
  O2-  O256  1  0.00013041  0.12534355  0.34849374  1
  O2-  O257  1  0.00038102  0.12547785  0.85115309  1
  O2-  O258  1  -0.00064576  0.37589080  0.34445707  1
  O2-  O259  1  -0.00264857  0.37449997  0.85279566  1
  O2-  O260  1  -0.00011572  0.62498601  0.34011487  1
  O2-  O261  1  0.00204397  0.62502125  0.85404568  1
  O2-  O262  1  -0.00254056  0.87401876  0.34962954  1
  O2-  O263  1  0.00012827  0.87518430  0.85073805  1
  O2-  O264  1  0.24980141  0.12530504  0.34600195  1
  O2-  O265  1  0.25202723  0.12463009  0.84729785  1
  O2-  O266  1  0.25027148  0.37628773  0.34760704  1
  O2-  O267  1  0.25269140  0.37473665  0.84408260  1
  O2-  O268  1  0.25105926  0.62420813  0.34568285  1
  O2-  O269  1  0.24983674  0.62484525  0.84541953  1
  O2-  O270  1  0.25121694  0.87414508  0.34682331  1
  O2-  O271  1  0.25241525  0.87570301  0.84565220  1
  O2-  O272  1  0.50310179  0.12524216  0.35007788  1
  O2-  O273  1  0.49759973  0.12527334  0.84443153  1
  O2-  O274  1  0.49803804  0.37582909  0.35325269  1
  O2-  O275  1  0.49751672  0.37410753  0.84038277  1
  O2-  O276  1  0.49856841  0.62493444  0.35074396  1
  O2-  O277  1  0.49875155  0.62539025  0.83969447  1
  O2-  O278  1  0.50192235  0.87397465  0.35020763  1
  O2-  O279  1  0.49754862  0.87526055  0.84099035  1
  O2-  O280  1  0.74724877  0.12503751  0.35247646  1
  O2-  O281  1  0.74974803  0.12497555  0.84848443  1
  O2-  O282  1  0.75244379  0.37586648  0.35234433  1
  O2-  O283  1  0.75216592  0.37502662  0.84964878  1
  O2-  O284  1  0.75072375  0.62451374  0.34739598  1
  O2-  O285  1  0.74890677  0.62454979  0.84864125  1
  O2-  O286  1  0.74988356  0.87480513  0.35240473  1
  O2-  O287  1  0.74984664  0.87558876  0.84741220  1
