# generated using pymatgen
data_BaYFeCuO5
_symmetry_space_group_name_H-M   'P 1'
_cell_length_a   15.67165149
_cell_length_b   15.66682175
_cell_length_c   15.47922641
_cell_angle_alpha   90.00593959
_cell_angle_beta   90.00124219
_cell_angle_gamma   90.00087673
_symmetry_Int_Tables_number   1
_chemical_formula_structural   BaYFeCuO5
_chemical_formula_sum   'Ba32 Y32 Fe32 Cu32 O160'
_cell_volume   3800.53658375
_cell_formula_units_Z   32
loop_
 _symmetry_equiv_pos_site_id
 _symmetry_equiv_pos_as_xyz
  1  'x, y, z'
loop_
 _atom_type_symbol
 _atom_type_oxidation_number
  Ba2+  2.0
  Y3+  3.0
  Fe3+  3.0
  Cu2+  2.0
  O2-  -2.0
loop_
 _atom_site_type_symbol
 _atom_site_label
 _atom_site_symmetry_multiplicity
 _atom_site_fract_x
 _atom_site_fract_y
 _atom_site_fract_z
 _atom_site_occupancy
  Ba2+  Ba0  1  0.00199363  -0.00014804  0.02241904  1
  Ba2+  Ba1  1  -0.00034721  -0.00697866  0.50577030  1
  Ba2+  Ba2  1  0.00162123  0.23785074  0.01186468  1
  Ba2+  Ba3  1  -0.00213912  0.26029861  0.51140620  1
  Ba2+  Ba4  1  -0.00084543  0.50981249  0.00665673  1
  Ba2+  Ba5  1  0.00383254  0.49879522  0.51153436  1
  Ba2+  Ba6  1  -0.00086771  0.75292771  0.01881858  1
  Ba2+  Ba7  1  0.00560295  0.74705307  0.50602124  1
  Ba2+  Ba8  1  0.25219821  0.00160913  0.01228207  1
  Ba2+  Ba9  1  0.24235719  -0.00706741  0.50733987  1
  Ba2+  Ba10  1  0.25386729  0.24001126  0.00222165  1
  Ba2+  Ba11  1  0.24640553  0.26258432  0.51288863  1
  Ba2+  Ba12  1  0.25489321  0.50463764  0.00216150  1
  Ba2+  Ba13  1  0.24442599  0.50117259  0.51812466  1
  Ba2+  Ba14  1  0.25277075  0.75476573  0.01207878  1
  Ba2+  Ba15  1  0.24128016  0.74366491  0.51110412  1
  Ba2+  Ba16  1  0.49422932  0.00015898  0.00559058  1
  Ba2+  Ba17  1  0.50009868  -0.00027105  0.50692388  1
  Ba2+  Ba18  1  0.49937838  0.24871283  -0.00431119  1
  Ba2+  Ba19  1  0.49516990  0.25659066  0.51202032  1
  Ba2+  Ba20  1  0.50264949  0.49867690  0.01111462  1
  Ba2+  Ba21  1  0.49446410  0.50404305  0.52352345  1
  Ba2+  Ba22  1  0.49883861  0.75300538  0.02093894  1
  Ba2+  Ba23  1  0.49869422  0.73941803  0.51611778  1
  Ba2+  Ba24  1  0.75024291  -0.00154310  0.01978627  1
  Ba2+  Ba25  1  0.75894421  0.00008714  0.50612908  1
  Ba2+  Ba26  1  0.74226321  0.24748080  0.00549165  1
  Ba2+  Ba27  1  0.76137093  0.25388775  0.51117580  1
  Ba2+  Ba28  1  0.74333664  0.50296570  0.01649916  1
  Ba2+  Ba29  1  0.75787842  0.50185663  0.51716527  1
  Ba2+  Ba30  1  0.75012018  0.75118841  0.02595673  1
  Ba2+  Ba31  1  0.75556862  0.74362569  0.51010603  1
  Y3+  Y32  1  0.00186054  -0.00155832  0.25825995  1
  Y3+  Y33  1  0.00179855  0.00045172  0.75520815  1
  Y3+  Y34  1  0.00094323  0.25096554  0.25848030  1
  Y3+  Y35  1  0.00001038  0.25014536  0.75652923  1
  Y3+  Y36  1  0.00122179  0.49907015  0.26034212  1
  Y3+  Y37  1  0.00118444  0.50064437  0.75506870  1
  Y3+  Y38  1  0.00175380  0.75166858  0.26077939  1
  Y3+  Y39  1  0.00313946  0.74849899  0.75410564  1
  Y3+  Y40  1  0.24869025  -0.00075771  0.25445121  1
  Y3+  Y41  1  0.24901507  -0.00016773  0.76108862  1
  Y3+  Y42  1  0.24841704  0.24898522  0.25575181  1
  Y3+  Y43  1  0.24958053  0.25026230  0.76080938  1
  Y3+  Y44  1  0.24786121  0.50037194  0.25859991  1
  Y3+  Y45  1  0.24872136  0.50032936  0.75712422  1
  Y3+  Y46  1  0.24858437  0.75141032  0.25808086  1
  Y3+  Y47  1  0.24738562  0.74966624  0.75674996  1
  Y3+  Y48  1  0.49696735  -0.00096181  0.25523902  1
  Y3+  Y49  1  0.49753139  0.00038971  0.75974523  1
  Y3+  Y50  1  0.49963470  0.25136412  0.25500363  1
  Y3+  Y51  1  0.49929965  0.25123095  0.76108022  1
  Y3+  Y52  1  0.50116814  0.50056751  0.25194403  1
  Y3+  Y53  1  0.49912690  0.49886186  0.76050548  1
  Y3+  Y54  1  0.49865644  0.74956882  0.25449802  1
  Y3+  Y55  1  0.49807309  0.74963688  0.75705768  1
  Y3+  Y56  1  0.75268360  -0.00100611  0.25838346  1
  Y3+  Y57  1  0.75117040  0.00098021  0.75486294  1
  Y3+  Y58  1  0.75120879  0.25233410  0.25663116  1
  Y3+  Y59  1  0.75092168  0.25144696  0.75754559  1
  Y3+  Y60  1  0.75022416  0.49897515  0.25506273  1
  Y3+  Y61  1  0.75042016  0.49925644  0.75765440  1
  Y3+  Y62  1  0.75165680  0.75018772  0.25752989  1
  Y3+  Y63  1  0.75064285  0.74800622  0.75340295  1
  Fe3+  Fe64  1  0.87489970  0.12286909  0.87611172  1
  Fe3+  Fe65  1  0.87478876  0.62708399  0.87655741  1
  Fe3+  Fe66  1  0.12424562  0.37495161  0.88063447  1
  Fe3+  Fe67  1  0.87597073  0.62386492  0.37481272  1
  Fe3+  Fe68  1  0.87496507  0.37538565  0.88067199  1
  Fe3+  Fe69  1  0.62553905  0.62682743  0.87585502  1
  Fe3+  Fe70  1  0.37513722  0.62683889  0.87643069  1
  Fe3+  Fe71  1  0.87634343  0.12592678  0.37643257  1
  Fe3+  Fe72  1  0.62626376  0.87447905  0.87538329  1
  Fe3+  Fe73  1  0.62445667  0.62338003  0.37623905  1
  Fe3+  Fe74  1  0.62494618  0.12630539  0.38129362  1
  Fe3+  Fe75  1  0.62511888  0.37644052  0.38069368  1
  Fe3+  Fe76  1  0.37428121  0.12581769  0.38130162  1
  Fe3+  Fe77  1  0.12543225  0.12621672  0.38023353  1
  Fe3+  Fe78  1  0.37491476  0.37702365  0.37670995  1
  Fe3+  Fe79  1  0.37480571  0.87370337  0.38019999  1
  Fe3+  Fe80  1  0.87484566  0.87432740  0.87597320  1
  Fe3+  Fe81  1  0.37433953  0.62379167  0.37569730  1
  Fe3+  Fe82  1  0.12385344  0.87492778  0.87750194  1
  Fe3+  Fe83  1  0.62494710  0.87374765  0.37993796  1
  Fe3+  Fe84  1  0.62384239  0.12484550  0.14046904  1
  Fe3+  Fe85  1  0.37381613  0.12531784  0.63503022  1
  Fe3+  Fe86  1  0.37380918  0.87425312  0.63435921  1
  Fe3+  Fe87  1  0.37413092  0.37439938  0.13516481  1
  Fe3+  Fe88  1  0.62539618  0.12553824  0.63393059  1
  Fe3+  Fe89  1  0.62505428  0.87417554  0.63259489  1
  Fe3+  Fe90  1  0.12558709  0.62513546  0.13819611  1
  Fe3+  Fe91  1  0.87628113  0.87402182  0.63516653  1
  Fe3+  Fe92  1  0.62526086  0.37552860  0.63602311  1
  Fe3+  Fe93  1  0.12449459  0.12549741  0.63464551  1
  Fe3+  Fe94  1  0.87572781  0.37469389  0.13376064  1
  Fe3+  Fe95  1  0.12534896  0.37466296  0.13351969  1
  Cu2+  Cu96  1  0.37415805  0.37572903  0.86637337  1
  Cu2+  Cu97  1  0.87503040  0.87424197  0.36543972  1
  Cu2+  Cu98  1  0.37461458  0.87406170  0.87117723  1
  Cu2+  Cu99  1  0.12573515  0.87478042  0.37254287  1
  Cu2+  Cu100  1  0.12359607  0.12367237  0.87200169  1
  Cu2+  Cu101  1  0.12442228  0.62575947  0.86495705  1
  Cu2+  Cu102  1  0.37462833  0.12399620  0.86972302  1
  Cu2+  Cu103  1  0.12560806  0.62411825  0.37061521  1
  Cu2+  Cu104  1  0.62608469  0.12351802  0.85872961  1
  Cu2+  Cu105  1  0.87495019  0.37607769  0.37062957  1
  Cu2+  Cu106  1  0.12559059  0.37522602  0.37176305  1
  Cu2+  Cu107  1  0.62589622  0.37598836  0.87295985  1
  Cu2+  Cu108  1  0.37528306  0.12581286  0.14438449  1
  Cu2+  Cu109  1  0.62484605  0.87597893  0.15564896  1
  Cu2+  Cu110  1  0.37369740  0.62515210  0.65383906  1
  Cu2+  Cu111  1  0.37381028  0.62455991  0.14975714  1
  Cu2+  Cu112  1  0.87576773  0.37566560  0.64473665  1
  Cu2+  Cu113  1  0.87600431  0.62484984  0.65092581  1
  Cu2+  Cu114  1  0.62525373  0.62439072  0.64988397  1
  Cu2+  Cu115  1  0.87481446  0.12566499  0.15329320  1
  Cu2+  Cu116  1  0.87582737  0.87507425  0.15571446  1
  Cu2+  Cu117  1  0.12511519  0.87515204  0.64202376  1
  Cu2+  Cu118  1  0.37475491  0.37479834  0.65507657  1
  Cu2+  Cu119  1  0.87564483  0.12506857  0.64828570  1
  Cu2+  Cu120  1  0.62450594  0.37354780  0.14089457  1
  Cu2+  Cu121  1  0.12485293  0.37456101  0.64763715  1
  Cu2+  Cu122  1  0.37427528  0.87548004  0.14314621  1
  Cu2+  Cu123  1  0.62503195  0.62578494  0.15140070  1
  Cu2+  Cu124  1  0.12443023  0.62447683  0.64349960  1
  Cu2+  Cu125  1  0.12561934  0.12517303  0.14385050  1
  Cu2+  Cu126  1  0.12529190  0.87479685  0.15188479  1
  Cu2+  Cu127  1  0.87623105  0.62445572  0.15267550  1
  O2-  O128  1  0.12411977  0.12276530  0.00762530  1
  O2-  O129  1  0.12533663  0.12702841  0.50706338  1
  O2-  O130  1  0.12452560  0.37473777  0.00776632  1
  O2-  O131  1  0.12526996  0.37557250  0.50789671  1
  O2-  O132  1  0.12515501  0.62594958  0.01767901  1
  O2-  O133  1  0.12459378  0.62318662  0.50832558  1
  O2-  O134  1  0.12363808  0.87530238  -0.00201226  1
  O2-  O135  1  0.12503949  0.87455907  0.50665831  1
  O2-  O136  1  0.37687758  0.12431270  0.00751989  1
  O2-  O137  1  0.37381849  0.12590105  0.50772682  1
  O2-  O138  1  0.37512062  0.37334557  0.01480609  1
  O2-  O139  1  0.37544425  0.37817841  0.49713750  1
  O2-  O140  1  0.37690000  0.62772771  -0.00317465  1
  O2-  O141  1  0.37483320  0.62277645  0.49586275  1
  O2-  O142  1  0.37559984  0.87482177  0.00688672  1
  O2-  O143  1  0.37548010  0.87362893  0.50678365  1
  O2-  O144  1  0.62395526  0.12305262  0.01996433  1
  O2-  O145  1  0.62511079  0.12738038  0.50757622  1
  O2-  O146  1  0.62566093  0.37427909  0.00660738  1
  O2-  O147  1  0.62466900  0.37691620  0.50746448  1
  O2-  O148  1  0.62569460  0.62885244  -0.00404218  1
  O2-  O149  1  0.62412197  0.62221734  0.49606097  1
  O2-  O150  1  0.62719402  0.87467477  -0.00480416  1
  O2-  O151  1  0.62480900  0.87291143  0.50618007  1
  O2-  O152  1  0.87350768  0.12114884  -0.00346986  1
  O2-  O153  1  0.87605174  0.12626946  0.49686147  1
  O2-  O154  1  0.87447016  0.37433259  0.00661541  1
  O2-  O155  1  0.87480879  0.37696503  0.50730627  1
  O2-  O156  1  0.87322286  0.62879940  -0.00348633  1
  O2-  O157  1  0.87600564  0.62322674  0.49566337  1
  O2-  O158  1  0.87335069  0.87488448  -0.00436335  1
  O2-  O159  1  0.87451541  0.87367812  0.51427435  1
  O2-  O160  1  0.12483692  -0.00150840  0.16839636  1
  O2-  O161  1  0.12522614  0.00314720  0.66086656  1
  O2-  O162  1  0.12478615  0.25322497  0.16599874  1
  O2-  O163  1  0.12557458  0.24709056  0.66622925  1
  O2-  O164  1  0.12433188  0.49820549  0.16430328  1
  O2-  O165  1  0.12519131  0.49916408  0.66855279  1
  O2-  O166  1  0.12507213  0.74993901  0.16701493  1
  O2-  O167  1  0.12548086  0.75025677  0.66333936  1
  O2-  O168  1  0.37487203  0.00026142  0.16958963  1
  O2-  O169  1  0.37658175  0.00027042  0.66045072  1
  O2-  O170  1  0.37415387  0.25218155  0.17030671  1
  O2-  O171  1  0.37536403  0.24758373  0.66356946  1
  O2-  O172  1  0.37490303  0.49941267  0.16111656  1
  O2-  O173  1  0.37493366  0.50006061  0.66614571  1
  O2-  O174  1  0.37455244  0.74846266  0.16612741  1
  O2-  O175  1  0.37528112  0.75162946  0.66030801  1
  O2-  O176  1  0.62529738  0.00051414  0.17364588  1
  O2-  O177  1  0.62423107  -0.00018626  0.65671437  1
  O2-  O178  1  0.62568158  0.24813134  0.17176538  1
  O2-  O179  1  0.62482408  0.24999113  0.66244633  1
  O2-  O180  1  0.62499770  0.50156217  0.16129522  1
  O2-  O181  1  0.62468455  0.49840537  0.66409979  1
  O2-  O182  1  0.62519444  0.75085149  0.16578046  1
  O2-  O183  1  0.62485645  0.75114911  0.65826972  1
  O2-  O184  1  0.87512583  0.00027753  0.16701294  1
  O2-  O185  1  0.87432272  -0.00073315  0.66119498  1
  O2-  O186  1  0.87520152  0.25193447  0.16327353  1
  O2-  O187  1  0.87450592  0.24870815  0.66707732  1
  O2-  O188  1  0.87568623  0.49803758  0.15960141  1
  O2-  O189  1  0.87485278  0.50176558  0.66845345  1
  O2-  O190  1  0.87500617  0.74987566  0.16551444  1
  O2-  O191  1  0.87413209  0.74982087  0.66158128  1
  O2-  O192  1  -0.00128926  0.12531016  0.16506292  1
  O2-  O193  1  0.00158694  0.12561846  0.66215455  1
  O2-  O194  1  0.00020946  0.37428664  0.16213174  1
  O2-  O195  1  0.00004100  0.37433160  0.66852051  1
  O2-  O196  1  0.00116859  0.62494003  0.16568121  1
  O2-  O197  1  -0.00113034  0.62443191  0.66626626  1
  O2-  O198  1  0.00011483  0.87535721  0.16536785  1
  O2-  O199  1  -0.00138239  0.87528906  0.66491261  1
  O2-  O200  1  0.24972422  0.12488295  0.16790136  1
  O2-  O201  1  0.25046672  0.12475360  0.66287892  1
  O2-  O202  1  0.24831741  0.37523444  0.16471784  1
  O2-  O203  1  0.25121608  0.37421832  0.66793318  1
  O2-  O204  1  0.24875610  0.62458859  0.16683227  1
  O2-  O205  1  0.25072609  0.62452825  0.66688919  1
  O2-  O206  1  0.24868347  0.87531507  0.16702262  1
  O2-  O207  1  0.25302538  0.87623068  0.66347486  1
  O2-  O208  1  0.50128507  0.12483096  0.17315044  1
  O2-  O209  1  0.50013174  0.12507857  0.66014256  1
  O2-  O210  1  0.49797731  0.37477593  0.16755017  1
  O2-  O211  1  0.50145624  0.37430077  0.66305186  1
  O2-  O212  1  0.49962193  0.62567508  0.16306419  1
  O2-  O213  1  0.49916770  0.62517018  0.66229665  1
  O2-  O214  1  0.50073848  0.87523314  0.16852657  1
  O2-  O215  1  0.50006355  0.87500813  0.65974210  1
  O2-  O216  1  0.74973900  0.12446740  0.16827775  1
  O2-  O217  1  0.74794554  0.12506582  0.66026042  1
  O2-  O218  1  0.75321337  0.37504679  0.16449686  1
  O2-  O219  1  0.74737931  0.37493230  0.66344514  1
  O2-  O220  1  0.75092136  0.62484253  0.16452254  1
  O2-  O221  1  0.75073961  0.62437874  0.66083721  1
  O2-  O222  1  0.75057346  0.87589880  0.16670331  1
  O2-  O223  1  0.74851151  0.87517103  0.66058538  1
  O2-  O224  1  0.12599775  0.00360320  0.35280888  1
  O2-  O225  1  0.12425596  -0.00211544  0.84304347  1
  O2-  O226  1  0.12552945  0.24710371  0.34942632  1
  O2-  O227  1  0.12412469  0.25279383  0.85049090  1
  O2-  O228  1  0.12560553  0.49975185  0.34635646  1
  O2-  O229  1  0.12432551  0.49846426  0.85322860  1
  O2-  O230  1  0.12573512  0.74970604  0.35013101  1
  O2-  O231  1  0.12429798  0.75067139  0.84573966  1
  O2-  O232  1  0.37622663  0.00055072  0.35520012  1
  O2-  O233  1  0.37515132  -0.00040566  0.84505744  1
  O2-  O234  1  0.37656968  0.24891435  0.35203822  1
  O2-  O235  1  0.37534318  0.25085168  0.84819473  1
  O2-  O236  1  0.37584953  0.49995356  0.34132214  1
  O2-  O237  1  0.37478331  0.50151985  0.84966637  1
  O2-  O238  1  0.37619605  0.75076674  0.34922960  1
  O2-  O239  1  0.37471718  0.74831107  0.84239939  1
  O2-  O240  1  0.62437453  0.00040541  0.35822886  1
  O2-  O241  1  0.62563133  -0.00117644  0.84062429  1
  O2-  O242  1  0.62397045  0.25036406  0.35431805  1
  O2-  O243  1  0.62528242  0.24812849  0.84799629  1
  O2-  O244  1  0.62501806  0.49878053  0.34398943  1
  O2-  O245  1  0.62529174  0.50302536  0.84712326  1
  O2-  O246  1  0.62427260  0.75046259  0.34936303  1
  O2-  O247  1  0.62523344  0.75005887  0.83917863  1
  O2-  O248  1  0.87466465  0.00072942  0.35037255  1
  O2-  O249  1  0.87423876  -0.00120075  0.84126581  1
  O2-  O250  1  0.87465667  0.24864252  0.34599324  1
  O2-  O251  1  0.87478396  0.25100030  0.85054718  1
  O2-  O252  1  0.87403836  0.50142911  0.34227887  1
  O2-  O253  1  0.87513752  0.49964351  0.85161990  1
  O2-  O254  1  0.87446181  0.74915592  0.34856302  1
  O2-  O255  1  0.87474446  0.75019651  0.84118246  1
  O2-  O256  1  0.00165870  0.12521932  0.34852832  1
  O2-  O257  1  -0.00289567  0.12510608  0.84438981  1
  O2-  O258  1  0.00024224  0.37458656  0.34658528  1
  O2-  O259  1  -0.00079643  0.37517607  0.85199409  1
  O2-  O260  1  -0.00054530  0.62457459  0.34730196  1
  O2-  O261  1  -0.00055148  0.62474794  0.84899392  1
  O2-  O262  1  -0.00027863  0.87560992  0.34963438  1
  O2-  O263  1  -0.00070144  0.87480874  0.84472115  1
  O2-  O264  1  0.25112120  0.12552805  0.35188195  1
  O2-  O265  1  0.24934189  0.12510556  0.84720158  1
  O2-  O266  1  0.25264689  0.37381231  0.34602305  1
  O2-  O267  1  0.24764846  0.37499322  0.85238531  1
  O2-  O268  1  0.25189729  0.62504463  0.34720872  1
  O2-  O269  1  0.24936987  0.62505063  0.84990600  1
  O2-  O270  1  0.25403734  0.87581189  0.35053681  1
  O2-  O271  1  0.24753980  0.87481479  0.84679857  1
  O2-  O272  1  0.49974350  0.12469595  0.35597233  1
  O2-  O273  1  0.50166489  0.12437506  0.84543195  1
  O2-  O274  1  0.50142154  0.37481720  0.34933129  1
  O2-  O275  1  0.49889143  0.37473341  0.84774703  1
  O2-  O276  1  0.49995900  0.62487957  0.34448332  1
  O2-  O277  1  0.50045641  0.62554979  0.84418710  1
  O2-  O278  1  0.49987603  0.87586138  0.35241092  1
  O2-  O279  1  0.50213073  0.87550164  0.84337104  1
  O2-  O280  1  0.74838001  0.12521280  0.35075814  1
  O2-  O281  1  0.75143428  0.12523922  0.84319785  1
  O2-  O282  1  0.74630659  0.37429845  0.34897691  1
  O2-  O283  1  0.75380242  0.37471647  0.84686243  1
  O2-  O284  1  0.74918766  0.62521774  0.34630887  1
  O2-  O285  1  0.75035870  0.62528578  0.84228672  1
  O2-  O286  1  0.74719301  0.87527235  0.35087164  1
  O2-  O287  1  0.75053907  0.87491177  0.83983134  1
