# generated using pymatgen
data_BaYFeCuO5
_symmetry_space_group_name_H-M   'P 1'
_cell_length_a   15.68005230
_cell_length_b   15.68448351
_cell_length_c   15.50754012
_cell_angle_alpha   89.99637406
_cell_angle_beta   89.98807174
_cell_angle_gamma   90.00582604
_symmetry_Int_Tables_number   1
_chemical_formula_structural   BaYFeCuO5
_chemical_formula_sum   'Ba32 Y32 Fe32 Cu32 O160'
_cell_volume   3813.82384500
_cell_formula_units_Z   32
loop_
 _symmetry_equiv_pos_site_id
 _symmetry_equiv_pos_as_xyz
  1  'x, y, z'
loop_
 _atom_type_symbol
 _atom_type_oxidation_number
  Ba2+  2.0
  Y3+  3.0
  Fe3+  3.0
  Cu2+  2.0
  O2-  -2.0
loop_
 _atom_site_type_symbol
 _atom_site_label
 _atom_site_symmetry_multiplicity
 _atom_site_fract_x
 _atom_site_fract_y
 _atom_site_fract_z
 _atom_site_occupancy
  Ba2+  Ba0  1  0.01056267  0.00071360  0.01804237  1
  Ba2+  Ba1  1  0.00229842  -0.00132622  0.51161232  1
  Ba2+  Ba2  1  0.00922917  0.25696744  0.01461344  1
  Ba2+  Ba3  1  -0.00126014  0.24821913  0.52525801  1
  Ba2+  Ba4  1  0.00847156  0.49407659  0.01696318  1
  Ba2+  Ba5  1  -0.00569290  0.49512900  0.51172464  1
  Ba2+  Ba6  1  0.01060011  0.74821897  0.01842256  1
  Ba2+  Ba7  1  -0.00334798  0.75652311  0.49572595  1
  Ba2+  Ba8  1  0.24556279  0.00449304  0.01462110  1
  Ba2+  Ba9  1  0.25089716  -0.00420304  0.50621644  1
  Ba2+  Ba10  1  0.24847862  0.25431117  -0.00027105  1
  Ba2+  Ba11  1  0.25296097  0.25131406  0.51117788  1
  Ba2+  Ba12  1  0.25189429  0.49947001  0.00602200  1
  Ba2+  Ba13  1  0.25676533  0.49443205  0.51509473  1
  Ba2+  Ba14  1  0.24915860  0.74167013  0.01945405  1
  Ba2+  Ba15  1  0.25468825  0.75799508  0.51103364  1
  Ba2+  Ba16  1  0.49245621  0.00441537  0.00203289  1
  Ba2+  Ba17  1  0.49834167  -0.00278536  0.51282909  1
  Ba2+  Ba18  1  0.49317302  0.25633411  0.00108707  1
  Ba2+  Ba19  1  0.49852687  0.25286815  0.51175638  1
  Ba2+  Ba20  1  0.49719706  0.50434862  0.00720250  1
  Ba2+  Ba21  1  0.50136758  0.49981973  0.51706347  1
  Ba2+  Ba22  1  0.49711787  0.73689061  0.00696641  1
  Ba2+  Ba23  1  0.50157339  0.74981760  0.51864042  1
  Ba2+  Ba24  1  0.75053640  0.00049977  0.00690110  1
  Ba2+  Ba25  1  0.74891573  0.00118687  0.52109704  1
  Ba2+  Ba26  1  0.75012107  0.26039575  0.01481076  1
  Ba2+  Ba27  1  0.74922495  0.24986872  0.52640319  1
  Ba2+  Ba28  1  0.74257166  0.49843214  0.01725055  1
  Ba2+  Ba29  1  0.74594033  0.50158241  0.51161878  1
  Ba2+  Ba30  1  0.74379333  0.74243757  0.00689054  1
  Ba2+  Ba31  1  0.74724763  0.74726567  0.49832232  1
  Y3+  Y32  1  0.00338735  -0.00131220  0.25927445  1
  Y3+  Y33  1  0.00267802  0.00071356  0.75329652  1
  Y3+  Y34  1  0.00267165  0.25208901  0.25315898  1
  Y3+  Y35  1  0.00276837  0.25162281  0.75683344  1
  Y3+  Y36  1  0.00058854  0.49872863  0.25639545  1
  Y3+  Y37  1  0.00176859  0.49722465  0.75618778  1
  Y3+  Y38  1  0.00131725  0.75059840  0.25999035  1
  Y3+  Y39  1  0.00239574  0.75057555  0.75495290  1
  Y3+  Y40  1  0.25001004  -0.00166514  0.26238447  1
  Y3+  Y41  1  0.24954453  -0.00123976  0.75264225  1
  Y3+  Y42  1  0.25120378  0.25135737  0.25981765  1
  Y3+  Y43  1  0.24982868  0.25316759  0.75593290  1
  Y3+  Y44  1  0.25139821  0.50026014  0.25761160  1
  Y3+  Y45  1  0.25281371  0.49812712  0.75694108  1
  Y3+  Y46  1  0.24988004  0.75077239  0.26100807  1
  Y3+  Y47  1  0.25289175  0.74977684  0.75372945  1
  Y3+  Y48  1  0.49591347  -0.00007860  0.25958041  1
  Y3+  Y49  1  0.49829097  -0.00143266  0.75669448  1
  Y3+  Y50  1  0.49722947  0.25217930  0.26058081  1
  Y3+  Y51  1  0.49739250  0.25228255  0.75596275  1
  Y3+  Y52  1  0.50085553  0.50184836  0.25793273  1
  Y3+  Y53  1  0.49807392  0.50275347  0.75717924  1
  Y3+  Y54  1  0.49993780  0.74634449  0.25811302  1
  Y3+  Y55  1  0.49887114  0.74586089  0.75750338  1
  Y3+  Y56  1  0.75037353  -0.00016206  0.25443430  1
  Y3+  Y57  1  0.74918464  0.00068130  0.75962258  1
  Y3+  Y58  1  0.74947773  0.25303056  0.25297025  1
  Y3+  Y59  1  0.74991595  0.25099367  0.75751033  1
  Y3+  Y60  1  0.74767733  0.50125863  0.25705403  1
  Y3+  Y61  1  0.74711987  0.50089658  0.75660189  1
  Y3+  Y62  1  0.74884725  0.74598201  0.25723017  1
  Y3+  Y63  1  0.74622017  0.74668454  0.75841106  1
  Fe3+  Fe64  1  0.12466722  0.37468970  0.37860388  1
  Fe3+  Fe65  1  0.87693783  0.12575578  0.88023309  1
  Fe3+  Fe66  1  0.87577285  0.37621964  0.87750199  1
  Fe3+  Fe67  1  0.62355977  0.87411002  0.88057672  1
  Fe3+  Fe68  1  0.62395459  0.12642999  0.87938123  1
  Fe3+  Fe69  1  0.12614151  0.87422520  0.87608364  1
  Fe3+  Fe70  1  0.12587301  0.12501453  0.87418086  1
  Fe3+  Fe71  1  0.12557898  0.62449888  0.87418623  1
  Fe3+  Fe72  1  0.87636315  0.62398713  0.88161421  1
  Fe3+  Fe73  1  0.62528673  0.37469015  0.37624691  1
  Fe3+  Fe74  1  0.62492801  0.87565088  0.37419814  1
  Fe3+  Fe75  1  0.87680274  0.87397558  0.88212878  1
  Fe3+  Fe76  1  0.87414204  0.12616495  0.37385957  1
  Fe3+  Fe77  1  0.37593037  0.62462077  0.37920535  1
  Fe3+  Fe78  1  0.37273731  0.87412065  0.88034025  1
  Fe3+  Fe79  1  0.62399468  0.37630427  0.87531023  1
  Fe3+  Fe80  1  0.12450256  0.12647882  0.37773192  1
  Fe3+  Fe81  1  0.87426344  0.37321352  0.37515211  1
  Fe3+  Fe82  1  0.62586402  0.12556626  0.37508087  1
  Fe3+  Fe83  1  0.12497135  0.62387972  0.38060863  1
  Fe3+  Fe84  1  0.37498384  0.37611295  0.13941297  1
  Fe3+  Fe85  1  0.87350219  0.87339456  0.64043533  1
  Fe3+  Fe86  1  0.12518286  0.62510319  0.63292083  1
  Fe3+  Fe87  1  0.37473382  0.12480349  0.63878835  1
  Fe3+  Fe88  1  0.37352962  0.12614315  0.13904221  1
  Fe3+  Fe89  1  0.87674034  0.12630821  0.13239717  1
  Fe3+  Fe90  1  0.87605757  0.62404926  0.13562572  1
  Fe3+  Fe91  1  0.87548921  0.87424169  0.13407860  1
  Fe3+  Fe92  1  0.62314025  0.87497605  0.13274817  1
  Fe3+  Fe93  1  0.87483881  0.62553489  0.63793126  1
  Fe3+  Fe94  1  0.62292035  0.12612936  0.13234794  1
  Fe3+  Fe95  1  0.37448746  0.87421356  0.13520125  1
  Cu2+  Cu96  1  0.37312555  0.62518136  0.87117696  1
  Cu2+  Cu97  1  0.37556475  0.37616945  0.37407921  1
  Cu2+  Cu98  1  0.37520657  0.12533146  0.36741742  1
  Cu2+  Cu99  1  0.37496159  0.37563608  0.86155933  1
  Cu2+  Cu100  1  0.37679164  0.87378656  0.37233066  1
  Cu2+  Cu101  1  0.62462325  0.62375055  0.87215961  1
  Cu2+  Cu102  1  0.37362087  0.12454087  0.86232234  1
  Cu2+  Cu103  1  0.87523873  0.62357022  0.36210485  1
  Cu2+  Cu104  1  0.12531824  0.37599040  0.87009512  1
  Cu2+  Cu105  1  0.62450639  0.62411770  0.37278545  1
  Cu2+  Cu106  1  0.12524706  0.87509586  0.37387368  1
  Cu2+  Cu107  1  0.87305371  0.87639094  0.35791628  1
  Cu2+  Cu108  1  0.12873499  0.37549159  0.14379399  1
  Cu2+  Cu109  1  0.12542011  0.37578331  0.64769023  1
  Cu2+  Cu110  1  0.87495482  0.12465280  0.65694553  1
  Cu2+  Cu111  1  0.12472033  0.87399787  0.64000341  1
  Cu2+  Cu112  1  0.62475082  0.37498099  0.65313956  1
  Cu2+  Cu113  1  0.62388680  0.62493916  0.14246839  1
  Cu2+  Cu114  1  0.62533782  0.62502527  0.64151335  1
  Cu2+  Cu115  1  0.62543231  0.87442808  0.65739761  1
  Cu2+  Cu116  1  0.37588359  0.37489180  0.64288495  1
  Cu2+  Cu117  1  0.12676356  0.12577008  0.15363292  1
  Cu2+  Cu118  1  0.37604486  0.87493459  0.64392853  1
  Cu2+  Cu119  1  0.37465495  0.62482887  0.64800931  1
  Cu2+  Cu120  1  0.12610077  0.87464619  0.15450021  1
  Cu2+  Cu121  1  0.87411427  0.37545912  0.65355158  1
  Cu2+  Cu122  1  0.62255696  0.37493790  0.15047735  1
  Cu2+  Cu123  1  0.12559399  0.62441163  0.15640725  1
  Cu2+  Cu124  1  0.62367109  0.12532220  0.65643469  1
  Cu2+  Cu125  1  0.12617376  0.12515396  0.64805880  1
  Cu2+  Cu126  1  0.87545809  0.37599782  0.14733929  1
  Cu2+  Cu127  1  0.37469240  0.62468247  0.14563988  1
  O2-  O128  1  0.12512382  0.12478488  -0.00545147  1
  O2-  O129  1  0.12181761  0.12632674  0.49762815  1
  O2-  O130  1  0.12772410  0.37605178  0.00613278  1
  O2-  O131  1  0.12153843  0.37342348  0.49850582  1
  O2-  O132  1  0.12536850  0.62447803  -0.00535007  1
  O2-  O133  1  0.12298947  0.62482648  0.50630568  1
  O2-  O134  1  0.12635700  0.87465745  -0.00397169  1
  O2-  O135  1  0.12301173  0.87532813  0.50654066  1
  O2-  O136  1  0.37317444  0.12615232  0.01886483  1
  O2-  O137  1  0.37697410  0.12411720  0.51834611  1
  O2-  O138  1  0.37383062  0.37488441  0.01882064  1
  O2-  O139  1  0.37648026  0.37441724  0.50889671  1
  O2-  O140  1  0.37254932  0.62450426  0.00652650  1
  O2-  O141  1  0.37669635  0.62562942  0.49947106  1
  O2-  O142  1  0.37173884  0.87488278  0.00759095  1
  O2-  O143  1  0.37827373  0.87551650  0.50750189  1
  O2-  O144  1  0.62302719  0.12649992  0.00586877  1
  O2-  O145  1  0.62897249  0.12454012  0.49448387  1
  O2-  O146  1  0.62374668  0.37497122  -0.00433705  1
  O2-  O147  1  0.62806782  0.37236984  0.49640549  1
  O2-  O148  1  0.62505306  0.62389645  0.00747584  1
  O2-  O149  1  0.62612484  0.62497419  0.50823142  1
  O2-  O150  1  0.62261394  0.87492289  0.00668301  1
  O2-  O151  1  0.62752135  0.87797061  0.49411287  1
  O2-  O152  1  0.87833864  0.12575576  0.00523392  1
  O2-  O153  1  0.87187537  0.12540440  0.49333797  1
  O2-  O154  1  0.87642671  0.37648500  -0.00247970  1
  O2-  O155  1  0.87359899  0.37102889  0.49496602  1
  O2-  O156  1  0.87754512  0.62373471  0.00765240  1
  O2-  O157  1  0.87448673  0.62737482  0.51806071  1
  O2-  O158  1  0.87852609  0.87389172  0.00764058  1
  O2-  O159  1  0.87118242  0.87452657  0.52058156  1
  O2-  O160  1  0.12557037  0.00017194  0.16343551  1
  O2-  O161  1  0.12461557  0.00061402  0.66380546  1
  O2-  O162  1  0.12605815  0.24935001  0.16338578  1
  O2-  O163  1  0.12477210  0.25071902  0.66465424  1
  O2-  O164  1  0.12561388  0.50116667  0.16770573  1
  O2-  O165  1  0.12424278  0.50189236  0.66087125  1
  O2-  O166  1  0.12368040  0.74951072  0.16566741  1
  O2-  O167  1  0.12438101  0.74655033  0.66390495  1
  O2-  O168  1  0.37364537  -0.00126825  0.16447405  1
  O2-  O169  1  0.37612186  0.00120360  0.66940913  1
  O2-  O170  1  0.37550837  0.24991628  0.16953283  1
  O2-  O171  1  0.37551928  0.24845373  0.66719845  1
  O2-  O172  1  0.37489838  0.49969654  0.16687748  1
  O2-  O173  1  0.37527369  0.50087025  0.66435426  1
  O2-  O174  1  0.37585859  0.75246061  0.16263571  1
  O2-  O175  1  0.37598124  0.74889117  0.66630641  1
  O2-  O176  1  0.62714037  0.00051087  0.15709209  1
  O2-  O177  1  0.62562049  -0.00050334  0.66982175  1
  O2-  O178  1  0.62438187  0.24767315  0.15998304  1
  O2-  O179  1  0.62528640  0.25077555  0.66585169  1
  O2-  O180  1  0.62517693  0.49881589  0.16526765  1
  O2-  O181  1  0.62564209  0.49798710  0.66321563  1
  O2-  O182  1  0.62494965  0.75406426  0.16350626  1
  O2-  O183  1  0.62497102  0.75083797  0.66918228  1
  O2-  O184  1  0.87469998  0.00016233  0.15719432  1
  O2-  O185  1  0.87342659  -0.00054908  0.67087477  1
  O2-  O186  1  0.87546227  0.24894150  0.15762672  1
  O2-  O187  1  0.87436267  0.24986450  0.66656190  1
  O2-  O188  1  0.87535380  0.50142958  0.16311241  1
  O2-  O189  1  0.87480939  0.50019709  0.66471154  1
  O2-  O190  1  0.87606546  0.75016474  0.16193805  1
  O2-  O191  1  0.87439998  0.74937300  0.67458949  1
  O2-  O192  1  -0.00037909  0.12479414  0.16024298  1
  O2-  O193  1  0.00056932  0.12455463  0.66360940  1
  O2-  O194  1  0.00076878  0.37562027  0.16225475  1
  O2-  O195  1  -0.00031903  0.37494225  0.66386175  1
  O2-  O196  1  -0.00098658  0.62503442  0.16422943  1
  O2-  O197  1  0.00060628  0.62448334  0.66595265  1
  O2-  O198  1  -0.00118807  0.87552201  0.16331661  1
  O2-  O199  1  -0.00258771  0.87503274  0.66737065  1
  O2-  O200  1  0.25074077  0.12432402  0.17003199  1
  O2-  O201  1  0.25037564  0.12495029  0.66475556  1
  O2-  O202  1  0.25293295  0.37529141  0.17124953  1
  O2-  O203  1  0.24908101  0.37521920  0.66451325  1
  O2-  O204  1  0.24884484  0.62652310  0.16905618  1
  O2-  O205  1  0.24864205  0.62517621  0.65958233  1
  O2-  O206  1  0.25136409  0.87408257  0.16585935  1
  O2-  O207  1  0.25031294  0.87451706  0.66333712  1
  O2-  O208  1  0.50029031  0.12310471  0.16496136  1
  O2-  O209  1  0.49962132  0.12444476  0.66985222  1
  O2-  O210  1  0.49875063  0.37467952  0.16795234  1
  O2-  O211  1  0.50209523  0.37467279  0.66563044  1
  O2-  O212  1  0.49978620  0.62521324  0.16525215  1
  O2-  O213  1  0.49862154  0.62510850  0.66591380  1
  O2-  O214  1  0.49951471  0.87765579  0.16035497  1
  O2-  O215  1  0.50196400  0.87495282  0.66971617  1
  O2-  O216  1  0.75038340  0.12531557  0.15392045  1
  O2-  O217  1  0.74858939  0.12450457  0.67061373  1
  O2-  O218  1  0.74864267  0.37450256  0.15860518  1
  O2-  O219  1  0.74897627  0.37432254  0.66655455  1
  O2-  O220  1  0.75292939  0.62562425  0.16186925  1
  O2-  O221  1  0.75192420  0.62485494  0.67062035  1
  O2-  O222  1  0.75048673  0.87550687  0.15514827  1
  O2-  O223  1  0.75033041  0.87549052  0.67494687  1
  O2-  O224  1  0.12440187  0.00229333  0.34722505  1
  O2-  O225  1  0.12458678  -0.00081775  0.84488888  1
  O2-  O226  1  0.12491129  0.25055544  0.34401438  1
  O2-  O227  1  0.12519907  0.24866774  0.84725145  1
  O2-  O228  1  0.12334957  0.50054519  0.34989339  1
  O2-  O229  1  0.12427945  0.50153645  0.84368196  1
  O2-  O230  1  0.12382454  0.74686655  0.35015861  1
  O2-  O231  1  0.12437071  0.75060336  0.84413858  1
  O2-  O232  1  0.37564776  0.00107115  0.34775722  1
  O2-  O233  1  0.37488327  -0.00250893  0.85238284  1
  O2-  O234  1  0.37503854  0.24959992  0.35091077  1
  O2-  O235  1  0.37498376  0.24977320  0.85060476  1
  O2-  O236  1  0.37495638  0.50213810  0.34759981  1
  O2-  O237  1  0.37435374  0.49922910  0.84804289  1
  O2-  O238  1  0.37480801  0.74716064  0.34493780  1
  O2-  O239  1  0.37485202  0.75345325  0.84948358  1
  O2-  O240  1  0.62513144  0.00119564  0.33856246  1
  O2-  O241  1  0.62541219  0.00012288  0.85463179  1
  O2-  O242  1  0.62553522  0.24983996  0.34101837  1
  O2-  O243  1  0.62477435  0.24885592  0.84851784  1
  O2-  O244  1  0.62611835  0.49816454  0.34776555  1
  O2-  O245  1  0.62495045  0.49841504  0.84522566  1
  O2-  O246  1  0.62688113  0.75094034  0.34633210  1
  O2-  O247  1  0.62524394  0.75275232  0.85249355  1
  O2-  O248  1  0.87436751  0.00180190  0.34025825  1
  O2-  O249  1  0.87410466  -0.00007340  0.85496710  1
  O2-  O250  1  0.87457584  0.24997296  0.33760838  1
  O2-  O251  1  0.87447266  0.24842442  0.84993081  1
  O2-  O252  1  0.87560775  0.49798991  0.34673313  1
  O2-  O253  1  0.87570952  0.50123130  0.84682708  1
  O2-  O254  1  0.87392711  0.75015012  0.34785675  1
  O2-  O255  1  0.87458648  0.75030140  0.85578123  1
  O2-  O256  1  -0.00036633  0.12528088  0.34212057  1
  O2-  O257  1  -0.00097305  0.12437119  0.84595862  1
  O2-  O258  1  -0.00000800  0.37458136  0.34333426  1
  O2-  O259  1  -0.00192117  0.37442864  0.84589037  1
  O2-  O260  1  0.00122340  0.62542921  0.34916809  1
  O2-  O261  1  -0.00125722  0.62608986  0.84663168  1
  O2-  O262  1  -0.00264548  0.87512023  0.34788837  1
  O2-  O263  1  -0.00081497  0.87495411  0.84808209  1
  O2-  O264  1  0.24971993  0.12492616  0.35233609  1
  O2-  O265  1  0.24951368  0.12413303  0.84622855  1
  O2-  O266  1  0.24808499  0.37572946  0.35171925  1
  O2-  O267  1  0.25187259  0.37520870  0.84811996  1
  O2-  O268  1  0.24842538  0.62465851  0.35164001  1
  O2-  O269  1  0.24788591  0.62559614  0.84260361  1
  O2-  O270  1  0.25094663  0.87470423  0.35047570  1
  O2-  O271  1  0.25033984  0.87503764  0.84527111  1
  O2-  O272  1  0.50070089  0.12501806  0.34739169  1
  O2-  O273  1  0.50093394  0.12394281  0.85384710  1
  O2-  O274  1  0.50174150  0.37432081  0.34888774  1
  O2-  O275  1  0.49963247  0.37436290  0.84863564  1
  O2-  O276  1  0.49913519  0.62523547  0.34688822  1
  O2-  O277  1  0.49955329  0.62516895  0.85008919  1
  O2-  O278  1  0.50248369  0.87502337  0.34250067  1
  O2-  O279  1  0.49960983  0.87641005  0.85492724  1
  O2-  O280  1  0.74989951  0.12497607  0.33556229  1
  O2-  O281  1  0.75004834  0.12428831  0.85534032  1
  O2-  O282  1  0.75022645  0.37468909  0.34029838  1
  O2-  O283  1  0.75043573  0.37451221  0.84783651  1
  O2-  O284  1  0.75149039  0.62467645  0.34602824  1
  O2-  O285  1  0.75339896  0.62516973  0.85297794  1
  O2-  O286  1  0.74878550  0.87568020  0.33824442  1
  O2-  O287  1  0.75014034  0.87592459  0.85851946  1
