# generated using pymatgen
data_BaYFeCuO5
_symmetry_space_group_name_H-M   'P 1'
_cell_length_a   15.66350799
_cell_length_b   15.66644902
_cell_length_c   15.46873463
_cell_angle_alpha   89.99630267
_cell_angle_beta   89.99904053
_cell_angle_gamma   89.99740989
_symmetry_Int_Tables_number   1
_chemical_formula_structural   BaYFeCuO5
_chemical_formula_sum   'Ba32 Y32 Fe32 Cu32 O160'
_cell_volume   3795.89674587
_cell_formula_units_Z   32
loop_
 _symmetry_equiv_pos_site_id
 _symmetry_equiv_pos_as_xyz
  1  'x, y, z'
loop_
 _atom_type_symbol
 _atom_type_oxidation_number
  Ba2+  2.0
  Y3+  3.0
  Fe3+  3.0
  Cu2+  2.0
  O2-  -2.0
loop_
 _atom_site_type_symbol
 _atom_site_label
 _atom_site_symmetry_multiplicity
 _atom_site_fract_x
 _atom_site_fract_y
 _atom_site_fract_z
 _atom_site_occupancy
  Ba2+  Ba0  1  -0.00331942  0.00835056  0.01697349  1
  Ba2+  Ba1  1  -0.00105589  0.00598304  0.51624903  1
  Ba2+  Ba2  1  -0.00019785  0.24662971  0.01372137  1
  Ba2+  Ba3  1  -0.00360071  0.24675966  0.51198110  1
  Ba2+  Ba4  1  0.00059002  0.48953603  0.00617562  1
  Ba2+  Ba5  1  -0.00802954  0.50227768  0.51100861  1
  Ba2+  Ba6  1  -0.00433789  0.75459275  0.01113501  1
  Ba2+  Ba7  1  -0.00545128  0.74444904  0.51724535  1
  Ba2+  Ba8  1  0.25042420  0.00132015  0.00604723  1
  Ba2+  Ba9  1  0.25192015  0.00589683  0.51850746  1
  Ba2+  Ba10  1  0.24264042  0.25118145  0.00502843  1
  Ba2+  Ba11  1  0.25447454  0.24649391  0.51330737  1
  Ba2+  Ba12  1  0.25712102  0.49783382  0.00732117  1
  Ba2+  Ba13  1  0.25664400  0.49967019  0.50629700  1
  Ba2+  Ba14  1  0.26180793  0.74967471  0.00649893  1
  Ba2+  Ba15  1  0.25394108  0.74662720  0.51388090  1
  Ba2+  Ba16  1  0.50498666  -0.00254018  0.01178193  1
  Ba2+  Ba17  1  0.49510743  0.00360474  0.51412781  1
  Ba2+  Ba18  1  0.50687628  0.25139770  0.01724612  1
  Ba2+  Ba19  1  0.49770019  0.25341968  0.50120053  1
  Ba2+  Ba20  1  0.49438005  0.49744300  0.01712333  1
  Ba2+  Ba21  1  0.49829555  0.49714830  0.50072183  1
  Ba2+  Ba22  1  0.49305074  0.75385113  0.01049189  1
  Ba2+  Ba23  1  0.49654124  0.74579335  0.51274311  1
  Ba2+  Ba24  1  0.74853314  0.00426049  0.02085899  1
  Ba2+  Ba25  1  0.75375214  0.00369390  0.51109049  1
  Ba2+  Ba26  1  0.74978921  0.24687876  0.02266196  1
  Ba2+  Ba27  1  0.75133031  0.25371784  0.50121202  1
  Ba2+  Ba28  1  0.74966534  0.48939024  0.01902315  1
  Ba2+  Ba29  1  0.75385364  0.49947953  0.50637085  1
  Ba2+  Ba30  1  0.74860743  0.75938661  0.01765285  1
  Ba2+  Ba31  1  0.75472110  0.74347810  0.51552857  1
  Y3+  Y32  1  0.00131072  0.00292523  0.25658043  1
  Y3+  Y33  1  0.00100477  0.00307364  0.75559444  1
  Y3+  Y34  1  0.00011811  0.24866594  0.25953395  1
  Y3+  Y35  1  0.00152709  0.24879568  0.75561172  1
  Y3+  Y36  1  -0.00217505  0.49869782  0.26131209  1
  Y3+  Y37  1  -0.00051608  0.49906350  0.75412885  1
  Y3+  Y38  1  -0.00074389  0.75019616  0.25762651  1
  Y3+  Y39  1  -0.00067927  0.74861217  0.75542191  1
  Y3+  Y40  1  0.24847347  0.00175109  0.25492849  1
  Y3+  Y41  1  0.25036190  0.00177570  0.75931271  1
  Y3+  Y42  1  0.24901866  0.24946531  0.25947384  1
  Y3+  Y43  1  0.24833757  0.24875439  0.75640590  1
  Y3+  Y44  1  0.25355813  0.49959633  0.25821382  1
  Y3+  Y45  1  0.25053254  0.49927563  0.75838318  1
  Y3+  Y46  1  0.25290884  0.75006293  0.25381432  1
  Y3+  Y47  1  0.25257443  0.74990448  0.76135421  1
  Y3+  Y48  1  0.50160749  0.00082033  0.25407465  1
  Y3+  Y49  1  0.49895401  0.00025382  0.76051153  1
  Y3+  Y50  1  0.50183311  0.25177163  0.25874685  1
  Y3+  Y51  1  0.49977472  0.24942879  0.75630522  1
  Y3+  Y52  1  0.49720538  0.49789919  0.25808539  1
  Y3+  Y53  1  0.49899536  0.50018236  0.75741633  1
  Y3+  Y54  1  0.49741791  0.75062811  0.25349629  1
  Y3+  Y55  1  0.49807848  0.74951706  0.76090851  1
  Y3+  Y56  1  0.74817234  0.00187167  0.25602577  1
  Y3+  Y57  1  0.75009493  0.00167707  0.75562748  1
  Y3+  Y58  1  0.74832784  0.25086730  0.25941161  1
  Y3+  Y59  1  0.75070867  0.24971066  0.75456555  1
  Y3+  Y60  1  0.75094489  0.49696651  0.26197867  1
  Y3+  Y61  1  0.75091623  0.50011966  0.75293143  1
  Y3+  Y62  1  0.75045109  0.75073040  0.25804161  1
  Y3+  Y63  1  0.75030016  0.74808673  0.75418148  1
  Fe3+  Fe64  1  0.87464258  0.37357554  0.87526341  1
  Fe3+  Fe65  1  0.12560511  0.87551584  0.38045681  1
  Fe3+  Fe66  1  0.37461477  0.87557026  0.37623391  1
  Fe3+  Fe67  1  0.62553206  0.62386996  0.88133440  1
  Fe3+  Fe68  1  0.87473068  0.12445702  0.37480027  1
  Fe3+  Fe69  1  0.37498231  0.12410490  0.37387987  1
  Fe3+  Fe70  1  0.37559847  0.37366291  0.87689381  1
  Fe3+  Fe71  1  0.12406857  0.87557001  0.87896113  1
  Fe3+  Fe72  1  0.62426140  0.87528187  0.37965547  1
  Fe3+  Fe73  1  0.87454322  0.87627290  0.87536822  1
  Fe3+  Fe74  1  0.37619448  0.12605570  0.87968399  1
  Fe3+  Fe75  1  0.62609006  0.37406198  0.87707251  1
  Fe3+  Fe76  1  0.62652036  0.87559554  0.87531523  1
  Fe3+  Fe77  1  0.12512015  0.37432032  0.38121860  1
  Fe3+  Fe78  1  0.12452287  0.62433521  0.88055694  1
  Fe3+  Fe79  1  0.87397809  0.12559270  0.87513700  1
  Fe3+  Fe80  1  0.87382014  0.62420990  0.88060206  1
  Fe3+  Fe81  1  0.87548143  0.87521940  0.37698433  1
  Fe3+  Fe82  1  0.12550158  0.62595004  0.37749244  1
  Fe3+  Fe83  1  0.62424305  0.62584951  0.37572113  1
  Fe3+  Fe84  1  0.12512230  0.87515558  0.13388894  1
  Fe3+  Fe85  1  0.12522761  0.62405783  0.13385818  1
  Fe3+  Fe86  1  0.62441705  0.12584909  0.63550864  1
  Fe3+  Fe87  1  0.37450777  0.12654279  0.13470198  1
  Fe3+  Fe88  1  0.12572474  0.37561893  0.63544040  1
  Fe3+  Fe89  1  0.62447078  0.87426984  0.63414650  1
  Fe3+  Fe90  1  0.87516399  0.62394417  0.13473282  1
  Fe3+  Fe91  1  0.62473853  0.62458334  0.13521204  1
  Fe3+  Fe92  1  0.12523774  0.37534689  0.14013184  1
  Fe3+  Fe93  1  0.62418453  0.37578665  0.63567619  1
  Fe3+  Fe94  1  0.37533705  0.62386456  0.64120516  1
  Fe3+  Fe95  1  0.12558290  0.87420231  0.63596378  1
  Cu2+  Cu96  1  0.12379771  0.12507163  0.87338447  1
  Cu2+  Cu97  1  0.87592421  0.37438062  0.37294305  1
  Cu2+  Cu98  1  0.37607872  0.62349971  0.87358730  1
  Cu2+  Cu99  1  0.37541860  0.87621027  0.87312642  1
  Cu2+  Cu100  1  0.62634760  0.12581268  0.87295445  1
  Cu2+  Cu101  1  0.62426116  0.12420275  0.36673933  1
  Cu2+  Cu102  1  0.12558878  0.12406080  0.37413322  1
  Cu2+  Cu103  1  0.62455271  0.37543818  0.36493433  1
  Cu2+  Cu104  1  0.37499698  0.62629203  0.36053205  1
  Cu2+  Cu105  1  0.87487734  0.62623493  0.37006189  1
  Cu2+  Cu106  1  0.37380664  0.37423866  0.37253487  1
  Cu2+  Cu107  1  0.12431249  0.37504912  0.86161007  1
  Cu2+  Cu108  1  0.12556859  0.12620883  0.14178085  1
  Cu2+  Cu109  1  0.87501529  0.12593622  0.15522918  1
  Cu2+  Cu110  1  0.62494879  0.87439839  0.15260098  1
  Cu2+  Cu111  1  0.12617593  0.62459139  0.65081522  1
  Cu2+  Cu112  1  0.87598061  0.37470206  0.15537961  1
  Cu2+  Cu113  1  0.87393877  0.12541565  0.65000665  1
  Cu2+  Cu114  1  0.37630063  0.12505974  0.65533005  1
  Cu2+  Cu115  1  0.62384489  0.62453083  0.65001102  1
  Cu2+  Cu116  1  0.62428260  0.12572827  0.14315107  1
  Cu2+  Cu117  1  0.37404313  0.37320139  0.15243591  1
  Cu2+  Cu118  1  0.87564180  0.87572769  0.15188366  1
  Cu2+  Cu119  1  0.37521627  0.87504331  0.65288153  1
  Cu2+  Cu120  1  0.87488029  0.87526600  0.64776714  1
  Cu2+  Cu121  1  0.37558735  0.37480520  0.64222078  1
  Cu2+  Cu122  1  0.37429927  0.87717881  0.14106175  1
  Cu2+  Cu123  1  0.87486608  0.62403187  0.64546135  1
  Cu2+  Cu124  1  0.62496427  0.37608675  0.15466326  1
  Cu2+  Cu125  1  0.12555123  0.12545746  0.64117207  1
  Cu2+  Cu126  1  0.37482981  0.62430098  0.14193784  1
  Cu2+  Cu127  1  0.87458932  0.37416835  0.64018039  1
  O2-  O128  1  0.12355648  0.12520947  0.00697063  1
  O2-  O129  1  0.12608748  0.12345918  0.50805971  1
  O2-  O130  1  0.12447984  0.37515138  0.01913134  1
  O2-  O131  1  0.12573317  0.37572712  0.50801064  1
  O2-  O132  1  0.12412208  0.62391985  0.00731704  1
  O2-  O133  1  0.12529917  0.62794485  0.49774696  1
  O2-  O134  1  0.12345693  0.87525326  0.00591070  1
  O2-  O135  1  0.12599155  0.87395480  0.50653369  1
  O2-  O136  1  0.37560387  0.12731535  0.00680070  1
  O2-  O137  1  0.37527432  0.12302477  0.49497003  1
  O2-  O138  1  0.37570435  0.37248576  -0.00275106  1
  O2-  O139  1  0.37463648  0.37555236  0.50711109  1
  O2-  O140  1  0.37620717  0.62325230  0.00822348  1
  O2-  O141  1  0.37524810  0.62502732  0.51974993  1
  O2-  O142  1  0.37524122  0.87690053  0.00639848  1
  O2-  O143  1  0.37439757  0.87505753  0.49650892  1
  O2-  O144  1  0.62633388  0.12532653  0.00801770  1
  O2-  O145  1  0.62314507  0.12474496  0.51511505  1
  O2-  O146  1  0.62663231  0.37429532  -0.00239531  1
  O2-  O147  1  0.62394299  0.37587181  0.51515136  1
  O2-  O148  1  0.62622537  0.62448461  0.00732800  1
  O2-  O149  1  0.62422961  0.62666089  0.49606669  1
  O2-  O150  1  0.62761402  0.87567741  -0.00413125  1
  O2-  O151  1  0.62368673  0.87424967  0.50579511  1
  O2-  O152  1  0.87356502  0.12584560  -0.00436607  1
  O2-  O153  1  0.87472703  0.12358040  0.49599639  1
  O2-  O154  1  0.87443581  0.37323198  -0.00409558  1
  O2-  O155  1  0.87528759  0.37509779  0.50687076  1
  O2-  O156  1  0.87404790  0.62376889  0.00643199  1
  O2-  O157  1  0.87487692  0.62578363  0.50615520  1
  O2-  O158  1  0.87413443  0.87646084  -0.00438492  1
  O2-  O159  1  0.87574379  0.87446244  0.49716170  1
  O2-  O160  1  0.12450447  -0.00224225  0.16283210  1
  O2-  O161  1  0.12561909  -0.00282768  0.66372279  1
  O2-  O162  1  0.12436126  0.25206342  0.16928221  1
  O2-  O163  1  0.12534535  0.25223326  0.66289253  1
  O2-  O164  1  0.12427187  0.50169394  0.16735297  1
  O2-  O165  1  0.12574808  0.49881290  0.66558567  1
  O2-  O166  1  0.12363086  0.74926505  0.16042236  1
  O2-  O167  1  0.12504745  0.75140359  0.66626732  1
  O2-  O168  1  0.37399106  0.00337247  0.16069320  1
  O2-  O169  1  0.37474342  -0.00023133  0.66581674  1
  O2-  O170  1  0.37489578  0.24874045  0.16476675  1
  O2-  O171  1  0.37571640  0.24843396  0.66409034  1
  O2-  O172  1  0.37421495  0.49741311  0.16574219  1
  O2-  O173  1  0.37435991  0.50125167  0.66910678  1
  O2-  O174  1  0.37480073  0.75119377  0.16257277  1
  O2-  O175  1  0.37498544  0.74972090  0.66837793  1
  O2-  O176  1  0.62539984  -0.00174160  0.16492351  1
  O2-  O177  1  0.62535307  -0.00127027  0.66254113  1
  O2-  O178  1  0.62490022  0.25260056  0.16692321  1
  O2-  O179  1  0.62432884  0.24991655  0.66584650  1
  O2-  O180  1  0.62610216  0.50154317  0.16334672  1
  O2-  O181  1  0.62463777  0.50012768  0.66739206  1
  O2-  O182  1  0.62549497  0.74835241  0.16246666  1
  O2-  O183  1  0.62462704  0.75103134  0.66330715  1
  O2-  O184  1  0.87541442  0.00054956  0.16315487  1
  O2-  O185  1  0.87456922  0.00097930  0.66184320  1
  O2-  O186  1  0.87602464  0.25040374  0.16576184  1
  O2-  O187  1  0.87498244  0.24804412  0.66270380  1
  O2-  O188  1  0.87512225  0.50199415  0.16528968  1
  O2-  O189  1  0.87513823  0.50012689  0.66688386  1
  O2-  O190  1  0.87565322  0.74786759  0.16088492  1
  O2-  O191  1  0.87549067  0.75011588  0.66725404  1
  O2-  O192  1  -0.00097532  0.12513453  0.16472295  1
  O2-  O193  1  -0.00238713  0.12441331  0.66306408  1
  O2-  O194  1  0.00051076  0.37627443  0.16806995  1
  O2-  O195  1  0.00264369  0.37563932  0.66293152  1
  O2-  O196  1  -0.00019850  0.62520864  0.16009383  1
  O2-  O197  1  0.00160381  0.62500437  0.66782019  1
  O2-  O198  1  0.00182585  0.87428778  0.16296743  1
  O2-  O199  1  0.00149603  0.87429655  0.66277907  1
  O2-  O200  1  0.25214061  0.12588837  0.16319181  1
  O2-  O201  1  0.25268089  0.12456869  0.66774076  1
  O2-  O202  1  0.24893029  0.37526130  0.16850582  1
  O2-  O203  1  0.24801826  0.37484764  0.66502131  1
  O2-  O204  1  0.24690970  0.62519157  0.16312623  1
  O2-  O205  1  0.25116139  0.62607411  0.67004430  1
  O2-  O206  1  0.24610880  0.87444620  0.16396375  1
  O2-  O207  1  0.24883214  0.87412539  0.66551045  1
  O2-  O208  1  0.49736477  0.12528671  0.16315806  1
  O2-  O209  1  0.50093620  0.12323360  0.66823451  1
  O2-  O210  1  0.49932330  0.37550011  0.16431880  1
  O2-  O211  1  0.50155100  0.37543411  0.66665211  1
  O2-  O212  1  0.50279935  0.62452674  0.16280970  1
  O2-  O213  1  0.49885481  0.62587132  0.66938570  1
  O2-  O214  1  0.50103034  0.87550562  0.16497020  1
  O2-  O215  1  0.50164781  0.87492154  0.66297122  1
  O2-  O216  1  0.75091667  0.12545955  0.16600778  1
  O2-  O217  1  0.74922667  0.12452555  0.66229253  1
  O2-  O218  1  0.75135115  0.37564312  0.16530421  1
  O2-  O219  1  0.74779009  0.37543577  0.66398877  1
  O2-  O220  1  0.75050414  0.62568832  0.15992566  1
  O2-  O221  1  0.74843808  0.62545220  0.66562296  1
  O2-  O222  1  0.75070254  0.87418733  0.16521592  1
  O2-  O223  1  0.74818082  0.87372017  0.65903693  1
  O2-  O224  1  0.12526351  -0.00344645  0.34728426  1
  O2-  O225  1  0.12410738  -0.00314026  0.84782113  1
  O2-  O226  1  0.12550724  0.25185332  0.35241943  1
  O2-  O227  1  0.12499219  0.25143502  0.84688186  1
  O2-  O228  1  0.12516534  0.49966498  0.35048019  1
  O2-  O229  1  0.12341218  0.50183707  0.85090102  1
  O2-  O230  1  0.12558117  0.75207939  0.34450325  1
  O2-  O231  1  0.12403590  0.74955153  0.85178987  1
  O2-  O232  1  0.37530594  -0.00106545  0.34147803  1
  O2-  O233  1  0.37487168  0.00329097  0.84998329  1
  O2-  O234  1  0.37472293  0.24800799  0.34745439  1
  O2-  O235  1  0.37439783  0.24933697  0.84615085  1
  O2-  O236  1  0.37481779  0.50182910  0.35042227  1
  O2-  O237  1  0.37483069  0.49754553  0.84950079  1
  O2-  O238  1  0.37446554  0.75160138  0.34519668  1
  O2-  O239  1  0.37516106  0.74933496  0.85135474  1
  O2-  O240  1  0.62436968  -0.00273137  0.34872936  1
  O2-  O241  1  0.62567600  -0.00134354  0.84496697  1
  O2-  O242  1  0.62459477  0.25040581  0.35137737  1
  O2-  O243  1  0.62564391  0.25222416  0.84563703  1
  O2-  O244  1  0.62410260  0.50082195  0.34737174  1
  O2-  O245  1  0.62593791  0.50060170  0.84936697  1
  O2-  O246  1  0.62455315  0.75215357  0.34558611  1
  O2-  O247  1  0.62674099  0.74823497  0.84807517  1
  O2-  O248  1  0.87473574  -0.00082434  0.34461264  1
  O2-  O249  1  0.87562266  -0.00021320  0.84331739  1
  O2-  O250  1  0.87474871  0.24796640  0.34877024  1
  O2-  O251  1  0.87538692  0.25037131  0.84333461  1
  O2-  O252  1  0.87537744  0.50023432  0.34955403  1
  O2-  O253  1  0.87594277  0.50115766  0.84952351  1
  O2-  O254  1  0.87512293  0.75289537  0.34309343  1
  O2-  O255  1  0.87502089  0.74830001  0.85025280  1
  O2-  O256  1  -0.00118905  0.12388397  0.34748263  1
  O2-  O257  1  -0.00210824  0.12503463  0.84567775  1
  O2-  O258  1  0.00328907  0.37539079  0.35051064  1
  O2-  O259  1  -0.00084522  0.37556329  0.84644981  1
  O2-  O260  1  0.00264368  0.62638503  0.34318324  1
  O2-  O261  1  -0.00093660  0.62572192  0.85273343  1
  O2-  O262  1  0.00156346  0.87461063  0.34704019  1
  O2-  O263  1  0.00009871  0.87344933  0.84653498  1
  O2-  O264  1  0.25156850  0.12352820  0.34502815  1
  O2-  O265  1  0.25217643  0.12497316  0.85237753  1
  O2-  O266  1  0.24693811  0.37591190  0.35063598  1
  O2-  O267  1  0.24979253  0.37512452  0.84905550  1
  O2-  O268  1  0.24982201  0.62613982  0.34631611  1
  O2-  O269  1  0.24693603  0.62471536  0.85319559  1
  O2-  O270  1  0.24907893  0.87480635  0.34659932  1
  O2-  O271  1  0.24676673  0.87457346  0.85077620  1
  O2-  O272  1  0.49961748  0.12443264  0.34604444  1
  O2-  O273  1  0.49802167  0.12540340  0.85103998  1
  O2-  O274  1  0.50019897  0.37520935  0.34919818  1
  O2-  O275  1  0.50047914  0.37490568  0.84620705  1
  O2-  O276  1  0.49966309  0.62624182  0.34628941  1
  O2-  O277  1  0.50387183  0.62499797  0.85137959  1
  O2-  O278  1  0.50066929  0.87451361  0.34804648  1
  O2-  O279  1  0.50271257  0.87436022  0.84661790  1
  O2-  O280  1  0.74952590  0.12412760  0.34911611  1
  O2-  O281  1  0.75209340  0.12483193  0.84290651  1
  O2-  O282  1  0.74903422  0.37532684  0.35026259  1
  O2-  O283  1  0.75088750  0.37621264  0.84338596  1
  O2-  O284  1  0.74754873  0.62590246  0.34355235  1
  O2-  O285  1  0.75067949  0.62456330  0.84928582  1
  O2-  O286  1  0.74856944  0.87485694  0.34946341  1
  O2-  O287  1  0.75114442  0.87410807  0.84068223  1
