# generated using pymatgen
data_BaYFeCuO5
_symmetry_space_group_name_H-M   'P 1'
_cell_length_a   15.66769628
_cell_length_b   15.66848669
_cell_length_c   15.48248706
_cell_angle_alpha   89.99405214
_cell_angle_beta   90.00060316
_cell_angle_gamma   90.00209098
_symmetry_Int_Tables_number   1
_chemical_formula_structural   BaYFeCuO5
_chemical_formula_sum   'Ba32 Y32 Fe32 Cu32 O160'
_cell_volume   3800.78164709
_cell_formula_units_Z   32
loop_
 _symmetry_equiv_pos_site_id
 _symmetry_equiv_pos_as_xyz
  1  'x, y, z'
loop_
 _atom_type_symbol
 _atom_type_oxidation_number
  Ba2+  2.0
  Y3+  3.0
  Fe3+  3.0
  Cu2+  2.0
  O2-  -2.0
loop_
 _atom_site_type_symbol
 _atom_site_label
 _atom_site_symmetry_multiplicity
 _atom_site_fract_x
 _atom_site_fract_y
 _atom_site_fract_z
 _atom_site_occupancy
  Ba2+  Ba0  1  0.00188604  -0.00117278  0.01453379  1
  Ba2+  Ba1  1  0.00520911  0.00453785  0.52262065  1
  Ba2+  Ba2  1  -0.00165416  0.24717890  0.01132634  1
  Ba2+  Ba3  1  0.00346607  0.24491816  0.51222837  1
  Ba2+  Ba4  1  -0.00280220  0.50326467  0.01275350  1
  Ba2+  Ba5  1  0.01057377  0.50107585  0.50172807  1
  Ba2+  Ba6  1  0.00096474  0.75020548  0.01763917  1
  Ba2+  Ba7  1  0.01146277  0.74930004  0.51149811  1
  Ba2+  Ba8  1  0.24734625  -0.00132412  0.01471768  1
  Ba2+  Ba9  1  0.25278394  -0.00249696  0.52157937  1
  Ba2+  Ba10  1  0.24662375  0.24334086  0.00692532  1
  Ba2+  Ba11  1  0.24702619  0.24378628  0.51315388  1
  Ba2+  Ba12  1  0.24474110  0.50519549  0.01360284  1
  Ba2+  Ba13  1  0.24582376  0.50711372  0.50709168  1
  Ba2+  Ba14  1  0.24690851  0.75218023  0.02087213  1
  Ba2+  Ba15  1  0.25144120  0.75184340  0.51585077  1
  Ba2+  Ba16  1  0.48899304  0.00127949  0.01106546  1
  Ba2+  Ba17  1  0.49884365  -0.00032924  0.51895008  1
  Ba2+  Ba18  1  0.49736799  0.24843396  0.01157059  1
  Ba2+  Ba19  1  0.50573732  0.24162515  0.50545234  1
  Ba2+  Ba20  1  0.50471211  0.50406837  0.01164685  1
  Ba2+  Ba21  1  0.50250635  0.50450923  0.50054001  1
  Ba2+  Ba22  1  0.49481602  0.74563596  0.01268017  1
  Ba2+  Ba23  1  0.49511600  0.75549607  0.51175386  1
  Ba2+  Ba24  1  0.76104911  0.00147903  0.01078740  1
  Ba2+  Ba25  1  0.74305439  0.00596125  0.51776070  1
  Ba2+  Ba26  1  0.75728694  0.25343750  0.01768146  1
  Ba2+  Ba27  1  0.74356399  0.24242192  0.50614687  1
  Ba2+  Ba28  1  0.75448780  0.50234722  0.01304764  1
  Ba2+  Ba29  1  0.74141589  0.49867682  0.49617377  1
  Ba2+  Ba30  1  0.75724814  0.74280218  0.00582638  1
  Ba2+  Ba31  1  0.74041666  0.75184215  0.50671917  1
  Y3+  Y32  1  0.00033534  -0.00051122  0.25111157  1
  Y3+  Y33  1  0.00081801  0.00046386  0.75989580  1
  Y3+  Y34  1  -0.00070950  0.24923580  0.25558997  1
  Y3+  Y35  1  -0.00055702  0.24821082  0.75868395  1
  Y3+  Y36  1  0.00091072  0.50195495  0.25857160  1
  Y3+  Y37  1  0.00101090  0.50126186  0.75758133  1
  Y3+  Y38  1  0.00201303  0.74960298  0.25596681  1
  Y3+  Y39  1  0.00253124  0.74988201  0.75745220  1
  Y3+  Y40  1  0.25124335  -0.00202342  0.25247835  1
  Y3+  Y41  1  0.25067759  -0.00098237  0.75879406  1
  Y3+  Y42  1  0.24980751  0.24848793  0.25527215  1
  Y3+  Y43  1  0.25071443  0.24833635  0.75967976  1
  Y3+  Y44  1  0.24784416  0.50176473  0.25991256  1
  Y3+  Y45  1  0.24849651  0.50136204  0.75547139  1
  Y3+  Y46  1  0.24937782  0.75163180  0.25808323  1
  Y3+  Y47  1  0.24864331  0.75145418  0.75368200  1
  Y3+  Y48  1  0.49693680  0.00014924  0.25645715  1
  Y3+  Y49  1  0.49819572  0.00071394  0.75701185  1
  Y3+  Y50  1  0.50187099  0.24911614  0.25700795  1
  Y3+  Y51  1  0.49898949  0.24662266  0.75851193  1
  Y3+  Y52  1  0.50148647  0.49927558  0.25778373  1
  Y3+  Y53  1  0.49945770  0.50133243  0.75841180  1
  Y3+  Y54  1  0.49708379  0.75158799  0.25847530  1
  Y3+  Y55  1  0.49866185  0.75088455  0.75551901  1
  Y3+  Y56  1  0.75155076  0.00139704  0.25521970  1
  Y3+  Y57  1  0.75000468  0.00207148  0.75781078  1
  Y3+  Y58  1  0.74915328  0.24998255  0.25750607  1
  Y3+  Y59  1  0.75099933  0.24688896  0.75729205  1
  Y3+  Y60  1  0.74998634  0.49891782  0.25654466  1
  Y3+  Y61  1  0.75091847  0.50210020  0.76079386  1
  Y3+  Y62  1  0.75182104  0.75008597  0.25648275  1
  Y3+  Y63  1  0.75000568  0.74893397  0.75883738  1
  Fe3+  Fe64  1  0.37377467  0.62549804  0.87632037  1
  Fe3+  Fe65  1  0.87618113  0.37519135  0.87580957  1
  Fe3+  Fe66  1  0.37339552  0.87401506  0.87684908  1
  Fe3+  Fe67  1  0.12496258  0.62610101  0.87630671  1
  Fe3+  Fe68  1  0.87647724  0.87432071  0.87567777  1
  Fe3+  Fe69  1  0.37419935  0.37370514  0.37983019  1
  Fe3+  Fe70  1  0.37364109  0.37587277  0.88059544  1
  Fe3+  Fe71  1  0.62463794  0.87429508  0.88048407  1
  Fe3+  Fe72  1  0.37478059  0.62667959  0.37637474  1
  Fe3+  Fe73  1  0.37455347  0.12313607  0.37585062  1
  Fe3+  Fe74  1  0.87577131  0.37374718  0.38006575  1
  Fe3+  Fe75  1  0.12547310  0.12338189  0.37369377  1
  Fe3+  Fe76  1  0.87493187  0.62615630  0.38039004  1
  Fe3+  Fe77  1  0.87556472  0.12328830  0.37659486  1
  Fe3+  Fe78  1  0.12567963  0.87698154  0.37628300  1
  Fe3+  Fe79  1  0.87607987  0.87644687  0.38058157  1
  Fe3+  Fe80  1  0.62547402  0.12482699  0.88097831  1
  Fe3+  Fe81  1  0.62424310  0.87709795  0.37504764  1
  Fe3+  Fe82  1  0.12458430  0.12405971  0.87605897  1
  Fe3+  Fe83  1  0.62551322  0.37524166  0.87965268  1
  Fe3+  Fe84  1  0.62524585  0.62574943  0.14012871  1
  Fe3+  Fe85  1  0.62540195  0.87480807  0.13293607  1
  Fe3+  Fe86  1  0.12520568  0.37425819  0.63816290  1
  Fe3+  Fe87  1  0.62522849  0.12474706  0.13445212  1
  Fe3+  Fe88  1  0.37589175  0.37493933  0.63437191  1
  Fe3+  Fe89  1  0.87461107  0.87490539  0.63390219  1
  Fe3+  Fe90  1  0.62466279  0.37465800  0.63822099  1
  Fe3+  Fe91  1  0.87494563  0.62424362  0.63294965  1
  Fe3+  Fe92  1  0.37456930  0.37602174  0.13591959  1
  Fe3+  Fe93  1  0.87408237  0.37498233  0.63309222  1
  Fe3+  Fe94  1  0.62466554  0.62466620  0.63901879  1
  Fe3+  Fe95  1  0.12431345  0.37506438  0.13802288  1
  Cu2+  Cu96  1  0.12556898  0.37348284  0.36447315  1
  Cu2+  Cu97  1  0.87661207  0.62522446  0.87126096  1
  Cu2+  Cu98  1  0.12502984  0.37544861  0.86526915  1
  Cu2+  Cu99  1  0.12559053  0.62692753  0.37152696  1
  Cu2+  Cu100  1  0.12538016  0.87423553  0.87200967  1
  Cu2+  Cu101  1  0.37405373  0.87645665  0.37182086  1
  Cu2+  Cu102  1  0.62448091  0.62546782  0.86471998  1
  Cu2+  Cu103  1  0.62476062  0.12247737  0.36794639  1
  Cu2+  Cu104  1  0.62449007  0.37390584  0.36288185  1
  Cu2+  Cu105  1  0.37459121  0.12446607  0.87395926  1
  Cu2+  Cu106  1  0.87508034  0.12503045  0.87286733  1
  Cu2+  Cu107  1  0.62473852  0.62680045  0.36150014  1
  Cu2+  Cu108  1  0.37479213  0.62410703  0.15298677  1
  Cu2+  Cu109  1  0.62423949  0.12532205  0.64700647  1
  Cu2+  Cu110  1  0.12426097  0.87581386  0.65178503  1
  Cu2+  Cu111  1  0.12488895  0.62443306  0.64203810  1
  Cu2+  Cu112  1  0.87586898  0.37581938  0.15529915  1
  Cu2+  Cu113  1  0.37461997  0.12623301  0.14055653  1
  Cu2+  Cu114  1  0.12566111  0.12540751  0.65610553  1
  Cu2+  Cu115  1  0.62548166  0.87496348  0.65445720  1
  Cu2+  Cu116  1  0.37549118  0.62398498  0.64835017  1
  Cu2+  Cu117  1  0.87532711  0.62494697  0.14516779  1
  Cu2+  Cu118  1  0.37481525  0.12598687  0.65208454  1
  Cu2+  Cu119  1  0.87441348  0.87403708  0.15104370  1
  Cu2+  Cu120  1  0.12526289  0.62464326  0.15357509  1
  Cu2+  Cu121  1  0.12477290  0.87475492  0.14059275  1
  Cu2+  Cu122  1  0.12497449  0.12559119  0.14914100  1
  Cu2+  Cu123  1  0.62530640  0.37509130  0.14811241  1
  Cu2+  Cu124  1  0.37506547  0.87510421  0.64273165  1
  Cu2+  Cu125  1  0.37570809  0.87431747  0.14914820  1
  Cu2+  Cu126  1  0.87500361  0.12528828  0.64992663  1
  Cu2+  Cu127  1  0.87533151  0.12545073  0.14132550  1
  O2-  O128  1  0.12386915  0.12460363  -0.00290123  1
  O2-  O129  1  0.12574088  0.12337623  0.49394636  1
  O2-  O130  1  0.12426429  0.37623447  0.01787206  1
  O2-  O131  1  0.12669783  0.37288044  0.51775202  1
  O2-  O132  1  0.12449222  0.62573738  -0.00305895  1
  O2-  O133  1  0.12563331  0.62548912  0.50666102  1
  O2-  O134  1  0.12473121  0.87384857  0.00748098  1
  O2-  O135  1  0.12523540  0.87850890  0.49662920  1
  O2-  O136  1  0.37465769  0.12664105  0.00677783  1
  O2-  O137  1  0.37465679  0.12431295  0.49632865  1
  O2-  O138  1  0.37380463  0.37720896  0.00759616  1
  O2-  O139  1  0.37564083  0.37383330  0.50717630  1
  O2-  O140  1  0.37367111  0.62390850  -0.00346797  1
  O2-  O141  1  0.37610593  0.62580850  0.49711690  1
  O2-  O142  1  0.37430394  0.87235263  -0.00261445  1
  O2-  O143  1  0.37506414  0.87623917  0.50782206  1
  O2-  O144  1  0.62599782  0.12632704  0.00719271  1
  O2-  O145  1  0.62392706  0.12342722  0.50669100  1
  O2-  O146  1  0.62643157  0.37561257  -0.00038014  1
  O2-  O147  1  0.62309180  0.37467099  0.51778192  1
  O2-  O148  1  0.62600599  0.62504236  0.01942855  1
  O2-  O149  1  0.62504479  0.62433832  0.51848205  1
  O2-  O150  1  0.62508643  0.87305799  0.00628781  1
  O2-  O151  1  0.62450275  0.87773357  0.49571805  1
  O2-  O152  1  0.87515043  0.12600584  0.00686044  1
  O2-  O153  1  0.87550248  0.12361467  0.49678396  1
  O2-  O154  1  0.87618991  0.37617922  -0.00371051  1
  O2-  O155  1  0.87432177  0.37392167  0.50684728  1
  O2-  O156  1  0.87618572  0.62465227  0.00738630  1
  O2-  O157  1  0.87371001  0.62464712  0.50694125  1
  O2-  O158  1  0.87555715  0.87294869  -0.00368558  1
  O2-  O159  1  0.87499590  0.87678471  0.50597782  1
  O2-  O160  1  0.12484493  0.00220784  0.15965065  1
  O2-  O161  1  0.12441340  0.00128021  0.66466525  1
  O2-  O162  1  0.12469592  0.25009845  0.16509627  1
  O2-  O163  1  0.12542462  0.25029814  0.66717024  1
  O2-  O164  1  0.12509017  0.49975586  0.16879004  1
  O2-  O165  1  0.12464026  0.49748140  0.66664086  1
  O2-  O166  1  0.12484881  0.74807138  0.16544933  1
  O2-  O167  1  0.12463742  0.75109101  0.66213277  1
  O2-  O168  1  0.37524881  -0.00083071  0.16038821  1
  O2-  O169  1  0.37543660  0.00199690  0.66565170  1
  O2-  O170  1  0.37544461  0.25389328  0.16433554  1
  O2-  O171  1  0.37544068  0.25194034  0.66510672  1
  O2-  O172  1  0.37487423  0.49807258  0.16706077  1
  O2-  O173  1  0.37576622  0.49767710  0.66339399  1
  O2-  O174  1  0.37591330  0.74912453  0.16439119  1
  O2-  O175  1  0.37560467  0.74821573  0.66283572  1
  O2-  O176  1  0.62566553  -0.00069260  0.15603508  1
  O2-  O177  1  0.62509112  -0.00101058  0.66845510  1
  O2-  O178  1  0.62532515  0.24887885  0.16315175  1
  O2-  O179  1  0.62464179  0.25179826  0.66882075  1
  O2-  O180  1  0.62513863  0.50054130  0.16834467  1
  O2-  O181  1  0.62521715  0.49957695  0.66978300  1
  O2-  O182  1  0.62470843  0.75175792  0.16532141  1
  O2-  O183  1  0.62573743  0.74931056  0.66599064  1
  O2-  O184  1  0.87457314  -0.00146906  0.16174956  1
  O2-  O185  1  0.87442294  -0.00117277  0.66239272  1
  O2-  O186  1  0.87489067  0.25148850  0.16640767  1
  O2-  O187  1  0.87434621  0.25130802  0.66217042  1
  O2-  O188  1  0.87510114  0.49943818  0.17038686  1
  O2-  O189  1  0.87431418  0.49969324  0.66237974  1
  O2-  O190  1  0.87484675  0.75067062  0.16905654  1
  O2-  O191  1  0.87400641  0.74971403  0.65896000  1
  O2-  O192  1  0.00152482  0.12559314  0.16381257  1
  O2-  O193  1  0.00040439  0.12568902  0.66296716  1
  O2-  O194  1  0.00056278  0.37580955  0.16898890  1
  O2-  O195  1  -0.00192292  0.37415063  0.66220197  1
  O2-  O196  1  0.00135238  0.62451688  0.16755870  1
  O2-  O197  1  -0.00355613  0.62483752  0.66173112  1
  O2-  O198  1  -0.00182632  0.87425056  0.16529723  1
  O2-  O199  1  -0.00195849  0.87503913  0.66162844  1
  O2-  O200  1  0.24845251  0.12642069  0.16222536  1
  O2-  O201  1  0.25024137  0.12630329  0.66440184  1
  O2-  O202  1  0.25041725  0.37566030  0.16578344  1
  O2-  O203  1  0.25179943  0.37436770  0.66574746  1
  O2-  O204  1  0.25039824  0.62397945  0.16385740  1
  O2-  O205  1  0.25123993  0.62359984  0.66240691  1
  O2-  O206  1  0.25199950  0.87423221  0.16355609  1
  O2-  O207  1  0.24801919  0.87556250  0.66399777  1
  O2-  O208  1  0.50322050  0.12541716  0.16252812  1
  O2-  O209  1  0.49863954  0.12547576  0.66846746  1
  O2-  O210  1  0.49820281  0.37571845  0.16336999  1
  O2-  O211  1  0.49898049  0.37489847  0.66876855  1
  O2-  O212  1  0.50041374  0.62414013  0.16538454  1
  O2-  O213  1  0.50097666  0.62432936  0.66779719  1
  O2-  O214  1  0.50176305  0.87495166  0.16169495  1
  O2-  O215  1  0.50156479  0.87517369  0.66725798  1
  O2-  O216  1  0.74698974  0.12525004  0.16405932  1
  O2-  O217  1  0.75046860  0.12490772  0.66668770  1
  O2-  O218  1  0.75135371  0.37549527  0.16623782  1
  O2-  O219  1  0.75098086  0.37479602  0.66431694  1
  O2-  O220  1  0.74830093  0.62508753  0.16986259  1
  O2-  O221  1  0.75134254  0.62493772  0.66682496  1
  O2-  O222  1  0.74815264  0.87460782  0.16444246  1
  O2-  O223  1  0.75192787  0.87510337  0.66407724  1
  O2-  O224  1  0.12392231  0.00017964  0.33978168  1
  O2-  O225  1  0.12500464  0.00071636  0.84759724  1
  O2-  O226  1  0.12511282  0.24849669  0.34665430  1
  O2-  O227  1  0.12518333  0.24997592  0.84924202  1
  O2-  O228  1  0.12503750  0.49872646  0.35229440  1
  O2-  O229  1  0.12556340  0.50072249  0.84786844  1
  O2-  O230  1  0.12434416  0.75295748  0.34746984  1
  O2-  O231  1  0.12528229  0.74840068  0.84439187  1
  O2-  O232  1  0.37472414  0.00156602  0.34282261  1
  O2-  O233  1  0.37579883  -0.00235378  0.84831908  1
  O2-  O234  1  0.37516206  0.25042282  0.34776542  1
  O2-  O235  1  0.37555491  0.25338453  0.85028771  1
  O2-  O236  1  0.37596574  0.49849613  0.35143986  1
  O2-  O237  1  0.37454279  0.49928612  0.84675200  1
  O2-  O238  1  0.37513494  0.74968838  0.34778358  1
  O2-  O239  1  0.37560559  0.74956160  0.84401955  1
  O2-  O240  1  0.62570995  -0.00211517  0.33800043  1
  O2-  O241  1  0.62537429  -0.00057657  0.85309815  1
  O2-  O242  1  0.62501629  0.24985817  0.34770473  1
  O2-  O243  1  0.62418798  0.24955282  0.84999445  1
  O2-  O244  1  0.62463163  0.50037090  0.35240783  1
  O2-  O245  1  0.62486699  0.49987154  0.84983969  1
  O2-  O246  1  0.62630715  0.75194255  0.34697332  1
  O2-  O247  1  0.62506033  0.75105643  0.84984243  1
  O2-  O248  1  0.87532974  -0.00127236  0.34432581  1
  O2-  O249  1  0.87380670  -0.00210957  0.84625387  1
  O2-  O250  1  0.87479673  0.25046078  0.34975616  1
  O2-  O251  1  0.87484371  0.25193758  0.84545479  1
  O2-  O252  1  0.87441606  0.49981103  0.35515959  1
  O2-  O253  1  0.87527746  0.49848922  0.84508505  1
  O2-  O254  1  0.87404020  0.75093209  0.35323239  1
  O2-  O255  1  0.87448560  0.75154540  0.84266522  1
  O2-  O256  1  -0.00043467  0.12521568  0.34468484  1
  O2-  O257  1  0.00134240  0.12516830  0.84592643  1
  O2-  O258  1  -0.00173334  0.37494496  0.35266955  1
  O2-  O259  1  0.00027390  0.37538880  0.84457044  1
  O2-  O260  1  -0.00338937  0.62528201  0.35135924  1
  O2-  O261  1  0.00227347  0.62462235  0.84356879  1
  O2-  O262  1  -0.00148640  0.87487010  0.34829294  1
  O2-  O263  1  -0.00071408  0.87461431  0.84469918  1
  O2-  O264  1  0.25003262  0.12532205  0.34302377  1
  O2-  O265  1  0.24844820  0.12566063  0.84738790  1
  O2-  O266  1  0.25217643  0.37471872  0.34905586  1
  O2-  O267  1  0.25147010  0.37537785  0.85010973  1
  O2-  O268  1  0.25175267  0.62460607  0.34655549  1
  O2-  O269  1  0.25016811  0.62437280  0.84365839  1
  O2-  O270  1  0.24825840  0.87608037  0.34570294  1
  O2-  O271  1  0.25147422  0.87428130  0.84596994  1
  O2-  O272  1  0.49815763  0.12533647  0.34458384  1
  O2-  O273  1  0.50320178  0.12490540  0.85207147  1
  O2-  O274  1  0.49807867  0.37431115  0.34897593  1
  O2-  O275  1  0.49888227  0.37633091  0.85172304  1
  O2-  O276  1  0.49966651  0.62504737  0.34690029  1
  O2-  O277  1  0.49872198  0.62439524  0.84977251  1
  O2-  O278  1  0.50066466  0.87547988  0.34523183  1
  O2-  O279  1  0.50112905  0.87434642  0.85009235  1
  O2-  O280  1  0.75236181  0.12456174  0.34626795  1
  O2-  O281  1  0.74678414  0.12501097  0.84969388  1
  O2-  O282  1  0.75160648  0.37475812  0.35155240  1
  O2-  O283  1  0.74947796  0.37525427  0.84501512  1
  O2-  O284  1  0.75181944  0.62530755  0.35259189  1
  O2-  O285  1  0.74883078  0.62532538  0.84977807  1
  O2-  O286  1  0.75234350  0.87537690  0.34812809  1
  O2-  O287  1  0.74812064  0.87415298  0.84816721  1
