# generated using pymatgen
data_BaYFeCuO5
_symmetry_space_group_name_H-M   'P 1'
_cell_length_a   15.66468973
_cell_length_b   15.66780260
_cell_length_c   15.46588367
_cell_angle_alpha   89.99927393
_cell_angle_beta   90.00256154
_cell_angle_gamma   90.00300586
_symmetry_Int_Tables_number   1
_chemical_formula_structural   BaYFeCuO5
_chemical_formula_sum   'Ba32 Y32 Fe32 Cu32 O160'
_cell_volume   3795.81140792
_cell_formula_units_Z   32
loop_
 _symmetry_equiv_pos_site_id
 _symmetry_equiv_pos_as_xyz
  1  'x, y, z'
loop_
 _atom_type_symbol
 _atom_type_oxidation_number
  Ba2+  2.0
  Y3+  3.0
  Fe3+  3.0
  Cu2+  2.0
  O2-  -2.0
loop_
 _atom_site_type_symbol
 _atom_site_label
 _atom_site_symmetry_multiplicity
 _atom_site_fract_x
 _atom_site_fract_y
 _atom_site_fract_z
 _atom_site_occupancy
  Ba2+  Ba0  1  0.00130517  0.00504714  0.01281835  1
  Ba2+  Ba1  1  0.00828872  -0.00564923  0.50727262  1
  Ba2+  Ba2  1  0.00140706  0.24715878  0.02340883  1
  Ba2+  Ba3  1  0.01310248  0.24884873  0.50666834  1
  Ba2+  Ba4  1  -0.00672480  0.49366516  0.02288755  1
  Ba2+  Ba5  1  0.00454325  0.49891954  0.51033244  1
  Ba2+  Ba6  1  -0.00680273  0.75532250  0.01104072  1
  Ba2+  Ba7  1  -0.00148133  0.75906931  0.51125463  1
  Ba2+  Ba8  1  0.24337516  0.00839384  0.01634206  1
  Ba2+  Ba9  1  0.24974861  0.00060909  0.50648804  1
  Ba2+  Ba10  1  0.24723211  0.24707415  0.02198846  1
  Ba2+  Ba11  1  0.24929408  0.24544102  0.51109895  1
  Ba2+  Ba12  1  0.24991038  0.48889612  0.01580070  1
  Ba2+  Ba13  1  0.25166340  0.49332296  0.51730237  1
  Ba2+  Ba14  1  0.24491847  0.75497398  0.01085292  1
  Ba2+  Ba15  1  0.25255312  0.76031074  0.51197586  1
  Ba2+  Ba16  1  0.50692885  0.00353184  0.01777699  1
  Ba2+  Ba17  1  0.48957584  0.00260648  0.50231076  1
  Ba2+  Ba18  1  0.49904033  0.24920365  0.01834823  1
  Ba2+  Ba19  1  0.49111623  0.24326487  0.50644456  1
  Ba2+  Ba20  1  0.50814274  0.49707528  0.00388470  1
  Ba2+  Ba21  1  0.48956968  0.50047314  0.51805630  1
  Ba2+  Ba22  1  0.51301062  0.75093304  0.00672334  1
  Ba2+  Ba23  1  0.48835487  0.75337045  0.51315581  1
  Ba2+  Ba24  1  0.74894589  -0.00135824  0.01204554  1
  Ba2+  Ba25  1  0.75303664  -0.00410413  0.50290479  1
  Ba2+  Ba26  1  0.75241333  0.24838449  0.02042684  1
  Ba2+  Ba27  1  0.74518214  0.24504635  0.50301694  1
  Ba2+  Ba28  1  0.74912682  0.50293733  0.01149839  1
  Ba2+  Ba29  1  0.75427948  0.50509352  0.51125462  1
  Ba2+  Ba30  1  0.74698143  0.75146796  0.00602261  1
  Ba2+  Ba31  1  0.76048844  0.75279084  0.51229984  1
  Y3+  Y32  1  0.00354811  -0.00065890  0.26102245  1
  Y3+  Y33  1  0.00226807  -0.00022741  0.75483857  1
  Y3+  Y34  1  0.00406898  0.24847714  0.26023624  1
  Y3+  Y35  1  0.00474625  0.24777072  0.75386339  1
  Y3+  Y36  1  0.00064130  0.49812119  0.25873960  1
  Y3+  Y37  1  0.00064864  0.49951573  0.75289529  1
  Y3+  Y38  1  0.00014212  0.75304300  0.25976214  1
  Y3+  Y39  1  -0.00170590  0.75347798  0.75383946  1
  Y3+  Y40  1  0.24866398  0.00136320  0.26123442  1
  Y3+  Y41  1  0.24867444  0.00228833  0.75352603  1
  Y3+  Y42  1  0.24824772  0.24691303  0.26038795  1
  Y3+  Y43  1  0.24837654  0.24728209  0.75289876  1
  Y3+  Y44  1  0.24866788  0.49656642  0.25629119  1
  Y3+  Y45  1  0.25048014  0.49804687  0.75520554  1
  Y3+  Y46  1  0.24944025  0.75398808  0.25785322  1
  Y3+  Y47  1  0.25106744  0.75280764  0.75563028  1
  Y3+  Y48  1  0.49903201  0.00106262  0.25939706  1
  Y3+  Y49  1  0.49818540  -0.00080778  0.75708120  1
  Y3+  Y50  1  0.49779163  0.24603951  0.25882549  1
  Y3+  Y51  1  0.49741696  0.24927474  0.75494464  1
  Y3+  Y52  1  0.49999439  0.50061863  0.25362004  1
  Y3+  Y53  1  0.50022322  0.50066781  0.75942578  1
  Y3+  Y54  1  0.50151025  0.75165093  0.25496558  1
  Y3+  Y55  1  0.50087031  0.75124899  0.76027442  1
  Y3+  Y56  1  0.74864674  -0.00064546  0.25895935  1
  Y3+  Y57  1  0.75115205  -0.00324591  0.75838434  1
  Y3+  Y58  1  0.74980041  0.24686479  0.25994271  1
  Y3+  Y59  1  0.74969938  0.24963607  0.75520886  1
  Y3+  Y60  1  0.75033566  0.50258909  0.25560820  1
  Y3+  Y61  1  0.74895648  0.50188664  0.75801925  1
  Y3+  Y62  1  0.74927190  0.75073818  0.25572578  1
  Y3+  Y63  1  0.75053904  0.75212377  0.75964639  1
  Fe3+  Fe64  1  0.87511622  0.37474131  0.37950819  1
  Fe3+  Fe65  1  0.12392945  0.37364403  0.87609361  1
  Fe3+  Fe66  1  0.37460561  0.37511513  0.37478692  1
  Fe3+  Fe67  1  0.87551879  0.37335390  0.87422553  1
  Fe3+  Fe68  1  0.62363059  0.62531955  0.38104311  1
  Fe3+  Fe69  1  0.12396135  0.62409866  0.87920696  1
  Fe3+  Fe70  1  0.12447138  0.87654917  0.87724917  1
  Fe3+  Fe71  1  0.37480739  0.87700491  0.88131264  1
  Fe3+  Fe72  1  0.87626452  0.12555648  0.87534797  1
  Fe3+  Fe73  1  0.62515162  0.12620667  0.87573664  1
  Fe3+  Fe74  1  0.87668657  0.62481527  0.87526426  1
  Fe3+  Fe75  1  0.37371560  0.12540126  0.87808547  1
  Fe3+  Fe76  1  0.37375055  0.62500792  0.37469399  1
  Fe3+  Fe77  1  0.12662160  0.62562960  0.37908761  1
  Fe3+  Fe78  1  0.62335411  0.37602482  0.38061308  1
  Fe3+  Fe79  1  0.87598573  0.62573920  0.37656874  1
  Fe3+  Fe80  1  0.87630015  0.12364386  0.37974797  1
  Fe3+  Fe81  1  0.37451737  0.37302216  0.87628264  1
  Fe3+  Fe82  1  0.62392540  0.87395834  0.38041082  1
  Fe3+  Fe83  1  0.37397387  0.62498638  0.87988434  1
  Fe3+  Fe84  1  0.62447778  0.62647601  0.63494465  1
  Fe3+  Fe85  1  0.37525259  0.62480585  0.13229467  1
  Fe3+  Fe86  1  0.87521057  0.37414145  0.63229318  1
  Fe3+  Fe87  1  0.12587066  0.62667663  0.63460005  1
  Fe3+  Fe88  1  0.37481790  0.87620092  0.13491312  1
  Fe3+  Fe89  1  0.12395208  0.62533148  0.13424811  1
  Fe3+  Fe90  1  0.62555001  0.37423829  0.14065333  1
  Fe3+  Fe91  1  0.62404756  0.87540713  0.63496835  1
  Fe3+  Fe92  1  0.62452919  0.12330136  0.63463875  1
  Fe3+  Fe93  1  0.62392748  0.37483002  0.63344375  1
  Fe3+  Fe94  1  0.87549366  0.12419447  0.63299129  1
  Fe3+  Fe95  1  0.87498695  0.87620208  0.14063121  1
  Cu2+  Cu96  1  0.12497531  0.12577983  0.87110551  1
  Cu2+  Cu97  1  0.87603900  0.87626077  0.86296793  1
  Cu2+  Cu98  1  0.62509942  0.87698801  0.87242918  1
  Cu2+  Cu99  1  0.12596867  0.87386471  0.37206604  1
  Cu2+  Cu100  1  0.62445522  0.12422947  0.36834855  1
  Cu2+  Cu101  1  0.62569989  0.37332327  0.86060666  1
  Cu2+  Cu102  1  0.12623860  0.37571229  0.37314783  1
  Cu2+  Cu103  1  0.37522566  0.87443417  0.36927341  1
  Cu2+  Cu104  1  0.12559635  0.12416695  0.37310687  1
  Cu2+  Cu105  1  0.37382449  0.12453318  0.37034940  1
  Cu2+  Cu106  1  0.62604852  0.62501955  0.87160451  1
  Cu2+  Cu107  1  0.87493815  0.87459609  0.37212580  1
  Cu2+  Cu108  1  0.87459937  0.87654245  0.64247715  1
  Cu2+  Cu109  1  0.62545203  0.87561788  0.14460392  1
  Cu2+  Cu110  1  0.37450726  0.12426460  0.15186109  1
  Cu2+  Cu111  1  0.62535886  0.62540675  0.14218199  1
  Cu2+  Cu112  1  0.87538717  0.12390919  0.15759108  1
  Cu2+  Cu113  1  0.12436716  0.12447309  0.14672496  1
  Cu2+  Cu114  1  0.87513876  0.62531632  0.64908983  1
  Cu2+  Cu115  1  0.12571037  0.37461108  0.64032270  1
  Cu2+  Cu116  1  0.12598198  0.87525864  0.64355493  1
  Cu2+  Cu117  1  0.37557054  0.37421836  0.15144191  1
  Cu2+  Cu118  1  0.12459217  0.37470050  0.15390717  1
  Cu2+  Cu119  1  0.37479031  0.62580220  0.65422857  1
  Cu2+  Cu120  1  0.12482680  0.87535448  0.15085562  1
  Cu2+  Cu121  1  0.87411272  0.37386315  0.15840674  1
  Cu2+  Cu122  1  0.37552331  0.87649560  0.64507369  1
  Cu2+  Cu123  1  0.12522700  0.12366761  0.64065734  1
  Cu2+  Cu124  1  0.62525534  0.12474275  0.15640931  1
  Cu2+  Cu125  1  0.87559036  0.62592787  0.15261662  1
  Cu2+  Cu126  1  0.37558132  0.37409751  0.65170120  1
  Cu2+  Cu127  1  0.37516718  0.12397146  0.64221428  1
  O2-  O128  1  0.12351711  0.12677213  0.00812644  1
  O2-  O129  1  0.12593677  0.12383835  0.50680814  1
  O2-  O130  1  0.12201103  0.37472347  -0.00340177  1
  O2-  O131  1  0.12604510  0.37742388  0.50619950  1
  O2-  O132  1  0.12195228  0.62303348  0.00535847  1
  O2-  O133  1  0.12795100  0.62622635  0.50587902  1
  O2-  O134  1  0.12332599  0.87563054  -0.00196642  1
  O2-  O135  1  0.12640980  0.87286065  0.50743305  1
  O2-  O136  1  0.37501065  0.12665693  -0.00147633  1
  O2-  O137  1  0.37361860  0.12449877  0.50668970  1
  O2-  O138  1  0.37517513  0.37304196  -0.00352604  1
  O2-  O139  1  0.37560650  0.37675534  0.49544778  1
  O2-  O140  1  0.37555471  0.62391462  0.00577045  1
  O2-  O141  1  0.37286201  0.62452596  0.49500332  1
  O2-  O142  1  0.37513040  0.87667781  0.00743252  1
  O2-  O143  1  0.37555405  0.87493586  0.50684723  1
  O2-  O144  1  0.62653991  0.12843087  -0.00382530  1
  O2-  O145  1  0.62410020  0.12337984  0.51449611  1
  O2-  O146  1  0.62808640  0.37347535  0.01964090  1
  O2-  O147  1  0.62191274  0.37708326  0.50699361  1
  O2-  O148  1  0.62647351  0.62367637  0.00656636  1
  O2-  O149  1  0.62322251  0.62583874  0.50689447  1
  O2-  O150  1  0.62645684  0.87686532  0.00808052  1
  O2-  O151  1  0.62309946  0.87322409  0.50795203  1
  O2-  O152  1  0.87499817  0.12756251  -0.00435586  1
  O2-  O153  1  0.87542784  0.12430810  0.50651774  1
  O2-  O154  1  0.87439910  0.37291046  -0.00602003  1
  O2-  O155  1  0.87516568  0.37569649  0.50552637  1
  O2-  O156  1  0.87702307  0.62303256  -0.00455040  1
  O2-  O157  1  0.87589233  0.62428469  0.49690259  1
  O2-  O158  1  0.87403651  0.87707472  0.01965692  1
  O2-  O159  1  0.87441047  0.87535340  0.50789823  1
  O2-  O160  1  0.12458027  -0.00112158  0.16741046  1
  O2-  O161  1  0.12505077  -0.00033634  0.66504527  1
  O2-  O162  1  0.12456377  0.25127386  0.16803064  1
  O2-  O163  1  0.12537696  0.24977647  0.66116945  1
  O2-  O164  1  0.12413595  0.50120861  0.16410448  1
  O2-  O165  1  0.12575517  0.50319622  0.66244210  1
  O2-  O166  1  0.12562527  0.74785821  0.16274378  1
  O2-  O167  1  0.12562051  0.74764992  0.66674305  1
  O2-  O168  1  0.37511831  -0.00146508  0.16347106  1
  O2-  O169  1  0.37609435  0.00022367  0.66795804  1
  O2-  O170  1  0.37527940  0.24922009  0.16541634  1
  O2-  O171  1  0.37598623  0.25063822  0.66141256  1
  O2-  O172  1  0.37502646  0.50157658  0.16108708  1
  O2-  O173  1  0.37562876  0.50004663  0.66418509  1
  O2-  O174  1  0.37340750  0.74999474  0.15993067  1
  O2-  O175  1  0.37594905  0.74969370  0.66912696  1
  O2-  O176  1  0.62489909  0.00146053  0.16737688  1
  O2-  O177  1  0.62540834  -0.00132550  0.66505618  1
  O2-  O178  1  0.62580206  0.24966736  0.17040634  1
  O2-  O179  1  0.62551989  0.25130770  0.65895761  1
  O2-  O180  1  0.62546646  0.49842317  0.16861663  1
  O2-  O181  1  0.62485744  0.50040825  0.66095085  1
  O2-  O182  1  0.62518861  0.75051678  0.16684409  1
  O2-  O183  1  0.62399675  0.74987026  0.66345001  1
  O2-  O184  1  0.87544730  -0.00018893  0.16966487  1
  O2-  O185  1  0.87359609  0.00330394  0.66460929  1
  O2-  O186  1  0.87400200  0.24839350  0.16977061  1
  O2-  O187  1  0.87339028  0.25009047  0.65735809  1
  O2-  O188  1  0.87477555  0.50026187  0.16498223  1
  O2-  O189  1  0.87416106  0.49820417  0.65985441  1
  O2-  O190  1  0.87546041  0.75090753  0.16594552  1
  O2-  O191  1  0.87473101  0.74922699  0.66563688  1
  O2-  O192  1  -0.00073218  0.12528006  0.16865624  1
  O2-  O193  1  -0.00265938  0.12544366  0.66158048  1
  O2-  O194  1  -0.00132725  0.37498826  0.16691027  1
  O2-  O195  1  -0.00312592  0.37528362  0.65982788  1
  O2-  O196  1  0.00181484  0.62463111  0.16438274  1
  O2-  O197  1  0.00167931  0.62493925  0.65967895  1
  O2-  O198  1  0.00012439  0.87433202  0.16788214  1
  O2-  O199  1  0.00016612  0.87505152  0.66328739  1
  O2-  O200  1  0.25030577  0.12479969  0.16552760  1
  O2-  O201  1  0.25008612  0.12461456  0.66420395  1
  O2-  O202  1  0.25040136  0.37591678  0.16102814  1
  O2-  O203  1  0.25194796  0.37588230  0.66464305  1
  O2-  O204  1  0.24962219  0.62401951  0.15668207  1
  O2-  O205  1  0.24916658  0.62539204  0.66648667  1
  O2-  O206  1  0.25109253  0.87464692  0.16154398  1
  O2-  O207  1  0.25063386  0.87433009  0.66757417  1
  O2-  O208  1  0.49985579  0.12489310  0.16507452  1
  O2-  O209  1  0.50246933  0.12509286  0.66607014  1
  O2-  O210  1  0.50067675  0.37452673  0.16616127  1
  O2-  O211  1  0.50210845  0.37617746  0.66425792  1
  O2-  O212  1  0.49640169  0.62569837  0.16421916  1
  O2-  O213  1  0.50169451  0.62481424  0.66418044  1
  O2-  O214  1  0.49684662  0.87460455  0.16492205  1
  O2-  O215  1  0.50307515  0.87442193  0.66633339  1
  O2-  O216  1  0.75032349  0.12448811  0.16894907  1
  O2-  O217  1  0.75023544  0.12599440  0.66132686  1
  O2-  O218  1  0.74955058  0.37427852  0.17332183  1
  O2-  O219  1  0.74925287  0.37584726  0.65802031  1
  O2-  O220  1  0.75188975  0.62497108  0.16833960  1
  O2-  O221  1  0.74766155  0.62525070  0.66076803  1
  O2-  O222  1  0.75165488  0.87568809  0.17126072  1
  O2-  O223  1  0.74628320  0.87406987  0.66353973  1
  O2-  O224  1  0.12548464  -0.00089505  0.35116751  1
  O2-  O225  1  0.12508465  -0.00120122  0.84737116  1
  O2-  O226  1  0.12503528  0.24994754  0.35165612  1
  O2-  O227  1  0.12503981  0.25176138  0.84302892  1
  O2-  O228  1  0.12516097  0.50340764  0.34838231  1
  O2-  O229  1  0.12472574  0.50094401  0.84511637  1
  O2-  O230  1  0.12554704  0.74691441  0.34719466  1
  O2-  O231  1  0.12593609  0.74868350  0.85045454  1
  O2-  O232  1  0.37547067  -0.00032936  0.34787112  1
  O2-  O233  1  0.37498915  -0.00059555  0.84952807  1
  O2-  O234  1  0.37576832  0.25133106  0.34857746  1
  O2-  O235  1  0.37492567  0.24995163  0.84266556  1
  O2-  O236  1  0.37534327  0.50068751  0.34200848  1
  O2-  O237  1  0.37483925  0.50070958  0.84824336  1
  O2-  O238  1  0.37587007  0.74741682  0.34276799  1
  O2-  O239  1  0.37391196  0.75016663  0.85382839  1
  O2-  O240  1  0.62485826  -0.00262621  0.35231454  1
  O2-  O241  1  0.62505445  0.00279128  0.84638430  1
  O2-  O242  1  0.62490119  0.25249433  0.35443429  1
  O2-  O243  1  0.62520756  0.24889187  0.84019240  1
  O2-  O244  1  0.62543074  0.50072338  0.35163378  1
  O2-  O245  1  0.62526707  0.49821063  0.84602788  1
  O2-  O246  1  0.62407842  0.74865832  0.35035566  1
  O2-  O247  1  0.62542753  0.75104076  0.84808925  1
  O2-  O248  1  0.87396072  0.00184905  0.35239279  1
  O2-  O249  1  0.87520986  0.00041082  0.84738911  1
  O2-  O250  1  0.87391755  0.24997363  0.35457398  1
  O2-  O251  1  0.87508838  0.25008597  0.83825791  1
  O2-  O252  1  0.87412523  0.49943922  0.34842080  1
  O2-  O253  1  0.87555518  0.49933894  0.84168758  1
  O2-  O254  1  0.87481871  0.74810307  0.34713829  1
  O2-  O255  1  0.87583725  0.75048825  0.84943887  1
  O2-  O256  1  -0.00214157  0.12514679  0.35161669  1
  O2-  O257  1  -0.00098329  0.12513063  0.84362802  1
  O2-  O258  1  -0.00324722  0.37574681  0.35129963  1
  O2-  O259  1  0.00011299  0.37556708  0.84002780  1
  O2-  O260  1  0.00143928  0.62433068  0.34896303  1
  O2-  O261  1  0.00169777  0.62514801  0.84258316  1
  O2-  O262  1  0.00002237  0.87402693  0.35075483  1
  O2-  O263  1  0.00116529  0.87443444  0.84601507  1
  O2-  O264  1  0.24979524  0.12457064  0.34863300  1
  O2-  O265  1  0.25141685  0.12505303  0.84665074  1
  O2-  O266  1  0.25215553  0.37606738  0.34417852  1
  O2-  O267  1  0.24954376  0.37638341  0.84614207  1
  O2-  O268  1  0.24916408  0.62504106  0.34140784  1
  O2-  O269  1  0.24937177  0.62456518  0.85198628  1
  O2-  O270  1  0.25076956  0.87344155  0.34604151  1
  O2-  O271  1  0.25121772  0.87407932  0.85010592  1
  O2-  O272  1  0.50044988  0.12449919  0.34939626  1
  O2-  O273  1  0.49898056  0.12554742  0.84612224  1
  O2-  O274  1  0.50112083  0.37640080  0.34742544  1
  O2-  O275  1  0.49950360  0.37562955  0.84791341  1
  O2-  O276  1  0.50141012  0.62424844  0.34726795  1
  O2-  O277  1  0.49650047  0.62504619  0.84922941  1
  O2-  O278  1  0.50284485  0.87375132  0.34901747  1
  O2-  O279  1  0.49619452  0.87440660  0.84962956  1
  O2-  O280  1  0.75154859  0.12521319  0.35353133  1
  O2-  O281  1  0.75066691  0.12549693  0.84210115  1
  O2-  O282  1  0.74949670  0.37540109  0.35693020  1
  O2-  O283  1  0.75109203  0.37501799  0.84117854  1
  O2-  O284  1  0.74810109  0.62466565  0.35182908  1
  O2-  O285  1  0.75316761  0.62480114  0.84422668  1
  O2-  O286  1  0.74638370  0.87346795  0.35375800  1
  O2-  O287  1  0.75200263  0.87548353  0.84763940  1
