# generated using pymatgen
data_BaYFeCuO5
_symmetry_space_group_name_H-M   'P 1'
_cell_length_a   15.66895870
_cell_length_b   15.66802523
_cell_length_c   15.47681640
_cell_angle_alpha   90.00260084
_cell_angle_beta   89.99593570
_cell_angle_gamma   90.00075785
_symmetry_Int_Tables_number   1
_chemical_formula_structural   BaYFeCuO5
_chemical_formula_sum   'Ba32 Y32 Fe32 Cu32 O160'
_cell_volume   3799.58379765
_cell_formula_units_Z   32
loop_
 _symmetry_equiv_pos_site_id
 _symmetry_equiv_pos_as_xyz
  1  'x, y, z'
loop_
 _atom_type_symbol
 _atom_type_oxidation_number
  Ba2+  2.0
  Y3+  3.0
  Fe3+  3.0
  Cu2+  2.0
  O2-  -2.0
loop_
 _atom_site_type_symbol
 _atom_site_label
 _atom_site_symmetry_multiplicity
 _atom_site_fract_x
 _atom_site_fract_y
 _atom_site_fract_z
 _atom_site_occupancy
  Ba2+  Ba0  1  0.00382275  0.00493015  0.01194583  1
  Ba2+  Ba1  1  -0.00513126  0.00379000  0.50081186  1
  Ba2+  Ba2  1  -0.00299636  0.25194842  0.01654290  1
  Ba2+  Ba3  1  0.00078665  0.24947982  0.50571968  1
  Ba2+  Ba4  1  -0.00025254  0.49737497  0.02441342  1
  Ba2+  Ba5  1  0.00755554  0.49862133  0.50740725  1
  Ba2+  Ba6  1  0.00632563  0.74642539  0.01879587  1
  Ba2+  Ba7  1  0.00203146  0.74824187  0.50267904  1
  Ba2+  Ba8  1  0.24270505  0.00112010  0.01625424  1
  Ba2+  Ba9  1  0.25650597  0.00352664  0.51297042  1
  Ba2+  Ba10  1  0.24268625  0.24807682  0.02281499  1
  Ba2+  Ba11  1  0.25330516  0.25275061  0.51047203  1
  Ba2+  Ba12  1  0.24542488  0.50549629  0.01900822  1
  Ba2+  Ba13  1  0.25103855  0.49910104  0.50736593  1
  Ba2+  Ba14  1  0.24524184  0.74489832  0.01185726  1
  Ba2+  Ba15  1  0.25312620  0.74382587  0.50590851  1
  Ba2+  Ba16  1  0.50229956  -0.00316546  0.00890317  1
  Ba2+  Ba17  1  0.50124154  -0.00063306  0.52910723  1
  Ba2+  Ba18  1  0.49951910  0.25145026  0.01559897  1
  Ba2+  Ba19  1  0.49384491  0.24702306  0.51702727  1
  Ba2+  Ba20  1  0.49569486  0.50337483  0.01110018  1
  Ba2+  Ba21  1  0.49560219  0.50472338  0.50012210  1
  Ba2+  Ba22  1  0.49806233  0.74852046  0.00673864  1
  Ba2+  Ba23  1  0.50269202  0.75047125  0.51527332  1
  Ba2+  Ba24  1  0.75237392  0.00133222  0.00659537  1
  Ba2+  Ba25  1  0.74721463  0.00034070  0.52122678  1
  Ba2+  Ba26  1  0.76126027  0.25430924  0.00991786  1
  Ba2+  Ba27  1  0.75176439  0.24330832  0.51364674  1
  Ba2+  Ba28  1  0.75789971  0.49387523  0.01737908  1
  Ba2+  Ba29  1  0.74669140  0.50283489  0.50224404  1
  Ba2+  Ba30  1  0.74885501  0.75082689  0.01155731  1
  Ba2+  Ba31  1  0.74201603  0.75378815  0.50699970  1
  Y3+  Y32  1  0.00059796  0.00105085  0.25495934  1
  Y3+  Y33  1  -0.00015175  0.00045465  0.76059435  1
  Y3+  Y34  1  -0.00121338  0.24982102  0.25648695  1
  Y3+  Y35  1  -0.00188409  0.25049073  0.75820527  1
  Y3+  Y36  1  -0.00035438  0.49957162  0.26100672  1
  Y3+  Y37  1  0.00152804  0.49869632  0.75341836  1
  Y3+  Y38  1  0.00144380  0.74979299  0.25942026  1
  Y3+  Y39  1  0.00297764  0.75009882  0.75661176  1
  Y3+  Y40  1  0.24753075  0.00115067  0.25515441  1
  Y3+  Y41  1  0.24956380  -0.00191253  0.75880886  1
  Y3+  Y42  1  0.24967011  0.24893446  0.25974838  1
  Y3+  Y43  1  0.25035312  0.25254741  0.75246340  1
  Y3+  Y44  1  0.25085910  0.50227295  0.26131669  1
  Y3+  Y45  1  0.24964270  0.50020270  0.75350530  1
  Y3+  Y46  1  0.24899706  0.74802669  0.25674110  1
  Y3+  Y47  1  0.24949946  0.74861659  0.75873841  1
  Y3+  Y48  1  0.50028977  -0.00059506  0.24898669  1
  Y3+  Y49  1  0.50093876  -0.00177379  0.76171003  1
  Y3+  Y50  1  0.49863749  0.25202827  0.25648487  1
  Y3+  Y51  1  0.49834197  0.25091646  0.75569819  1
  Y3+  Y52  1  0.49894852  0.50102900  0.25852657  1
  Y3+  Y53  1  0.49838722  0.50108685  0.75639085  1
  Y3+  Y54  1  0.50062074  0.74769242  0.25497266  1
  Y3+  Y55  1  0.50100282  0.74946030  0.76087203  1
  Y3+  Y56  1  0.75106272  -0.00091707  0.25229779  1
  Y3+  Y57  1  0.75017915  0.00073336  0.76279628  1
  Y3+  Y58  1  0.75210785  0.25212435  0.25425719  1
  Y3+  Y59  1  0.75368927  0.24921181  0.76035030  1
  Y3+  Y60  1  0.75033140  0.49862083  0.25895033  1
  Y3+  Y61  1  0.75025885  0.49971195  0.75634501  1
  Y3+  Y62  1  0.74890481  0.75003240  0.25765997  1
  Y3+  Y63  1  0.74720365  0.75010289  0.75813269  1
  Fe3+  Fe64  1  0.62440989  0.37330688  0.37902536  1
  Fe3+  Fe65  1  0.37689788  0.87590659  0.37517883  1
  Fe3+  Fe66  1  0.62499702  0.12718110  0.87897402  1
  Fe3+  Fe67  1  0.37317850  0.12657988  0.87848745  1
  Fe3+  Fe68  1  0.12544147  0.12670900  0.87542749  1
  Fe3+  Fe69  1  0.87411543  0.62572394  0.37892070  1
  Fe3+  Fe70  1  0.12416004  0.62327358  0.87480978  1
  Fe3+  Fe71  1  0.12582584  0.87643115  0.37919235  1
  Fe3+  Fe72  1  0.87297043  0.12439769  0.37382565  1
  Fe3+  Fe73  1  0.37670689  0.12315947  0.37338457  1
  Fe3+  Fe74  1  0.12543500  0.37381196  0.37560881  1
  Fe3+  Fe75  1  0.62394380  0.12355500  0.37378332  1
  Fe3+  Fe76  1  0.62581677  0.62306488  0.88011304  1
  Fe3+  Fe77  1  0.87697469  0.87333492  0.88055010  1
  Fe3+  Fe78  1  0.62368704  0.87739933  0.37341627  1
  Fe3+  Fe79  1  0.62535013  0.37552849  0.87842034  1
  Fe3+  Fe80  1  0.37295348  0.87407291  0.87980845  1
  Fe3+  Fe81  1  0.87655656  0.62354828  0.87742467  1
  Fe3+  Fe82  1  0.37291093  0.37575281  0.88016807  1
  Fe3+  Fe83  1  0.12458424  0.37552839  0.87649334  1
  Fe3+  Fe84  1  0.12565841  0.87544451  0.63428574  1
  Fe3+  Fe85  1  0.62602228  0.12672231  0.13290740  1
  Fe3+  Fe86  1  0.37558201  0.62571561  0.63990626  1
  Fe3+  Fe87  1  0.87485382  0.37447901  0.63465317  1
  Fe3+  Fe88  1  0.87459467  0.62588582  0.63388680  1
  Fe3+  Fe89  1  0.12441085  0.12465795  0.63557001  1
  Fe3+  Fe90  1  0.87542244  0.87522812  0.63836345  1
  Fe3+  Fe91  1  0.37369175  0.87424595  0.13428168  1
  Fe3+  Fe92  1  0.87604004  0.87408194  0.13614886  1
  Fe3+  Fe93  1  0.37362580  0.37578961  0.13658540  1
  Fe3+  Fe94  1  0.62581898  0.62343874  0.13619340  1
  Fe3+  Fe95  1  0.62461889  0.37505827  0.63446373  1
  Cu2+  Cu96  1  0.12520091  0.12447237  0.36587313  1
  Cu2+  Cu97  1  0.37541324  0.37448605  0.37265699  1
  Cu2+  Cu98  1  0.12469902  0.87442065  0.87415134  1
  Cu2+  Cu99  1  0.87665248  0.12568785  0.87461028  1
  Cu2+  Cu100  1  0.12548064  0.62533152  0.37391966  1
  Cu2+  Cu101  1  0.62557170  0.87425282  0.87628199  1
  Cu2+  Cu102  1  0.37565139  0.62667205  0.36187489  1
  Cu2+  Cu103  1  0.87675426  0.37700034  0.87014827  1
  Cu2+  Cu104  1  0.62438919  0.62620174  0.37225068  1
  Cu2+  Cu105  1  0.37352671  0.62368178  0.87402218  1
  Cu2+  Cu106  1  0.87428145  0.37423135  0.36841619  1
  Cu2+  Cu107  1  0.87402262  0.87582586  0.36287515  1
  Cu2+  Cu108  1  0.12476975  0.87444231  0.14198255  1
  Cu2+  Cu109  1  0.87498087  0.62514489  0.15457806  1
  Cu2+  Cu110  1  0.62527715  0.12572531  0.65719394  1
  Cu2+  Cu111  1  0.87562169  0.12412618  0.65497847  1
  Cu2+  Cu112  1  0.37487352  0.12521352  0.14468140  1
  Cu2+  Cu113  1  0.62554793  0.87393243  0.13779784  1
  Cu2+  Cu114  1  0.87603951  0.37559282  0.14707899  1
  Cu2+  Cu115  1  0.62477996  0.37567561  0.14877186  1
  Cu2+  Cu116  1  0.12478761  0.37435057  0.64725390  1
  Cu2+  Cu117  1  0.87511517  0.12504705  0.14063702  1
  Cu2+  Cu118  1  0.12542054  0.37535966  0.15572224  1
  Cu2+  Cu119  1  0.37462685  0.62521556  0.14196390  1
  Cu2+  Cu120  1  0.12422377  0.12597548  0.15489420  1
  Cu2+  Cu121  1  0.12426119  0.62402933  0.15826099  1
  Cu2+  Cu122  1  0.37455406  0.12397793  0.65563806  1
  Cu2+  Cu123  1  0.62523297  0.62451381  0.64153710  1
  Cu2+  Cu124  1  0.12526426  0.62568447  0.63919268  1
  Cu2+  Cu125  1  0.37553123  0.37633814  0.64011477  1
  Cu2+  Cu126  1  0.37483929  0.87418077  0.65513012  1
  Cu2+  Cu127  1  0.62534774  0.87526292  0.65883242  1
  O2-  O128  1  0.12530695  0.12729539  -0.00421134  1
  O2-  O129  1  0.12481361  0.12254746  0.51517968  1
  O2-  O130  1  0.12500083  0.37638175  -0.00359522  1
  O2-  O131  1  0.12645140  0.37254273  0.49685170  1
  O2-  O132  1  0.12232754  0.62222256  -0.00468420  1
  O2-  O133  1  0.12571922  0.62642515  0.50649428  1
  O2-  O134  1  0.12446852  0.87388355  0.00816987  1
  O2-  O135  1  0.12609508  0.87713486  0.50728296  1
  O2-  O136  1  0.37149326  0.12842470  -0.00182271  1
  O2-  O137  1  0.37920202  0.12145933  0.49372844  1
  O2-  O138  1  0.37216441  0.37509526  0.00721077  1
  O2-  O139  1  0.37656167  0.37462895  0.50626128  1
  O2-  O140  1  0.37356356  0.62374790  0.00851798  1
  O2-  O141  1  0.37737858  0.62719617  0.51878194  1
  O2-  O142  1  0.37147126  0.87407717  0.00648952  1
  O2-  O143  1  0.37920444  0.87759137  0.49487115  1
  O2-  O144  1  0.62572633  0.12879127  0.00512548  1
  O2-  O145  1  0.62317002  0.12173630  0.49368859  1
  O2-  O146  1  0.62514573  0.37561617  -0.00165806  1
  O2-  O147  1  0.62405451  0.37299164  0.50673653  1
  O2-  O148  1  0.62690034  0.62219395  0.00749476  1
  O2-  O149  1  0.62440040  0.62649934  0.50728915  1
  O2-  O150  1  0.62570411  0.87372144  0.00656917  1
  O2-  O151  1  0.62292203  0.87919545  0.49377228  1
  O2-  O152  1  0.87658225  0.12549135  0.00705430  1
  O2-  O153  1  0.87096571  0.12251059  0.49453202  1
  O2-  O154  1  0.87796619  0.37713782  0.00809698  1
  O2-  O155  1  0.87262598  0.37224171  0.51477630  1
  O2-  O156  1  0.87773048  0.62320842  -0.00274755  1
  O2-  O157  1  0.87267257  0.62719799  0.50705906  1
  O2-  O158  1  0.87789568  0.87203398  0.00781611  1
  O2-  O159  1  0.87303129  0.87684880  0.51829483  1
  O2-  O160  1  0.12438666  0.00195526  0.16413994  1
  O2-  O161  1  0.12575151  -0.00123478  0.66702793  1
  O2-  O162  1  0.12495346  0.25028101  0.16437951  1
  O2-  O163  1  0.12505789  0.24916928  0.66296356  1
  O2-  O164  1  0.12489426  0.50019222  0.16756574  1
  O2-  O165  1  0.12498082  0.49827345  0.66026752  1
  O2-  O166  1  0.12439319  0.74767979  0.16777674  1
  O2-  O167  1  0.12482339  0.75377977  0.66444256  1
  O2-  O168  1  0.37483882  -0.00126558  0.15710843  1
  O2-  O169  1  0.37554087  -0.00103438  0.66843718  1
  O2-  O170  1  0.37499612  0.25192810  0.16248429  1
  O2-  O171  1  0.37545466  0.24849571  0.66316377  1
  O2-  O172  1  0.37426936  0.49760031  0.16568367  1
  O2-  O173  1  0.37546477  0.50214981  0.66759690  1
  O2-  O174  1  0.37454551  0.75218284  0.16335068  1
  O2-  O175  1  0.37582871  0.75007708  0.66979080  1
  O2-  O176  1  0.62542179  0.00299935  0.15640879  1
  O2-  O177  1  0.62540069  0.00069115  0.66975001  1
  O2-  O178  1  0.62414454  0.24956308  0.16370999  1
  O2-  O179  1  0.62470026  0.25120393  0.66167087  1
  O2-  O180  1  0.62563170  0.50113339  0.16722827  1
  O2-  O181  1  0.62613907  0.49661347  0.66297026  1
  O2-  O182  1  0.62589577  0.74627446  0.16332250  1
  O2-  O183  1  0.62503753  0.75138245  0.66742091  1
  O2-  O184  1  0.87548395  -0.00265722  0.15987922  1
  O2-  O185  1  0.87425490  -0.00054014  0.67089726  1
  O2-  O186  1  0.87533279  0.25067076  0.16451846  1
  O2-  O187  1  0.87464037  0.24940055  0.66557971  1
  O2-  O188  1  0.87508648  0.50124774  0.17008596  1
  O2-  O189  1  0.87401819  0.50052667  0.66045229  1
  O2-  O190  1  0.87529113  0.75051925  0.16541363  1
  O2-  O191  1  0.87534057  0.74991865  0.66629307  1
  O2-  O192  1  0.00071188  0.12516199  0.16650230  1
  O2-  O193  1  0.00059859  0.12366279  0.66407856  1
  O2-  O194  1  0.00199214  0.37583137  0.16831746  1
  O2-  O195  1  -0.00092207  0.37461421  0.66197390  1
  O2-  O196  1  -0.00028123  0.62494740  0.16873074  1
  O2-  O197  1  -0.00290462  0.62528277  0.65919089  1
  O2-  O198  1  -0.00234256  0.87383231  0.16811723  1
  O2-  O199  1  0.00143238  0.87596889  0.66440109  1
  O2-  O200  1  0.24937522  0.12508860  0.16494043  1
  O2-  O201  1  0.24953032  0.12407341  0.66259112  1
  O2-  O202  1  0.25085665  0.37486599  0.16383406  1
  O2-  O203  1  0.24876069  0.37487714  0.66295451  1
  O2-  O204  1  0.24815737  0.62501362  0.16628396  1
  O2-  O205  1  0.25144623  0.62599412  0.66550756  1
  O2-  O206  1  0.25210222  0.87529550  0.16559420  1
  O2-  O207  1  0.24875698  0.87545428  0.66226450  1
  O2-  O208  1  0.50197606  0.12577096  0.15669373  1
  O2-  O209  1  0.49944400  0.12475555  0.66859894  1
  O2-  O210  1  0.49764752  0.37571595  0.16138536  1
  O2-  O211  1  0.50299564  0.37464576  0.66714610  1
  O2-  O212  1  0.50285494  0.62377752  0.16170328  1
  O2-  O213  1  0.49884812  0.62564536  0.67169392  1
  O2-  O214  1  0.49725657  0.87465881  0.15713439  1
  O2-  O215  1  0.50068868  0.87519599  0.66905518  1
  O2-  O216  1  0.74759585  0.12610996  0.16081061  1
  O2-  O217  1  0.75035475  0.12468658  0.66759242  1
  O2-  O218  1  0.74925499  0.37590029  0.16627807  1
  O2-  O219  1  0.74931539  0.37356327  0.66568046  1
  O2-  O220  1  0.74902763  0.62402555  0.16394528  1
  O2-  O221  1  0.75334927  0.62582072  0.66600059  1
  O2-  O222  1  0.75288886  0.87379412  0.16218200  1
  O2-  O223  1  0.75044899  0.87534066  0.66900248  1
  O2-  O224  1  0.12448156  -0.00191231  0.34801102  1
  O2-  O225  1  0.12533487  0.00181227  0.84882267  1
  O2-  O226  1  0.12500089  0.24975450  0.34757399  1
  O2-  O227  1  0.12593933  0.25099609  0.84325997  1
  O2-  O228  1  0.12504302  0.49855239  0.35052050  1
  O2-  O229  1  0.12507637  0.49948267  0.84122118  1
  O2-  O230  1  0.12508322  0.75363403  0.35153368  1
  O2-  O231  1  0.12487603  0.74761732  0.84696871  1
  O2-  O232  1  0.37521944  -0.00046986  0.33764188  1
  O2-  O233  1  0.37479652  -0.00000162  0.85207330  1
  O2-  O234  1  0.37569316  0.24691160  0.34507034  1
  O2-  O235  1  0.37498824  0.25196695  0.84615561  1
  O2-  O236  1  0.37596262  0.50305711  0.35030077  1
  O2-  O237  1  0.37536633  0.49685599  0.84943296  1
  O2-  O238  1  0.37531662  0.75087120  0.34623985  1
  O2-  O239  1  0.37449641  0.75122570  0.85279216  1
  O2-  O240  1  0.62488245  0.00016413  0.33628469  1
  O2-  O241  1  0.62448102  0.00366142  0.85377586  1
  O2-  O242  1  0.62463202  0.25009047  0.34701160  1
  O2-  O243  1  0.62442722  0.25022118  0.84524350  1
  O2-  O244  1  0.62456108  0.49736273  0.35271183  1
  O2-  O245  1  0.62482615  0.50034130  0.84510514  1
  O2-  O246  1  0.62488583  0.75273547  0.34607815  1
  O2-  O247  1  0.62572753  0.74575706  0.85125670  1
  O2-  O248  1  0.87478794  0.00054333  0.34233485  1
  O2-  O249  1  0.87587998  -0.00281205  0.85450182  1
  O2-  O250  1  0.87397362  0.24879188  0.34684719  1
  O2-  O251  1  0.87528042  0.25105925  0.84916700  1
  O2-  O252  1  0.87391466  0.50127496  0.35421904  1
  O2-  O253  1  0.87509186  0.50224496  0.84118988  1
  O2-  O254  1  0.87434659  0.74963332  0.35089097  1
  O2-  O255  1  0.87493432  0.74933968  0.84806693  1
  O2-  O256  1  -0.00110311  0.12419913  0.34982804  1
  O2-  O257  1  0.00248063  0.12548553  0.84516259  1
  O2-  O258  1  0.00001720  0.37433536  0.35108855  1
  O2-  O259  1  0.00205432  0.37545244  0.84345725  1
  O2-  O260  1  -0.00317219  0.62590353  0.35272518  1
  O2-  O261  1  0.00041764  0.62484837  0.84006936  1
  O2-  O262  1  0.00107828  0.87559020  0.35365520  1
  O2-  O263  1  -0.00257664  0.87384586  0.84654183  1
  O2-  O264  1  0.25093570  0.12362926  0.34828405  1
  O2-  O265  1  0.25042961  0.12552564  0.84257273  1
  O2-  O266  1  0.24901724  0.37468927  0.34682580  1
  O2-  O267  1  0.25073872  0.37525445  0.84559882  1
  O2-  O268  1  0.25230670  0.62626798  0.35038668  1
  O2-  O269  1  0.24789198  0.62422813  0.84675809  1
  O2-  O270  1  0.24977404  0.87562701  0.34906144  1
  O2-  O271  1  0.25231212  0.87481325  0.84668307  1
  O2-  O272  1  0.50085621  0.12456555  0.33696342  1
  O2-  O273  1  0.49989002  0.12633722  0.85192036  1
  O2-  O274  1  0.50266508  0.37497883  0.34613925  1
  O2-  O275  1  0.49861899  0.37497985  0.85069761  1
  O2-  O276  1  0.49842850  0.62539064  0.34520312  1
  O2-  O277  1  0.50246189  0.62370895  0.85493415  1
  O2-  O278  1  0.49999856  0.87517106  0.33728205  1
  O2-  O279  1  0.49656628  0.87487988  0.85337573  1
  O2-  O280  1  0.74868127  0.12483700  0.34108538  1
  O2-  O281  1  0.74771483  0.12590606  0.85188256  1
  O2-  O282  1  0.74781306  0.37474379  0.35028722  1
  O2-  O283  1  0.74884030  0.37574331  0.84807629  1
  O2-  O284  1  0.75217691  0.62556697  0.34847333  1
  O2-  O285  1  0.74935490  0.62386343  0.84893661  1
  O2-  O286  1  0.74899339  0.87553492  0.34453760  1
  O2-  O287  1  0.75392979  0.87437836  0.85221531  1
