# generated using pymatgen
data_BaYFeCuO5
_symmetry_space_group_name_H-M   'P 1'
_cell_length_a   15.66783325
_cell_length_b   15.66703659
_cell_length_c   15.48237048
_cell_angle_alpha   89.99902747
_cell_angle_beta   90.00327593
_cell_angle_gamma   89.99894408
_symmetry_Int_Tables_number   1
_chemical_formula_structural   BaYFeCuO5
_chemical_formula_sum   'Ba32 Y32 Fe32 Cu32 O160'
_cell_volume   3800.43450984
_cell_formula_units_Z   32
loop_
 _symmetry_equiv_pos_site_id
 _symmetry_equiv_pos_as_xyz
  1  'x, y, z'
loop_
 _atom_type_symbol
 _atom_type_oxidation_number
  Ba2+  2.0
  Y3+  3.0
  Fe3+  3.0
  Cu2+  2.0
  O2-  -2.0
loop_
 _atom_site_type_symbol
 _atom_site_label
 _atom_site_symmetry_multiplicity
 _atom_site_fract_x
 _atom_site_fract_y
 _atom_site_fract_z
 _atom_site_occupancy
  Ba2+  Ba0  1  0.00543303  0.00663549  0.01461846  1
  Ba2+  Ba1  1  0.00768423  0.00535491  0.51641229  1
  Ba2+  Ba2  1  -0.00374740  0.24386241  0.01731857  1
  Ba2+  Ba3  1  0.00948144  0.24658627  0.51118070  1
  Ba2+  Ba4  1  -0.00734470  0.50179150  0.01412593  1
  Ba2+  Ba5  1  0.01142960  0.49790975  0.50366651  1
  Ba2+  Ba6  1  0.00318906  0.74677202  0.01055441  1
  Ba2+  Ba7  1  0.01099949  0.75026544  0.50770013  1
  Ba2+  Ba8  1  0.25089839  0.00285919  0.01549211  1
  Ba2+  Ba9  1  0.24830499  0.00158585  0.51473641  1
  Ba2+  Ba10  1  0.25028959  0.23795505  0.00571552  1
  Ba2+  Ba11  1  0.24267667  0.24577110  0.51253383  1
  Ba2+  Ba12  1  0.25207498  0.51045018  0.00157203  1
  Ba2+  Ba13  1  0.24647835  0.50280092  0.49567833  1
  Ba2+  Ba14  1  0.25446094  0.75025858  0.01152941  1
  Ba2+  Ba15  1  0.25334872  0.75002419  0.49307275  1
  Ba2+  Ba16  1  0.49869481  0.00117969  0.02085822  1
  Ba2+  Ba17  1  0.49556006  -0.00869970  0.50624492  1
  Ba2+  Ba18  1  0.50361885  0.24402342  0.01634721  1
  Ba2+  Ba19  1  0.49740732  0.24973467  0.51667883  1
  Ba2+  Ba20  1  0.50536515  0.50816369  0.01015211  1
  Ba2+  Ba21  1  0.50263489  0.50795238  0.50755188  1
  Ba2+  Ba22  1  0.50039932  0.74664980  0.01589902  1
  Ba2+  Ba23  1  0.50070796  0.74998064  0.49600472  1
  Ba2+  Ba24  1  0.74572908  0.00534196  0.02327593  1
  Ba2+  Ba25  1  0.74636186  -0.00392859  0.50988887  1
  Ba2+  Ba26  1  0.75013015  0.25081248  0.02654634  1
  Ba2+  Ba27  1  0.75095641  0.24960890  0.51320806  1
  Ba2+  Ba28  1  0.74782167  0.50027407  0.02290724  1
  Ba2+  Ba29  1  0.73947476  0.50243883  0.51093249  1
  Ba2+  Ba30  1  0.74388511  0.74370751  0.01616689  1
  Ba2+  Ba31  1  0.73652123  0.75016973  0.50712907  1
  Y3+  Y32  1  0.00333643  0.00201139  0.25535164  1
  Y3+  Y33  1  0.00211524  0.00236529  0.75584883  1
  Y3+  Y34  1  0.00288007  0.24871415  0.25927938  1
  Y3+  Y35  1  0.00308528  0.24829803  0.75456345  1
  Y3+  Y36  1  0.00068241  0.49861516  0.25976075  1
  Y3+  Y37  1  0.00189835  0.49898975  0.75687303  1
  Y3+  Y38  1  0.00089758  0.75089724  0.25617502  1
  Y3+  Y39  1  0.00078018  0.75040213  0.75842907  1
  Y3+  Y40  1  0.25035947  0.00066543  0.25424293  1
  Y3+  Y41  1  0.24944101  0.00331627  0.76035214  1
  Y3+  Y42  1  0.24796341  0.24783652  0.25730884  1
  Y3+  Y43  1  0.24883430  0.24651596  0.75849111  1
  Y3+  Y44  1  0.25051566  0.50080476  0.25739546  1
  Y3+  Y45  1  0.25014591  0.50004001  0.76091042  1
  Y3+  Y46  1  0.25310717  0.75104173  0.25349605  1
  Y3+  Y47  1  0.25083298  0.74911120  0.76382092  1
  Y3+  Y48  1  0.49862409  -0.00321131  0.25679279  1
  Y3+  Y49  1  0.49796537  -0.00015704  0.75586800  1
  Y3+  Y50  1  0.49867741  0.24927976  0.25487381  1
  Y3+  Y51  1  0.49739027  0.24938769  0.75761010  1
  Y3+  Y52  1  0.50073774  0.50374712  0.25618388  1
  Y3+  Y53  1  0.50156926  0.50269872  0.75903232  1
  Y3+  Y54  1  0.50024555  0.74965820  0.25657204  1
  Y3+  Y55  1  0.50213077  0.74795200  0.75924455  1
  Y3+  Y56  1  0.74798695  -0.00162872  0.25960222  1
  Y3+  Y57  1  0.75003970  -0.00126364  0.75154869  1
  Y3+  Y58  1  0.75083531  0.25052910  0.25800369  1
  Y3+  Y59  1  0.75023717  0.25030308  0.75114259  1
  Y3+  Y60  1  0.74857587  0.50178640  0.25817799  1
  Y3+  Y61  1  0.74615528  0.50165286  0.75450601  1
  Y3+  Y62  1  0.74561683  0.74929526  0.25876434  1
  Y3+  Y63  1  0.74581724  0.74960923  0.75449106  1
  Fe3+  Fe64  1  0.87322775  0.12538666  0.87401824  1
  Fe3+  Fe65  1  0.37471880  0.37471489  0.37936090  1
  Fe3+  Fe66  1  0.87590637  0.12413660  0.37830818  1
  Fe3+  Fe67  1  0.62352687  0.37433198  0.37686094  1
  Fe3+  Fe68  1  0.87354919  0.87603349  0.87982665  1
  Fe3+  Fe69  1  0.87342844  0.37413651  0.87489033  1
  Fe3+  Fe70  1  0.87331439  0.62457659  0.87559403  1
  Fe3+  Fe71  1  0.62362685  0.12491443  0.37827594  1
  Fe3+  Fe72  1  0.37423974  0.12453178  0.37722103  1
  Fe3+  Fe73  1  0.62591996  0.87621653  0.87785050  1
  Fe3+  Fe74  1  0.87599542  0.87487431  0.37918454  1
  Fe3+  Fe75  1  0.12442929  0.87590984  0.87927648  1
  Fe3+  Fe76  1  0.12371520  0.37430674  0.88155077  1
  Fe3+  Fe77  1  0.62623991  0.12486855  0.87329330  1
  Fe3+  Fe78  1  0.62660701  0.37404262  0.87624067  1
  Fe3+  Fe79  1  0.12606588  0.87665908  0.37476149  1
  Fe3+  Fe80  1  0.37612144  0.37462656  0.88110421  1
  Fe3+  Fe81  1  0.87542670  0.62579790  0.38044242  1
  Fe3+  Fe82  1  0.37671166  0.87586957  0.87964500  1
  Fe3+  Fe83  1  0.87552949  0.37500958  0.37972237  1
  Fe3+  Fe84  1  0.37339453  0.37633373  0.63589136  1
  Fe3+  Fe85  1  0.87535654  0.62538902  0.63270900  1
  Fe3+  Fe86  1  0.12770515  0.62566227  0.64050483  1
  Fe3+  Fe87  1  0.87625464  0.87373233  0.63296354  1
  Fe3+  Fe88  1  0.87492754  0.87490111  0.13490441  1
  Fe3+  Fe89  1  0.87613252  0.37606970  0.63244801  1
  Fe3+  Fe90  1  0.37475788  0.37560730  0.13420213  1
  Fe3+  Fe91  1  0.37345125  0.87298287  0.63912990  1
  Fe3+  Fe92  1  0.12551064  0.37497784  0.13476120  1
  Fe3+  Fe93  1  0.62356086  0.12388383  0.63290964  1
  Fe3+  Fe94  1  0.37423861  0.62594536  0.63926250  1
  Fe3+  Fe95  1  0.12483847  0.62456829  0.13938634  1
  Cu2+  Cu96  1  0.12626024  0.37384509  0.37233167  1
  Cu2+  Cu97  1  0.12329515  0.62480542  0.86648264  1
  Cu2+  Cu98  1  0.62476609  0.62466475  0.37049183  1
  Cu2+  Cu99  1  0.12502622  0.62619571  0.35938379  1
  Cu2+  Cu100  1  0.37678628  0.62562219  0.87461577  1
  Cu2+  Cu101  1  0.62669940  0.62511713  0.87193871  1
  Cu2+  Cu102  1  0.12593835  0.12386817  0.37001459  1
  Cu2+  Cu103  1  0.37497825  0.62488090  0.36117301  1
  Cu2+  Cu104  1  0.37415832  0.87529499  0.36037417  1
  Cu2+  Cu105  1  0.62419481  0.87541374  0.37158203  1
  Cu2+  Cu106  1  0.37662585  0.12417379  0.87340590  1
  Cu2+  Cu107  1  0.12371035  0.12503966  0.87206538  1
  Cu2+  Cu108  1  0.12593175  0.12466136  0.64584547  1
  Cu2+  Cu109  1  0.12511120  0.87482716  0.14646009  1
  Cu2+  Cu110  1  0.12561933  0.12567371  0.14330357  1
  Cu2+  Cu111  1  0.87528252  0.12464483  0.64361698  1
  Cu2+  Cu112  1  0.62242240  0.87435175  0.64089980  1
  Cu2+  Cu113  1  0.87579169  0.37510305  0.15579851  1
  Cu2+  Cu114  1  0.37501580  0.12562666  0.14310197  1
  Cu2+  Cu115  1  0.37506824  0.62413251  0.14317846  1
  Cu2+  Cu116  1  0.12704327  0.37627769  0.64353016  1
  Cu2+  Cu117  1  0.62293485  0.62595272  0.64215228  1
  Cu2+  Cu118  1  0.37462044  0.12463903  0.64907424  1
  Cu2+  Cu119  1  0.12676374  0.87385630  0.65385165  1
  Cu2+  Cu120  1  0.62495536  0.62511535  0.14578053  1
  Cu2+  Cu121  1  0.62517504  0.87480286  0.15057038  1
  Cu2+  Cu122  1  0.37545576  0.87482294  0.14831797  1
  Cu2+  Cu123  1  0.62437914  0.37514470  0.15293740  1
  Cu2+  Cu124  1  0.87496295  0.12430828  0.15607429  1
  Cu2+  Cu125  1  0.62503655  0.12497340  0.15743215  1
  Cu2+  Cu126  1  0.87522151  0.62569127  0.15585934  1
  Cu2+  Cu127  1  0.62325779  0.37499080  0.64752895  1
  O2-  O128  1  0.12324243  0.12606974  0.00757116  1
  O2-  O129  1  0.12646314  0.12371049  0.50677614  1
  O2-  O130  1  0.12255960  0.37489475  0.00836963  1
  O2-  O131  1  0.12709388  0.37600981  0.50779303  1
  O2-  O132  1  0.12130058  0.62330284  0.01862819  1
  O2-  O133  1  0.12919528  0.62639295  0.51998306  1
  O2-  O134  1  0.12195807  0.87590086  -0.00032154  1
  O2-  O135  1  0.12635387  0.87559133  0.49534235  1
  O2-  O136  1  0.37772701  0.12479702  0.00725565  1
  O2-  O137  1  0.37428550  0.12542870  0.49738574  1
  O2-  O138  1  0.37653553  0.37469152  0.00754430  1
  O2-  O139  1  0.37349663  0.37584101  0.50735785  1
  O2-  O140  1  0.37645192  0.62509682  0.00913641  1
  O2-  O141  1  0.37250941  0.62594915  0.51922254  1
  O2-  O142  1  0.37724150  0.87683505  0.00015513  1
  O2-  O143  1  0.37258152  0.87157500  0.51864422  1
  O2-  O144  1  0.62839488  0.12603497  -0.00648138  1
  O2-  O145  1  0.62248163  0.12478084  0.50425233  1
  O2-  O146  1  0.62879159  0.37249376  -0.00391272  1
  O2-  O147  1  0.62218569  0.37348625  0.49690236  1
  O2-  O148  1  0.62752265  0.62444443  0.00766415  1
  O2-  O149  1  0.62282131  0.62510247  0.50621765  1
  O2-  O150  1  0.62851282  0.87801299  -0.00223619  1
  O2-  O151  1  0.62281543  0.87563089  0.50564239  1
  O2-  O152  1  0.87078176  0.12617124  -0.00599236  1
  O2-  O153  1  0.87630078  0.12392816  0.49815133  1
  O2-  O154  1  0.87208484  0.37372381  -0.00525933  1
  O2-  O155  1  0.87681074  0.37617916  0.50541737  1
  O2-  O156  1  0.87320899  0.62367145  -0.00392541  1
  O2-  O157  1  0.87611803  0.62640771  0.50655706  1
  O2-  O158  1  0.87309087  0.87640811  0.00561312  1
  O2-  O159  1  0.87728574  0.87334440  0.50561472  1
  O2-  O160  1  0.12479119  -0.00078668  0.16303157  1
  O2-  O161  1  0.12486976  -0.00153929  0.66382732  1
  O2-  O162  1  0.12446879  0.25329494  0.16528733  1
  O2-  O163  1  0.12574139  0.24989473  0.66510757  1
  O2-  O164  1  0.12410106  0.49822769  0.16746883  1
  O2-  O165  1  0.12556758  0.50250177  0.67023503  1
  O2-  O166  1  0.12398588  0.74938207  0.16518608  1
  O2-  O167  1  0.12443680  0.74886697  0.67055530  1
  O2-  O168  1  0.37572849  -0.00086786  0.16495886  1
  O2-  O169  1  0.37395717  -0.00012123  0.66339746  1
  O2-  O170  1  0.37504406  0.25356775  0.16518609  1
  O2-  O171  1  0.37464343  0.25075511  0.66202621  1
  O2-  O172  1  0.37498927  0.49663096  0.16726069  1
  O2-  O173  1  0.37468880  0.49969665  0.66773986  1
  O2-  O174  1  0.37529652  0.75075547  0.16442783  1
  O2-  O175  1  0.37420606  0.74917215  0.67316724  1
  O2-  O176  1  0.62582606  0.00028082  0.16593068  1
  O2-  O177  1  0.62513170  0.00205305  0.65957147  1
  O2-  O178  1  0.62561094  0.25004508  0.16565714  1
  O2-  O179  1  0.62490911  0.24819813  0.65810277  1
  O2-  O180  1  0.62577711  0.49892599  0.16704603  1
  O2-  O181  1  0.62395944  0.49896817  0.66389035  1
  O2-  O182  1  0.62580901  0.75087451  0.16611167  1
  O2-  O183  1  0.62417709  0.75022332  0.66650557  1
  O2-  O184  1  0.87449070  -0.00159646  0.16346551  1
  O2-  O185  1  0.87578936  -0.00272780  0.66097516  1
  O2-  O186  1  0.87500272  0.24933605  0.16686412  1
  O2-  O187  1  0.87481789  0.25213533  0.65761207  1
  O2-  O188  1  0.87517426  0.50048873  0.16759192  1
  O2-  O189  1  0.87486994  0.50091705  0.66026360  1
  O2-  O190  1  0.87505601  0.75190691  0.16387235  1
  O2-  O191  1  0.87619736  0.74962758  0.66461261  1
  O2-  O192  1  -0.00094514  0.12520970  0.16436049  1
  O2-  O193  1  -0.00058546  0.12506826  0.66454189  1
  O2-  O194  1  0.00150911  0.37555373  0.16437677  1
  O2-  O195  1  -0.00249645  0.37597118  0.66410140  1
  O2-  O196  1  0.00040795  0.62463691  0.16965674  1
  O2-  O197  1  -0.00076130  0.62499719  0.66318798  1
  O2-  O198  1  -0.00225307  0.87500820  0.16353373  1
  O2-  O199  1  -0.00035564  0.87394591  0.66238389  1
  O2-  O200  1  0.25018216  0.12569611  0.16448367  1
  O2-  O201  1  0.25088675  0.12516074  0.66887080  1
  O2-  O202  1  0.24935113  0.37551103  0.16239110  1
  O2-  O203  1  0.25354598  0.37504389  0.67203864  1
  O2-  O204  1  0.24805187  0.62409553  0.16580146  1
  O2-  O205  1  0.25078185  0.62469596  0.67586706  1
  O2-  O206  1  0.25018132  0.87476474  0.16236406  1
  O2-  O207  1  0.25033980  0.87483024  0.67197535  1
  O2-  O208  1  0.50141522  0.12577457  0.16556777  1
  O2-  O209  1  0.50127067  0.12557890  0.66230310  1
  O2-  O210  1  0.49879914  0.37457066  0.16273911  1
  O2-  O211  1  0.49706360  0.37434593  0.66409348  1
  O2-  O212  1  0.50034296  0.62464519  0.16517380  1
  O2-  O213  1  0.49766331  0.62419474  0.66836907  1
  O2-  O214  1  0.50079247  0.87501655  0.16467669  1
  O2-  O215  1  0.49696091  0.87556812  0.66724956  1
  O2-  O216  1  0.74992145  0.12476680  0.16875154  1
  O2-  O217  1  0.74815600  0.12450841  0.65540712  1
  O2-  O218  1  0.75047916  0.37513172  0.16785859  1
  O2-  O219  1  0.75132839  0.37563195  0.65600293  1
  O2-  O220  1  0.75125481  0.62509909  0.16818434  1
  O2-  O221  1  0.75213748  0.62574391  0.65845354  1
  O2-  O222  1  0.75180540  0.87529458  0.16652712  1
  O2-  O223  1  0.75257438  0.87400871  0.65861475  1
  O2-  O224  1  0.12516847  -0.00142043  0.34435288  1
  O2-  O225  1  0.12350319  -0.00140540  0.84662154  1
  O2-  O226  1  0.12549421  0.24920775  0.34833641  1
  O2-  O227  1  0.12466450  0.25295762  0.84872127  1
  O2-  O228  1  0.12499669  0.50180169  0.35048633  1
  O2-  O229  1  0.12371580  0.49802391  0.85244367  1
  O2-  O230  1  0.12411773  0.75107420  0.34760689  1
  O2-  O231  1  0.12259362  0.75075760  0.85183772  1
  O2-  O232  1  0.37542403  0.00045369  0.34802259  1
  O2-  O233  1  0.37552781  -0.00222529  0.84498619  1
  O2-  O234  1  0.37515961  0.25077544  0.34809090  1
  O2-  O235  1  0.37488023  0.25348417  0.84743339  1
  O2-  O236  1  0.37475726  0.49886944  0.35170683  1
  O2-  O237  1  0.37519299  0.49713694  0.85105763  1
  O2-  O238  1  0.37451267  0.74969526  0.34937190  1
  O2-  O239  1  0.37537831  0.75209056  0.85185640  1
  O2-  O240  1  0.62502915  0.00299722  0.34986598  1
  O2-  O241  1  0.62654328  0.00010718  0.84033501  1
  O2-  O242  1  0.62474204  0.24883932  0.34795738  1
  O2-  O243  1  0.62559084  0.24991983  0.83931819  1
  O2-  O244  1  0.62513216  0.49797506  0.34901155  1
  O2-  O245  1  0.62583057  0.49809364  0.84655209  1
  O2-  O246  1  0.62487022  0.74970797  0.34938861  1
  O2-  O247  1  0.62708842  0.75225941  0.84857883  1
  O2-  O248  1  0.87463043  -0.00145209  0.34773813  1
  O2-  O249  1  0.87435067  -0.00113628  0.84473712  1
  O2-  O250  1  0.87477885  0.25075537  0.35062669  1
  O2-  O251  1  0.87462383  0.25030792  0.83909523  1
  O2-  O252  1  0.87564748  0.50021167  0.35277162  1
  O2-  O253  1  0.87518719  0.49893719  0.84229977  1
  O2-  O254  1  0.87645763  0.75032229  0.34963472  1
  O2-  O255  1  0.87508319  0.75208222  0.84906666  1
  O2-  O256  1  -0.00118923  0.12466465  0.34678404  1
  O2-  O257  1  -0.00269305  0.12521624  0.84622315  1
  O2-  O258  1  -0.00259886  0.37502555  0.34923988  1
  O2-  O259  1  0.00028772  0.37502274  0.84755763  1
  O2-  O260  1  -0.00148440  0.62501682  0.35282370  1
  O2-  O261  1  -0.00202938  0.62498259  0.84504986  1
  O2-  O262  1  -0.00084323  0.87507611  0.34672414  1
  O2-  O263  1  -0.00230825  0.87518836  0.84716142  1
  O2-  O264  1  0.25187968  0.12517917  0.34582222  1
  O2-  O265  1  0.24964674  0.12540476  0.85275335  1
  O2-  O266  1  0.25358070  0.37569045  0.34671788  1
  O2-  O267  1  0.24933053  0.37595096  0.85711937  1
  O2-  O268  1  0.24984050  0.62484147  0.34861206  1
  O2-  O269  1  0.24823291  0.62448011  0.85677487  1
  O2-  O270  1  0.24979818  0.87425436  0.34547286  1
  O2-  O271  1  0.24973676  0.87467068  0.85284161  1
  O2-  O272  1  0.50036620  0.12552909  0.34806754  1
  O2-  O273  1  0.50273544  0.12557425  0.84432748  1
  O2-  O274  1  0.49827095  0.37460237  0.34690200  1
  O2-  O275  1  0.50013716  0.37437659  0.84819512  1
  O2-  O276  1  0.49860273  0.62464679  0.34856612  1
  O2-  O277  1  0.50137688  0.62461187  0.85002203  1
  O2-  O278  1  0.49779721  0.87493169  0.34921322  1
  O2-  O279  1  0.50150302  0.87568292  0.84693370  1
  O2-  O280  1  0.74898926  0.12507454  0.35159421  1
  O2-  O281  1  0.75030302  0.12475552  0.83554145  1
  O2-  O282  1  0.75111274  0.37470592  0.35147175  1
  O2-  O283  1  0.75006514  0.37460053  0.83741660  1
  O2-  O284  1  0.75347043  0.62538572  0.35129106  1
  O2-  O285  1  0.75224279  0.62536459  0.83991520  1
  O2-  O286  1  0.75329636  0.87458854  0.35120635  1
  O2-  O287  1  0.75142156  0.87556235  0.84174871  1
