# generated using pymatgen
data_BaYFeCuO5
_symmetry_space_group_name_H-M   'P 1'
_cell_length_a   15.65943335
_cell_length_b   15.66087578
_cell_length_c   15.45955770
_cell_angle_alpha   89.99740603
_cell_angle_beta   90.00193483
_cell_angle_gamma   89.99795350
_symmetry_Int_Tables_number   1
_chemical_formula_structural   BaYFeCuO5
_chemical_formula_sum   'Ba32 Y32 Fe32 Cu32 O160'
_cell_volume   3791.30873139
_cell_formula_units_Z   32
loop_
 _symmetry_equiv_pos_site_id
 _symmetry_equiv_pos_as_xyz
  1  'x, y, z'
loop_
 _atom_type_symbol
 _atom_type_oxidation_number
  Ba2+  2.0
  Y3+  3.0
  Fe3+  3.0
  Cu2+  2.0
  O2-  -2.0
loop_
 _atom_site_type_symbol
 _atom_site_label
 _atom_site_symmetry_multiplicity
 _atom_site_fract_x
 _atom_site_fract_y
 _atom_site_fract_z
 _atom_site_occupancy
  Ba2+  Ba0  1  0.00683539  -0.00153906  0.01688987  1
  Ba2+  Ba1  1  -0.00092624  -0.01030925  0.51689454  1
  Ba2+  Ba2  1  0.00542472  0.25128695  0.01786459  1
  Ba2+  Ba3  1  -0.00016850  0.26392229  0.50613602  1
  Ba2+  Ba4  1  0.00410593  0.49603712  0.02186730  1
  Ba2+  Ba5  1  -0.00135417  0.49948772  0.51057141  1
  Ba2+  Ba6  1  0.00506109  0.75434305  0.02020291  1
  Ba2+  Ba7  1  -0.00129549  0.74522880  0.51956772  1
  Ba2+  Ba8  1  0.24952459  0.00145300  -0.00061573  1
  Ba2+  Ba9  1  0.24563142  -0.00541857  0.51111614  1
  Ba2+  Ba10  1  0.24488773  0.24327971  0.00652873  1
  Ba2+  Ba11  1  0.24776326  0.26267029  0.51158960  1
  Ba2+  Ba12  1  0.24903712  0.50584228  0.01599379  1
  Ba2+  Ba13  1  0.24821288  0.50109034  0.51697842  1
  Ba2+  Ba14  1  0.25255574  0.74864765  0.01197964  1
  Ba2+  Ba15  1  0.24709760  0.74168890  0.51639851  1
  Ba2+  Ba16  1  0.50103947  0.00226175  -0.00047874  1
  Ba2+  Ba17  1  0.50624115  0.00579140  0.50689471  1
  Ba2+  Ba18  1  0.50781776  0.24631519  0.00251237  1
  Ba2+  Ba19  1  0.50235573  0.25028195  0.51225152  1
  Ba2+  Ba20  1  0.50303666  0.50352768  0.00111644  1
  Ba2+  Ba21  1  0.49368716  0.50460244  0.51736170  1
  Ba2+  Ba22  1  0.49594441  0.74842881  0.00090761  1
  Ba2+  Ba23  1  0.49772618  0.73898692  0.51134834  1
  Ba2+  Ba24  1  0.74333698  -0.00157054  0.01854028  1
  Ba2+  Ba25  1  0.74836569  0.00186482  0.51112205  1
  Ba2+  Ba26  1  0.74197537  0.25356441  0.01235524  1
  Ba2+  Ba27  1  0.75091068  0.25217714  0.50623121  1
  Ba2+  Ba28  1  0.74313639  0.49403544  0.00670568  1
  Ba2+  Ba29  1  0.75939574  0.50327520  0.51057714  1
  Ba2+  Ba30  1  0.74568755  0.75442040  0.01261250  1
  Ba2+  Ba31  1  0.75675525  0.74328999  0.51535061  1
  Y3+  Y32  1  0.00047359  0.00019173  0.25462677  1
  Y3+  Y33  1  0.00044447  -0.00020595  0.75776794  1
  Y3+  Y34  1  0.00055791  0.25378665  0.25820759  1
  Y3+  Y35  1  0.00013959  0.25165374  0.75575026  1
  Y3+  Y36  1  -0.00063655  0.49741309  0.26048394  1
  Y3+  Y37  1  -0.00079604  0.49939718  0.75174049  1
  Y3+  Y38  1  -0.00007026  0.74910860  0.25565706  1
  Y3+  Y39  1  -0.00062923  0.74889466  0.75379992  1
  Y3+  Y40  1  0.24821418  0.00053501  0.25644311  1
  Y3+  Y41  1  0.24968910  0.00105081  0.75893757  1
  Y3+  Y42  1  0.24762870  0.25181702  0.25711827  1
  Y3+  Y43  1  0.24885883  0.25063322  0.75801930  1
  Y3+  Y44  1  0.24976944  0.50141116  0.25702121  1
  Y3+  Y45  1  0.25137440  0.50047199  0.75609244  1
  Y3+  Y46  1  0.25138191  0.74662934  0.25561231  1
  Y3+  Y47  1  0.25167415  0.74735731  0.75799710  1
  Y3+  Y48  1  0.50361383  0.00192761  0.25900366  1
  Y3+  Y49  1  0.50088252  0.00280780  0.75726787  1
  Y3+  Y50  1  0.50381771  0.24987717  0.25734274  1
  Y3+  Y51  1  0.50283121  0.24948616  0.75959023  1
  Y3+  Y52  1  0.49859549  0.50097142  0.25527137  1
  Y3+  Y53  1  0.49972307  0.50162052  0.75989238  1
  Y3+  Y54  1  0.49781529  0.74735920  0.25745779  1
  Y3+  Y55  1  0.49832824  0.74540333  0.75832918  1
  Y3+  Y56  1  0.74780640  0.00141311  0.25766626  1
  Y3+  Y57  1  0.74903508  0.00178702  0.75607959  1
  Y3+  Y58  1  0.74860559  0.25159005  0.25718069  1
  Y3+  Y59  1  0.74812039  0.25054869  0.75756946  1
  Y3+  Y60  1  0.75230833  0.49763135  0.25768105  1
  Y3+  Y61  1  0.74956083  0.50029155  0.75671548  1
  Y3+  Y62  1  0.75114714  0.75009381  0.25719971  1
  Y3+  Y63  1  0.75062193  0.74694528  0.75586710  1
  Fe3+  Fe64  1  0.87574093  0.62468717  0.88061181  1
  Fe3+  Fe65  1  0.62506629  0.87446722  0.87347585  1
  Fe3+  Fe66  1  0.87535685  0.87423524  0.37585689  1
  Fe3+  Fe67  1  0.37513334  0.37640097  0.37695386  1
  Fe3+  Fe68  1  0.37491939  0.87420205  0.38183351  1
  Fe3+  Fe69  1  0.87508006  0.87499034  0.87712533  1
  Fe3+  Fe70  1  0.12418691  0.12553776  0.38083435  1
  Fe3+  Fe71  1  0.87597605  0.12498646  0.37899101  1
  Fe3+  Fe72  1  0.12504115  0.87366463  0.87425904  1
  Fe3+  Fe73  1  0.12490125  0.87332765  0.37635457  1
  Fe3+  Fe74  1  0.87519681  0.12509251  0.88061783  1
  Fe3+  Fe75  1  0.37413374  0.12600468  0.38161394  1
  Fe3+  Fe76  1  0.62567896  0.62391453  0.37790596  1
  Fe3+  Fe77  1  0.12360742  0.62416604  0.87612993  1
  Fe3+  Fe78  1  0.12447628  0.62452858  0.37515497  1
  Fe3+  Fe79  1  0.37462875  0.37438167  0.87954671  1
  Fe3+  Fe80  1  0.62513715  0.87327543  0.38047124  1
  Fe3+  Fe81  1  0.12426530  0.37582827  0.87614751  1
  Fe3+  Fe82  1  0.62460262  0.37685737  0.38008573  1
  Fe3+  Fe83  1  0.87548288  0.37502780  0.87817528  1
  Fe3+  Fe84  1  0.87453263  0.62448071  0.13437231  1
  Fe3+  Fe85  1  0.37593829  0.37424180  0.13392328  1
  Fe3+  Fe86  1  0.37559783  0.12515048  0.13908193  1
  Fe3+  Fe87  1  0.62453708  0.62518702  0.13750492  1
  Fe3+  Fe88  1  0.37620130  0.87645782  0.13902720  1
  Fe3+  Fe89  1  0.62477285  0.87350836  0.63474740  1
  Fe3+  Fe90  1  0.37454211  0.12615660  0.63557995  1
  Fe3+  Fe91  1  0.37546354  0.87480259  0.63553246  1
  Fe3+  Fe92  1  0.87521567  0.12598608  0.63424358  1
  Fe3+  Fe93  1  0.62507812  0.37628785  0.63625635  1
  Fe3+  Fe94  1  0.87453428  0.12579387  0.13589616  1
  Fe3+  Fe95  1  0.12433788  0.12563959  0.63424622  1
  Cu2+  Cu96  1  0.62732997  0.12417339  0.87127486  1
  Cu2+  Cu97  1  0.87568430  0.62553924  0.36945976  1
  Cu2+  Cu98  1  0.62600339  0.12612418  0.37481727  1
  Cu2+  Cu99  1  0.37505730  0.87514346  0.86024670  1
  Cu2+  Cu100  1  0.12600472  0.37641276  0.37126358  1
  Cu2+  Cu101  1  0.12258665  0.12538031  0.87131536  1
  Cu2+  Cu102  1  0.87439351  0.37530615  0.37200754  1
  Cu2+  Cu103  1  0.37434564  0.62434526  0.37242410  1
  Cu2+  Cu104  1  0.62624573  0.62547285  0.86411457  1
  Cu2+  Cu105  1  0.37352347  0.62406396  0.87315958  1
  Cu2+  Cu106  1  0.62543440  0.37502526  0.87059612  1
  Cu2+  Cu107  1  0.37488773  0.12593277  0.86160514  1
  Cu2+  Cu108  1  0.87399456  0.37457360  0.64224557  1
  Cu2+  Cu109  1  0.37579959  0.62475481  0.14072008  1
  Cu2+  Cu110  1  0.37583016  0.37435785  0.65346741  1
  Cu2+  Cu111  1  0.87446494  0.87552088  0.14859870  1
  Cu2+  Cu112  1  0.87407086  0.87533022  0.65092831  1
  Cu2+  Cu113  1  0.62504598  0.62423916  0.65005329  1
  Cu2+  Cu114  1  0.62325063  0.87424811  0.15485974  1
  Cu2+  Cu115  1  0.62534869  0.12583288  0.64129791  1
  Cu2+  Cu116  1  0.12493897  0.62456049  0.65171869  1
  Cu2+  Cu117  1  0.12455924  0.62498021  0.15089341  1
  Cu2+  Cu118  1  0.12707559  0.87492879  0.15257302  1
  Cu2+  Cu119  1  0.12597915  0.87446423  0.65117386  1
  Cu2+  Cu120  1  0.62416424  0.12525505  0.14362172  1
  Cu2+  Cu121  1  0.62361030  0.37601453  0.14428454  1
  Cu2+  Cu122  1  0.87441060  0.37482923  0.14833766  1
  Cu2+  Cu123  1  0.87520128  0.62393505  0.64335251  1
  Cu2+  Cu124  1  0.12481804  0.37552495  0.64220098  1
  Cu2+  Cu125  1  0.12649879  0.37527571  0.15224118  1
  Cu2+  Cu126  1  0.12605701  0.12502563  0.14358520  1
  Cu2+  Cu127  1  0.37445217  0.62436847  0.64417186  1
  O2-  O128  1  0.12457048  0.12409868  0.00720559  1
  O2-  O129  1  0.12404782  0.12494054  0.50734545  1
  O2-  O130  1  0.12474864  0.37464509  -0.00339871  1
  O2-  O131  1  0.12583767  0.37704874  0.50725960  1
  O2-  O132  1  0.12321240  0.62544903  -0.00367110  1
  O2-  O133  1  0.12386390  0.62499264  0.49612907  1
  O2-  O134  1  0.12589666  0.87500114  -0.00521768  1
  O2-  O135  1  0.12409771  0.87274690  0.49655468  1
  O2-  O136  1  0.37498957  0.12327314  0.01878918  1
  O2-  O137  1  0.37361630  0.12646558  0.50860572  1
  O2-  O138  1  0.37501474  0.37306869  0.00672251  1
  O2-  O139  1  0.37556605  0.37667116  0.49746411  1
  O2-  O140  1  0.37456860  0.62574921  0.00675896  1
  O2-  O141  1  0.37359059  0.62462721  0.50838445  1
  O2-  O142  1  0.37612326  0.87821478  0.01886546  1
  O2-  O143  1  0.37471769  0.87351734  0.50859264  1
  O2-  O144  1  0.62599818  0.12336940  0.00743846  1
  O2-  O145  1  0.62555732  0.12568073  0.50765611  1
  O2-  O146  1  0.62349292  0.37505244  0.00643214  1
  O2-  O147  1  0.62448741  0.37714641  0.50737201  1
  O2-  O148  1  0.62505905  0.62722327  0.01651607  1
  O2-  O149  1  0.62605040  0.62366546  0.49849509  1
  O2-  O150  1  0.62445221  0.87516856  -0.00565804  1
  O2-  O151  1  0.62571807  0.87322718  0.50694220  1
  O2-  O152  1  0.87496396  0.12463732  0.00700723  1
  O2-  O153  1  0.87679441  0.12431030  0.50622037  1
  O2-  O154  1  0.87639326  0.37447710  -0.00156653  1
  O2-  O155  1  0.87350943  0.37501145  0.50666148  1
  O2-  O156  1  0.87543315  0.62487504  0.00650579  1
  O2-  O157  1  0.87651565  0.62575101  0.50719743  1
  O2-  O158  1  0.87524202  0.87559858  -0.00292286  1
  O2-  O159  1  0.87514915  0.87375313  0.49618324  1
  O2-  O160  1  0.12531218  -0.00132561  0.16889367  1
  O2-  O161  1  0.12515251  0.00236126  0.66125115  1
  O2-  O162  1  0.12518369  0.25155986  0.16830585  1
  O2-  O163  1  0.12513558  0.24657338  0.66359009  1
  O2-  O164  1  0.12476984  0.49978807  0.16221393  1
  O2-  O165  1  0.12524734  0.50172782  0.66435815  1
  O2-  O166  1  0.12587012  0.75026233  0.16162483  1
  O2-  O167  1  0.12529193  0.74907751  0.66274150  1
  O2-  O168  1  0.37585145  0.00071391  0.17553057  1
  O2-  O169  1  0.37480689  0.00060140  0.66061801  1
  O2-  O170  1  0.37487488  0.25087929  0.16765174  1
  O2-  O171  1  0.37454558  0.24810975  0.66396410  1
  O2-  O172  1  0.37496075  0.49734761  0.16056328  1
  O2-  O173  1  0.37528360  0.49829228  0.66744930  1
  O2-  O174  1  0.37499377  0.75160494  0.16674908  1
  O2-  O175  1  0.37499824  0.75272663  0.66425102  1
  O2-  O176  1  0.62458187  -0.00157596  0.16894553  1
  O2-  O177  1  0.62488997  -0.00282171  0.66085771  1
  O2-  O178  1  0.62518418  0.25090085  0.16766281  1
  O2-  O179  1  0.62466411  0.25286589  0.66410413  1
  O2-  O180  1  0.62542903  0.50208256  0.16554756  1
  O2-  O181  1  0.62418481  0.49884528  0.66502145  1
  O2-  O182  1  0.62542861  0.74932941  0.16738463  1
  O2-  O183  1  0.62440647  0.75078215  0.66174760  1
  O2-  O184  1  0.87468286  0.00134027  0.16452263  1
  O2-  O185  1  0.87506762  0.00170608  0.66226548  1
  O2-  O186  1  0.87482720  0.24892906  0.16522531  1
  O2-  O187  1  0.87501958  0.24696391  0.66421440  1
  O2-  O188  1  0.87517457  0.50129315  0.16295011  1
  O2-  O189  1  0.87448138  0.49937178  0.66630410  1
  O2-  O190  1  0.87436407  0.74913881  0.16063803  1
  O2-  O191  1  0.87487409  0.75124520  0.66579027  1
  O2-  O192  1  -0.00254030  0.12508134  0.16382460  1
  O2-  O193  1  0.00016985  0.12420032  0.66212642  1
  O2-  O194  1  0.00073725  0.37432147  0.16445207  1
  O2-  O195  1  -0.00046075  0.37433232  0.66297368  1
  O2-  O196  1  -0.00178801  0.62588024  0.16106578  1
  O2-  O197  1  0.00184190  0.62522292  0.66367602  1
  O2-  O198  1  0.00150189  0.87562445  0.16129176  1
  O2-  O199  1  0.00031084  0.87553532  0.66169224  1
  O2-  O200  1  0.25203731  0.12526222  0.17042568  1
  O2-  O201  1  0.24976941  0.12452935  0.66233598  1
  O2-  O202  1  0.25214950  0.37440522  0.16274374  1
  O2-  O203  1  0.25150374  0.37438978  0.66561090  1
  O2-  O204  1  0.24859958  0.62492582  0.16358032  1
  O2-  O205  1  0.24823605  0.62469655  0.66478343  1
  O2-  O206  1  0.25152986  0.87597733  0.16858663  1
  O2-  O207  1  0.25212905  0.87603490  0.66228590  1
  O2-  O208  1  0.49870803  0.12537172  0.17083328  1
  O2-  O209  1  0.49706705  0.12528647  0.66373652  1
  O2-  O210  1  0.49699869  0.37447888  0.16724634  1
  O2-  O211  1  0.50160797  0.37460789  0.66442093  1
  O2-  O212  1  0.50152555  0.62543916  0.16851992  1
  O2-  O213  1  0.50059514  0.62439400  0.66633224  1
  O2-  O214  1  0.49918350  0.87522514  0.17338375  1
  O2-  O215  1  0.49983977  0.87549132  0.66148922  1
  O2-  O216  1  0.75211258  0.12477120  0.16495622  1
  O2-  O217  1  0.75266414  0.12459908  0.66289782  1
  O2-  O218  1  0.75011507  0.37490933  0.16662646  1
  O2-  O219  1  0.74704482  0.37503674  0.66406420  1
  O2-  O220  1  0.75144705  0.62559540  0.16455902  1
  O2-  O221  1  0.74901078  0.62477130  0.66653473  1
  O2-  O222  1  0.74833209  0.87560743  0.16419858  1
  O2-  O223  1  0.74779612  0.87468874  0.66131108  1
  O2-  O224  1  0.12513838  0.00096281  0.35133231  1
  O2-  O225  1  0.12474533  -0.00225826  0.84462419  1
  O2-  O226  1  0.12486149  0.24753991  0.35223484  1
  O2-  O227  1  0.12409788  0.25259647  0.84564555  1
  O2-  O228  1  0.12522912  0.50147111  0.34512798  1
  O2-  O229  1  0.12433689  0.49944312  0.84513830  1
  O2-  O230  1  0.12524926  0.75040526  0.34318066  1
  O2-  O231  1  0.12463789  0.74946898  0.84417891  1
  O2-  O232  1  0.37446536  0.00026492  0.35854253  1
  O2-  O233  1  0.37504877  0.00141668  0.84575504  1
  O2-  O234  1  0.37474118  0.24894174  0.35029547  1
  O2-  O235  1  0.37453790  0.25122153  0.84913182  1
  O2-  O236  1  0.37554186  0.49847964  0.34335853  1
  O2-  O237  1  0.37502060  0.49663155  0.85128674  1
  O2-  O238  1  0.37537246  0.75321500  0.34995174  1
  O2-  O239  1  0.37513584  0.75036377  0.84827128  1
  O2-  O240  1  0.62560079  -0.00309418  0.35322088  1
  O2-  O241  1  0.62526181  -0.00197308  0.84320926  1
  O2-  O242  1  0.62504975  0.25350045  0.35154080  1
  O2-  O243  1  0.62599764  0.24950074  0.84777776  1
  O2-  O244  1  0.62496146  0.49903449  0.34678596  1
  O2-  O245  1  0.62543658  0.50159307  0.84954000  1
  O2-  O246  1  0.62465583  0.75101259  0.34933120  1
  O2-  O247  1  0.62485682  0.75054579  0.84492595  1
  O2-  O248  1  0.87527842  0.00076126  0.34829237  1
  O2-  O249  1  0.87508388  0.00038845  0.84615204  1
  O2-  O250  1  0.87556501  0.24701030  0.35043871  1
  O2-  O251  1  0.87513774  0.24931354  0.84781312  1
  O2-  O252  1  0.87458829  0.50006516  0.34729366  1
  O2-  O253  1  0.87440627  0.50118277  0.84931661  1
  O2-  O254  1  0.87524493  0.75223827  0.34310827  1
  O2-  O255  1  0.87495686  0.74865324  0.84863965  1
  O2-  O256  1  0.00067723  0.12438848  0.34863136  1
  O2-  O257  1  -0.00390812  0.12458573  0.84568634  1
  O2-  O258  1  0.00020064  0.37478191  0.34918853  1
  O2-  O259  1  -0.00079501  0.37516318  0.84373411  1
  O2-  O260  1  0.00139890  0.62553750  0.34373866  1
  O2-  O261  1  -0.00157784  0.62489869  0.84533600  1
  O2-  O262  1  0.00053821  0.87615364  0.34344793  1
  O2-  O263  1  -0.00077337  0.87469134  0.84365401  1
  O2-  O264  1  0.24936809  0.12458619  0.35333662  1
  O2-  O265  1  0.25020682  0.12501040  0.84737815  1
  O2-  O266  1  0.25194136  0.37440194  0.34594855  1
  O2-  O267  1  0.25049946  0.37406118  0.84866126  1
  O2-  O268  1  0.24859758  0.62548498  0.34626035  1
  O2-  O269  1  0.24733142  0.62462728  0.84702285  1
  O2-  O270  1  0.25091419  0.87625880  0.35060680  1
  O2-  O271  1  0.25028384  0.87556540  0.84627356  1
  O2-  O272  1  0.49690291  0.12498010  0.35370682  1
  O2-  O273  1  0.49975329  0.12484253  0.84860152  1
  O2-  O274  1  0.50119991  0.37493553  0.34929253  1
  O2-  O275  1  0.49761237  0.37384806  0.84979068  1
  O2-  O276  1  0.50163530  0.62519158  0.34981378  1
  O2-  O277  1  0.50106346  0.62489730  0.85081195  1
  O2-  O278  1  0.50002074  0.87594045  0.35620408  1
  O2-  O279  1  0.49964576  0.87551674  0.84544958  1
  O2-  O280  1  0.75320263  0.12469228  0.34960382  1
  O2-  O281  1  0.75400487  0.12449996  0.84655109  1
  O2-  O282  1  0.74698397  0.37494769  0.35048135  1
  O2-  O283  1  0.75232439  0.37487501  0.84645699  1
  O2-  O284  1  0.74855556  0.62564617  0.34647162  1
  O2-  O285  1  0.75241138  0.62549860  0.85063164  1
  O2-  O286  1  0.74886014  0.87513270  0.34820342  1
  O2-  O287  1  0.75096068  0.87454153  0.84327909  1
