# generated using pymatgen
data_BaYFeCuO5
_symmetry_space_group_name_H-M   'P 1'
_cell_length_a   15.66398348
_cell_length_b   15.66468607
_cell_length_c   15.47028851
_cell_angle_alpha   90.00057435
_cell_angle_beta   90.00065046
_cell_angle_gamma   89.99441676
_symmetry_Int_Tables_number   1
_chemical_formula_structural   BaYFeCuO5
_chemical_formula_sum   'Ba32 Y32 Fe32 Cu32 O160'
_cell_volume   3795.96608070
_cell_formula_units_Z   32
loop_
 _symmetry_equiv_pos_site_id
 _symmetry_equiv_pos_as_xyz
  1  'x, y, z'
loop_
 _atom_type_symbol
 _atom_type_oxidation_number
  Ba2+  2.0
  Y3+  3.0
  Fe3+  3.0
  Cu2+  2.0
  O2-  -2.0
loop_
 _atom_site_type_symbol
 _atom_site_label
 _atom_site_symmetry_multiplicity
 _atom_site_fract_x
 _atom_site_fract_y
 _atom_site_fract_z
 _atom_site_occupancy
  Ba2+  Ba0  1  -0.00173896  -0.00134780  0.00694421  1
  Ba2+  Ba1  1  -0.00615181  -0.00455620  0.51691803  1
  Ba2+  Ba2  1  -0.00213522  0.25162866  0.01862351  1
  Ba2+  Ba3  1  -0.00304449  0.24746133  0.50185169  1
  Ba2+  Ba4  1  -0.00720854  0.50668794  0.00761652  1
  Ba2+  Ba5  1  0.00412661  0.50966038  0.50235048  1
  Ba2+  Ba6  1  -0.00665302  0.74428692  -0.00415054  1
  Ba2+  Ba7  1  0.00036389  0.74624981  0.51661494  1
  Ba2+  Ba8  1  0.25328956  -0.00466197  0.01107487  1
  Ba2+  Ba9  1  0.25540796  -0.00665793  0.51330756  1
  Ba2+  Ba10  1  0.24500207  0.24614917  0.01218198  1
  Ba2+  Ba11  1  0.25606575  0.25523829  0.50121575  1
  Ba2+  Ba12  1  0.25075149  0.51072461  0.00176696  1
  Ba2+  Ba13  1  0.24897097  0.50521972  0.51231835  1
  Ba2+  Ba14  1  0.25866082  0.74750250  0.00206459  1
  Ba2+  Ba15  1  0.24846725  0.74779143  0.52289381  1
  Ba2+  Ba16  1  0.50282333  -0.00866506  0.01639049  1
  Ba2+  Ba17  1  0.50373809  0.00170988  0.51079209  1
  Ba2+  Ba18  1  0.50533587  0.24553910  0.01222504  1
  Ba2+  Ba19  1  0.50536639  0.25020638  0.50577419  1
  Ba2+  Ba20  1  0.49938048  0.51113602  0.01112631  1
  Ba2+  Ba21  1  0.50026510  0.49906990  0.52176171  1
  Ba2+  Ba22  1  0.49794888  0.75034365  0.01392303  1
  Ba2+  Ba23  1  0.49981960  0.75036246  0.52555674  1
  Ba2+  Ba24  1  0.74576432  -0.00575623  0.01266414  1
  Ba2+  Ba25  1  0.74824469  0.00289491  0.51544375  1
  Ba2+  Ba26  1  0.75119252  0.25060509  0.01890748  1
  Ba2+  Ba27  1  0.74287546  0.24455580  0.50576577  1
  Ba2+  Ba28  1  0.75584372  0.50693607  0.01796688  1
  Ba2+  Ba29  1  0.74496004  0.50453817  0.51062783  1
  Ba2+  Ba30  1  0.75091551  0.74723821  0.01202823  1
  Ba2+  Ba31  1  0.75094806  0.74915039  0.51994171  1
  Y3+  Y32  1  -0.00028870  0.00101638  0.25904017  1
  Y3+  Y33  1  -0.00276939  -0.00221159  0.75583278  1
  Y3+  Y34  1  -0.00065742  0.25012206  0.26066250  1
  Y3+  Y35  1  -0.00196827  0.24912117  0.75514828  1
  Y3+  Y36  1  -0.00074182  0.50298272  0.26126705  1
  Y3+  Y37  1  -0.00093976  0.50459399  0.75625324  1
  Y3+  Y38  1  -0.00071400  0.74647906  0.26087252  1
  Y3+  Y39  1  -0.00174685  0.74742791  0.75560915  1
  Y3+  Y40  1  0.25150360  -0.00063724  0.25557508  1
  Y3+  Y41  1  0.25100229  -0.00397848  0.75908428  1
  Y3+  Y42  1  0.24912015  0.24945889  0.25811722  1
  Y3+  Y43  1  0.25044964  0.25091683  0.75857927  1
  Y3+  Y44  1  0.24837948  0.50304370  0.25879099  1
  Y3+  Y45  1  0.25050297  0.50409198  0.75767504  1
  Y3+  Y46  1  0.25143943  0.74928782  0.25458078  1
  Y3+  Y47  1  0.25100425  0.74853258  0.75996334  1
  Y3+  Y48  1  0.50141281  -0.00026761  0.25667470  1
  Y3+  Y49  1  0.50085483  -0.00237108  0.75589074  1
  Y3+  Y50  1  0.50290374  0.24810658  0.26050901  1
  Y3+  Y51  1  0.50244929  0.25116592  0.75378236  1
  Y3+  Y52  1  0.50107657  0.50238735  0.25538367  1
  Y3+  Y53  1  0.49971644  0.50061128  0.75635682  1
  Y3+  Y54  1  0.49961590  0.75023755  0.24967611  1
  Y3+  Y55  1  0.49801378  0.74999829  0.75949274  1
  Y3+  Y56  1  0.74781288  0.00137010  0.26013901  1
  Y3+  Y57  1  0.75038012  -0.00059997  0.75289254  1
  Y3+  Y58  1  0.74875844  0.24963727  0.26315753  1
  Y3+  Y59  1  0.74878551  0.24898250  0.75070370  1
  Y3+  Y60  1  0.75178792  0.50218313  0.25957026  1
  Y3+  Y61  1  0.75013896  0.50142668  0.75362324  1
  Y3+  Y62  1  0.75035504  0.74733687  0.25619123  1
  Y3+  Y63  1  0.75244899  0.74917660  0.75579613  1
  Fe3+  Fe64  1  0.62438406  0.87307048  0.37648701  1
  Fe3+  Fe65  1  0.12389185  0.87384213  0.87861147  1
  Fe3+  Fe66  1  0.62642170  0.37525156  0.87992700  1
  Fe3+  Fe67  1  0.37615599  0.62704553  0.37681648  1
  Fe3+  Fe68  1  0.37560220  0.37443810  0.88105945  1
  Fe3+  Fe69  1  0.12645543  0.12310562  0.38000099  1
  Fe3+  Fe70  1  0.87408348  0.87429961  0.37790775  1
  Fe3+  Fe71  1  0.87450307  0.37621212  0.37941208  1
  Fe3+  Fe72  1  0.87377378  0.37467646  0.87692708  1
  Fe3+  Fe73  1  0.12580673  0.87356258  0.37785728  1
  Fe3+  Fe74  1  0.37608471  0.87362973  0.37596170  1
  Fe3+  Fe75  1  0.62305393  0.62661868  0.37632907  1
  Fe3+  Fe76  1  0.12380240  0.12486700  0.87800145  1
  Fe3+  Fe77  1  0.12346751  0.37584747  0.88070551  1
  Fe3+  Fe78  1  0.37619714  0.37723399  0.37448263  1
  Fe3+  Fe79  1  0.87361293  0.12512218  0.87901265  1
  Fe3+  Fe80  1  0.62596677  0.12478396  0.87697016  1
  Fe3+  Fe81  1  0.37618636  0.12442087  0.88046940  1
  Fe3+  Fe82  1  0.62605080  0.62482716  0.87554523  1
  Fe3+  Fe83  1  0.62607131  0.87419019  0.87468759  1
  Fe3+  Fe84  1  0.12411603  0.37675104  0.13626298  1
  Fe3+  Fe85  1  0.12402234  0.62634976  0.13663215  1
  Fe3+  Fe86  1  0.12606898  0.12444737  0.63520516  1
  Fe3+  Fe87  1  0.12502656  0.37520137  0.63727385  1
  Fe3+  Fe88  1  0.37577020  0.12526777  0.13604015  1
  Fe3+  Fe89  1  0.87521544  0.37554732  0.63325361  1
  Fe3+  Fe90  1  0.37472122  0.37571097  0.13343224  1
  Fe3+  Fe91  1  0.62583655  0.37634123  0.13558679  1
  Fe3+  Fe92  1  0.37479464  0.12551187  0.63836682  1
  Fe3+  Fe93  1  0.87433353  0.12442321  0.13751504  1
  Fe3+  Fe94  1  0.12382390  0.87394412  0.13374875  1
  Fe3+  Fe95  1  0.87583641  0.87381468  0.13743890  1
  Cu2+  Cu96  1  0.37672939  0.62468173  0.87055229  1
  Cu2+  Cu97  1  0.87274369  0.62397597  0.86943225  1
  Cu2+  Cu98  1  0.37498997  0.12396129  0.36294811  1
  Cu2+  Cu99  1  0.87399690  0.62684300  0.37481524  1
  Cu2+  Cu100  1  0.12418416  0.62489272  0.86477779  1
  Cu2+  Cu101  1  0.87480576  0.12319785  0.37386679  1
  Cu2+  Cu102  1  0.12703081  0.62730231  0.37268852  1
  Cu2+  Cu103  1  0.62426933  0.12351596  0.37112894  1
  Cu2+  Cu104  1  0.37643386  0.87552862  0.87260309  1
  Cu2+  Cu105  1  0.87388328  0.87522090  0.86353738  1
  Cu2+  Cu106  1  0.12566453  0.37585623  0.36522933  1
  Cu2+  Cu107  1  0.62399711  0.37730376  0.37210626  1
  Cu2+  Cu108  1  0.62578054  0.62487753  0.14892297  1
  Cu2+  Cu109  1  0.87528316  0.12560705  0.64014764  1
  Cu2+  Cu110  1  0.62490874  0.87452105  0.65039226  1
  Cu2+  Cu111  1  0.62381147  0.12454630  0.64296222  1
  Cu2+  Cu112  1  0.62438244  0.62537650  0.65228906  1
  Cu2+  Cu113  1  0.12439006  0.12450323  0.15046984  1
  Cu2+  Cu114  1  0.87468810  0.87416837  0.65099618  1
  Cu2+  Cu115  1  0.87655570  0.62565126  0.14550614  1
  Cu2+  Cu116  1  0.62660520  0.87436791  0.15093526  1
  Cu2+  Cu117  1  0.62514843  0.37516521  0.64032290  1
  Cu2+  Cu118  1  0.37453148  0.87475695  0.14016905  1
  Cu2+  Cu119  1  0.62570951  0.12516671  0.15094084  1
  Cu2+  Cu120  1  0.37365312  0.62434240  0.14124124  1
  Cu2+  Cu121  1  0.37399935  0.37491835  0.65447965  1
  Cu2+  Cu122  1  0.87531128  0.37561010  0.15425748  1
  Cu2+  Cu123  1  0.87497851  0.62383338  0.64088591  1
  Cu2+  Cu124  1  0.12496267  0.87471417  0.65348430  1
  Cu2+  Cu125  1  0.37511390  0.87490768  0.65340107  1
  Cu2+  Cu126  1  0.37501429  0.62496564  0.65326147  1
  Cu2+  Cu127  1  0.12520018  0.62496340  0.64505393  1
  O2-  O128  1  0.12150447  0.12631925  -0.00201135  1
  O2-  O129  1  0.12778982  0.12354738  0.50782597  1
  O2-  O130  1  0.12272064  0.37494854  0.00819484  1
  O2-  O131  1  0.12752878  0.37448358  0.51731873  1
  O2-  O132  1  0.12269197  0.62519307  0.01642100  1
  O2-  O133  1  0.12733794  0.62660183  0.50892720  1
  O2-  O134  1  0.12333545  0.87467851  0.00671736  1
  O2-  O135  1  0.12682191  0.87516496  0.49797099  1
  O2-  O136  1  0.37556421  0.12529347  0.00759710  1
  O2-  O137  1  0.37338656  0.12554413  0.51815430  1
  O2-  O138  1  0.37477623  0.37382204  0.00705105  1
  O2-  O139  1  0.37565744  0.37680490  0.49482383  1
  O2-  O140  1  0.37530129  0.62414089  0.00572127  1
  O2-  O141  1  0.37652194  0.62645963  0.49701835  1
  O2-  O142  1  0.37528486  0.87683800  0.00624724  1
  O2-  O143  1  0.37535928  0.87287121  0.49603390  1
  O2-  O144  1  0.62809303  0.12563160  -0.00269869  1
  O2-  O145  1  0.62281469  0.12388701  0.50696959  1
  O2-  O146  1  0.62742415  0.37477175  0.00593952  1
  O2-  O147  1  0.62328292  0.37622802  0.50600124  1
  O2-  O148  1  0.62704853  0.62476885  -0.00401158  1
  O2-  O149  1  0.62131582  0.62667240  0.49650659  1
  O2-  O150  1  0.62626822  0.87422867  -0.00469420  1
  O2-  O151  1  0.62360650  0.87324222  0.49651043  1
  O2-  O152  1  0.87447228  0.12551326  0.00726449  1
  O2-  O153  1  0.87640649  0.12412260  0.50685615  1
  O2-  O154  1  0.87396767  0.37373153  -0.00284317  1
  O2-  O155  1  0.87555871  0.37547464  0.50679343  1
  O2-  O156  1  0.87425614  0.62528921  0.00642708  1
  O2-  O157  1  0.87440251  0.62539321  0.50766929  1
  O2-  O158  1  0.87574809  0.87508336  0.01689665  1
  O2-  O159  1  0.87421283  0.87488853  0.49844901  1
  O2-  O160  1  0.12499071  -0.00127193  0.16225426  1
  O2-  O161  1  0.12589007  0.00117905  0.66459463  1
  O2-  O162  1  0.12404250  0.25148450  0.16499624  1
  O2-  O163  1  0.12545288  0.24849670  0.66700474  1
  O2-  O164  1  0.12478914  0.49924989  0.16568410  1
  O2-  O165  1  0.12567989  0.49817574  0.66894519  1
  O2-  O166  1  0.12401578  0.75153367  0.16447280  1
  O2-  O167  1  0.12513596  0.75119982  0.66764850  1
  O2-  O168  1  0.37491358  0.00330536  0.16307173  1
  O2-  O169  1  0.37328103  0.00015653  0.66710764  1
  O2-  O170  1  0.37502770  0.25062193  0.16209575  1
  O2-  O171  1  0.37382421  0.24943072  0.67038118  1
  O2-  O172  1  0.37391557  0.49633020  0.16255765  1
  O2-  O173  1  0.37393724  0.49976820  0.66573482  1
  O2-  O174  1  0.37437760  0.74956337  0.16059231  1
  O2-  O175  1  0.37481187  0.75038496  0.66557108  1
  O2-  O176  1  0.62561337  0.00026508  0.16318916  1
  O2-  O177  1  0.62481364  -0.00164757  0.66419981  1
  O2-  O178  1  0.62570364  0.25252545  0.16472633  1
  O2-  O179  1  0.62408211  0.24965224  0.66608371  1
  O2-  O180  1  0.62536733  0.49853348  0.16191552  1
  O2-  O181  1  0.62443179  0.50161601  0.66599492  1
  O2-  O182  1  0.62593398  0.74914532  0.15999659  1
  O2-  O183  1  0.62421839  0.74985449  0.66383088  1
  O2-  O184  1  0.87535940  0.00106506  0.16312964  1
  O2-  O185  1  0.87545279  -0.00151252  0.66677051  1
  O2-  O186  1  0.87539656  0.24850006  0.16504914  1
  O2-  O187  1  0.87615713  0.25316934  0.66480503  1
  O2-  O188  1  0.87605206  0.49950940  0.16709150  1
  O2-  O189  1  0.87547779  0.49692046  0.66441141  1
  O2-  O190  1  0.87609961  0.75125287  0.16604219  1
  O2-  O191  1  0.87539996  0.75041565  0.66436264  1
  O2-  O192  1  -0.00249089  0.12545918  0.16568103  1
  O2-  O193  1  0.00379059  0.12463121  0.66428433  1
  O2-  O194  1  0.00165504  0.37416203  0.16610218  1
  O2-  O195  1  -0.00046768  0.37386881  0.66651105  1
  O2-  O196  1  0.00221072  0.62430529  0.17053210  1
  O2-  O197  1  0.00018071  0.62465994  0.66591519  1
  O2-  O198  1  0.00097950  0.87709035  0.16642307  1
  O2-  O199  1  -0.00008472  0.87549827  0.66628180  1
  O2-  O200  1  0.25173926  0.12636157  0.16232485  1
  O2-  O201  1  0.24872248  0.12495471  0.67013852  1
  O2-  O202  1  0.24925492  0.37286837  0.15992072  1
  O2-  O203  1  0.24902446  0.37412341  0.67227800  1
  O2-  O204  1  0.24720015  0.62476574  0.16581030  1
  O2-  O205  1  0.25139514  0.62526112  0.66805101  1
  O2-  O206  1  0.24656089  0.87602014  0.16158661  1
  O2-  O207  1  0.25012961  0.87490958  0.66820782  1
  O2-  O208  1  0.49929779  0.12628608  0.16082001  1
  O2-  O209  1  0.49758105  0.12476580  0.66888203  1
  O2-  O210  1  0.50022307  0.37475428  0.15602276  1
  O2-  O211  1  0.49804193  0.37519109  0.66800074  1
  O2-  O212  1  0.50094146  0.62391777  0.15895914  1
  O2-  O213  1  0.49941448  0.62400725  0.66499955  1
  O2-  O214  1  0.50222493  0.87554987  0.15995746  1
  O2-  O215  1  0.49981068  0.87576468  0.66429504  1
  O2-  O216  1  0.75182236  0.12575148  0.16400936  1
  O2-  O217  1  0.74968333  0.12524383  0.66350922  1
  O2-  O218  1  0.74892055  0.37526458  0.16336369  1
  O2-  O219  1  0.75271517  0.37454354  0.66195490  1
  O2-  O220  1  0.74997774  0.62413085  0.16470240  1
  O2-  O221  1  0.74835612  0.62450693  0.66215244  1
  O2-  O222  1  0.75119217  0.87547931  0.16502619  1
  O2-  O223  1  0.74972867  0.87490784  0.66275661  1
  O2-  O224  1  0.12599819  0.00029413  0.34646703  1
  O2-  O225  1  0.12398188  -0.00058194  0.84883355  1
  O2-  O226  1  0.12620908  0.24794736  0.35158774  1
  O2-  O227  1  0.12475181  0.25081487  0.84900505  1
  O2-  O228  1  0.12560899  0.50015895  0.34949530  1
  O2-  O229  1  0.12475139  0.49806307  0.85235961  1
  O2-  O230  1  0.12620162  0.75236362  0.34441500  1
  O2-  O231  1  0.12404575  0.75105253  0.85206745  1
  O2-  O232  1  0.37477559  -0.00111378  0.34646584  1
  O2-  O233  1  0.37501724  0.00364167  0.84976445  1
  O2-  O234  1  0.37427774  0.25006405  0.34664081  1
  O2-  O235  1  0.37381222  0.24989157  0.85313966  1
  O2-  O236  1  0.37489196  0.50181649  0.34328146  1
  O2-  O237  1  0.37503125  0.49549117  0.85036397  1
  O2-  O238  1  0.37520887  0.75056834  0.34092712  1
  O2-  O239  1  0.37507724  0.75001041  0.84966418  1
  O2-  O240  1  0.62396710  -0.00257709  0.34638151  1
  O2-  O241  1  0.62538638  0.00093156  0.84569517  1
  O2-  O242  1  0.62431382  0.25009947  0.34995759  1
  O2-  O243  1  0.62553476  0.25104774  0.84868338  1
  O2-  O244  1  0.62429717  0.50304495  0.34439105  1
  O2-  O245  1  0.62471544  0.49744032  0.84861556  1
  O2-  O246  1  0.62421107  0.75014169  0.34096107  1
  O2-  O247  1  0.62609504  0.74966279  0.84540144  1
  O2-  O248  1  0.87559755  -0.00261998  0.34424284  1
  O2-  O249  1  0.87558385  0.00261858  0.85153547  1
  O2-  O250  1  0.87589461  0.25254169  0.35062089  1
  O2-  O251  1  0.87509512  0.24853150  0.84725436  1
  O2-  O252  1  0.87565875  0.49860377  0.35123748  1
  O2-  O253  1  0.87506480  0.49720577  0.84619425  1
  O2-  O254  1  0.87491803  0.75214947  0.34608187  1
  O2-  O255  1  0.87454689  0.75061340  0.84866683  1
  O2-  O256  1  0.00418238  0.12522318  0.35023392  1
  O2-  O257  1  -0.00160042  0.12534968  0.84776030  1
  O2-  O258  1  -0.00084582  0.37432954  0.35162743  1
  O2-  O259  1  0.00063123  0.37356696  0.84902739  1
  O2-  O260  1  0.00062827  0.62582272  0.35277605  1
  O2-  O261  1  -0.00014246  0.62423624  0.84934447  1
  O2-  O262  1  0.00057835  0.87575333  0.34717272  1
  O2-  O263  1  0.00042717  0.87571962  0.85152344  1
  O2-  O264  1  0.24833414  0.12484432  0.34734172  1
  O2-  O265  1  0.25039790  0.12551765  0.85295020  1
  O2-  O266  1  0.25114373  0.37460518  0.34354126  1
  O2-  O267  1  0.24929305  0.37354142  0.85670853  1
  O2-  O268  1  0.25266188  0.62544690  0.34613748  1
  O2-  O269  1  0.24910811  0.62420851  0.85198062  1
  O2-  O270  1  0.25079406  0.87624604  0.34300406  1
  O2-  O271  1  0.24705474  0.87573740  0.85288047  1
  O2-  O272  1  0.49864545  0.12480737  0.34549283  1
  O2-  O273  1  0.49982242  0.12706463  0.85107281  1
  O2-  O274  1  0.49753891  0.37508371  0.33915519  1
  O2-  O275  1  0.50076822  0.37292277  0.85338774  1
  O2-  O276  1  0.49919361  0.62587796  0.33985015  1
  O2-  O277  1  0.50266420  0.62368611  0.84679924  1
  O2-  O278  1  0.49969975  0.87508884  0.34166527  1
  O2-  O279  1  0.50251633  0.87562678  0.84648525  1
  O2-  O280  1  0.74945020  0.12507332  0.34819362  1
  O2-  O281  1  0.75092833  0.12571744  0.84637489  1
  O2-  O282  1  0.75274040  0.37534951  0.34856936  1
  O2-  O283  1  0.74859052  0.37364794  0.84515153  1
  O2-  O284  1  0.74777641  0.62531418  0.34765089  1
  O2-  O285  1  0.74792789  0.62331712  0.84351871  1
  O2-  O286  1  0.74930249  0.87505331  0.34565226  1
  O2-  O287  1  0.74985103  0.87631513  0.84563876  1
