# generated using pymatgen
data_BaYFeCuO5
_symmetry_space_group_name_H-M   'P 1'
_cell_length_a   15.67260704
_cell_length_b   15.67803011
_cell_length_c   15.50300430
_cell_angle_alpha   90.00062734
_cell_angle_beta   90.00086617
_cell_angle_gamma   89.99237150
_symmetry_Int_Tables_number   1
_chemical_formula_structural   BaYFeCuO5
_chemical_formula_sum   'Ba32 Y32 Fe32 Cu32 O160'
_cell_volume   3809.33005046
_cell_formula_units_Z   32
loop_
 _symmetry_equiv_pos_site_id
 _symmetry_equiv_pos_as_xyz
  1  'x, y, z'
loop_
 _atom_type_symbol
 _atom_type_oxidation_number
  Ba2+  2.0
  Y3+  3.0
  Fe3+  3.0
  Cu2+  2.0
  O2-  -2.0
loop_
 _atom_site_type_symbol
 _atom_site_label
 _atom_site_symmetry_multiplicity
 _atom_site_fract_x
 _atom_site_fract_y
 _atom_site_fract_z
 _atom_site_occupancy
  Ba2+  Ba0  1  -0.00025385  -0.00024535  -0.00523828  1
  Ba2+  Ba1  1  0.00470284  0.00747461  0.50711293  1
  Ba2+  Ba2  1  0.00609822  0.24190784  0.00703338  1
  Ba2+  Ba3  1  -0.00157714  0.25107336  0.50670809  1
  Ba2+  Ba4  1  0.01115905  0.50231809  0.01206522  1
  Ba2+  Ba5  1  -0.00892838  0.49477807  0.51175691  1
  Ba2+  Ba6  1  0.00447553  0.75543333  0.00030239  1
  Ba2+  Ba7  1  -0.00362023  0.74667942  0.51156906  1
  Ba2+  Ba8  1  0.24765619  0.00102736  0.01408331  1
  Ba2+  Ba9  1  0.24379944  -0.00020779  0.50766997  1
  Ba2+  Ba10  1  0.24446758  0.24253983  0.01728194  1
  Ba2+  Ba11  1  0.24183051  0.25156911  0.50731740  1
  Ba2+  Ba12  1  0.24578561  0.50724871  0.01616002  1
  Ba2+  Ba13  1  0.25373578  0.49603332  0.51138341  1
  Ba2+  Ba14  1  0.24834771  0.75029849  0.01261980  1
  Ba2+  Ba15  1  0.25465433  0.75214363  0.51057019  1
  Ba2+  Ba16  1  0.49997566  -0.00120845  0.02710190  1
  Ba2+  Ba17  1  0.50375417  -0.00395626  0.51006142  1
  Ba2+  Ba18  1  0.50291733  0.24370906  0.01279320  1
  Ba2+  Ba19  1  0.50540454  0.25491599  0.51247076  1
  Ba2+  Ba20  1  0.50170298  0.50565164  0.01161287  1
  Ba2+  Ba21  1  0.50240930  0.50156674  0.51880821  1
  Ba2+  Ba22  1  0.49894024  0.75202011  0.02528708  1
  Ba2+  Ba23  1  0.50154484  0.74756343  0.51536531  1
  Ba2+  Ba24  1  0.75229142  -0.00290896  0.01259026  1
  Ba2+  Ba25  1  0.74582293  0.00475609  0.51337640  1
  Ba2+  Ba26  1  0.74720067  0.24303165  0.00176053  1
  Ba2+  Ba27  1  0.75341290  0.25456256  0.51249908  1
  Ba2+  Ba28  1  0.74208602  0.50099955  0.00618648  1
  Ba2+  Ba29  1  0.75392901  0.49888568  0.51789683  1
  Ba2+  Ba30  1  0.74763421  0.75809027  0.01733396  1
  Ba2+  Ba31  1  0.74743481  0.74230480  0.51731504  1
  Y3+  Y32  1  -0.00010428  0.00207003  0.25937701  1
  Y3+  Y33  1  0.00219086  0.00020418  0.75814380  1
  Y3+  Y34  1  0.00072866  0.24856788  0.26013877  1
  Y3+  Y35  1  0.00155102  0.24854960  0.75667950  1
  Y3+  Y36  1  -0.00101916  0.50065855  0.25836882  1
  Y3+  Y37  1  -0.00026079  0.49995724  0.75671202  1
  Y3+  Y38  1  -0.00214441  0.74912745  0.25695778  1
  Y3+  Y39  1  0.00067423  0.75069300  0.75844868  1
  Y3+  Y40  1  0.24969061  0.00152338  0.25996289  1
  Y3+  Y41  1  0.24517343  0.00037517  0.75602577  1
  Y3+  Y42  1  0.24713177  0.24842609  0.25768003  1
  Y3+  Y43  1  0.24668209  0.24793783  0.75631062  1
  Y3+  Y44  1  0.24820536  0.50051391  0.25458035  1
  Y3+  Y45  1  0.24869154  0.50091928  0.75790121  1
  Y3+  Y46  1  0.25082341  0.75007928  0.25637378  1
  Y3+  Y47  1  0.24746757  0.75028498  0.75721177  1
  Y3+  Y48  1  0.49822607  -0.00063175  0.25918522  1
  Y3+  Y49  1  0.50170164  -0.00049636  0.75170085  1
  Y3+  Y50  1  0.49845740  0.24965426  0.25710281  1
  Y3+  Y51  1  0.50259842  0.25109851  0.75768470  1
  Y3+  Y52  1  0.49899112  0.50078667  0.25496255  1
  Y3+  Y53  1  0.50177848  0.49947174  0.75811270  1
  Y3+  Y54  1  0.49855521  0.75091817  0.25717972  1
  Y3+  Y55  1  0.50069551  0.74920535  0.75255066  1
  Y3+  Y56  1  0.75091541  -0.00053983  0.25652667  1
  Y3+  Y57  1  0.75167896  -0.00094930  0.75846737  1
  Y3+  Y58  1  0.75285035  0.24980644  0.25906032  1
  Y3+  Y59  1  0.74969017  0.25133108  0.75740812  1
  Y3+  Y60  1  0.75307143  0.50088031  0.25816355  1
  Y3+  Y61  1  0.75088804  0.49889245  0.75641447  1
  Y3+  Y62  1  0.75171540  0.75045819  0.25620734  1
  Y3+  Y63  1  0.75195913  0.75006703  0.75666166  1
  Fe3+  Fe64  1  0.37512073  0.62660522  0.87610878  1
  Fe3+  Fe65  1  0.12440702  0.62486780  0.37976861  1
  Fe3+  Fe66  1  0.62567852  0.62427424  0.37435310  1
  Fe3+  Fe67  1  0.37575548  0.87577148  0.87589815  1
  Fe3+  Fe68  1  0.37495264  0.37402505  0.88109090  1
  Fe3+  Fe69  1  0.62318539  0.87481419  0.87491885  1
  Fe3+  Fe70  1  0.12456303  0.37640368  0.37542740  1
  Fe3+  Fe71  1  0.37540449  0.62411552  0.37569972  1
  Fe3+  Fe72  1  0.62519484  0.87383548  0.37663524  1
  Fe3+  Fe73  1  0.37504081  0.12623526  0.37997917  1
  Fe3+  Fe74  1  0.87562979  0.37447941  0.88093896  1
  Fe3+  Fe75  1  0.62508262  0.37659663  0.37548885  1
  Fe3+  Fe76  1  0.62550076  0.12590566  0.37636138  1
  Fe3+  Fe77  1  0.62401243  0.12246476  0.87480149  1
  Fe3+  Fe78  1  0.87537973  0.62540610  0.87993372  1
  Fe3+  Fe79  1  0.12473557  0.87400167  0.37938429  1
  Fe3+  Fe80  1  0.37536034  0.12314744  0.87579975  1
  Fe3+  Fe81  1  0.87411150  0.87543342  0.38124617  1
  Fe3+  Fe82  1  0.62456138  0.62711089  0.87568659  1
  Fe3+  Fe83  1  0.12645997  0.37467949  0.87727922  1
  Fe3+  Fe84  1  0.87545026  0.62554338  0.13363098  1
  Fe3+  Fe85  1  0.12485872  0.62418574  0.63466454  1
  Fe3+  Fe86  1  0.87570450  0.87534151  0.63541651  1
  Fe3+  Fe87  1  0.62600880  0.37410837  0.13618210  1
  Fe3+  Fe88  1  0.37377703  0.37445213  0.13419148  1
  Fe3+  Fe89  1  0.37435521  0.87511836  0.63543552  1
  Fe3+  Fe90  1  0.87519937  0.12550473  0.63960186  1
  Fe3+  Fe91  1  0.37431028  0.37443966  0.63874401  1
  Fe3+  Fe92  1  0.12326484  0.87611058  0.14045786  1
  Fe3+  Fe93  1  0.37519720  0.12579206  0.63325861  1
  Fe3+  Fe94  1  0.87630694  0.37445562  0.13353322  1
  Fe3+  Fe95  1  0.87587513  0.12459058  0.13869376  1
  Cu2+  Cu96  1  0.12471906  0.12543289  0.37341025  1
  Cu2+  Cu97  1  0.87413840  0.12464012  0.36661908  1
  Cu2+  Cu98  1  0.87421813  0.87461913  0.87309527  1
  Cu2+  Cu99  1  0.87492415  0.12505921  0.86254352  1
  Cu2+  Cu100  1  0.87457888  0.37525273  0.37167489  1
  Cu2+  Cu101  1  0.37491571  0.87485807  0.36703845  1
  Cu2+  Cu102  1  0.37498450  0.37546528  0.36172241  1
  Cu2+  Cu103  1  0.12622888  0.12478590  0.87223775  1
  Cu2+  Cu104  1  0.12555740  0.62493930  0.87173661  1
  Cu2+  Cu105  1  0.62457139  0.37494895  0.86709357  1
  Cu2+  Cu106  1  0.87438005  0.62528902  0.37350887  1
  Cu2+  Cu107  1  0.12631221  0.87510684  0.86148446  1
  Cu2+  Cu108  1  0.12420802  0.87428620  0.64660403  1
  Cu2+  Cu109  1  0.62573884  0.62399776  0.65328590  1
  Cu2+  Cu110  1  0.87596666  0.62444035  0.64422235  1
  Cu2+  Cu111  1  0.62584875  0.62496522  0.15109070  1
  Cu2+  Cu112  1  0.87701031  0.87605960  0.14228126  1
  Cu2+  Cu113  1  0.37442295  0.12532792  0.15409423  1
  Cu2+  Cu114  1  0.12378972  0.62719686  0.14406706  1
  Cu2+  Cu115  1  0.12461065  0.12520950  0.64145377  1
  Cu2+  Cu116  1  0.37433852  0.62426238  0.65101831  1
  Cu2+  Cu117  1  0.62639583  0.87442649  0.64763076  1
  Cu2+  Cu118  1  0.12396123  0.37458721  0.15041229  1
  Cu2+  Cu119  1  0.62498036  0.87570559  0.15533579  1
  Cu2+  Cu120  1  0.37352615  0.87579453  0.15433385  1
  Cu2+  Cu121  1  0.62548855  0.12561288  0.64992566  1
  Cu2+  Cu122  1  0.62583360  0.12535181  0.15467161  1
  Cu2+  Cu123  1  0.12361806  0.12344158  0.14579738  1
  Cu2+  Cu124  1  0.12474304  0.37522243  0.65114146  1
  Cu2+  Cu125  1  0.87583602  0.37392507  0.64595906  1
  Cu2+  Cu126  1  0.37457368  0.62503155  0.15078639  1
  Cu2+  Cu127  1  0.62546194  0.37516584  0.65406569  1
  O2-  O128  1  0.12554953  0.12265191  0.00729921  1
  O2-  O129  1  0.12519494  0.12640811  0.50770603  1
  O2-  O130  1  0.12815156  0.37444312  -0.00264861  1
  O2-  O131  1  0.12444206  0.37769617  0.49580825  1
  O2-  O132  1  0.12572336  0.62695171  0.00645623  1
  O2-  O133  1  0.12487606  0.62368068  0.50613723  1
  O2-  O134  1  0.12467097  0.87657369  0.01945711  1
  O2-  O135  1  0.12535741  0.87259484  0.49970282  1
  O2-  O136  1  0.37652191  0.12192505  -0.00436151  1
  O2-  O137  1  0.37554333  0.12780219  0.50657497  1
  O2-  O138  1  0.37444777  0.37368303  0.00695464  1
  O2-  O139  1  0.37612219  0.37526383  0.51844091  1
  O2-  O140  1  0.37569722  0.62795084  -0.00389241  1
  O2-  O141  1  0.37646315  0.62257028  0.49577298  1
  O2-  O142  1  0.37705254  0.87632940  -0.00450624  1
  O2-  O143  1  0.37525380  0.87419176  0.51490104  1
  O2-  O144  1  0.62250918  0.12126622  -0.00519910  1
  O2-  O145  1  0.62464122  0.12691845  0.49633079  1
  O2-  O146  1  0.62480358  0.37315650  0.01579054  1
  O2-  O147  1  0.62524299  0.37740942  0.49567388  1
  O2-  O148  1  0.62297334  0.62839413  -0.00428995  1
  O2-  O149  1  0.62501025  0.62270649  0.49450930  1
  O2-  O150  1  0.62178113  0.87573007  -0.00537924  1
  O2-  O151  1  0.62629206  0.87313922  0.49664398  1
  O2-  O152  1  0.87544193  0.12410354  0.01846859  1
  O2-  O153  1  0.87405158  0.12599031  0.51905715  1
  O2-  O154  1  0.87498492  0.37440081  0.00762329  1
  O2-  O155  1  0.87423156  0.37435684  0.50775138  1
  O2-  O156  1  0.87524672  0.62572023  0.00667070  1
  O2-  O157  1  0.87422541  0.62479701  0.50771066  1
  O2-  O158  1  0.87504057  0.87510381  0.00716067  1
  O2-  O159  1  0.87326324  0.87521119  0.50799620  1
  O2-  O160  1  0.12538643  -0.00131294  0.17234382  1
  O2-  O161  1  0.12431796  -0.00127215  0.66367682  1
  O2-  O162  1  0.12466840  0.25027119  0.16533652  1
  O2-  O163  1  0.12562632  0.25146454  0.66478771  1
  O2-  O164  1  0.12468629  0.49989073  0.16237311  1
  O2-  O165  1  0.12517384  0.50117280  0.66332428  1
  O2-  O166  1  0.12474410  0.75208615  0.16910961  1
  O2-  O167  1  0.12526898  0.74776189  0.66253235  1
  O2-  O168  1  0.37455624  0.00114363  0.16882172  1
  O2-  O169  1  0.37684433  0.00158642  0.65908589  1
  O2-  O170  1  0.37450108  0.25135933  0.16332911  1
  O2-  O171  1  0.37546471  0.24893283  0.66760865  1
  O2-  O172  1  0.37444936  0.49829637  0.15908778  1
  O2-  O173  1  0.37505816  0.49930279  0.66904817  1
  O2-  O174  1  0.37459665  0.74998690  0.16409704  1
  O2-  O175  1  0.37463514  0.74954347  0.66170551  1
  O2-  O176  1  0.62501747  0.00057536  0.16731401  1
  O2-  O177  1  0.62483021  0.00008388  0.65940703  1
  O2-  O178  1  0.62453263  0.25087058  0.16553536  1
  O2-  O179  1  0.62546924  0.25064057  0.66584879  1
  O2-  O180  1  0.62503012  0.49881894  0.16151142  1
  O2-  O181  1  0.62520953  0.49988507  0.66698951  1
  O2-  O182  1  0.62533707  0.75025518  0.16416147  1
  O2-  O183  1  0.62626933  0.74862518  0.66084309  1
  O2-  O184  1  0.87450297  0.00194258  0.17110420  1
  O2-  O185  1  0.87505790  -0.00117256  0.66471556  1
  O2-  O186  1  0.87566612  0.25151088  0.16632226  1
  O2-  O187  1  0.87441593  0.24851726  0.66998952  1
  O2-  O188  1  0.87508432  0.49978163  0.16082596  1
  O2-  O189  1  0.87573851  0.49937733  0.66824674  1
  O2-  O190  1  0.87438166  0.74739582  0.16478104  1
  O2-  O191  1  0.87507953  0.75238874  0.66300126  1
  O2-  O192  1  -0.00156572  0.12544362  0.17040198  1
  O2-  O193  1  -0.00124005  0.12506040  0.66794110  1
  O2-  O194  1  -0.00173476  0.37582506  0.16310561  1
  O2-  O195  1  0.00184708  0.37496809  0.66848755  1
  O2-  O196  1  -0.00342673  0.62485529  0.16664705  1
  O2-  O197  1  0.00319979  0.62480367  0.66616691  1
  O2-  O198  1  0.00120277  0.87490898  0.17265901  1
  O2-  O199  1  -0.00190852  0.87403997  0.66481101  1
  O2-  O200  1  0.25021172  0.12504725  0.16706592  1
  O2-  O201  1  0.25285751  0.12479186  0.66164401  1
  O2-  O202  1  0.25084089  0.37485315  0.16278864  1
  O2-  O203  1  0.25021593  0.37519574  0.66499488  1
  O2-  O204  1  0.25063468  0.62536344  0.16644509  1
  O2-  O205  1  0.24790933  0.62389061  0.66132081  1
  O2-  O206  1  0.24934028  0.87550873  0.16736625  1
  O2-  O207  1  0.25084201  0.87527401  0.66501168  1
  O2-  O208  1  0.50042209  0.12550700  0.16537635  1
  O2-  O209  1  0.49923562  0.12643565  0.65890444  1
  O2-  O210  1  0.49846902  0.37462994  0.16269576  1
  O2-  O211  1  0.49981496  0.37503654  0.66643933  1
  O2-  O212  1  0.50020971  0.62473286  0.16225866  1
  O2-  O213  1  0.50045667  0.62399592  0.66121220  1
  O2-  O214  1  0.49913296  0.87583926  0.16505759  1
  O2-  O215  1  0.50012950  0.87386072  0.66051964  1
  O2-  O216  1  0.75064405  0.12596396  0.16555631  1
  O2-  O217  1  0.75015852  0.12462457  0.66736643  1
  O2-  O218  1  0.75208136  0.37505281  0.16364344  1
  O2-  O219  1  0.74882709  0.37524548  0.66791072  1
  O2-  O220  1  0.75198799  0.62452280  0.16048181  1
  O2-  O221  1  0.74955896  0.62391408  0.66726614  1
  O2-  O222  1  0.74895889  0.87543028  0.16338984  1
  O2-  O223  1  0.75196193  0.87502917  0.66352861  1
  O2-  O224  1  0.12482961  -0.00162787  0.35310140  1
  O2-  O225  1  0.12552121  -0.00186945  0.84761859  1
  O2-  O226  1  0.12532007  0.25168330  0.34834530  1
  O2-  O227  1  0.12513949  0.25192470  0.84671690  1
  O2-  O228  1  0.12507745  0.50196922  0.34509743  1
  O2-  O229  1  0.12548484  0.49740857  0.84574673  1
  O2-  O230  1  0.12482500  0.74877638  0.35003786  1
  O2-  O231  1  0.12470506  0.75192038  0.84697937  1
  O2-  O232  1  0.37566294  0.00232935  0.35351582  1
  O2-  O233  1  0.37478467  -0.00059910  0.83940903  1
  O2-  O234  1  0.37516123  0.24908965  0.34829318  1
  O2-  O235  1  0.37632364  0.25044071  0.84990529  1
  O2-  O236  1  0.37422528  0.50090871  0.34210812  1
  O2-  O237  1  0.37515015  0.49889860  0.85189868  1
  O2-  O238  1  0.37458845  0.74844070  0.34728765  1
  O2-  O239  1  0.37500734  0.75093458  0.84236763  1
  O2-  O240  1  0.62421598  -0.00008547  0.34940472  1
  O2-  O241  1  0.62487076  -0.00073772  0.84055692  1
  O2-  O242  1  0.62446112  0.25064213  0.34561982  1
  O2-  O243  1  0.62445866  0.24876101  0.84951050  1
  O2-  O244  1  0.62472482  0.50035321  0.34106859  1
  O2-  O245  1  0.62522647  0.50122862  0.85057744  1
  O2-  O246  1  0.62476905  0.74982480  0.34546858  1
  O2-  O247  1  0.62487621  0.74995719  0.84157835  1
  O2-  O248  1  0.87427024  -0.00165301  0.35388233  1
  O2-  O249  1  0.87503130  0.00128856  0.84743813  1
  O2-  O250  1  0.87462639  0.24828951  0.34932415  1
  O2-  O251  1  0.87494887  0.25138762  0.85323190  1
  O2-  O252  1  0.87521062  0.50044665  0.34504279  1
  O2-  O253  1  0.87456209  0.49975389  0.85238761  1
  O2-  O254  1  0.87477437  0.75375238  0.34912793  1
  O2-  O255  1  0.87576523  0.74692175  0.84702460  1
  O2-  O256  1  -0.00164525  0.12505402  0.35239913  1
  O2-  O257  1  -0.00090591  0.12450543  0.85060937  1
  O2-  O258  1  0.00143102  0.37567765  0.34607539  1
  O2-  O259  1  -0.00108173  0.37544436  0.85114845  1
  O2-  O260  1  0.00286017  0.62541866  0.35032934  1
  O2-  O261  1  -0.00259905  0.62451142  0.85042156  1
  O2-  O262  1  -0.00135433  0.87483214  0.35330692  1
  O2-  O263  1  0.00256880  0.87491009  0.84945339  1
  O2-  O264  1  0.25270306  0.12560690  0.35095914  1
  O2-  O265  1  0.25232139  0.12517640  0.84384124  1
  O2-  O266  1  0.24935760  0.37574234  0.34666505  1
  O2-  O267  1  0.25224656  0.37430177  0.84601349  1
  O2-  O268  1  0.24844968  0.62482033  0.34938331  1
  O2-  O269  1  0.25234248  0.62514957  0.84385053  1
  O2-  O270  1  0.24928226  0.87475006  0.34977664  1
  O2-  O271  1  0.25023352  0.87465056  0.84704154  1
  O2-  O272  1  0.49902906  0.12588298  0.34847121  1
  O2-  O273  1  0.49993069  0.12451822  0.83986547  1
  O2-  O274  1  0.50057416  0.37537270  0.34476093  1
  O2-  O275  1  0.49781414  0.37516223  0.84956238  1
  O2-  O276  1  0.50021251  0.62460724  0.34360251  1
  O2-  O277  1  0.49978118  0.62471862  0.84275325  1
  O2-  O278  1  0.50056890  0.87486847  0.34805327  1
  O2-  O279  1  0.49991261  0.87501983  0.83912436  1
  O2-  O280  1  0.74900798  0.12482260  0.34713315  1
  O2-  O281  1  0.74913339  0.12496089  0.84937958  1
  O2-  O282  1  0.74807184  0.37529884  0.34476087  1
  O2-  O283  1  0.75208210  0.37486978  0.85253994  1
  O2-  O284  1  0.74810688  0.62547964  0.34292296  1
  O2-  O285  1  0.75105261  0.62484734  0.84993314  1
  O2-  O286  1  0.75051909  0.87522866  0.34627859  1
  O2-  O287  1  0.74733450  0.87442767  0.84618917  1
