# generated using pymatgen
data_BaYFeCuO5
_symmetry_space_group_name_H-M   'P 1'
_cell_length_a   15.67105549
_cell_length_b   15.67309626
_cell_length_c   15.49218278
_cell_angle_alpha   89.99853068
_cell_angle_beta   90.00530784
_cell_angle_gamma   90.00356314
_symmetry_Int_Tables_number   1
_chemical_formula_structural   BaYFeCuO5
_chemical_formula_sum   'Ba32 Y32 Fe32 Cu32 O160'
_cell_volume   3805.09635438
_cell_formula_units_Z   32
loop_
 _symmetry_equiv_pos_site_id
 _symmetry_equiv_pos_as_xyz
  1  'x, y, z'
loop_
 _atom_type_symbol
 _atom_type_oxidation_number
  Ba2+  2.0
  Y3+  3.0
  Fe3+  3.0
  Cu2+  2.0
  O2-  -2.0
loop_
 _atom_site_type_symbol
 _atom_site_label
 _atom_site_symmetry_multiplicity
 _atom_site_fract_x
 _atom_site_fract_y
 _atom_site_fract_z
 _atom_site_occupancy
  Ba2+  Ba0  1  0.00050776  0.00326085  0.01662548  1
  Ba2+  Ba1  1  0.00245250  -0.00355258  0.50144819  1
  Ba2+  Ba2  1  0.00050250  0.23686251  0.00661745  1
  Ba2+  Ba3  1  0.00524623  0.25763876  0.50700903  1
  Ba2+  Ba4  1  -0.00466146  0.50490886  0.01087155  1
  Ba2+  Ba5  1  0.00058045  0.49758084  0.51393765  1
  Ba2+  Ba6  1  -0.00335005  0.75687247  0.02157537  1
  Ba2+  Ba7  1  -0.00196915  0.74819912  0.50669523  1
  Ba2+  Ba8  1  0.24800230  0.00177587  0.02171195  1
  Ba2+  Ba9  1  0.24177173  0.00081444  0.50729572  1
  Ba2+  Ba10  1  0.25521236  0.24480624  0.01249480  1
  Ba2+  Ba11  1  0.24326650  0.25719933  0.50703253  1
  Ba2+  Ba12  1  0.26161506  0.49786196  0.01037811  1
  Ba2+  Ba13  1  0.24764857  0.49685828  0.51295136  1
  Ba2+  Ba14  1  0.25489966  0.75576946  0.02199254  1
  Ba2+  Ba15  1  0.24580614  0.74465113  0.51095110  1
  Ba2+  Ba16  1  0.49532009  0.00369110  0.01358376  1
  Ba2+  Ba17  1  0.51014318  -0.00159048  0.50340735  1
  Ba2+  Ba18  1  0.49721610  0.25325386  0.01151234  1
  Ba2+  Ba19  1  0.50611289  0.25710101  0.50698300  1
  Ba2+  Ba20  1  0.49832253  0.49851356  0.02097575  1
  Ba2+  Ba21  1  0.50445591  0.49989186  0.51566600  1
  Ba2+  Ba22  1  0.49634633  0.74530095  0.02336722  1
  Ba2+  Ba23  1  0.50836186  0.74501340  0.51035181  1
  Ba2+  Ba24  1  0.75625971  0.00520005  0.00703441  1
  Ba2+  Ba25  1  0.74584724  -0.00618731  0.49722312  1
  Ba2+  Ba26  1  0.74707005  0.24300681  0.00496749  1
  Ba2+  Ba27  1  0.74520988  0.25767016  0.50693866  1
  Ba2+  Ba28  1  0.74351416  0.50429551  0.02129425  1
  Ba2+  Ba29  1  0.74672680  0.50042963  0.51615154  1
  Ba2+  Ba30  1  0.75356575  0.74637701  0.02342531  1
  Ba2+  Ba31  1  0.74604541  0.74756452  0.50666209  1
  Y3+  Y32  1  -0.00078689  0.00126561  0.25510251  1
  Y3+  Y33  1  0.00004498  0.00204665  0.76064085  1
  Y3+  Y34  1  0.00191515  0.24766257  0.25685343  1
  Y3+  Y35  1  0.00052992  0.24924378  0.76028274  1
  Y3+  Y36  1  0.00145330  0.49942168  0.25741824  1
  Y3+  Y37  1  -0.00084735  0.49804310  0.75658512  1
  Y3+  Y38  1  -0.00171972  0.75125016  0.25751800  1
  Y3+  Y39  1  -0.00042590  0.75057616  0.75520261  1
  Y3+  Y40  1  0.24881871  0.00204548  0.25671906  1
  Y3+  Y41  1  0.24812880  0.00080614  0.75677616  1
  Y3+  Y42  1  0.24885454  0.24990215  0.25697664  1
  Y3+  Y43  1  0.25018872  0.25274778  0.75913895  1
  Y3+  Y44  1  0.25071919  0.49787097  0.25695938  1
  Y3+  Y45  1  0.25313671  0.49744413  0.75623342  1
  Y3+  Y46  1  0.25052769  0.75012229  0.25761056  1
  Y3+  Y47  1  0.25057466  0.74964192  0.75378837  1
  Y3+  Y48  1  0.50134261  0.00009162  0.26060453  1
  Y3+  Y49  1  0.50243075  -0.00052499  0.75555906  1
  Y3+  Y50  1  0.50085038  0.25261850  0.25775505  1
  Y3+  Y51  1  0.49964089  0.25313576  0.75735915  1
  Y3+  Y52  1  0.50174165  0.49891425  0.25789310  1
  Y3+  Y53  1  0.49923789  0.49884035  0.75369603  1
  Y3+  Y54  1  0.50171023  0.74836273  0.26098361  1
  Y3+  Y55  1  0.50228957  0.74864488  0.75054593  1
  Y3+  Y56  1  0.75089043  -0.00058014  0.25867185  1
  Y3+  Y57  1  0.74962963  0.00094248  0.75891318  1
  Y3+  Y58  1  0.74806536  0.25024382  0.25786311  1
  Y3+  Y59  1  0.75000880  0.25007002  0.75846050  1
  Y3+  Y60  1  0.74593007  0.50039688  0.25885002  1
  Y3+  Y61  1  0.74851701  0.49972665  0.75301717  1
  Y3+  Y62  1  0.74936685  0.74979430  0.26140598  1
  Y3+  Y63  1  0.74811504  0.74901013  0.75180036  1
  Fe3+  Fe64  1  0.62429705  0.37656543  0.87784651  1
  Fe3+  Fe65  1  0.12485449  0.87410912  0.37476561  1
  Fe3+  Fe66  1  0.87493566  0.12569113  0.38019056  1
  Fe3+  Fe67  1  0.37632115  0.62616707  0.87459207  1
  Fe3+  Fe68  1  0.37459734  0.62375633  0.37770254  1
  Fe3+  Fe69  1  0.12573185  0.87461313  0.87778708  1
  Fe3+  Fe70  1  0.37499274  0.87465757  0.37948186  1
  Fe3+  Fe71  1  0.87500106  0.37572108  0.37511774  1
  Fe3+  Fe72  1  0.87429266  0.87388598  0.87723841  1
  Fe3+  Fe73  1  0.37495628  0.12579094  0.38046737  1
  Fe3+  Fe74  1  0.37527063  0.12438894  0.87430201  1
  Fe3+  Fe75  1  0.37581618  0.87421499  0.87453389  1
  Fe3+  Fe76  1  0.12570332  0.37528810  0.88144850  1
  Fe3+  Fe77  1  0.62455480  0.87388356  0.88118979  1
  Fe3+  Fe78  1  0.87521172  0.62377800  0.37596253  1
  Fe3+  Fe79  1  0.37499085  0.37540091  0.37710737  1
  Fe3+  Fe80  1  0.87384347  0.37544151  0.88021435  1
  Fe3+  Fe81  1  0.12588254  0.62615010  0.88077903  1
  Fe3+  Fe82  1  0.62443065  0.62576656  0.87626699  1
  Fe3+  Fe83  1  0.87377320  0.62611562  0.87597050  1
  Fe3+  Fe84  1  0.12494048  0.37413881  0.13362702  1
  Fe3+  Fe85  1  0.87502780  0.12573408  0.63397930  1
  Fe3+  Fe86  1  0.62606891  0.12544594  0.63773267  1
  Fe3+  Fe87  1  0.87431663  0.37378782  0.13401794  1
  Fe3+  Fe88  1  0.37511274  0.12598385  0.63263216  1
  Fe3+  Fe89  1  0.87504414  0.87614330  0.63574068  1
  Fe3+  Fe90  1  0.62474426  0.12510600  0.14006659  1
  Fe3+  Fe91  1  0.12429272  0.62422387  0.63922235  1
  Fe3+  Fe92  1  0.12581885  0.62513519  0.13483646  1
  Fe3+  Fe93  1  0.37495780  0.87566058  0.63162461  1
  Fe3+  Fe94  1  0.12405020  0.12574666  0.63821358  1
  Fe3+  Fe95  1  0.62510737  0.87551799  0.13649866  1
  Cu2+  Cu96  1  0.87509662  0.12454250  0.87214781  1
  Cu2+  Cu97  1  0.62471926  0.62360963  0.37147938  1
  Cu2+  Cu98  1  0.62514180  0.12590757  0.36552429  1
  Cu2+  Cu99  1  0.62484500  0.87382309  0.37105326  1
  Cu2+  Cu100  1  0.12473772  0.12504865  0.36353124  1
  Cu2+  Cu101  1  0.12669712  0.12408503  0.87324707  1
  Cu2+  Cu102  1  0.62369355  0.12466179  0.86389551  1
  Cu2+  Cu103  1  0.62506917  0.37591277  0.37114716  1
  Cu2+  Cu104  1  0.87529443  0.87484348  0.36450331  1
  Cu2+  Cu105  1  0.37618090  0.37577457  0.87264851  1
  Cu2+  Cu106  1  0.12469452  0.37585563  0.37013220  1
  Cu2+  Cu107  1  0.12507568  0.62444930  0.36021196  1
  Cu2+  Cu108  1  0.87360688  0.87569881  0.15370310  1
  Cu2+  Cu109  1  0.87547388  0.62449106  0.64887573  1
  Cu2+  Cu110  1  0.37628748  0.12514186  0.15716805  1
  Cu2+  Cu111  1  0.62528361  0.37391926  0.64446299  1
  Cu2+  Cu112  1  0.87527141  0.37351114  0.65189545  1
  Cu2+  Cu113  1  0.12470267  0.37457864  0.64755190  1
  Cu2+  Cu114  1  0.37495328  0.37402627  0.14298588  1
  Cu2+  Cu115  1  0.37485536  0.37374867  0.64678467  1
  Cu2+  Cu116  1  0.12516262  0.12543631  0.14350357  1
  Cu2+  Cu117  1  0.37457398  0.62473531  0.15525575  1
  Cu2+  Cu118  1  0.87552300  0.62397540  0.15383808  1
  Cu2+  Cu119  1  0.12408753  0.87563945  0.65030153  1
  Cu2+  Cu120  1  0.12486331  0.87520698  0.15306735  1
  Cu2+  Cu121  1  0.62527162  0.37454759  0.14895812  1
  Cu2+  Cu122  1  0.37637466  0.87581468  0.15678026  1
  Cu2+  Cu123  1  0.87373515  0.12600165  0.14617819  1
  Cu2+  Cu124  1  0.62447881  0.62551666  0.15450881  1
  Cu2+  Cu125  1  0.37461298  0.62448876  0.64489223  1
  Cu2+  Cu126  1  0.62550047  0.62426156  0.64131905  1
  Cu2+  Cu127  1  0.62623779  0.87627050  0.64165985  1
  O2-  O128  1  0.12725992  0.12322781  0.00846794  1
  O2-  O129  1  0.12263643  0.12585442  0.51766930  1
  O2-  O130  1  0.12554035  0.37481437  0.00756082  1
  O2-  O131  1  0.12410407  0.37654935  0.50632824  1
  O2-  O132  1  0.12628670  0.62740171  0.00656802  1
  O2-  O133  1  0.12349960  0.62366889  0.51846898  1
  O2-  O134  1  0.12689888  0.87418327  -0.00214063  1
  O2-  O135  1  0.12465224  0.87312149  0.49548957  1
  O2-  O136  1  0.37536701  0.12237287  -0.00511543  1
  O2-  O137  1  0.37424953  0.12620227  0.50663003  1
  O2-  O138  1  0.37606768  0.37475869  0.00732972  1
  O2-  O139  1  0.37413805  0.37505534  0.49752625  1
  O2-  O140  1  0.37564827  0.62822054  -0.00515493  1
  O2-  O141  1  0.37297153  0.62340128  0.49774715  1
  O2-  O142  1  0.37600374  0.87442203  -0.00589822  1
  O2-  O143  1  0.37447994  0.87506886  0.50492508  1
  O2-  O144  1  0.62315258  0.12325148  0.01967494  1
  O2-  O145  1  0.62778273  0.12538732  0.51740370  1
  O2-  O146  1  0.62417118  0.37707241  -0.00167469  1
  O2-  O147  1  0.62562867  0.37563066  0.50677578  1
  O2-  O148  1  0.62407849  0.62701271  -0.00368250  1
  O2-  O149  1  0.62619670  0.62379198  0.50634308  1
  O2-  O150  1  0.62389523  0.87366959  0.00780618  1
  O2-  O151  1  0.62532219  0.87476966  0.50697741  1
  O2-  O152  1  0.87409218  0.12438275  0.00770777  1
  O2-  O153  1  0.87540666  0.12573806  0.50804828  1
  O2-  O154  1  0.87347532  0.37453676  0.00644388  1
  O2-  O155  1  0.87584039  0.37628712  0.49522912  1
  O2-  O156  1  0.87405918  0.62722427  -0.00401636  1
  O2-  O157  1  0.87668552  0.62262246  0.49607116  1
  O2-  O158  1  0.87406626  0.87350070  -0.00248059  1
  O2-  O159  1  0.87584616  0.87618808  0.51543544  1
  O2-  O160  1  0.12517288  -0.00123251  0.16705558  1
  O2-  O161  1  0.12451717  0.00111306  0.66480411  1
  O2-  O162  1  0.12458683  0.25270890  0.16511981  1
  O2-  O163  1  0.12491760  0.24830054  0.66966221  1
  O2-  O164  1  0.12478042  0.49999264  0.15884691  1
  O2-  O165  1  0.12469330  0.50079992  0.67086920  1
  O2-  O166  1  0.12533393  0.74904246  0.16259226  1
  O2-  O167  1  0.12471138  0.75001778  0.66471691  1
  O2-  O168  1  0.37568290  0.00026901  0.16922797  1
  O2-  O169  1  0.37435788  0.00052479  0.65915805  1
  O2-  O170  1  0.37534250  0.24878996  0.16683950  1
  O2-  O171  1  0.37460869  0.24772045  0.66446132  1
  O2-  O172  1  0.37441711  0.50098692  0.16284168  1
  O2-  O173  1  0.37431088  0.49882224  0.66358101  1
  O2-  O174  1  0.37505844  0.75027986  0.16612937  1
  O2-  O175  1  0.37411443  0.75228537  0.65823925  1
  O2-  O176  1  0.62462300  -0.00149759  0.16792417  1
  O2-  O177  1  0.62565759  0.00268797  0.66943176  1
  O2-  O178  1  0.62471726  0.24960377  0.16703994  1
  O2-  O179  1  0.62520254  0.24795724  0.66877260  1
  O2-  O180  1  0.62464647  0.50064798  0.16263212  1
  O2-  O181  1  0.62526684  0.49894970  0.66390872  1
  O2-  O182  1  0.62460682  0.75164194  0.16479543  1
  O2-  O183  1  0.62564908  0.75003363  0.66213352  1
  O2-  O184  1  0.87404461  -0.00041538  0.16861247  1
  O2-  O185  1  0.87558414  0.00252774  0.66502053  1
  O2-  O186  1  0.87506049  0.25346600  0.16637432  1
  O2-  O187  1  0.87555736  0.24792808  0.66562707  1
  O2-  O188  1  0.87622535  0.49781285  0.15886313  1
  O2-  O189  1  0.87605344  0.49882933  0.66509976  1
  O2-  O190  1  0.87481423  0.74955871  0.16495492  1
  O2-  O191  1  0.87584035  0.75039974  0.66163680  1
  O2-  O192  1  -0.00098837  0.12491341  0.16612424  1
  O2-  O193  1  -0.00139071  0.12580605  0.66783311  1
  O2-  O194  1  0.00032473  0.37549223  0.15996721  1
  O2-  O195  1  -0.00078290  0.37427923  0.66945219  1
  O2-  O196  1  0.00227806  0.62505653  0.16139555  1
  O2-  O197  1  0.00040697  0.62426254  0.66914976  1
  O2-  O198  1  -0.00117658  0.87536701  0.16331333  1
  O2-  O199  1  -0.00093527  0.87558114  0.66697690  1
  O2-  O200  1  0.25226735  0.12484075  0.16674006  1
  O2-  O201  1  0.25082899  0.12454116  0.66243217  1
  O2-  O202  1  0.24681405  0.37484976  0.16324041  1
  O2-  O203  1  0.25055169  0.37458920  0.66609035  1
  O2-  O204  1  0.24835990  0.62556743  0.16296710  1
  O2-  O205  1  0.24927524  0.62479052  0.66621703  1
  O2-  O206  1  0.25122917  0.87559586  0.16497223  1
  O2-  O207  1  0.25097214  0.87559902  0.65962158  1
  O2-  O208  1  0.50077586  0.12410739  0.16983573  1
  O2-  O209  1  0.49881556  0.12436295  0.66183232  1
  O2-  O210  1  0.50135269  0.37478774  0.16540712  1
  O2-  O211  1  0.49897764  0.37405860  0.66309993  1
  O2-  O212  1  0.49916238  0.62570112  0.16505832  1
  O2-  O213  1  0.49863772  0.62504819  0.66149331  1
  O2-  O214  1  0.50211525  0.87545012  0.16503878  1
  O2-  O215  1  0.49713551  0.87595847  0.66239548  1
  O2-  O216  1  0.74795836  0.12511582  0.16893337  1
  O2-  O217  1  0.75207469  0.12584459  0.66778669  1
  O2-  O218  1  0.75125108  0.37561910  0.16258781  1
  O2-  O219  1  0.75143704  0.37373335  0.66607876  1
  O2-  O220  1  0.75034478  0.62476660  0.16397771  1
  O2-  O221  1  0.75192555  0.62428872  0.66350215  1
  O2-  O222  1  0.74774782  0.87493500  0.16404575  1
  O2-  O223  1  0.75284927  0.87610635  0.66920038  1
  O2-  O224  1  0.12515910  -0.00051969  0.35020751  1
  O2-  O225  1  0.12559193  -0.00252346  0.84588749  1
  O2-  O226  1  0.12480651  0.24828780  0.34854985  1
  O2-  O227  1  0.12482486  0.25309234  0.85234505  1
  O2-  O228  1  0.12507005  0.50137100  0.34227219  1
  O2-  O229  1  0.12453124  0.50082446  0.85476836  1
  O2-  O230  1  0.12534431  0.75037580  0.34580988  1
  O2-  O231  1  0.12533550  0.74867776  0.84563818  1
  O2-  O232  1  0.37489109  0.00037492  0.35404566  1
  O2-  O233  1  0.37575696  -0.00151986  0.84058247  1
  O2-  O234  1  0.37468808  0.24878851  0.34975980  1
  O2-  O235  1  0.37528403  0.24880819  0.84759629  1
  O2-  O236  1  0.37418619  0.49972411  0.34439568  1
  O2-  O237  1  0.37482253  0.50272013  0.84656786  1
  O2-  O238  1  0.37398856  0.75085868  0.34969756  1
  O2-  O239  1  0.37554064  0.75036037  0.83890059  1
  O2-  O240  1  0.62478399  0.00078088  0.35093804  1
  O2-  O241  1  0.62430138  -0.00206868  0.85219861  1
  O2-  O242  1  0.62515858  0.24941060  0.35001283  1
  O2-  O243  1  0.62526746  0.25055517  0.85094519  1
  O2-  O244  1  0.62460556  0.49961906  0.34608468  1
  O2-  O245  1  0.62546485  0.50095885  0.84467235  1
  O2-  O246  1  0.62486490  0.74956642  0.34884624  1
  O2-  O247  1  0.62492090  0.75123283  0.84398596  1
  O2-  O248  1  0.87488415  0.00177976  0.35315472  1
  O2-  O249  1  0.87436540  -0.00295766  0.84631353  1
  O2-  O250  1  0.87516141  0.24861354  0.34898681  1
  O2-  O251  1  0.87496849  0.25340010  0.85039580  1
  O2-  O252  1  0.87581676  0.49996802  0.34108587  1
  O2-  O253  1  0.87545631  0.49944563  0.84899180  1
  O2-  O254  1  0.87572045  0.74921263  0.34866676  1
  O2-  O255  1  0.87467159  0.75017112  0.84163432  1
  O2-  O256  1  -0.00174714  0.12482003  0.35039492  1
  O2-  O257  1  0.00041971  0.12496954  0.85003603  1
  O2-  O258  1  -0.00186806  0.37451320  0.34300062  1
  O2-  O259  1  -0.00021990  0.37610325  0.85368796  1
  O2-  O260  1  -0.00000869  0.62496261  0.34475900  1
  O2-  O261  1  0.00106466  0.62481550  0.85064231  1
  O2-  O262  1  0.00079544  0.87512660  0.34680801  1
  O2-  O263  1  0.00021184  0.87391373  0.84756220  1
  O2-  O264  1  0.25153295  0.12466561  0.35131661  1
  O2-  O265  1  0.25229260  0.12459685  0.84330420  1
  O2-  O266  1  0.25181876  0.37445274  0.34578081  1
  O2-  O267  1  0.24753344  0.37610968  0.84994977  1
  O2-  O268  1  0.25027552  0.62504612  0.34586734  1
  O2-  O269  1  0.24894833  0.62559786  0.84765783  1
  O2-  O270  1  0.25144929  0.87542343  0.34813455  1
  O2-  O271  1  0.25046374  0.87405369  0.84184228  1
  O2-  O272  1  0.49838794  0.12452063  0.35323295  1
  O2-  O273  1  0.49908125  0.12412636  0.84359115  1
  O2-  O274  1  0.49789801  0.37444382  0.34773799  1
  O2-  O275  1  0.50215747  0.37541414  0.84517299  1
  O2-  O276  1  0.49781764  0.62525979  0.34792381  1
  O2-  O277  1  0.50069762  0.62606823  0.84206942  1
  O2-  O278  1  0.49644113  0.87514259  0.34918838  1
  O2-  O279  1  0.50178107  0.87500129  0.84536062  1
  O2-  O280  1  0.75158423  0.12497273  0.35170573  1
  O2-  O281  1  0.74813889  0.12471340  0.85073079  1
  O2-  O282  1  0.75195743  0.37448467  0.34531607  1
  O2-  O283  1  0.75062866  0.37532678  0.84879549  1
  O2-  O284  1  0.75146176  0.62481686  0.34721527  1
  O2-  O285  1  0.74961931  0.62538598  0.84401931  1
  O2-  O286  1  0.75105873  0.87517577  0.34789506  1
  O2-  O287  1  0.74786708  0.87527736  0.85047295  1
