# generated using pymatgen
data_BaYFeCuO5
_symmetry_space_group_name_H-M   'P 1'
_cell_length_a   15.65906908
_cell_length_b   15.66011418
_cell_length_c   15.45935758
_cell_angle_alpha   89.99392344
_cell_angle_beta   90.00128163
_cell_angle_gamma   90.00167527
_symmetry_Int_Tables_number   1
_chemical_formula_structural   BaYFeCuO5
_chemical_formula_sum   'Ba32 Y32 Fe32 Cu32 O160'
_cell_volume   3790.98707886
_cell_formula_units_Z   32
loop_
 _symmetry_equiv_pos_site_id
 _symmetry_equiv_pos_as_xyz
  1  'x, y, z'
loop_
 _atom_type_symbol
 _atom_type_oxidation_number
  Ba2+  2.0
  Y3+  3.0
  Fe3+  3.0
  Cu2+  2.0
  O2-  -2.0
loop_
 _atom_site_type_symbol
 _atom_site_label
 _atom_site_symmetry_multiplicity
 _atom_site_fract_x
 _atom_site_fract_y
 _atom_site_fract_z
 _atom_site_occupancy
  Ba2+  Ba0  1  0.00172822  0.00111823  0.01273642  1
  Ba2+  Ba1  1  -0.00423319  -0.00392524  0.51169281  1
  Ba2+  Ba2  1  -0.00362646  0.24726523  0.01330756  1
  Ba2+  Ba3  1  0.00796506  0.25554723  0.50708533  1
  Ba2+  Ba4  1  -0.00311912  0.50512624  0.01293264  1
  Ba2+  Ba5  1  0.01226401  0.49806416  0.50182798  1
  Ba2+  Ba6  1  0.00247044  0.74703660  0.01254009  1
  Ba2+  Ba7  1  0.00060824  0.74999710  0.50697160  1
  Ba2+  Ba8  1  0.24596861  -0.00555792  0.01170607  1
  Ba2+  Ba9  1  0.26150485  0.00024348  0.51886941  1
  Ba2+  Ba10  1  0.24849451  0.25030928  0.00655259  1
  Ba2+  Ba11  1  0.25393063  0.25741844  0.51852386  1
  Ba2+  Ba12  1  0.25229234  0.50530606  0.01219323  1
  Ba2+  Ba13  1  0.25291324  0.50028802  0.50659654  1
  Ba2+  Ba14  1  0.24971668  0.74969963  0.01685909  1
  Ba2+  Ba15  1  0.25787069  0.74350501  0.50580056  1
  Ba2+  Ba16  1  0.50304208  -0.00938504  0.00239041  1
  Ba2+  Ba17  1  0.50022210  -0.00152705  0.52906536  1
  Ba2+  Ba18  1  0.49782534  0.25272231  0.00201988  1
  Ba2+  Ba19  1  0.49420168  0.24479056  0.52490009  1
  Ba2+  Ba20  1  0.49400739  0.50340569  0.01627593  1
  Ba2+  Ba21  1  0.49449306  0.50890497  0.51053040  1
  Ba2+  Ba22  1  0.49917865  0.75347005  0.01489390  1
  Ba2+  Ba23  1  0.49899469  0.74724344  0.51698441  1
  Ba2+  Ba24  1  0.74857782  -0.00434663  0.00039424  1
  Ba2+  Ba25  1  0.74269535  -0.00504057  0.52283020  1
  Ba2+  Ba26  1  0.75799213  0.24893110  0.00693001  1
  Ba2+  Ba27  1  0.74281655  0.24388561  0.51185752  1
  Ba2+  Ba28  1  0.75696038  0.50359114  0.01829673  1
  Ba2+  Ba29  1  0.74182758  0.50713962  0.50604371  1
  Ba2+  Ba30  1  0.74774070  0.75176481  0.01160140  1
  Ba2+  Ba31  1  0.74108802  0.75298807  0.51665516  1
  Y3+  Y32  1  0.00165390  0.00158264  0.25589595  1
  Y3+  Y33  1  -0.00030116  -0.00144421  0.75840430  1
  Y3+  Y34  1  0.00107223  0.25077062  0.25631219  1
  Y3+  Y35  1  0.00172823  0.25259944  0.75971529  1
  Y3+  Y36  1  0.00243840  0.50008508  0.25742147  1
  Y3+  Y37  1  0.00192190  0.49931337  0.75941136  1
  Y3+  Y38  1  0.00278911  0.74775506  0.25739243  1
  Y3+  Y39  1  -0.00015476  0.74963623  0.75784976  1
  Y3+  Y40  1  0.24973715  -0.00085595  0.25221307  1
  Y3+  Y41  1  0.25139630  -0.00038783  0.76215184  1
  Y3+  Y42  1  0.24886343  0.25126248  0.25465669  1
  Y3+  Y43  1  0.24963255  0.25259075  0.76067095  1
  Y3+  Y44  1  0.25047388  0.50211832  0.25846317  1
  Y3+  Y45  1  0.25050105  0.49945800  0.75800078  1
  Y3+  Y46  1  0.25140838  0.74768854  0.25600122  1
  Y3+  Y47  1  0.25212445  0.74833586  0.75886602  1
  Y3+  Y48  1  0.50003274  -0.00336198  0.24928220  1
  Y3+  Y49  1  0.50094177  -0.00258559  0.76324503  1
  Y3+  Y50  1  0.49830586  0.25130085  0.25189907  1
  Y3+  Y51  1  0.49855798  0.25021402  0.76182285  1
  Y3+  Y52  1  0.49869979  0.50408017  0.25745348  1
  Y3+  Y53  1  0.49699864  0.50138920  0.75614340  1
  Y3+  Y54  1  0.49990485  0.74806721  0.25517214  1
  Y3+  Y55  1  0.49940221  0.75063689  0.75765708  1
  Y3+  Y56  1  0.74913572  -0.00106648  0.25294368  1
  Y3+  Y57  1  0.74787255  -0.00322410  0.76018058  1
  Y3+  Y58  1  0.75191321  0.25070604  0.25537007  1
  Y3+  Y59  1  0.74964420  0.25019130  0.75982156  1
  Y3+  Y60  1  0.74925283  0.50208191  0.25752726  1
  Y3+  Y61  1  0.75015198  0.50060679  0.75663867  1
  Y3+  Y62  1  0.74604384  0.74843219  0.25619352  1
  Y3+  Y63  1  0.74806093  0.75193022  0.75668244  1
  Fe3+  Fe64  1  0.62315351  0.87589413  0.37501415  1
  Fe3+  Fe65  1  0.87578483  0.12419201  0.87415235  1
  Fe3+  Fe66  1  0.87476345  0.62567665  0.87474704  1
  Fe3+  Fe67  1  0.12761671  0.12472856  0.38056282  1
  Fe3+  Fe68  1  0.87472606  0.62578025  0.37976107  1
  Fe3+  Fe69  1  0.62263686  0.37385496  0.37924094  1
  Fe3+  Fe70  1  0.62582662  0.37726977  0.87960272  1
  Fe3+  Fe71  1  0.87329655  0.87537869  0.37787738  1
  Fe3+  Fe72  1  0.62233946  0.12351406  0.37554610  1
  Fe3+  Fe73  1  0.37659791  0.12408249  0.37412322  1
  Fe3+  Fe74  1  0.87401612  0.12420127  0.38032694  1
  Fe3+  Fe75  1  0.37463456  0.62562378  0.87721399  1
  Fe3+  Fe76  1  0.37683329  0.87593426  0.37500727  1
  Fe3+  Fe77  1  0.12680949  0.87566663  0.37998989  1
  Fe3+  Fe78  1  0.12422135  0.37652463  0.88085288  1
  Fe3+  Fe79  1  0.12447068  0.87341023  0.87616632  1
  Fe3+  Fe80  1  0.37441316  0.12410451  0.87878857  1
  Fe3+  Fe81  1  0.87427975  0.37483152  0.38048823  1
  Fe3+  Fe82  1  0.62467692  0.62460790  0.87771446  1
  Fe3+  Fe83  1  0.37614695  0.37401519  0.37501745  1
  Fe3+  Fe84  1  0.37487000  0.12477470  0.13223107  1
  Fe3+  Fe85  1  0.62362412  0.37545556  0.63542900  1
  Fe3+  Fe86  1  0.62609618  0.12514379  0.13251484  1
  Fe3+  Fe87  1  0.12661908  0.87439684  0.63456396  1
  Fe3+  Fe88  1  0.87488566  0.12535365  0.63523243  1
  Fe3+  Fe89  1  0.12514185  0.37595444  0.13658495  1
  Fe3+  Fe90  1  0.87556106  0.87426161  0.13771829  1
  Fe3+  Fe91  1  0.87505620  0.37559351  0.63346061  1
  Fe3+  Fe92  1  0.87528943  0.62490851  0.63385480  1
  Fe3+  Fe93  1  0.62545353  0.37576310  0.13467612  1
  Fe3+  Fe94  1  0.12597657  0.12512212  0.63571677  1
  Fe3+  Fe95  1  0.12577824  0.62469307  0.63785247  1
  Cu2+  Cu96  1  0.62547462  0.12530020  0.86771437  1
  Cu2+  Cu97  1  0.87557146  0.87353954  0.86434202  1
  Cu2+  Cu98  1  0.37417684  0.87320320  0.87312888  1
  Cu2+  Cu99  1  0.62516737  0.87235766  0.87191374  1
  Cu2+  Cu100  1  0.87490680  0.37643473  0.87283039  1
  Cu2+  Cu101  1  0.12719185  0.37400107  0.37163382  1
  Cu2+  Cu102  1  0.12511211  0.62535054  0.87306252  1
  Cu2+  Cu103  1  0.37575545  0.62591893  0.37062852  1
  Cu2+  Cu104  1  0.37471196  0.37683471  0.87465576  1
  Cu2+  Cu105  1  0.12393580  0.12460445  0.87349234  1
  Cu2+  Cu106  1  0.62402368  0.62633480  0.37225909  1
  Cu2+  Cu107  1  0.12560272  0.62554550  0.36490836  1
  Cu2+  Cu108  1  0.87555798  0.37578660  0.14254700  1
  Cu2+  Cu109  1  0.37409117  0.62480175  0.64393291  1
  Cu2+  Cu110  1  0.37459207  0.87455601  0.13938536  1
  Cu2+  Cu111  1  0.12498810  0.12555111  0.14017537  1
  Cu2+  Cu112  1  0.87545504  0.87465245  0.64989777  1
  Cu2+  Cu113  1  0.87484875  0.12440225  0.15278168  1
  Cu2+  Cu114  1  0.37516585  0.37545406  0.65442272  1
  Cu2+  Cu115  1  0.37412143  0.87435844  0.65520488  1
  Cu2+  Cu116  1  0.12538313  0.62455533  0.14182862  1
  Cu2+  Cu117  1  0.37436287  0.37538914  0.13931851  1
  Cu2+  Cu118  1  0.37506673  0.62520393  0.15135181  1
  Cu2+  Cu119  1  0.62585553  0.87432060  0.14041151  1
  Cu2+  Cu120  1  0.62351219  0.87460231  0.65666092  1
  Cu2+  Cu121  1  0.62415367  0.62449296  0.64260991  1
  Cu2+  Cu122  1  0.62486009  0.62459492  0.14681440  1
  Cu2+  Cu123  1  0.37429139  0.12499319  0.65935305  1
  Cu2+  Cu124  1  0.12413360  0.87422489  0.15327251  1
  Cu2+  Cu125  1  0.87509665  0.62604206  0.15655445  1
  Cu2+  Cu126  1  0.12535213  0.37579825  0.64361389  1
  Cu2+  Cu127  1  0.62478824  0.12548925  0.65782920  1
  O2-  O128  1  0.12298741  0.12514094  0.00635574  1
  O2-  O129  1  0.12891274  0.12464945  0.50703675  1
  O2-  O130  1  0.12287426  0.37613752  0.00849499  1
  O2-  O131  1  0.12742601  0.37364832  0.50767209  1
  O2-  O132  1  0.12442160  0.62524792  0.00881437  1
  O2-  O133  1  0.12581700  0.62532551  0.51706859  1
  O2-  O134  1  0.12242064  0.87378905  -0.00277700  1
  O2-  O135  1  0.12760345  0.87651861  0.50688005  1
  O2-  O136  1  0.37386874  0.12450210  0.00579924  1
  O2-  O137  1  0.37771151  0.12382983  0.49420806  1
  O2-  O138  1  0.37493138  0.37543237  0.00671826  1
  O2-  O139  1  0.37814039  0.37247706  0.49562449  1
  O2-  O140  1  0.37523236  0.62622897  -0.00175407  1
  O2-  O141  1  0.37452284  0.62529214  0.50676594  1
  O2-  O142  1  0.37342005  0.87431791  0.00655216  1
  O2-  O143  1  0.37794096  0.87761473  0.49528787  1
  O2-  O144  1  0.62869119  0.12703500  0.01269669  1
  O2-  O145  1  0.62076414  0.12330295  0.49576923  1
  O2-  O146  1  0.62789307  0.37702603  0.00690027  1
  O2-  O147  1  0.62175115  0.37276285  0.50673215  1
  O2-  O148  1  0.62646271  0.62278420  -0.00213250  1
  O2-  O149  1  0.62447410  0.62603129  0.50684937  1
  O2-  O150  1  0.62699474  0.87348579  0.00605778  1
  O2-  O151  1  0.62202412  0.87753128  0.49556151  1
  O2-  O152  1  0.87647643  0.12405983  -0.00462033  1
  O2-  O153  1  0.87297211  0.12467132  0.50647221  1
  O2-  O154  1  0.87549291  0.37632578  0.00780072  1
  O2-  O155  1  0.87359008  0.37390041  0.50702094  1
  O2-  O156  1  0.87433059  0.62655662  -0.00447937  1
  O2-  O157  1  0.87516696  0.62513966  0.50666691  1
  O2-  O158  1  0.87677181  0.87379621  0.01694563  1
  O2-  O159  1  0.87204437  0.87693033  0.49801260  1
  O2-  O160  1  0.12375103  -0.00126819  0.16555144  1
  O2-  O161  1  0.12471323  0.00036309  0.66121065  1
  O2-  O162  1  0.12427063  0.25317674  0.16471122  1
  O2-  O163  1  0.12492665  0.24697763  0.66582719  1
  O2-  O164  1  0.12465451  0.49767026  0.16574459  1
  O2-  O165  1  0.12415275  0.50166195  0.66845352  1
  O2-  O166  1  0.12476505  0.75065552  0.16772086  1
  O2-  O167  1  0.12458396  0.75113027  0.66308760  1
  O2-  O168  1  0.37486323  0.00270659  0.16023889  1
  O2-  O169  1  0.37457205  -0.00016942  0.66725305  1
  O2-  O170  1  0.37474537  0.24707580  0.16131286  1
  O2-  O171  1  0.37462949  0.25009443  0.66752493  1
  O2-  O172  1  0.37563208  0.50193844  0.16549973  1
  O2-  O173  1  0.37459085  0.49872851  0.66483756  1
  O2-  O174  1  0.37432334  0.74825284  0.16452647  1
  O2-  O175  1  0.37425232  0.75108261  0.66403191  1
  O2-  O176  1  0.62590970  0.00209139  0.16174624  1
  O2-  O177  1  0.62448523  0.00008362  0.66662752  1
  O2-  O178  1  0.62636747  0.25106824  0.16484805  1
  O2-  O179  1  0.62537034  0.25212523  0.66507537  1
  O2-  O180  1  0.62529746  0.49886514  0.16573901  1
  O2-  O181  1  0.62546118  0.49663030  0.66278375  1
  O2-  O182  1  0.62569229  0.74804000  0.16383809  1
  O2-  O183  1  0.62484016  0.75092208  0.66341157  1
  O2-  O184  1  0.87638983  -0.00073177  0.16612541  1
  O2-  O185  1  0.87536166  0.00179367  0.66275119  1
  O2-  O186  1  0.87507361  0.24845646  0.16712262  1
  O2-  O187  1  0.87445460  0.25011701  0.66221633  1
  O2-  O188  1  0.87481463  0.50256914  0.16887211  1
  O2-  O189  1  0.87446360  0.49952585  0.66092080  1
  O2-  O190  1  0.87579352  0.75013124  0.16841339  1
  O2-  O191  1  0.87554553  0.74867252  0.65998550  1
  O2-  O192  1  -0.00142289  0.12562361  0.17023453  1
  O2-  O193  1  0.00010033  0.12528689  0.65605984  1
  O2-  O194  1  0.00258325  0.37514785  0.16834060  1
  O2-  O195  1  -0.00361368  0.37445970  0.66355635  1
  O2-  O196  1  -0.00135903  0.62480663  0.16911553  1
  O2-  O197  1  -0.00128047  0.62489880  0.66398805  1
  O2-  O198  1  -0.00052801  0.87468267  0.17127902  1
  O2-  O199  1  0.00289201  0.87574228  0.65994787  1
  O2-  O200  1  0.25247349  0.12482656  0.16299570  1
  O2-  O201  1  0.24845384  0.12460056  0.66446591  1
  O2-  O202  1  0.24769454  0.37506392  0.16267888  1
  O2-  O203  1  0.25150410  0.37434370  0.66708366  1
  O2-  O204  1  0.25227519  0.62466498  0.16557397  1
  O2-  O205  1  0.24824908  0.62486547  0.66757825  1
  O2-  O206  1  0.24789725  0.87529317  0.16487425  1
  O2-  O207  1  0.24825017  0.87626670  0.66388341  1
  O2-  O208  1  0.49992961  0.12630373  0.15796293  1
  O2-  O209  1  0.49948944  0.12609695  0.66917416  1
  O2-  O210  1  0.50291484  0.37455837  0.15929183  1
  O2-  O211  1  0.50102036  0.37386408  0.66624062  1
  O2-  O212  1  0.49889159  0.62473985  0.16249804  1
  O2-  O213  1  0.49935791  0.62430418  0.66521552  1
  O2-  O214  1  0.50069784  0.87449289  0.15936093  1
  O2-  O215  1  0.49877829  0.87535672  0.66700881  1
  O2-  O216  1  0.74966355  0.12593233  0.16737998  1
  O2-  O217  1  0.75143766  0.12572658  0.66109549  1
  O2-  O218  1  0.74736115  0.37582778  0.16739821  1
  O2-  O219  1  0.75024924  0.37431883  0.66118253  1
  O2-  O220  1  0.75060605  0.62426654  0.16645545  1
  O2-  O221  1  0.75295186  0.62449684  0.66118338  1
  O2-  O222  1  0.75197117  0.87451254  0.16587728  1
  O2-  O223  1  0.74913989  0.87545636  0.66373855  1
  O2-  O224  1  0.12527560  0.00081459  0.34990527  1
  O2-  O225  1  0.12405231  -0.00242517  0.84505632  1
  O2-  O226  1  0.12453505  0.24576239  0.34816749  1
  O2-  O227  1  0.12411569  0.25334613  0.85068061  1
  O2-  O228  1  0.12521165  0.50105376  0.34963257  1
  O2-  O229  1  0.12434225  0.49816982  0.85123325  1
  O2-  O230  1  0.12436841  0.75241801  0.35281943  1
  O2-  O231  1  0.12407577  0.75083121  0.84482078  1
  O2-  O232  1  0.37467854  0.00000546  0.33991262  1
  O2-  O233  1  0.37480663  0.00148292  0.85164831  1
  O2-  O234  1  0.37571846  0.24907098  0.34140750  1
  O2-  O235  1  0.37538123  0.24804065  0.85205178  1
  O2-  O236  1  0.37560180  0.49853215  0.34866335  1
  O2-  O237  1  0.37484797  0.50232790  0.84711439  1
  O2-  O238  1  0.37470410  0.75256508  0.34701146  1
  O2-  O239  1  0.37498320  0.74780663  0.84589064  1
  O2-  O240  1  0.62547410  0.00031072  0.34047197  1
  O2-  O241  1  0.62574668  -0.00017991  0.85148667  1
  O2-  O242  1  0.62542764  0.25049641  0.34731062  1
  O2-  O243  1  0.62551039  0.25268291  0.85045554  1
  O2-  O244  1  0.62582004  0.49632775  0.35146165  1
  O2-  O245  1  0.62554923  0.49999313  0.84477962  1
  O2-  O246  1  0.62502300  0.75264419  0.34640768  1
  O2-  O247  1  0.62556503  0.74689415  0.84594547  1
  O2-  O248  1  0.87506754  0.00148578  0.34791202  1
  O2-  O249  1  0.87490070  -0.00070461  0.84693836  1
  O2-  O250  1  0.87502695  0.24928374  0.35177805  1
  O2-  O251  1  0.87458270  0.24914267  0.84622546  1
  O2-  O252  1  0.87406871  0.49954441  0.35379809  1
  O2-  O253  1  0.87455452  0.50229098  0.84381432  1
  O2-  O254  1  0.87644192  0.74976641  0.35098699  1
  O2-  O255  1  0.87490482  0.74891719  0.84359193  1
  O2-  O256  1  -0.00005679  0.12444981  0.35648343  1
  O2-  O257  1  -0.00230307  0.12494777  0.83950452  1
  O2-  O258  1  -0.00311324  0.37464571  0.35306652  1
  O2-  O259  1  0.00236232  0.37545752  0.84748242  1
  O2-  O260  1  -0.00161243  0.62429757  0.35341063  1
  O2-  O261  1  -0.00125155  0.62508494  0.84600602  1
  O2-  O262  1  0.00132856  0.87678991  0.35463370  1
  O2-  O263  1  0.00016882  0.87445717  0.84362238  1
  O2-  O264  1  0.24993518  0.12464105  0.34624000  1
  O2-  O265  1  0.25240903  0.12536752  0.84897514  1
  O2-  O266  1  0.25271016  0.37370774  0.34506009  1
  O2-  O267  1  0.24690879  0.37486118  0.85137436  1
  O2-  O268  1  0.24897777  0.62555877  0.34952124  1
  O2-  O269  1  0.25113134  0.62489089  0.84869017  1
  O2-  O270  1  0.24922494  0.87607631  0.34838948  1
  O2-  O271  1  0.24812807  0.87478857  0.84678041  1
  O2-  O272  1  0.50007868  0.12527100  0.33712396  1
  O2-  O273  1  0.49862718  0.12539856  0.85352952  1
  O2-  O274  1  0.50099622  0.37413229  0.34171465  1
  O2-  O275  1  0.50332101  0.37545254  0.85145493  1
  O2-  O276  1  0.50027927  0.62488547  0.34621033  1
  O2-  O277  1  0.50007847  0.62415899  0.84657648  1
  O2-  O278  1  0.50004463  0.87609824  0.33961966  1
  O2-  O279  1  0.49980207  0.87412228  0.85105542  1
  O2-  O280  1  0.75054097  0.12614916  0.34991875  1
  O2-  O281  1  0.75111253  0.12519799  0.84489628  1
  O2-  O282  1  0.75006389  0.37359275  0.35242958  1
  O2-  O283  1  0.74722113  0.37543656  0.84595786  1
  O2-  O284  1  0.75291648  0.62491911  0.35034462  1
  O2-  O285  1  0.74945809  0.62459002  0.84276560  1
  O2-  O286  1  0.74968143  0.87567521  0.34536451  1
  O2-  O287  1  0.75143868  0.87414786  0.84879691  1
