# generated using pymatgen
data_BaYFeCuO5
_symmetry_space_group_name_H-M   'P 1'
_cell_length_a   15.67956927
_cell_length_b   15.68575773
_cell_length_c   15.52300955
_cell_angle_alpha   90.00174770
_cell_angle_beta   90.00451225
_cell_angle_gamma   89.99866155
_symmetry_Int_Tables_number   1
_chemical_formula_structural   BaYFeCuO5
_chemical_formula_sum   'Ba32 Y32 Fe32 Cu32 O160'
_cell_volume   3817.82092694
_cell_formula_units_Z   32
loop_
 _symmetry_equiv_pos_site_id
 _symmetry_equiv_pos_as_xyz
  1  'x, y, z'
loop_
 _atom_type_symbol
 _atom_type_oxidation_number
  Ba2+  2.0
  Y3+  3.0
  Fe3+  3.0
  Cu2+  2.0
  O2-  -2.0
loop_
 _atom_site_type_symbol
 _atom_site_label
 _atom_site_symmetry_multiplicity
 _atom_site_fract_x
 _atom_site_fract_y
 _atom_site_fract_z
 _atom_site_occupancy
  Ba2+  Ba0  1  0.00541713  -0.00495426  0.01142543  1
  Ba2+  Ba1  1  0.00816640  -0.00742653  0.50661070  1
  Ba2+  Ba2  1  0.00094387  0.26005696  0.00604871  1
  Ba2+  Ba3  1  0.00752741  0.25754439  0.50628265  1
  Ba2+  Ba4  1  -0.00230409  0.50371365  0.01019272  1
  Ba2+  Ba5  1  0.00173200  0.49973767  0.52304207  1
  Ba2+  Ba6  1  0.00239590  0.74144515  0.01492296  1
  Ba2+  Ba7  1  0.00214151  0.74974020  0.52379331  1
  Ba2+  Ba8  1  0.25774740  -0.00361173  0.01154039  1
  Ba2+  Ba9  1  0.24648523  -0.00176554  0.49178627  1
  Ba2+  Ba10  1  0.25746157  0.25525651  0.02395232  1
  Ba2+  Ba11  1  0.24922369  0.25504031  0.49762120  1
  Ba2+  Ba12  1  0.25141810  0.50055966  0.02689777  1
  Ba2+  Ba13  1  0.24919177  0.49586513  0.50609591  1
  Ba2+  Ba14  1  0.25111137  0.74785396  0.01791437  1
  Ba2+  Ba15  1  0.24642674  0.75107675  0.50103723  1
  Ba2+  Ba16  1  0.49903046  0.00139127  0.02044912  1
  Ba2+  Ba17  1  0.49002966  -0.00022515  0.49795375  1
  Ba2+  Ba18  1  0.50132034  0.25286895  0.02346190  1
  Ba2+  Ba19  1  0.49287955  0.25727028  0.50661669  1
  Ba2+  Ba20  1  0.50101692  0.49804650  0.02289537  1
  Ba2+  Ba21  1  0.49960036  0.50015024  0.50708691  1
  Ba2+  Ba22  1  0.49942755  0.74791306  0.01842603  1
  Ba2+  Ba23  1  0.49786599  0.74218837  0.49764859  1
  Ba2+  Ba24  1  0.73804345  -0.00026698  0.01901636  1
  Ba2+  Ba25  1  0.75654221  -0.00594115  0.51209386  1
  Ba2+  Ba26  1  0.74135845  0.25824439  0.00566708  1
  Ba2+  Ba27  1  0.75174842  0.26043098  0.51812857  1
  Ba2+  Ba28  1  0.74874970  0.49935358  0.00432146  1
  Ba2+  Ba29  1  0.74922995  0.50320861  0.52246904  1
  Ba2+  Ba30  1  0.74675581  0.74145738  0.01613909  1
  Ba2+  Ba31  1  0.75330354  0.74095511  0.51770388  1
  Y3+  Y32  1  0.00293183  -0.00136730  0.25763130  1
  Y3+  Y33  1  0.00095404  -0.00223731  0.75694583  1
  Y3+  Y34  1  0.00273168  0.25181044  0.25844280  1
  Y3+  Y35  1  0.00038785  0.25367484  0.75685696  1
  Y3+  Y36  1  0.00150328  0.50069093  0.25364994  1
  Y3+  Y37  1  -0.00175309  0.50035249  0.75902024  1
  Y3+  Y38  1  0.00180590  0.74851599  0.25336425  1
  Y3+  Y39  1  -0.00019118  0.74837956  0.75830576  1
  Y3+  Y40  1  0.24910910  -0.00084827  0.25935204  1
  Y3+  Y41  1  0.25002172  -0.00178568  0.75827237  1
  Y3+  Y42  1  0.25049047  0.25211547  0.26225396  1
  Y3+  Y43  1  0.25120250  0.25293142  0.75293367  1
  Y3+  Y44  1  0.25070329  0.49888168  0.26124663  1
  Y3+  Y45  1  0.24986489  0.49841981  0.75105839  1
  Y3+  Y46  1  0.24928169  0.74930741  0.25919313  1
  Y3+  Y47  1  0.24906135  0.75076471  0.75566692  1
  Y3+  Y48  1  0.49853814  0.00127474  0.25964184  1
  Y3+  Y49  1  0.49792444  -0.00086824  0.75698745  1
  Y3+  Y50  1  0.49833144  0.25190831  0.25945267  1
  Y3+  Y51  1  0.50005603  0.25438790  0.75450042  1
  Y3+  Y52  1  0.49989427  0.50049848  0.26093794  1
  Y3+  Y53  1  0.50134746  0.49820278  0.75280514  1
  Y3+  Y54  1  0.50020843  0.74602601  0.26061592  1
  Y3+  Y55  1  0.49937619  0.74827185  0.75526208  1
  Y3+  Y56  1  0.74905932  -0.00013721  0.25808310  1
  Y3+  Y57  1  0.75056461  -0.00050074  0.75614397  1
  Y3+  Y58  1  0.74814009  0.25159334  0.25529765  1
  Y3+  Y59  1  0.74923933  0.25499050  0.75937812  1
  Y3+  Y60  1  0.74793088  0.50257333  0.25369708  1
  Y3+  Y61  1  0.74993083  0.49984210  0.75937145  1
  Y3+  Y62  1  0.74814054  0.74578564  0.25618343  1
  Y3+  Y63  1  0.75122124  0.74650126  0.75722882  1
  Fe3+  Fe64  1  0.62285092  0.62409919  0.87569934  1
  Fe3+  Fe65  1  0.62602920  0.87373839  0.37944181  1
  Fe3+  Fe66  1  0.12673366  0.12630848  0.88180222  1
  Fe3+  Fe67  1  0.87499752  0.37755086  0.37663467  1
  Fe3+  Fe68  1  0.62330427  0.87436695  0.87585207  1
  Fe3+  Fe69  1  0.87353099  0.87438771  0.88053984  1
  Fe3+  Fe70  1  0.37557052  0.37656317  0.87624126  1
  Fe3+  Fe71  1  0.62695285  0.37630426  0.37735934  1
  Fe3+  Fe72  1  0.12716923  0.62367023  0.87580706  1
  Fe3+  Fe73  1  0.87589932  0.87211786  0.37535304  1
  Fe3+  Fe74  1  0.12785755  0.37624776  0.87727743  1
  Fe3+  Fe75  1  0.12270141  0.62436729  0.37595497  1
  Fe3+  Fe76  1  0.87447434  0.12507934  0.88077406  1
  Fe3+  Fe77  1  0.62628882  0.12613500  0.38078289  1
  Fe3+  Fe78  1  0.12637217  0.87391315  0.87901013  1
  Fe3+  Fe79  1  0.62314116  0.12562475  0.87450710  1
  Fe3+  Fe80  1  0.87620943  0.12576157  0.38007490  1
  Fe3+  Fe81  1  0.37566252  0.12663449  0.87763851  1
  Fe3+  Fe82  1  0.37463991  0.62406896  0.87673736  1
  Fe3+  Fe83  1  0.87589256  0.62397701  0.37533262  1
  Fe3+  Fe84  1  0.37366433  0.87507723  0.63562667  1
  Fe3+  Fe85  1  0.87420229  0.87437129  0.13427798  1
  Fe3+  Fe86  1  0.62446050  0.12508233  0.63216865  1
  Fe3+  Fe87  1  0.12598229  0.12563715  0.13571580  1
  Fe3+  Fe88  1  0.87683886  0.12561286  0.63498169  1
  Fe3+  Fe89  1  0.12602183  0.12487535  0.63752810  1
  Fe3+  Fe90  1  0.62400184  0.87436216  0.63268683  1
  Fe3+  Fe91  1  0.37557933  0.87412978  0.14281662  1
  Fe3+  Fe92  1  0.37389734  0.62510630  0.63482058  1
  Fe3+  Fe93  1  0.87471547  0.12574045  0.13401332  1
  Fe3+  Fe94  1  0.87460662  0.37535277  0.13674963  1
  Fe3+  Fe95  1  0.37369510  0.12487329  0.63480155  1
  Cu2+  Cu96  1  0.37451465  0.12557720  0.36409455  1
  Cu2+  Cu97  1  0.12330084  0.37718886  0.37064423  1
  Cu2+  Cu98  1  0.12333140  0.87249095  0.36979919  1
  Cu2+  Cu99  1  0.62690927  0.62366636  0.37402229  1
  Cu2+  Cu100  1  0.37497525  0.87404985  0.36304831  1
  Cu2+  Cu101  1  0.37540235  0.37620433  0.37200456  1
  Cu2+  Cu102  1  0.62235542  0.37595132  0.87182083  1
  Cu2+  Cu103  1  0.37578181  0.87408262  0.86406649  1
  Cu2+  Cu104  1  0.37400077  0.62441437  0.36532668  1
  Cu2+  Cu105  1  0.87542259  0.37513003  0.86404318  1
  Cu2+  Cu106  1  0.87495834  0.62523120  0.87380953  1
  Cu2+  Cu107  1  0.12396225  0.12514369  0.36195098  1
  Cu2+  Cu108  1  0.87513315  0.87490618  0.65263645  1
  Cu2+  Cu109  1  0.37517904  0.37558562  0.15872843  1
  Cu2+  Cu110  1  0.37458898  0.12531771  0.15705850  1
  Cu2+  Cu111  1  0.12590311  0.62436753  0.15175864  1
  Cu2+  Cu112  1  0.62386043  0.62422100  0.15170074  1
  Cu2+  Cu113  1  0.87536865  0.37508146  0.65360098  1
  Cu2+  Cu114  1  0.12498143  0.37480097  0.15181357  1
  Cu2+  Cu115  1  0.62486381  0.12565423  0.15655088  1
  Cu2+  Cu116  1  0.12561100  0.87501561  0.14921648  1
  Cu2+  Cu117  1  0.37461506  0.37507045  0.63899439  1
  Cu2+  Cu118  1  0.87563871  0.62447914  0.65577289  1
  Cu2+  Cu119  1  0.62357555  0.62529994  0.64165531  1
  Cu2+  Cu120  1  0.37501615  0.62456194  0.15642229  1
  Cu2+  Cu121  1  0.12547759  0.37455302  0.64180027  1
  Cu2+  Cu122  1  0.12579582  0.62509391  0.65100653  1
  Cu2+  Cu123  1  0.87442373  0.62425037  0.13974535  1
  Cu2+  Cu124  1  0.12629925  0.87554987  0.64309172  1
  Cu2+  Cu125  1  0.62514796  0.37586759  0.14416808  1
  Cu2+  Cu126  1  0.62432899  0.87404788  0.15678131  1
  Cu2+  Cu127  1  0.62489260  0.37518011  0.64881484  1
  O2-  O128  1  0.12692033  0.12608364  0.00757396  1
  O2-  O129  1  0.12387116  0.12425125  0.51772326  1
  O2-  O130  1  0.12923949  0.37520055  -0.00286266  1
  O2-  O131  1  0.12361657  0.37594532  0.50632074  1
  O2-  O132  1  0.12860144  0.62372163  -0.00405315  1
  O2-  O133  1  0.12079756  0.62564948  0.49570328  1
  O2-  O134  1  0.12755046  0.87497090  -0.00101705  1
  O2-  O135  1  0.12414162  0.87397825  0.50742623  1
  O2-  O136  1  0.37779519  0.12701243  -0.00284826  1
  O2-  O137  1  0.37201673  0.12341176  0.51531829  1
  O2-  O138  1  0.37580526  0.37567490  -0.00411535  1
  O2-  O139  1  0.37430967  0.37562836  0.50553961  1
  O2-  O140  1  0.37531588  0.62387699  -0.00351785  1
  O2-  O141  1  0.37377124  0.62635028  0.51481894  1
  O2-  O142  1  0.37753038  0.87479990  0.02174094  1
  O2-  O143  1  0.37294563  0.87594285  0.51610935  1
  O2-  O144  1  0.62268483  0.12404799  -0.00570139  1
  O2-  O145  1  0.62687415  0.12561322  0.50617152  1
  O2-  O146  1  0.62272761  0.37545948  0.00703677  1
  O2-  O147  1  0.62847783  0.37528861  0.49746447  1
  O2-  O148  1  0.62187889  0.62502935  -0.00385489  1
  O2-  O149  1  0.62641700  0.62555357  0.50676898  1
  O2-  O150  1  0.62197580  0.87611361  -0.00451110  1
  O2-  O151  1  0.62671622  0.87444191  0.50594680  1
  O2-  O152  1  0.87261340  0.12505191  0.00747612  1
  O2-  O153  1  0.87745599  0.12490698  0.50686726  1
  O2-  O154  1  0.87426472  0.37328311  0.01649339  1
  O2-  O155  1  0.87496091  0.37721809  0.49663360  1
  O2-  O156  1  0.87427779  0.62561448  0.00620246  1
  O2-  O157  1  0.87714541  0.62464097  0.49509443  1
  O2-  O158  1  0.87239169  0.87631159  0.00640458  1
  O2-  O159  1  0.87628536  0.87310797  0.49535202  1
  O2-  O160  1  0.12487825  0.00225396  0.16395805  1
  O2-  O161  1  0.12396477  0.00236752  0.67142571  1
  O2-  O162  1  0.12435301  0.24786323  0.16496792  1
  O2-  O163  1  0.12386930  0.24778171  0.66840942  1
  O2-  O164  1  0.12554500  0.49937840  0.16282007  1
  O2-  O165  1  0.12483828  0.50150470  0.66223098  1
  O2-  O166  1  0.12503372  0.74989591  0.16176484  1
  O2-  O167  1  0.12428801  0.74856668  0.66521061  1
  O2-  O168  1  0.37533095  -0.00017733  0.16785334  1
  O2-  O169  1  0.37516253  0.00028367  0.66982600  1
  O2-  O170  1  0.37546963  0.25010283  0.16647286  1
  O2-  O171  1  0.37599774  0.24797480  0.66392464  1
  O2-  O172  1  0.37471288  0.50026171  0.16575925  1
  O2-  O173  1  0.37438790  0.50151868  0.66227059  1
  O2-  O174  1  0.37582594  0.74950928  0.16730833  1
  O2-  O175  1  0.37486100  0.75082917  0.66758584  1
  O2-  O176  1  0.62560829  0.00055575  0.16824738  1
  O2-  O177  1  0.62654804  0.00002848  0.66014240  1
  O2-  O178  1  0.62517874  0.24921574  0.16717714  1
  O2-  O179  1  0.62622029  0.24773481  0.66254327  1
  O2-  O180  1  0.62460737  0.50123776  0.16476802  1
  O2-  O181  1  0.62549182  0.49905294  0.66350468  1
  O2-  O182  1  0.62408478  0.74896198  0.16522285  1
  O2-  O183  1  0.62525923  0.75367353  0.66334400  1
  O2-  O184  1  0.87399915  0.00038522  0.16305041  1
  O2-  O185  1  0.87525628  0.00245021  0.66462953  1
  O2-  O186  1  0.87557014  0.24794215  0.16710868  1
  O2-  O187  1  0.87469503  0.24781077  0.66509855  1
  O2-  O188  1  0.87505121  0.49853131  0.16304640  1
  O2-  O189  1  0.87511682  0.49991677  0.66543666  1
  O2-  O190  1  0.87436543  0.75273585  0.16001518  1
  O2-  O191  1  0.87527608  0.74966289  0.66573071  1
  O2-  O192  1  -0.00040589  0.12373750  0.15942528  1
  O2-  O193  1  -0.00105899  0.12489347  0.67011224  1
  O2-  O194  1  -0.00036817  0.37338546  0.16333464  1
  O2-  O195  1  -0.00093292  0.37438925  0.66734931  1
  O2-  O196  1  0.00186852  0.62519770  0.15923413  1
  O2-  O197  1  0.00086121  0.62514126  0.66714203  1
  O2-  O198  1  -0.00160341  0.87678791  0.15849255  1
  O2-  O199  1  -0.00123011  0.87548146  0.66902481  1
  O2-  O200  1  0.24838070  0.12523710  0.16323696  1
  O2-  O201  1  0.25030104  0.12450826  0.67057793  1
  O2-  O202  1  0.25007192  0.37376247  0.16674595  1
  O2-  O203  1  0.24985913  0.37384958  0.66271577  1
  O2-  O204  1  0.24999148  0.62543007  0.16657221  1
  O2-  O205  1  0.24993091  0.62617135  0.66338521  1
  O2-  O206  1  0.25078419  0.87507578  0.16706059  1
  O2-  O207  1  0.25192352  0.87583631  0.66923193  1
  O2-  O208  1  0.50001670  0.12451019  0.16865190  1
  O2-  O209  1  0.50124222  0.12368074  0.65947470  1
  O2-  O210  1  0.49896782  0.37485670  0.16857537  1
  O2-  O211  1  0.50137393  0.37443498  0.66063495  1
  O2-  O212  1  0.49981083  0.62469791  0.16823976  1
  O2-  O213  1  0.49754732  0.62593143  0.66358357  1
  O2-  O214  1  0.49991397  0.87577694  0.17181869  1
  O2-  O215  1  0.50053762  0.87683320  0.66203152  1
  O2-  O216  1  0.75206362  0.12408320  0.16524490  1
  O2-  O217  1  0.75040847  0.12393106  0.66022893  1
  O2-  O218  1  0.75161302  0.37349189  0.16524493  1
  O2-  O219  1  0.75035777  0.37397935  0.66511331  1
  O2-  O220  1  0.74785498  0.62577685  0.16288508  1
  O2-  O221  1  0.75097064  0.62576335  0.66488993  1
  O2-  O222  1  0.75033058  0.87614665  0.16357743  1
  O2-  O223  1  0.74872872  0.87658253  0.66212561  1
  O2-  O224  1  0.12342765  0.00009502  0.34837254  1
  O2-  O225  1  0.12457014  0.00124346  0.85220415  1
  O2-  O226  1  0.12380729  0.24958649  0.34946191  1
  O2-  O227  1  0.12429686  0.24890147  0.84899755  1
  O2-  O228  1  0.12387982  0.50215110  0.34462540  1
  O2-  O229  1  0.12533428  0.49957984  0.84325164  1
  O2-  O230  1  0.12454066  0.74765723  0.34386476  1
  O2-  O231  1  0.12507570  0.75051735  0.84634102  1
  O2-  O232  1  0.37516467  -0.00002672  0.35070231  1
  O2-  O233  1  0.37548630  0.00042523  0.85031502  1
  O2-  O234  1  0.37459544  0.24914348  0.34997746  1
  O2-  O235  1  0.37458648  0.25050599  0.84322254  1
  O2-  O236  1  0.37547519  0.50116979  0.34884208  1
  O2-  O237  1  0.37464847  0.50012907  0.84170879  1
  O2-  O238  1  0.37504783  0.74981684  0.34972789  1
  O2-  O239  1  0.37535318  0.74958360  0.84774392  1
  O2-  O240  1  0.62618826  0.00034181  0.35342363  1
  O2-  O241  1  0.62533105  0.00023776  0.84127203  1
  O2-  O242  1  0.62690380  0.24859337  0.34952816  1
  O2-  O243  1  0.62562640  0.24856100  0.84511691  1
  O2-  O244  1  0.62581484  0.49819023  0.34634030  1
  O2-  O245  1  0.62460167  0.50157925  0.84562770  1
  O2-  O246  1  0.62563492  0.75258949  0.34980105  1
  O2-  O247  1  0.62482171  0.74994749  0.84416205  1
  O2-  O248  1  0.87502602  0.00114146  0.34857771  1
  O2-  O249  1  0.87455704  0.00016060  0.84927778  1
  O2-  O250  1  0.87512912  0.24858756  0.35031907  1
  O2-  O251  1  0.87537949  0.24741116  0.85014487  1
  O2-  O252  1  0.87514982  0.50024051  0.34189160  1
  O2-  O253  1  0.87505735  0.49867287  0.84947283  1
  O2-  O254  1  0.87416809  0.74931455  0.34113935  1
  O2-  O255  1  0.87463046  0.75410833  0.84894414  1
  O2-  O256  1  -0.00249041  0.12454978  0.34474993  1
  O2-  O257  1  0.00026553  0.12405856  0.85554230  1
  O2-  O258  1  -0.00261811  0.37400703  0.34400075  1
  O2-  O259  1  0.00164532  0.37403829  0.85045499  1
  O2-  O260  1  -0.00099451  0.62536120  0.33923367  1
  O2-  O261  1  0.00243300  0.62519757  0.84984870  1
  O2-  O262  1  -0.00267951  0.87518928  0.34071730  1
  O2-  O263  1  -0.00083460  0.87684697  0.85256247  1
  O2-  O264  1  0.24861865  0.12421732  0.34848432  1
  O2-  O265  1  0.24902560  0.12432719  0.85030523  1
  O2-  O266  1  0.24940504  0.37531859  0.35083385  1
  O2-  O267  1  0.25041697  0.37459030  0.84186352  1
  O2-  O268  1  0.24898259  0.62510512  0.35025258  1
  O2-  O269  1  0.25039903  0.62552923  0.84213710  1
  O2-  O270  1  0.25067778  0.87538600  0.34979292  1
  O2-  O271  1  0.24988554  0.87584179  0.84990414  1
  O2-  O272  1  0.50287298  0.12483020  0.35358774  1
  O2-  O273  1  0.49940497  0.12503395  0.83969048  1
  O2-  O274  1  0.50277582  0.37379178  0.35085922  1
  O2-  O275  1  0.49741726  0.37496787  0.84160190  1
  O2-  O276  1  0.49880623  0.62534087  0.35307421  1
  O2-  O277  1  0.49921626  0.62554866  0.84213541  1
  O2-  O278  1  0.50212765  0.87585713  0.35467518  1
  O2-  O279  1  0.50046210  0.87535409  0.84258336  1
  O2-  O280  1  0.75072796  0.12386660  0.34992775  1
  O2-  O281  1  0.75118236  0.12452508  0.84550599  1
  O2-  O282  1  0.75084825  0.37373745  0.34350923  1
  O2-  O283  1  0.75103800  0.37444164  0.85012874  1
  O2-  O284  1  0.75244644  0.62516320  0.34434784  1
  O2-  O285  1  0.74775704  0.62537055  0.84787776  1
  O2-  O286  1  0.74937405  0.87637452  0.34679265  1
  O2-  O287  1  0.75020261  0.87641469  0.84611931  1
