# generated using pymatgen
data_BaYFeCuO5
_symmetry_space_group_name_H-M   'P 1'
_cell_length_a   15.66240580
_cell_length_b   15.66638035
_cell_length_c   15.47079825
_cell_angle_alpha   89.99734888
_cell_angle_beta   90.00021563
_cell_angle_gamma   90.00228014
_symmetry_Int_Tables_number   1
_chemical_formula_structural   BaYFeCuO5
_chemical_formula_sum   'Ba32 Y32 Fe32 Cu32 O160'
_cell_volume   3796.11936708
_cell_formula_units_Z   32
loop_
 _symmetry_equiv_pos_site_id
 _symmetry_equiv_pos_as_xyz
  1  'x, y, z'
loop_
 _atom_type_symbol
 _atom_type_oxidation_number
  Ba2+  2.0
  Y3+  3.0
  Fe3+  3.0
  Cu2+  2.0
  O2-  -2.0
loop_
 _atom_site_type_symbol
 _atom_site_label
 _atom_site_symmetry_multiplicity
 _atom_site_fract_x
 _atom_site_fract_y
 _atom_site_fract_z
 _atom_site_occupancy
  Ba2+  Ba0  1  -0.00458135  0.00224299  0.01186238  1
  Ba2+  Ba1  1  0.00064057  -0.00780555  0.51696694  1
  Ba2+  Ba2  1  -0.00024371  0.25006165  -0.00494760  1
  Ba2+  Ba3  1  -0.00265628  0.24486322  0.51192565  1
  Ba2+  Ba4  1  0.00499550  0.49990850  0.00634359  1
  Ba2+  Ba5  1  -0.00563858  0.50728697  0.50680630  1
  Ba2+  Ba6  1  0.00050360  0.74848641  0.02246614  1
  Ba2+  Ba7  1  -0.00255014  0.75480372  0.51165352  1
  Ba2+  Ba8  1  0.24496487  0.00450368  0.01172126  1
  Ba2+  Ba9  1  0.25481668  -0.00653118  0.50642544  1
  Ba2+  Ba10  1  0.24754340  0.25452208  0.01250507  1
  Ba2+  Ba11  1  0.25902149  0.24598124  0.51202276  1
  Ba2+  Ba12  1  0.24403489  0.49947457  0.00650720  1
  Ba2+  Ba13  1  0.25858352  0.50081999  0.51953689  1
  Ba2+  Ba14  1  0.24299534  0.74316204  0.00594072  1
  Ba2+  Ba15  1  0.25263565  0.75912299  0.51136526  1
  Ba2+  Ba16  1  0.50718282  0.00591279  0.01588277  1
  Ba2+  Ba17  1  0.48791732  -0.00087746  0.50627910  1
  Ba2+  Ba18  1  0.50253293  0.24927413  0.02164002  1
  Ba2+  Ba19  1  0.49024061  0.24761452  0.51123182  1
  Ba2+  Ba20  1  0.50026379  0.49848863  0.01720251  1
  Ba2+  Ba21  1  0.49589213  0.50381392  0.51193780  1
  Ba2+  Ba22  1  0.50524870  0.74636850  0.01312302  1
  Ba2+  Ba23  1  0.49299241  0.74941850  0.50707134  1
  Ba2+  Ba24  1  0.75088436  0.00418557  0.01599712  1
  Ba2+  Ba25  1  0.75831236  -0.00190092  0.51791839  1
  Ba2+  Ba26  1  0.75072717  0.24432475  0.00591742  1
  Ba2+  Ba27  1  0.75289713  0.24677183  0.51147823  1
  Ba2+  Ba28  1  0.75062738  0.49978953  0.01836594  1
  Ba2+  Ba29  1  0.75075849  0.51023398  0.50151450  1
  Ba2+  Ba30  1  0.75094850  0.75117226  0.02597536  1
  Ba2+  Ba31  1  0.75611331  0.74512727  0.50574304  1
  Y3+  Y32  1  0.00122026  -0.00283682  0.25568932  1
  Y3+  Y33  1  -0.00098573  0.00014064  0.75774623  1
  Y3+  Y34  1  0.00054453  0.24984148  0.25616828  1
  Y3+  Y35  1  -0.00037796  0.24894520  0.76017454  1
  Y3+  Y36  1  0.00086346  0.50318003  0.25555808  1
  Y3+  Y37  1  0.00101940  0.50063920  0.75990541  1
  Y3+  Y38  1  0.00130832  0.75026987  0.25873083  1
  Y3+  Y39  1  0.00064974  0.74987167  0.75471290  1
  Y3+  Y40  1  0.25085505  -0.00080960  0.26046196  1
  Y3+  Y41  1  0.25060071  -0.00163399  0.75439208  1
  Y3+  Y42  1  0.25181213  0.24970065  0.25622606  1
  Y3+  Y43  1  0.24999740  0.24963484  0.75843302  1
  Y3+  Y44  1  0.24780321  0.49876918  0.25212149  1
  Y3+  Y45  1  0.24977997  0.50186047  0.76274669  1
  Y3+  Y46  1  0.24706934  0.75280919  0.25767481  1
  Y3+  Y47  1  0.25042478  0.74997121  0.75709190  1
  Y3+  Y48  1  0.49827839  0.00170975  0.25743859  1
  Y3+  Y49  1  0.49871450  0.00039479  0.75633386  1
  Y3+  Y50  1  0.49852850  0.24831778  0.25650466  1
  Y3+  Y51  1  0.49890598  0.24802484  0.75632007  1
  Y3+  Y52  1  0.50178846  0.49974507  0.25630936  1
  Y3+  Y53  1  0.49686767  0.50136202  0.75740931  1
  Y3+  Y54  1  0.50104445  0.75084890  0.25833919  1
  Y3+  Y55  1  0.49677114  0.74988509  0.75675530  1
  Y3+  Y56  1  0.74981075  0.00011182  0.25250740  1
  Y3+  Y57  1  0.75131524  0.00240315  0.76032725  1
  Y3+  Y58  1  0.74894351  0.24816883  0.25440425  1
  Y3+  Y59  1  0.75165935  0.24754335  0.76054612  1
  Y3+  Y60  1  0.75007774  0.50344226  0.25895652  1
  Y3+  Y61  1  0.75224163  0.50039372  0.75560968  1
  Y3+  Y62  1  0.75052629  0.74829070  0.25894407  1
  Y3+  Y63  1  0.75224777  0.74953417  0.75268384  1
  Fe3+  Fe64  1  0.62499074  0.12421219  0.38010326  1
  Fe3+  Fe65  1  0.87496321  0.87563162  0.37423305  1
  Fe3+  Fe66  1  0.12542829  0.37520789  0.38211750  1
  Fe3+  Fe67  1  0.87542366  0.12387366  0.37675491  1
  Fe3+  Fe68  1  0.62466378  0.37465976  0.38017912  1
  Fe3+  Fe69  1  0.87452987  0.62610543  0.87758611  1
  Fe3+  Fe70  1  0.87443275  0.87359061  0.87690590  1
  Fe3+  Fe71  1  0.12545378  0.12432062  0.38097515  1
  Fe3+  Fe72  1  0.62513946  0.37530791  0.87538778  1
  Fe3+  Fe73  1  0.37600657  0.37485537  0.87711426  1
  Fe3+  Fe74  1  0.62599955  0.87454364  0.87624543  1
  Fe3+  Fe75  1  0.12633626  0.62537421  0.38047321  1
  Fe3+  Fe76  1  0.62512025  0.87555304  0.37928812  1
  Fe3+  Fe77  1  0.62607692  0.62523182  0.87615380  1
  Fe3+  Fe78  1  0.12391531  0.87500069  0.87717703  1
  Fe3+  Fe79  1  0.37355006  0.62500153  0.37482361  1
  Fe3+  Fe80  1  0.87512328  0.37484686  0.38016083  1
  Fe3+  Fe81  1  0.37510382  0.12475451  0.87825598  1
  Fe3+  Fe82  1  0.37444482  0.37588061  0.37504155  1
  Fe3+  Fe83  1  0.37523697  0.87471844  0.88135049  1
  Fe3+  Fe84  1  0.62426196  0.37523123  0.63305483  1
  Fe3+  Fe85  1  0.62494702  0.87469802  0.63291858  1
  Fe3+  Fe86  1  0.12577711  0.62539238  0.63530616  1
  Fe3+  Fe87  1  0.12548954  0.12394470  0.63595676  1
  Fe3+  Fe88  1  0.12421343  0.12577576  0.13945423  1
  Fe3+  Fe89  1  0.37415282  0.62534401  0.13687617  1
  Fe3+  Fe90  1  0.62421494  0.62530233  0.63538507  1
  Fe3+  Fe91  1  0.62474966  0.12430663  0.63396323  1
  Fe3+  Fe92  1  0.87488831  0.37554343  0.63527508  1
  Fe3+  Fe93  1  0.37443574  0.87516325  0.13480796  1
  Fe3+  Fe94  1  0.12561029  0.37505327  0.63491302  1
  Fe3+  Fe95  1  0.87588757  0.37450886  0.13874164  1
  Cu2+  Cu96  1  0.87507311  0.12378542  0.87289835  1
  Cu2+  Cu97  1  0.62360906  0.12481687  0.87094538  1
  Cu2+  Cu98  1  0.37552132  0.62553846  0.86838153  1
  Cu2+  Cu99  1  0.12611244  0.12370185  0.86116558  1
  Cu2+  Cu100  1  0.62370777  0.62545110  0.36581215  1
  Cu2+  Cu101  1  0.37454972  0.12530534  0.37159293  1
  Cu2+  Cu102  1  0.37533566  0.87434216  0.36733045  1
  Cu2+  Cu103  1  0.12483297  0.87547546  0.37401573  1
  Cu2+  Cu104  1  0.12517114  0.37476363  0.87166913  1
  Cu2+  Cu105  1  0.87638407  0.62589046  0.37108133  1
  Cu2+  Cu106  1  0.87443637  0.37588692  0.86306205  1
  Cu2+  Cu107  1  0.12350963  0.62647955  0.87071528  1
  Cu2+  Cu108  1  0.12356035  0.37440881  0.14317054  1
  Cu2+  Cu109  1  0.37505262  0.37528974  0.14917917  1
  Cu2+  Cu110  1  0.62465376  0.62508160  0.15385134  1
  Cu2+  Cu111  1  0.12548881  0.87473086  0.64220945  1
  Cu2+  Cu112  1  0.87517050  0.87486318  0.15129232  1
  Cu2+  Cu113  1  0.62423496  0.87523276  0.15299489  1
  Cu2+  Cu114  1  0.87543767  0.62493292  0.15251204  1
  Cu2+  Cu115  1  0.87633309  0.12596133  0.14300367  1
  Cu2+  Cu116  1  0.87419298  0.87467079  0.65181394  1
  Cu2+  Cu117  1  0.87570245  0.62427790  0.64118280  1
  Cu2+  Cu118  1  0.37397533  0.12482299  0.14894654  1
  Cu2+  Cu119  1  0.37579507  0.87497973  0.64445987  1
  Cu2+  Cu120  1  0.37458718  0.12399248  0.64350628  1
  Cu2+  Cu121  1  0.37480086  0.37469298  0.65256867  1
  Cu2+  Cu122  1  0.87527604  0.12552835  0.65188912  1
  Cu2+  Cu123  1  0.12522400  0.62518605  0.14379336  1
  Cu2+  Cu124  1  0.37438642  0.62541431  0.65319596  1
  Cu2+  Cu125  1  0.62520943  0.12547290  0.14452454  1
  Cu2+  Cu126  1  0.12564724  0.87560730  0.14884644  1
  Cu2+  Cu127  1  0.62609979  0.37498214  0.15448673  1
  O2-  O128  1  0.12421525  0.12643155  0.01852905  1
  O2-  O129  1  0.12517754  0.12413561  0.50797281  1
  O2-  O130  1  0.12384268  0.37404607  0.00729756  1
  O2-  O131  1  0.12667669  0.37606912  0.50801021  1
  O2-  O132  1  0.12328172  0.62527724  0.00688615  1
  O2-  O133  1  0.12741881  0.62417261  0.50725197  1
  O2-  O134  1  0.12400802  0.87521080  -0.00238720  1
  O2-  O135  1  0.12481561  0.87493152  0.50742034  1
  O2-  O136  1  0.37578665  0.12524429  -0.00133692  1
  O2-  O137  1  0.37430336  0.12447112  0.50711196  1
  O2-  O138  1  0.37760823  0.37430431  -0.00266016  1
  O2-  O139  1  0.37461778  0.37636093  0.49561213  1
  O2-  O140  1  0.37595343  0.62555074  0.01610793  1
  O2-  O141  1  0.37398170  0.62446078  0.49557938  1
  O2-  O142  1  0.37539787  0.87499360  0.00733169  1
  O2-  O143  1  0.37627807  0.87401194  0.50789788  1
  O2-  O144  1  0.62482762  0.12583068  0.00668004  1
  O2-  O145  1  0.62570749  0.12401763  0.50659851  1
  O2-  O146  1  0.62512148  0.37583729  -0.00455093  1
  O2-  O147  1  0.62402250  0.37531661  0.50640164  1
  O2-  O148  1  0.62738301  0.62470142  -0.00376637  1
  O2-  O149  1  0.62291968  0.62524603  0.51483080  1
  O2-  O150  1  0.62637497  0.87411147  -0.00371655  1
  O2-  O151  1  0.62496588  0.87521202  0.50595665  1
  O2-  O152  1  0.87577491  0.12565383  0.00723442  1
  O2-  O153  1  0.87455752  0.12378388  0.49718404  1
  O2-  O154  1  0.87513695  0.37474488  0.01844599  1
  O2-  O155  1  0.87467103  0.37490491  0.50769113  1
  O2-  O156  1  0.87309121  0.62640345  -0.00240951  1
  O2-  O157  1  0.87563718  0.62500349  0.50620203  1
  O2-  O158  1  0.87388818  0.87291972  -0.00315366  1
  O2-  O159  1  0.87444024  0.87591816  0.49514158  1
  O2-  O160  1  0.12577977  0.00040716  0.16670484  1
  O2-  O161  1  0.12461467  0.00198769  0.66331498  1
  O2-  O162  1  0.12514506  0.24848217  0.17236914  1
  O2-  O163  1  0.12427357  0.25041877  0.66049334  1
  O2-  O164  1  0.12457814  0.50002014  0.16664189  1
  O2-  O165  1  0.12631631  0.49934081  0.66283732  1
  O2-  O166  1  0.12508295  0.75186433  0.16667212  1
  O2-  O167  1  0.12547070  0.74750426  0.66194304  1
  O2-  O168  1  0.37490399  -0.00180840  0.16342107  1
  O2-  O169  1  0.37532325  0.00000110  0.66694053  1
  O2-  O170  1  0.37511543  0.25051437  0.16473794  1
  O2-  O171  1  0.37562033  0.25038112  0.66259678  1
  O2-  O172  1  0.37552694  0.50040201  0.16483758  1
  O2-  O173  1  0.37415247  0.49959118  0.66424883  1
  O2-  O174  1  0.37588688  0.75155271  0.16458805  1
  O2-  O175  1  0.37552610  0.74908719  0.66658401  1
  O2-  O176  1  0.62434359  -0.00080444  0.16681139  1
  O2-  O177  1  0.62664163  0.00004981  0.65998662  1
  O2-  O178  1  0.62486455  0.25105119  0.16950115  1
  O2-  O179  1  0.62452249  0.25013306  0.65778320  1
  O2-  O180  1  0.62559160  0.50006568  0.16649089  1
  O2-  O181  1  0.62416167  0.49870922  0.66170628  1
  O2-  O182  1  0.62416580  0.75031094  0.16631222  1
  O2-  O183  1  0.62463313  0.75073382  0.66172983  1
  O2-  O184  1  0.87489451  -0.00128399  0.16256695  1
  O2-  O185  1  0.87380996  0.00017772  0.66357946  1
  O2-  O186  1  0.87495180  0.25141194  0.17126981  1
  O2-  O187  1  0.87518635  0.25268980  0.66312725  1
  O2-  O188  1  0.87428833  0.50030158  0.16838431  1
  O2-  O189  1  0.87550118  0.49658142  0.66419341  1
  O2-  O190  1  0.87488767  0.74967759  0.16462573  1
  O2-  O191  1  0.87500361  0.75034775  0.66114960  1
  O2-  O192  1  0.00171660  0.12448827  0.17066793  1
  O2-  O193  1  0.00118375  0.12556713  0.66237156  1
  O2-  O194  1  -0.00216083  0.37572125  0.17394980  1
  O2-  O195  1  0.00087335  0.37498471  0.66043618  1
  O2-  O196  1  -0.00044085  0.62551121  0.16810760  1
  O2-  O197  1  0.00324828  0.62376424  0.66183178  1
  O2-  O198  1  0.00017598  0.87495456  0.16473563  1
  O2-  O199  1  -0.00208367  0.87515503  0.66266928  1
  O2-  O200  1  0.24941068  0.12509845  0.16743787  1
  O2-  O201  1  0.24715054  0.12564898  0.66467277  1
  O2-  O202  1  0.25080066  0.37441600  0.16480999  1
  O2-  O203  1  0.24832842  0.37393398  0.66315406  1
  O2-  O204  1  0.25156580  0.62551486  0.16627615  1
  O2-  O205  1  0.24891797  0.62468134  0.66519827  1
  O2-  O206  1  0.25201435  0.87531152  0.16444188  1
  O2-  O207  1  0.25055609  0.87456884  0.66744552  1
  O2-  O208  1  0.49840899  0.12530188  0.16663189  1
  O2-  O209  1  0.50342787  0.12430819  0.66250282  1
  O2-  O210  1  0.50116034  0.37484264  0.16513177  1
  O2-  O211  1  0.50109047  0.37498629  0.66023813  1
  O2-  O212  1  0.49939717  0.62489814  0.16503341  1
  O2-  O213  1  0.49980358  0.62467607  0.66504149  1
  O2-  O214  1  0.49811737  0.87540720  0.16387262  1
  O2-  O215  1  0.50396481  0.87549564  0.66491135  1
  O2-  O216  1  0.75025378  0.12526043  0.16614142  1
  O2-  O217  1  0.74834423  0.12632543  0.66259149  1
  O2-  O218  1  0.75085091  0.37565045  0.17101734  1
  O2-  O219  1  0.74923649  0.37458910  0.65964858  1
  O2-  O220  1  0.74932472  0.62503060  0.16675042  1
  O2-  O221  1  0.74818717  0.62397334  0.66221001  1
  O2-  O222  1  0.74935133  0.87489937  0.16511878  1
  O2-  O223  1  0.74820985  0.87436928  0.65986153  1
  O2-  O224  1  0.12477016  0.00293014  0.35012678  1
  O2-  O225  1  0.12549470  -0.00144498  0.84583280  1
  O2-  O226  1  0.12492449  0.25055175  0.35568040  1
  O2-  O227  1  0.12521663  0.24788449  0.84540593  1
  O2-  O228  1  0.12419053  0.49910963  0.35125175  1
  O2-  O229  1  0.12429523  0.50064647  0.84771969  1
  O2-  O230  1  0.12607053  0.74764712  0.35103666  1
  O2-  O231  1  0.12545927  0.75263960  0.84410467  1
  O2-  O232  1  0.37540854  -0.00031974  0.34782391  1
  O2-  O233  1  0.37507724  -0.00186515  0.84904246  1
  O2-  O234  1  0.37492194  0.25250701  0.34771451  1
  O2-  O235  1  0.37489744  0.24966961  0.84440536  1
  O2-  O236  1  0.37489927  0.49961471  0.34493178  1
  O2-  O237  1  0.37540890  0.50004942  0.84835421  1
  O2-  O238  1  0.37462267  0.74837303  0.34638571  1
  O2-  O239  1  0.37505543  0.75178751  0.85079370  1
  O2-  O240  1  0.62485145  0.00047162  0.35094957  1
  O2-  O241  1  0.62405683  -0.00285437  0.84338459  1
  O2-  O242  1  0.62569667  0.24976435  0.35381369  1
  O2-  O243  1  0.62496198  0.25217524  0.84165080  1
  O2-  O244  1  0.62510167  0.49785402  0.35148504  1
  O2-  O245  1  0.62517416  0.50053390  0.84211442  1
  O2-  O246  1  0.62495649  0.75212966  0.35119420  1
  O2-  O247  1  0.62486300  0.75002867  0.84210952  1
  O2-  O248  1  0.87469253  0.00091104  0.34357301  1
  O2-  O249  1  0.87510900  -0.00244718  0.84694862  1
  O2-  O250  1  0.87442059  0.25068688  0.35222695  1
  O2-  O251  1  0.87501073  0.25107258  0.84828564  1
  O2-  O252  1  0.87555706  0.49679355  0.35166984  1
  O2-  O253  1  0.87496196  0.50105992  0.84669218  1
  O2-  O254  1  0.87432976  0.75192384  0.34729803  1
  O2-  O255  1  0.87451418  0.74999662  0.84171804  1
  O2-  O256  1  0.00080037  0.12648443  0.35159210  1
  O2-  O257  1  0.00210877  0.12496697  0.84729229  1
  O2-  O258  1  0.00055080  0.37382616  0.35698942  1
  O2-  O259  1  -0.00149748  0.37441909  0.84561276  1
  O2-  O260  1  0.00388384  0.62478313  0.35185277  1
  O2-  O261  1  -0.00255358  0.62514816  0.84406179  1
  O2-  O262  1  -0.00175267  0.87523656  0.34759294  1
  O2-  O263  1  -0.00057433  0.87488418  0.84445901  1
  O2-  O264  1  0.24717462  0.12562321  0.35087372  1
  O2-  O265  1  0.25137467  0.12417609  0.84720762  1
  O2-  O266  1  0.24813776  0.37537735  0.34766385  1
  O2-  O267  1  0.25241046  0.37514832  0.84690442  1
  O2-  O268  1  0.24838335  0.62369921  0.34666144  1
  O2-  O269  1  0.25067500  0.62535581  0.85035326  1
  O2-  O270  1  0.25058622  0.87549292  0.34845028  1
  O2-  O271  1  0.25153285  0.87490133  0.85039261  1
  O2-  O272  1  0.50305255  0.12538573  0.35068667  1
  O2-  O273  1  0.49729128  0.12437482  0.84391807  1
  O2-  O274  1  0.50128713  0.37492046  0.34888959  1
  O2-  O275  1  0.49970716  0.37530178  0.84176958  1
  O2-  O276  1  0.49855840  0.62478627  0.34693584  1
  O2-  O277  1  0.50140508  0.62556441  0.84734529  1
  O2-  O278  1  0.50276728  0.87518588  0.34856680  1
  O2-  O279  1  0.49839573  0.87430823  0.84788393  1
  O2-  O280  1  0.74904629  0.12533472  0.34904252  1
  O2-  O281  1  0.74938013  0.12513763  0.84732629  1
  O2-  O282  1  0.74968015  0.37490190  0.35535746  1
  O2-  O283  1  0.74950410  0.37522286  0.84292528  1
  O2-  O284  1  0.74893066  0.62481232  0.35145139  1
  O2-  O285  1  0.75034741  0.62471723  0.84132923  1
  O2-  O286  1  0.74857331  0.87577934  0.34837332  1
  O2-  O287  1  0.75027750  0.87469944  0.84138007  1
