# generated using pymatgen
data_BaYFeCuO5
_symmetry_space_group_name_H-M   'P 1'
_cell_length_a   15.67331699
_cell_length_b   15.67786903
_cell_length_c   15.50336883
_cell_angle_alpha   89.99199052
_cell_angle_beta   90.00222971
_cell_angle_gamma   90.00095506
_symmetry_Int_Tables_number   1
_chemical_formula_structural   BaYFeCuO5
_chemical_formula_sum   'Ba32 Y32 Fe32 Cu32 O160'
_cell_volume   3809.55303215
_cell_formula_units_Z   32
loop_
 _symmetry_equiv_pos_site_id
 _symmetry_equiv_pos_as_xyz
  1  'x, y, z'
loop_
 _atom_type_symbol
 _atom_type_oxidation_number
  Ba2+  2.0
  Y3+  3.0
  Fe3+  3.0
  Cu2+  2.0
  O2-  -2.0
loop_
 _atom_site_type_symbol
 _atom_site_label
 _atom_site_symmetry_multiplicity
 _atom_site_fract_x
 _atom_site_fract_y
 _atom_site_fract_z
 _atom_site_occupancy
  Ba2+  Ba0  1  0.00028138  0.00136846  0.01957237  1
  Ba2+  Ba1  1  -0.00623104  0.00700150  0.51453725  1
  Ba2+  Ba2  1  -0.00135425  0.25194138  0.01998894  1
  Ba2+  Ba3  1  -0.00414043  0.24978069  0.52003507  1
  Ba2+  Ba4  1  -0.00195273  0.49731471  0.01248427  1
  Ba2+  Ba5  1  -0.00185094  0.49822277  0.51825688  1
  Ba2+  Ba6  1  0.00130318  0.74982698  0.00619838  1
  Ba2+  Ba7  1  -0.00418067  0.74483422  0.51140930  1
  Ba2+  Ba8  1  0.24501907  -0.00493423  -0.00072815  1
  Ba2+  Ba9  1  0.25124916  -0.00338459  0.51071282  1
  Ba2+  Ba10  1  0.24725638  0.25612602  0.01740201  1
  Ba2+  Ba11  1  0.23944139  0.25176963  0.51716451  1
  Ba2+  Ba12  1  0.25236642  0.49830924  0.01451859  1
  Ba2+  Ba13  1  0.24818146  0.50684299  0.50554728  1
  Ba2+  Ba14  1  0.24801187  0.74943189  -0.00699421  1
  Ba2+  Ba15  1  0.25710202  0.74549706  0.50315553  1
  Ba2+  Ba16  1  0.49974337  -0.00012442  0.00684377  1
  Ba2+  Ba17  1  0.49917921  -0.00272851  0.51122414  1
  Ba2+  Ba18  1  0.50112083  0.25722353  0.00591833  1
  Ba2+  Ba19  1  0.51230320  0.25381980  0.51107394  1
  Ba2+  Ba20  1  0.49788835  0.49733501  0.00082859  1
  Ba2+  Ba21  1  0.50577786  0.50412070  0.51263485  1
  Ba2+  Ba22  1  0.49536552  0.74501035  0.00120113  1
  Ba2+  Ba23  1  0.49283174  0.74434722  0.51164394  1
  Ba2+  Ba24  1  0.75487485  0.00525376  0.02163189  1
  Ba2+  Ba25  1  0.75584723  0.00745364  0.51463246  1
  Ba2+  Ba26  1  0.75298131  0.25279376  0.01200978  1
  Ba2+  Ba27  1  0.75147213  0.25155941  0.51666789  1
  Ba2+  Ba28  1  0.75187888  0.49658452  0.00137542  1
  Ba2+  Ba29  1  0.74931763  0.49718171  0.52225851  1
  Ba2+  Ba30  1  0.75531839  0.74554290  0.01184029  1
  Ba2+  Ba31  1  0.75429906  0.74429443  0.52313010  1
  Y3+  Y32  1  -0.00187492  0.00217820  0.25823097  1
  Y3+  Y33  1  -0.00081642  0.00154465  0.75375789  1
  Y3+  Y34  1  -0.00201048  0.24992846  0.25488286  1
  Y3+  Y35  1  -0.00189065  0.25123978  0.75575970  1
  Y3+  Y36  1  -0.00084808  0.49897839  0.25381755  1
  Y3+  Y37  1  -0.00127370  0.49804779  0.75922484  1
  Y3+  Y38  1  -0.00132494  0.74856519  0.25663780  1
  Y3+  Y39  1  0.00012681  0.75027838  0.75782980  1
  Y3+  Y40  1  0.25034700  -0.00063869  0.26012657  1
  Y3+  Y41  1  0.25003399  -0.00197222  0.75470665  1
  Y3+  Y42  1  0.24993504  0.25236181  0.25521576  1
  Y3+  Y43  1  0.24919361  0.25136948  0.75770046  1
  Y3+  Y44  1  0.25222695  0.50063422  0.25802931  1
  Y3+  Y45  1  0.25041878  0.50004485  0.75747200  1
  Y3+  Y46  1  0.25254557  0.74717644  0.26363294  1
  Y3+  Y47  1  0.25144166  0.75074372  0.75412254  1
  Y3+  Y48  1  0.49994257  -0.00046844  0.25878252  1
  Y3+  Y49  1  0.49891048  -0.00137288  0.75593062  1
  Y3+  Y50  1  0.50143780  0.25181918  0.25684703  1
  Y3+  Y51  1  0.50180947  0.25349406  0.75767029  1
  Y3+  Y52  1  0.49869884  0.49956487  0.25924662  1
  Y3+  Y53  1  0.50180194  0.49954707  0.75707988  1
  Y3+  Y54  1  0.49713754  0.74852561  0.26156784  1
  Y3+  Y55  1  0.49833504  0.74822209  0.75463341  1
  Y3+  Y56  1  0.75192742  0.00285047  0.25729868  1
  Y3+  Y57  1  0.75109009  0.00207608  0.75345355  1
  Y3+  Y58  1  0.75119534  0.24977899  0.25721410  1
  Y3+  Y59  1  0.75023269  0.25271386  0.75683112  1
  Y3+  Y60  1  0.75088520  0.49756381  0.25475339  1
  Y3+  Y61  1  0.74843349  0.49739812  0.75955337  1
  Y3+  Y62  1  0.75175090  0.74969685  0.25429463  1
  Y3+  Y63  1  0.74983536  0.74800054  0.75858957  1
  Fe3+  Fe64  1  0.37496136  0.12671437  0.38030474  1
  Fe3+  Fe65  1  0.87546143  0.12559040  0.87598080  1
  Fe3+  Fe66  1  0.12469446  0.37531656  0.87661261  1
  Fe3+  Fe67  1  0.87508355  0.87727046  0.87613016  1
  Fe3+  Fe68  1  0.37413638  0.62375308  0.87413985  1
  Fe3+  Fe69  1  0.62585418  0.12472947  0.87675202  1
  Fe3+  Fe70  1  0.62604926  0.87495602  0.87892183  1
  Fe3+  Fe71  1  0.62614931  0.12553950  0.37667897  1
  Fe3+  Fe72  1  0.87439124  0.62302393  0.37520126  1
  Fe3+  Fe73  1  0.62746659  0.62423610  0.37742962  1
  Fe3+  Fe74  1  0.37570420  0.37444784  0.38120154  1
  Fe3+  Fe75  1  0.87569211  0.62438993  0.87595498  1
  Fe3+  Fe76  1  0.37432751  0.12572575  0.87858291  1
  Fe3+  Fe77  1  0.12383399  0.12528411  0.87594115  1
  Fe3+  Fe78  1  0.12334539  0.37564415  0.37599474  1
  Fe3+  Fe79  1  0.12394703  0.12605264  0.37706130  1
  Fe3+  Fe80  1  0.87447343  0.37467380  0.37656628  1
  Fe3+  Fe81  1  0.62652269  0.87371524  0.38044775  1
  Fe3+  Fe82  1  0.12353205  0.87400994  0.38137366  1
  Fe3+  Fe83  1  0.87412861  0.87502828  0.37759062  1
  Fe3+  Fe84  1  0.62463389  0.87449231  0.13464077  1
  Fe3+  Fe85  1  0.12635318  0.87380766  0.14125997  1
  Fe3+  Fe86  1  0.37477176  0.12448887  0.13483297  1
  Fe3+  Fe87  1  0.37554412  0.12646060  0.63487455  1
  Fe3+  Fe88  1  0.37391284  0.87328251  0.13857279  1
  Fe3+  Fe89  1  0.12386741  0.87452543  0.63454402  1
  Fe3+  Fe90  1  0.37468315  0.37612151  0.63454328  1
  Fe3+  Fe91  1  0.12651369  0.62588503  0.13864686  1
  Fe3+  Fe92  1  0.62546198  0.87447229  0.63515476  1
  Fe3+  Fe93  1  0.62377784  0.62469884  0.13565953  1
  Fe3+  Fe94  1  0.62456880  0.37550332  0.13827740  1
  Fe3+  Fe95  1  0.12472178  0.62478395  0.63909563  1
  Cu2+  Cu96  1  0.12339677  0.62413751  0.36425103  1
  Cu2+  Cu97  1  0.87528995  0.12648532  0.37157189  1
  Cu2+  Cu98  1  0.62500016  0.62526291  0.86525203  1
  Cu2+  Cu99  1  0.62658468  0.37561015  0.37277206  1
  Cu2+  Cu100  1  0.87575226  0.37363053  0.87233897  1
  Cu2+  Cu101  1  0.37619295  0.62288467  0.37373405  1
  Cu2+  Cu102  1  0.37597290  0.87573023  0.37562541  1
  Cu2+  Cu103  1  0.37530769  0.87533270  0.86135499  1
  Cu2+  Cu104  1  0.12469501  0.62464905  0.86266795  1
  Cu2+  Cu105  1  0.62519621  0.37450279  0.86402217  1
  Cu2+  Cu106  1  0.12356162  0.87574775  0.85870767  1
  Cu2+  Cu107  1  0.37377454  0.37433397  0.87170890  1
  Cu2+  Cu108  1  0.87565742  0.87486357  0.15036412  1
  Cu2+  Cu109  1  0.12541006  0.37581827  0.15160906  1
  Cu2+  Cu110  1  0.87490612  0.87469948  0.64928908  1
  Cu2+  Cu111  1  0.87500929  0.62466258  0.14791438  1
  Cu2+  Cu112  1  0.87487872  0.37568882  0.65287262  1
  Cu2+  Cu113  1  0.87542512  0.62401474  0.65652500  1
  Cu2+  Cu114  1  0.62379513  0.12492818  0.14905838  1
  Cu2+  Cu115  1  0.37429354  0.62358914  0.64319773  1
  Cu2+  Cu116  1  0.37511717  0.87452399  0.64085690  1
  Cu2+  Cu117  1  0.12657579  0.12442145  0.15134208  1
  Cu2+  Cu118  1  0.12499463  0.37592428  0.65136599  1
  Cu2+  Cu119  1  0.62391544  0.12516249  0.65138706  1
  Cu2+  Cu120  1  0.62532203  0.62521596  0.65353729  1
  Cu2+  Cu121  1  0.87413332  0.37544686  0.14055679  1
  Cu2+  Cu122  1  0.87429801  0.12658570  0.64291135  1
  Cu2+  Cu123  1  0.62487811  0.37555696  0.64332736  1
  Cu2+  Cu124  1  0.12552331  0.12498494  0.65002319  1
  Cu2+  Cu125  1  0.37544139  0.62555627  0.15319583  1
  Cu2+  Cu126  1  0.37639248  0.37581102  0.14263096  1
  Cu2+  Cu127  1  0.87530680  0.12556535  0.15179379  1
  O2-  O128  1  0.12516143  0.12384705  -0.00420133  1
  O2-  O129  1  0.12365357  0.12657590  0.49706702  1
  O2-  O130  1  0.12543239  0.37471475  -0.00308236  1
  O2-  O131  1  0.12207892  0.37498109  0.49603162  1
  O2-  O132  1  0.12710015  0.62807573  0.01871196  1
  O2-  O133  1  0.12323141  0.62514679  0.51871814  1
  O2-  O134  1  0.12675685  0.87383442  0.02097094  1
  O2-  O135  1  0.12294785  0.87417517  0.50800198  1
  O2-  O136  1  0.37355198  0.12381505  0.00646715  1
  O2-  O137  1  0.37539923  0.12693419  0.50702609  1
  O2-  O138  1  0.37480875  0.37415853  0.00712287  1
  O2-  O139  1  0.37485981  0.37405780  0.50753789  1
  O2-  O140  1  0.37376381  0.62497781  -0.00501158  1
  O2-  O141  1  0.37534572  0.62243058  0.50768738  1
  O2-  O142  1  0.37303092  0.87427112  0.01859469  1
  O2-  O143  1  0.37583457  0.87641590  0.50815597  1
  O2-  O144  1  0.62507365  0.12250033  -0.00346681  1
  O2-  O145  1  0.62545036  0.12412250  0.49681274  1
  O2-  O146  1  0.62391909  0.37558809  0.01757136  1
  O2-  O147  1  0.62672648  0.37592432  0.50867535  1
  O2-  O148  1  0.62285681  0.62581500  0.01567966  1
  O2-  O149  1  0.62911046  0.62599563  0.49756158  1
  O2-  O150  1  0.62511893  0.87528881  0.00677250  1
  O2-  O151  1  0.62688906  0.87350084  0.50646277  1
  O2-  O152  1  0.87631471  0.12382383  -0.00370716  1
  O2-  O153  1  0.87473297  0.12685772  0.50737515  1
  O2-  O154  1  0.87533116  0.37431649  0.00657658  1
  O2-  O155  1  0.87520294  0.37601200  0.49694426  1
  O2-  O156  1  0.87657823  0.62569213  -0.00341523  1
  O2-  O157  1  0.87379602  0.62299840  0.49507068  1
  O2-  O158  1  0.87565691  0.87765743  -0.00392384  1
  O2-  O159  1  0.87332932  0.87360752  0.49731992  1
  O2-  O160  1  0.12592772  -0.00116083  0.16934690  1
  O2-  O161  1  0.12474156  -0.00171808  0.66070312  1
  O2-  O162  1  0.12708176  0.25012666  0.16179049  1
  O2-  O163  1  0.12638016  0.25088651  0.66238364  1
  O2-  O164  1  0.12598551  0.50096860  0.16479759  1
  O2-  O165  1  0.12399586  0.50014476  0.66645274  1
  O2-  O166  1  0.12531472  0.74998184  0.17417738  1
  O2-  O167  1  0.12407267  0.75132747  0.66621600  1
  O2-  O168  1  0.37492195  -0.00029382  0.16715671  1
  O2-  O169  1  0.37596109  0.00318766  0.66325413  1
  O2-  O170  1  0.37521894  0.24699373  0.16378341  1
  O2-  O171  1  0.37391856  0.25059968  0.66273496  1
  O2-  O172  1  0.37549915  0.50178748  0.16629814  1
  O2-  O173  1  0.37495221  0.49715428  0.66348701  1
  O2-  O174  1  0.37545584  0.75087953  0.17079894  1
  O2-  O175  1  0.37481344  0.74918922  0.66459204  1
  O2-  O176  1  0.62416538  -0.00205428  0.16369323  1
  O2-  O177  1  0.62356619  -0.00150290  0.66147752  1
  O2-  O178  1  0.62373476  0.24972308  0.16525802  1
  O2-  O179  1  0.62451764  0.24893112  0.66514614  1
  O2-  O180  1  0.62446157  0.50079498  0.16804641  1
  O2-  O181  1  0.62468808  0.50185992  0.66652271  1
  O2-  O182  1  0.62522684  0.75141842  0.16542377  1
  O2-  O183  1  0.62612817  0.75103083  0.66462026  1
  O2-  O184  1  0.87545531  0.00090189  0.16556824  1
  O2-  O185  1  0.87478900  -0.00058753  0.66195690  1
  O2-  O186  1  0.87476681  0.24863979  0.16404539  1
  O2-  O187  1  0.87414734  0.25219798  0.66508029  1
  O2-  O188  1  0.87487751  0.50102319  0.16310845  1
  O2-  O189  1  0.87558691  0.49961538  0.66601354  1
  O2-  O190  1  0.87505265  0.75008780  0.16350198  1
  O2-  O191  1  0.87428373  0.74943928  0.66515485  1
  O2-  O192  1  0.00109031  0.12439724  0.16245668  1
  O2-  O193  1  0.00151224  0.12575128  0.66317816  1
  O2-  O194  1  0.00113189  0.37487409  0.16179191  1
  O2-  O195  1  -0.00018446  0.37484228  0.66329467  1
  O2-  O196  1  0.00027769  0.62558213  0.16399951  1
  O2-  O197  1  0.00010222  0.62546382  0.66636590  1
  O2-  O198  1  0.00071260  0.87527701  0.16633783  1
  O2-  O199  1  0.00085667  0.87482897  0.66138130  1
  O2-  O200  1  0.25257175  0.12430368  0.16690259  1
  O2-  O201  1  0.25199303  0.12473694  0.66266779  1
  O2-  O202  1  0.24960663  0.37553514  0.16736605  1
  O2-  O203  1  0.25135167  0.37482130  0.66214750  1
  O2-  O204  1  0.25083423  0.62516181  0.17033347  1
  O2-  O205  1  0.24773344  0.62484427  0.66645063  1
  O2-  O206  1  0.25061077  0.87485472  0.17480522  1
  O2-  O207  1  0.24658202  0.87581584  0.66311508  1
  O2-  O208  1  0.49727457  0.12304762  0.16511034  1
  O2-  O209  1  0.49777052  0.12583926  0.66522702  1
  O2-  O210  1  0.50213186  0.37492721  0.17036424  1
  O2-  O211  1  0.49693889  0.37425400  0.66472644  1
  O2-  O212  1  0.50016743  0.62646872  0.16779143  1
  O2-  O213  1  0.50094045  0.62543335  0.66445745  1
  O2-  O214  1  0.50059489  0.87547037  0.16660149  1
  O2-  O215  1  0.50334927  0.87468245  0.66576448  1
  O2-  O216  1  0.74971698  0.12384390  0.16222049  1
  O2-  O217  1  0.74784224  0.12463363  0.66434459  1
  O2-  O218  1  0.74772924  0.37427180  0.16477491  1
  O2-  O219  1  0.75102806  0.37584010  0.66650454  1
  O2-  O220  1  0.74949385  0.62652315  0.16074591  1
  O2-  O221  1  0.75111502  0.62499567  0.66604550  1
  O2-  O222  1  0.74884124  0.87536148  0.16048423  1
  O2-  O223  1  0.74840539  0.87532955  0.66365837  1
  O2-  O224  1  0.12542816  -0.00093988  0.35110555  1
  O2-  O225  1  0.12626088  0.00095460  0.84387401  1
  O2-  O226  1  0.12596649  0.25068144  0.34353185  1
  O2-  O227  1  0.12534521  0.24918391  0.84412940  1
  O2-  O228  1  0.12519056  0.49937802  0.34660706  1
  O2-  O229  1  0.12552727  0.49990609  0.84804603  1
  O2-  O230  1  0.12413274  0.75051514  0.35540160  1
  O2-  O231  1  0.12421092  0.75092520  0.84971773  1
  O2-  O232  1  0.37541445  0.00409829  0.35037400  1
  O2-  O233  1  0.37428910  0.00127440  0.84845963  1
  O2-  O234  1  0.37497334  0.25000611  0.34853739  1
  O2-  O235  1  0.37551033  0.24653333  0.84689482  1
  O2-  O236  1  0.37509610  0.49621010  0.34998040  1
  O2-  O237  1  0.37472317  0.50120722  0.84537973  1
  O2-  O238  1  0.37589299  0.74940155  0.35292078  1
  O2-  O239  1  0.37542147  0.75010707  0.84723855  1
  O2-  O240  1  0.62491677  -0.00124135  0.34769758  1
  O2-  O241  1  0.62479080  -0.00119458  0.84491943  1
  O2-  O242  1  0.62436845  0.24864678  0.34726809  1
  O2-  O243  1  0.62339175  0.24895717  0.84816158  1
  O2-  O244  1  0.62550377  0.50144946  0.34767030  1
  O2-  O245  1  0.62477670  0.49914532  0.85084649  1
  O2-  O246  1  0.62618790  0.75098395  0.34736237  1
  O2-  O247  1  0.62427891  0.75270265  0.84945150  1
  O2-  O248  1  0.87481566  -0.00133397  0.34850579  1
  O2-  O249  1  0.87420195  0.00089079  0.84203956  1
  O2-  O250  1  0.87548610  0.25170633  0.34579401  1
  O2-  O251  1  0.87513320  0.24792114  0.84652228  1
  O2-  O252  1  0.87521950  0.49937752  0.34343568  1
  O2-  O253  1  0.87450094  0.50076368  0.84931086  1
  O2-  O254  1  0.87459212  0.74996000  0.34545129  1
  O2-  O255  1  0.87515121  0.75093298  0.84756679  1
  O2-  O256  1  0.00189116  0.12503493  0.34511173  1
  O2-  O257  1  -0.00015743  0.12398161  0.84372166  1
  O2-  O258  1  -0.00045289  0.37518262  0.34288476  1
  O2-  O259  1  0.00206878  0.37476324  0.84582161  1
  O2-  O260  1  -0.00166252  0.62515857  0.34570881  1
  O2-  O261  1  -0.00014464  0.62572439  0.84753734  1
  O2-  O262  1  0.00037837  0.87469652  0.34853825  1
  O2-  O263  1  -0.00137125  0.87607702  0.84444864  1
  O2-  O264  1  0.25087102  0.12538493  0.34996952  1
  O2-  O265  1  0.25078584  0.12423563  0.84650860  1
  O2-  O266  1  0.25105151  0.37443884  0.35073593  1
  O2-  O267  1  0.24776927  0.37410319  0.84417864  1
  O2-  O268  1  0.24855785  0.62427152  0.35348420  1
  O2-  O269  1  0.24973233  0.62672076  0.84659986  1
  O2-  O270  1  0.24685904  0.87518274  0.35548681  1
  O2-  O271  1  0.24924175  0.87541222  0.84797772  1
  O2-  O272  1  0.49897517  0.12502482  0.34864091  1
  O2-  O273  1  0.49887208  0.12303749  0.84935351  1
  O2-  O274  1  0.49789286  0.37371405  0.35265401  1
  O2-  O275  1  0.50099459  0.37488540  0.84876801  1
  O2-  O276  1  0.50292302  0.62526941  0.34910558  1
  O2-  O277  1  0.49950216  0.62534373  0.84739134  1
  O2-  O278  1  0.50403178  0.87574160  0.34995664  1
  O2-  O279  1  0.50207376  0.87638420  0.85104461  1
  O2-  O280  1  0.74867716  0.12445669  0.34531527  1
  O2-  O281  1  0.74996721  0.12478012  0.84528013  1
  O2-  O282  1  0.75185962  0.37476065  0.34485600  1
  O2-  O283  1  0.74878575  0.37413727  0.85042643  1
  O2-  O284  1  0.75084291  0.62542337  0.34015981  1
  O2-  O285  1  0.75032883  0.62605834  0.84930729  1
  O2-  O286  1  0.74901425  0.87535020  0.34399574  1
  O2-  O287  1  0.74936565  0.87499519  0.84690835  1
