# generated using pymatgen
data_BaYFeCuO5
_symmetry_space_group_name_H-M   'P 1'
_cell_length_a   15.66855550
_cell_length_b   15.67025051
_cell_length_c   15.47933684
_cell_angle_alpha   90.00182546
_cell_angle_beta   89.99727918
_cell_angle_gamma   89.99531677
_symmetry_Int_Tables_number   1
_chemical_formula_structural   BaYFeCuO5
_chemical_formula_sum   'Ba32 Y32 Fe32 Cu32 O160'
_cell_volume   3800.64449490
_cell_formula_units_Z   32
loop_
 _symmetry_equiv_pos_site_id
 _symmetry_equiv_pos_as_xyz
  1  'x, y, z'
loop_
 _atom_type_symbol
 _atom_type_oxidation_number
  Ba2+  2.0
  Y3+  3.0
  Fe3+  3.0
  Cu2+  2.0
  O2-  -2.0
loop_
 _atom_site_type_symbol
 _atom_site_label
 _atom_site_symmetry_multiplicity
 _atom_site_fract_x
 _atom_site_fract_y
 _atom_site_fract_z
 _atom_site_occupancy
  Ba2+  Ba0  1  0.00793305  -0.00172767  0.00503246  1
  Ba2+  Ba1  1  0.00468827  -0.00526781  0.52198611  1
  Ba2+  Ba2  1  0.00669750  0.25591596  0.00707321  1
  Ba2+  Ba3  1  0.00562814  0.25539770  0.51366361  1
  Ba2+  Ba4  1  -0.00621333  0.49517272  0.00703472  1
  Ba2+  Ba5  1  0.00279299  0.50395042  0.51213023  1
  Ba2+  Ba6  1  -0.00756835  0.75093788  0.00763608  1
  Ba2+  Ba7  1  0.00124845  0.74682795  0.52194105  1
  Ba2+  Ba8  1  0.24863400  0.00258794  0.01242714  1
  Ba2+  Ba9  1  0.24899056  -0.00156053  0.51706073  1
  Ba2+  Ba10  1  0.24091970  0.24567682  0.01074697  1
  Ba2+  Ba11  1  0.24917831  0.25210310  0.51795002  1
  Ba2+  Ba12  1  0.24643116  0.49746875  0.01087379  1
  Ba2+  Ba13  1  0.24697470  0.50264625  0.51148382  1
  Ba2+  Ba14  1  0.25535046  0.75459890  0.01362941  1
  Ba2+  Ba15  1  0.24671416  0.74686230  0.51120625  1
  Ba2+  Ba16  1  0.49658521  -0.00860736  0.01783698  1
  Ba2+  Ba17  1  0.49487942  -0.00437938  0.50116656  1
  Ba2+  Ba18  1  0.49438008  0.24470505  0.01233424  1
  Ba2+  Ba19  1  0.49514277  0.25637948  0.51240346  1
  Ba2+  Ba20  1  0.50220975  0.51163072  0.01101849  1
  Ba2+  Ba21  1  0.50046757  0.50031986  0.51885997  1
  Ba2+  Ba22  1  0.50486443  0.75112030  0.01593959  1
  Ba2+  Ba23  1  0.49946163  0.74829703  0.50446531  1
  Ba2+  Ba24  1  0.74793379  -0.01262474  0.01239386  1
  Ba2+  Ba25  1  0.75065328  -0.01001917  0.50580742  1
  Ba2+  Ba26  1  0.75768607  0.25723466  0.00726728  1
  Ba2+  Ba27  1  0.75061185  0.26055769  0.50596416  1
  Ba2+  Ba28  1  0.75572247  0.50781192  0.00682889  1
  Ba2+  Ba29  1  0.75030854  0.50261211  0.52030000  1
  Ba2+  Ba30  1  0.74699996  0.74658942  0.01102235  1
  Ba2+  Ba31  1  0.75150287  0.74707469  0.51879205  1
  Y3+  Y32  1  0.00057733  0.00055194  0.25422484  1
  Y3+  Y33  1  0.00358435  -0.00075366  0.75876695  1
  Y3+  Y34  1  0.00103594  0.25250103  0.25277840  1
  Y3+  Y35  1  0.00333009  0.25130512  0.76257611  1
  Y3+  Y36  1  -0.00111973  0.49935924  0.25395583  1
  Y3+  Y37  1  0.00014370  0.50086719  0.76145041  1
  Y3+  Y38  1  -0.00145094  0.74713922  0.25573285  1
  Y3+  Y39  1  0.00020832  0.74887223  0.75770889  1
  Y3+  Y40  1  0.25123060  0.00241772  0.25546704  1
  Y3+  Y41  1  0.24700686  -0.00066664  0.75789880  1
  Y3+  Y42  1  0.24836569  0.24826505  0.25361029  1
  Y3+  Y43  1  0.24598479  0.25065700  0.75975699  1
  Y3+  Y44  1  0.24813334  0.50215806  0.25686828  1
  Y3+  Y45  1  0.24698318  0.49905684  0.75679792  1
  Y3+  Y46  1  0.25096821  0.74689941  0.25888940  1
  Y3+  Y47  1  0.24806011  0.75139579  0.75500232  1
  Y3+  Y48  1  0.49873493  -0.00191061  0.25709611  1
  Y3+  Y49  1  0.50026829  -0.00244979  0.75777464  1
  Y3+  Y50  1  0.49773769  0.24796607  0.25778024  1
  Y3+  Y51  1  0.49987420  0.25161313  0.75688067  1
  Y3+  Y52  1  0.49927191  0.50436767  0.25490162  1
  Y3+  Y53  1  0.50229064  0.50108178  0.75870914  1
  Y3+  Y54  1  0.50072784  0.74959180  0.25456160  1
  Y3+  Y55  1  0.50267876  0.74987522  0.75946573  1
  Y3+  Y56  1  0.74926411  -0.00323429  0.25675870  1
  Y3+  Y57  1  0.74950110  -0.00242922  0.75791565  1
  Y3+  Y58  1  0.75266931  0.25167248  0.25644847  1
  Y3+  Y59  1  0.75136519  0.25201958  0.75922884  1
  Y3+  Y60  1  0.75326677  0.50153587  0.25205900  1
  Y3+  Y61  1  0.75107935  0.50301166  0.76309912  1
  Y3+  Y62  1  0.74933212  0.74950190  0.25227307  1
  Y3+  Y63  1  0.74942173  0.74745947  0.76184300  1
  Fe3+  Fe64  1  0.87487177  0.62415909  0.37602545  1
  Fe3+  Fe65  1  0.37343416  0.87406692  0.37556077  1
  Fe3+  Fe66  1  0.87520153  0.87497660  0.87565133  1
  Fe3+  Fe67  1  0.37448209  0.62579971  0.87764665  1
  Fe3+  Fe68  1  0.12396690  0.87417723  0.37591472  1
  Fe3+  Fe69  1  0.62618577  0.62482058  0.37572583  1
  Fe3+  Fe70  1  0.62505084  0.12531588  0.37978600  1
  Fe3+  Fe71  1  0.62498331  0.12378614  0.88096583  1
  Fe3+  Fe72  1  0.62508293  0.37743344  0.37396618  1
  Fe3+  Fe73  1  0.12544147  0.62629827  0.87999855  1
  Fe3+  Fe74  1  0.37478249  0.87473555  0.87551438  1
  Fe3+  Fe75  1  0.37408611  0.37599773  0.37439265  1
  Fe3+  Fe76  1  0.37485400  0.12424024  0.87689270  1
  Fe3+  Fe77  1  0.37475237  0.37523902  0.87986279  1
  Fe3+  Fe78  1  0.87633175  0.12549877  0.38057606  1
  Fe3+  Fe79  1  0.87595850  0.87329948  0.37617411  1
  Fe3+  Fe80  1  0.87541634  0.12428336  0.87984043  1
  Fe3+  Fe81  1  0.12458278  0.37556312  0.37440489  1
  Fe3+  Fe82  1  0.62457473  0.37529092  0.88071765  1
  Fe3+  Fe83  1  0.12502287  0.12479889  0.37718427  1
  Fe3+  Fe84  1  0.87507017  0.12515915  0.63534820  1
  Fe3+  Fe85  1  0.37511255  0.12472269  0.63784481  1
  Fe3+  Fe86  1  0.12510259  0.87414161  0.13681409  1
  Fe3+  Fe87  1  0.62467011  0.37550877  0.13353743  1
  Fe3+  Fe88  1  0.87565585  0.12397802  0.13384357  1
  Fe3+  Fe89  1  0.62418491  0.87422933  0.63785366  1
  Fe3+  Fe90  1  0.87613924  0.37585442  0.64120274  1
  Fe3+  Fe91  1  0.37525278  0.62554968  0.63899835  1
  Fe3+  Fe92  1  0.37452882  0.37535691  0.13376395  1
  Fe3+  Fe93  1  0.12433382  0.62505401  0.13391421  1
  Fe3+  Fe94  1  0.62561460  0.12555166  0.63423275  1
  Fe3+  Fe95  1  0.62584192  0.12474816  0.13507737  1
  Cu2+  Cu96  1  0.12571680  0.37640310  0.87325104  1
  Cu2+  Cu97  1  0.37410021  0.12568847  0.36533335  1
  Cu2+  Cu98  1  0.87536559  0.37557291  0.36229075  1
  Cu2+  Cu99  1  0.87538004  0.37508212  0.87274198  1
  Cu2+  Cu100  1  0.12591833  0.87381058  0.86553157  1
  Cu2+  Cu101  1  0.62545070  0.87375675  0.36247098  1
  Cu2+  Cu102  1  0.12359799  0.62502889  0.37169556  1
  Cu2+  Cu103  1  0.62444612  0.87502694  0.87280092  1
  Cu2+  Cu104  1  0.12543876  0.12433619  0.87254247  1
  Cu2+  Cu105  1  0.37523816  0.62423400  0.36330290  1
  Cu2+  Cu106  1  0.62433829  0.62580412  0.87340116  1
  Cu2+  Cu107  1  0.87587988  0.62599726  0.87262839  1
  Cu2+  Cu108  1  0.62614689  0.37518711  0.65586579  1
  Cu2+  Cu109  1  0.87514387  0.37479910  0.14127490  1
  Cu2+  Cu110  1  0.12519331  0.37579282  0.14099945  1
  Cu2+  Cu111  1  0.87441201  0.87469603  0.65349991  1
  Cu2+  Cu112  1  0.87579464  0.62548574  0.14018245  1
  Cu2+  Cu113  1  0.62484273  0.87467879  0.14326049  1
  Cu2+  Cu114  1  0.87507953  0.62475780  0.65570620  1
  Cu2+  Cu115  1  0.37506581  0.12488566  0.14970753  1
  Cu2+  Cu116  1  0.12433484  0.12552403  0.65227092  1
  Cu2+  Cu117  1  0.37410916  0.62508891  0.14773928  1
  Cu2+  Cu118  1  0.12397608  0.12452963  0.14134644  1
  Cu2+  Cu119  1  0.87576950  0.87531970  0.14937776  1
  Cu2+  Cu120  1  0.37546290  0.87455778  0.65043909  1
  Cu2+  Cu121  1  0.37429242  0.37553616  0.65580863  1
  Cu2+  Cu122  1  0.12513761  0.87434684  0.65308382  1
  Cu2+  Cu123  1  0.62552199  0.62479328  0.14170717  1
  Cu2+  Cu124  1  0.12494145  0.62430843  0.64424107  1
  Cu2+  Cu125  1  0.62518022  0.62509552  0.65391638  1
  Cu2+  Cu126  1  0.12424329  0.37563443  0.65489623  1
  Cu2+  Cu127  1  0.37374886  0.87454463  0.15363440  1
  O2-  O128  1  0.12434493  0.12362907  0.00642379  1
  O2-  O129  1  0.12459631  0.12539489  0.49726219  1
  O2-  O130  1  0.12669854  0.37592638  0.00677676  1
  O2-  O131  1  0.12589538  0.37501414  0.49497686  1
  O2-  O132  1  0.12579721  0.62667012  0.00695196  1
  O2-  O133  1  0.12417596  0.62456933  0.50766900  1
  O2-  O134  1  0.12660255  0.87409570  0.01614277  1
  O2-  O135  1  0.12403983  0.87489773  0.49624859  1
  O2-  O136  1  0.37622131  0.12291159  -0.00277254  1
  O2-  O137  1  0.37576264  0.12650342  0.51725214  1
  O2-  O138  1  0.37554377  0.37425256  0.00613558  1
  O2-  O139  1  0.37491939  0.37614071  0.49466517  1
  O2-  O140  1  0.37412959  0.62697045  -0.00214343  1
  O2-  O141  1  0.37569606  0.62350591  0.51815580  1
  O2-  O142  1  0.37453062  0.87565983  -0.00404648  1
  O2-  O143  1  0.37367801  0.87454542  0.49607237  1
  O2-  O144  1  0.62540090  0.12432854  0.00742520  1
  O2-  O145  1  0.62542758  0.12615072  0.50764823  1
  O2-  O146  1  0.62391264  0.37397292  0.00676737  1
  O2-  O147  1  0.62454959  0.37680039  0.49424704  1
  O2-  O148  1  0.62440118  0.62558701  0.00710963  1
  O2-  O149  1  0.62621655  0.62323783  0.49613269  1
  O2-  O150  1  0.62396257  0.87557495  0.00834410  1
  O2-  O151  1  0.62429328  0.87482777  0.51729337  1
  O2-  O152  1  0.87458981  0.12333429  0.00671175  1
  O2-  O153  1  0.87553737  0.12578845  0.50728715  1
  O2-  O154  1  0.87447248  0.37381466  0.00716782  1
  O2-  O155  1  0.87536911  0.37551196  0.52040861  1
  O2-  O156  1  0.87605880  0.62657090  0.00640709  1
  O2-  O157  1  0.87425020  0.62444649  0.49652163  1
  O2-  O158  1  0.87524718  0.87667900  -0.00380962  1
  O2-  O159  1  0.87644026  0.87360530  0.49643190  1
  O2-  O160  1  0.12488785  -0.00186431  0.16507132  1
  O2-  O161  1  0.12430070  -0.00057928  0.66424063  1
  O2-  O162  1  0.12484969  0.24989652  0.16292066  1
  O2-  O163  1  0.12446481  0.25082698  0.66648301  1
  O2-  O164  1  0.12527970  0.50294539  0.16222400  1
  O2-  O165  1  0.12429510  0.49876629  0.66816912  1
  O2-  O166  1  0.12556670  0.74874208  0.16453928  1
  O2-  O167  1  0.12492234  0.75095958  0.66587940  1
  O2-  O168  1  0.37543189  0.00007901  0.16476869  1
  O2-  O169  1  0.37615553  0.00030745  0.66391163  1
  O2-  O170  1  0.37586911  0.25135834  0.16191673  1
  O2-  O171  1  0.37535263  0.25002502  0.66773025  1
  O2-  O172  1  0.37600311  0.49835832  0.15979882  1
  O2-  O173  1  0.37595850  0.49991589  0.66922326  1
  O2-  O174  1  0.37425159  0.74992042  0.16432975  1
  O2-  O175  1  0.37523964  0.75016612  0.66469701  1
  O2-  O176  1  0.62502906  0.00307375  0.16601946  1
  O2-  O177  1  0.62542809  0.00185976  0.66538240  1
  O2-  O178  1  0.62497726  0.24945182  0.16205489  1
  O2-  O179  1  0.62615115  0.24803902  0.66590866  1
  O2-  O180  1  0.62355492  0.49694375  0.16024626  1
  O2-  O181  1  0.62519846  0.50006996  0.66717459  1
  O2-  O182  1  0.62481919  0.74983381  0.16450159  1
  O2-  O183  1  0.62559161  0.75027767  0.66640321  1
  O2-  O184  1  0.87386238  0.00165341  0.16548799  1
  O2-  O185  1  0.87411955  0.00212099  0.66236553  1
  O2-  O186  1  0.87369958  0.24645504  0.16476791  1
  O2-  O187  1  0.87433171  0.24864750  0.66737356  1
  O2-  O188  1  0.87527732  0.49987899  0.16269326  1
  O2-  O189  1  0.87481847  0.49991093  0.66902258  1
  O2-  O190  1  0.87520159  0.75180829  0.16271606  1
  O2-  O191  1  0.87441307  0.74936481  0.66406755  1
  O2-  O192  1  -0.00311469  0.12439655  0.16379750  1
  O2-  O193  1  -0.00162196  0.12521018  0.66451326  1
  O2-  O194  1  0.00020017  0.37439567  0.16371087  1
  O2-  O195  1  -0.00040677  0.37420461  0.66864703  1
  O2-  O196  1  0.00261983  0.62556033  0.16208266  1
  O2-  O197  1  -0.00099512  0.62508707  0.66750731  1
  O2-  O198  1  0.00059103  0.87541064  0.16261273  1
  O2-  O199  1  -0.00077079  0.87539547  0.66503299  1
  O2-  O200  1  0.25098797  0.12477074  0.16274431  1
  O2-  O201  1  0.24986198  0.12529922  0.66502796  1
  O2-  O202  1  0.25325209  0.37515974  0.16117254  1
  O2-  O203  1  0.24863871  0.37504357  0.66540807  1
  O2-  O204  1  0.24818687  0.62488715  0.16337737  1
  O2-  O205  1  0.25167575  0.62430567  0.66729298  1
  O2-  O206  1  0.24943529  0.87486791  0.16486111  1
  O2-  O207  1  0.25019175  0.87560829  0.66331938  1
  O2-  O208  1  0.50199046  0.12536171  0.16387833  1
  O2-  O209  1  0.50207818  0.12645434  0.66570806  1
  O2-  O210  1  0.49983912  0.37297108  0.15990966  1
  O2-  O211  1  0.50121548  0.37410816  0.66619222  1
  O2-  O212  1  0.49849649  0.62552970  0.16402396  1
  O2-  O213  1  0.50001609  0.62425529  0.66682066  1
  O2-  O214  1  0.49750350  0.87566458  0.16521726  1
  O2-  O215  1  0.50125821  0.87559652  0.66702567  1
  O2-  O216  1  0.75000021  0.12487341  0.16464284  1
  O2-  O217  1  0.74976835  0.12538821  0.66434916  1
  O2-  O218  1  0.74664437  0.37333427  0.16288224  1
  O2-  O219  1  0.75126685  0.37448191  0.66906869  1
  O2-  O220  1  0.75061652  0.62468929  0.16262001  1
  O2-  O221  1  0.74976033  0.62432051  0.66695510  1
  O2-  O222  1  0.75185597  0.87644847  0.16433226  1
  O2-  O223  1  0.74893046  0.87611530  0.66572195  1
  O2-  O224  1  0.12417700  0.00014165  0.34500223  1
  O2-  O225  1  0.12554675  -0.00184414  0.84876098  1
  O2-  O226  1  0.12416737  0.24974596  0.34391409  1
  O2-  O227  1  0.12511040  0.25040188  0.85073635  1
  O2-  O228  1  0.12479572  0.49839136  0.34480552  1
  O2-  O229  1  0.12612993  0.50351764  0.85163468  1
  O2-  O230  1  0.12450378  0.75152060  0.34566043  1
  O2-  O231  1  0.12574674  0.74833178  0.84936176  1
  O2-  O232  1  0.37548032  -0.00020073  0.34820433  1
  O2-  O233  1  0.37548356  0.00027267  0.84413229  1
  O2-  O234  1  0.37579409  0.25095214  0.34526248  1
  O2-  O235  1  0.37685359  0.25100582  0.85048321  1
  O2-  O236  1  0.37479342  0.49942590  0.34273917  1
  O2-  O237  1  0.37564884  0.49874639  0.85193599  1
  O2-  O238  1  0.37514487  0.74972541  0.34807702  1
  O2-  O239  1  0.37452068  0.75007087  0.84516184  1
  O2-  O240  1  0.62565854  0.00172084  0.35172404  1
  O2-  O241  1  0.62538660  0.00335748  0.84825907  1
  O2-  O242  1  0.62525384  0.24920328  0.34629612  1
  O2-  O243  1  0.62472158  0.24936277  0.85149633  1
  O2-  O244  1  0.62527347  0.50047838  0.34060251  1
  O2-  O245  1  0.62436329  0.49712231  0.85211134  1
  O2-  O246  1  0.62485162  0.74879885  0.34698250  1
  O2-  O247  1  0.62457911  0.75033439  0.84942469  1
  O2-  O248  1  0.87382047  0.00150876  0.34894586  1
  O2-  O249  1  0.87428514  0.00151329  0.84597447  1
  O2-  O250  1  0.87395975  0.24845144  0.35025015  1
  O2-  O251  1  0.87424344  0.24648260  0.85061392  1
  O2-  O252  1  0.87431197  0.49976625  0.34526138  1
  O2-  O253  1  0.87477151  0.50030867  0.85166553  1
  O2-  O254  1  0.87456897  0.74969955  0.34389067  1
  O2-  O255  1  0.87574745  0.75214361  0.84693011  1
  O2-  O256  1  -0.00141370  0.12515126  0.34669317  1
  O2-  O257  1  -0.00242449  0.12395016  0.85027808  1
  O2-  O258  1  0.00004433  0.37426400  0.34620453  1
  O2-  O259  1  0.00019333  0.37497642  0.85070961  1
  O2-  O260  1  -0.00277804  0.62406561  0.34387627  1
  O2-  O261  1  0.00311217  0.62565600  0.85125068  1
  O2-  O262  1  -0.00063237  0.87587290  0.34209272  1
  O2-  O263  1  0.00032259  0.87606831  0.84881136  1
  O2-  O264  1  0.24853520  0.12556146  0.34568119  1
  O2-  O265  1  0.25218632  0.12546896  0.84723454  1
  O2-  O266  1  0.24958800  0.37471868  0.34213151  1
  O2-  O267  1  0.25358973  0.37486238  0.84955099  1
  O2-  O268  1  0.25107119  0.62434175  0.34823967  1
  O2-  O269  1  0.24949234  0.62497674  0.84852723  1
  O2-  O270  1  0.24928985  0.87509133  0.34484659  1
  O2-  O271  1  0.25079650  0.87495086  0.84643947  1
  O2-  O272  1  0.50206240  0.12521506  0.35013960  1
  O2-  O273  1  0.50145134  0.12573022  0.84833534  1
  O2-  O274  1  0.50013701  0.37470459  0.34158137  1
  O2-  O275  1  0.50011492  0.37398743  0.85093549  1
  O2-  O276  1  0.50089098  0.62465907  0.34729737  1
  O2-  O277  1  0.49768407  0.62448833  0.84785163  1
  O2-  O278  1  0.49969436  0.87553724  0.34841668  1
  O2-  O279  1  0.49843100  0.87588646  0.84715790  1
  O2-  O280  1  0.75023405  0.12579850  0.35119952  1
  O2-  O281  1  0.74953394  0.12546525  0.85016628  1
  O2-  O282  1  0.74960155  0.37338246  0.34573782  1
  O2-  O283  1  0.74690867  0.37317223  0.85191027  1
  O2-  O284  1  0.75044435  0.62454877  0.34314125  1
  O2-  O285  1  0.75002815  0.62535186  0.85130647  1
  O2-  O286  1  0.75083884  0.87600782  0.34717600  1
  O2-  O287  1  0.75106769  0.87637269  0.84763022  1
