# generated using pymatgen
data_BaYFeCuO5
_symmetry_space_group_name_H-M   'P 1'
_cell_length_a   15.64958455
_cell_length_b   15.65015085
_cell_length_c   15.44302442
_cell_angle_alpha   89.99948907
_cell_angle_beta   89.99776063
_cell_angle_gamma   89.99647630
_symmetry_Int_Tables_number   1
_chemical_formula_structural   BaYFeCuO5
_chemical_formula_sum   'Ba32 Y32 Fe32 Cu32 O160'
_cell_volume   3782.28018781
_cell_formula_units_Z   32
loop_
 _symmetry_equiv_pos_site_id
 _symmetry_equiv_pos_as_xyz
  1  'x, y, z'
loop_
 _atom_type_symbol
 _atom_type_oxidation_number
  Ba2+  2.0
  Y3+  3.0
  Fe3+  3.0
  Cu2+  2.0
  O2-  -2.0
loop_
 _atom_site_type_symbol
 _atom_site_label
 _atom_site_symmetry_multiplicity
 _atom_site_fract_x
 _atom_site_fract_y
 _atom_site_fract_z
 _atom_site_occupancy
  Ba2+  Ba0  1  -0.00018488  -0.00005243  0.01812522  1
  Ba2+  Ba1  1  -0.00021177  0.00418516  0.50682860  1
  Ba2+  Ba2  1  0.00399770  0.25207949  0.01323951  1
  Ba2+  Ba3  1  -0.00069303  0.23817665  0.50725327  1
  Ba2+  Ba4  1  -0.00403450  0.49475845  0.01236496  1
  Ba2+  Ba5  1  0.00297724  0.50413537  0.51196091  1
  Ba2+  Ba6  1  -0.00818601  0.75191053  0.01598674  1
  Ba2+  Ba7  1  0.00357340  0.75671623  0.51082319  1
  Ba2+  Ba8  1  0.24822412  0.00801035  0.01633968  1
  Ba2+  Ba9  1  0.24695157  0.00195812  0.50061221  1
  Ba2+  Ba10  1  0.25159037  0.25179187  0.01167755  1
  Ba2+  Ba11  1  0.24841524  0.23901653  0.50208954  1
  Ba2+  Ba12  1  0.25227201  0.48931675  0.00997015  1
  Ba2+  Ba13  1  0.24752571  0.50460201  0.51199033  1
  Ba2+  Ba14  1  0.24969470  0.75039741  0.01558639  1
  Ba2+  Ba15  1  0.24690049  0.75604315  0.51152674  1
  Ba2+  Ba16  1  0.50432457  0.00424060  0.01208798  1
  Ba2+  Ba17  1  0.49841661  0.00618901  0.50584544  1
  Ba2+  Ba18  1  0.49077128  0.24683311  0.01051996  1
  Ba2+  Ba19  1  0.50671872  0.24330145  0.50725529  1
  Ba2+  Ba20  1  0.49652093  0.50313328  0.01217004  1
  Ba2+  Ba21  1  0.50759090  0.49941208  0.51818008  1
  Ba2+  Ba22  1  0.50998541  0.74779126  0.00922070  1
  Ba2+  Ba23  1  0.49950668  0.75149264  0.51709397  1
  Ba2+  Ba24  1  0.74801498  -0.00417334  0.01222542  1
  Ba2+  Ba25  1  0.75402239  0.00734712  0.51124215  1
  Ba2+  Ba26  1  0.75471346  0.24605245  0.01177240  1
  Ba2+  Ba27  1  0.74614950  0.24120476  0.51086092  1
  Ba2+  Ba28  1  0.75349995  0.50847377  0.00957939  1
  Ba2+  Ba29  1  0.74164238  0.49912994  0.51802738  1
  Ba2+  Ba30  1  0.74837218  0.74868501  0.01043786  1
  Ba2+  Ba31  1  0.75013933  0.75174002  0.51708359  1
  Y3+  Y32  1  0.00173089  0.00070068  0.26079953  1
  Y3+  Y33  1  -0.00205416  0.00283746  0.75401624  1
  Y3+  Y34  1  0.00134163  0.24830342  0.25898076  1
  Y3+  Y35  1  0.00031531  0.24717511  0.75665682  1
  Y3+  Y36  1  -0.00112238  0.49846270  0.25439741  1
  Y3+  Y37  1  0.00064221  0.50002423  0.75967643  1
  Y3+  Y38  1  -0.00088925  0.75186354  0.25458385  1
  Y3+  Y39  1  -0.00168345  0.74978125  0.75739276  1
  Y3+  Y40  1  0.24821661  0.00268932  0.25735793  1
  Y3+  Y41  1  0.25097756  0.00227777  0.75796490  1
  Y3+  Y42  1  0.25000133  0.24781419  0.25458136  1
  Y3+  Y43  1  0.25057294  0.24970346  0.76222078  1
  Y3+  Y44  1  0.25123339  0.49767909  0.25366425  1
  Y3+  Y45  1  0.24885792  0.49735925  0.76033773  1
  Y3+  Y46  1  0.24963095  0.75132592  0.25581208  1
  Y3+  Y47  1  0.24988728  0.75069801  0.75668155  1
  Y3+  Y48  1  0.50150464  0.00296500  0.25550197  1
  Y3+  Y49  1  0.50038321  0.00073372  0.75983140  1
  Y3+  Y50  1  0.49901904  0.24676645  0.25565336  1
  Y3+  Y51  1  0.49920799  0.24905527  0.75958734  1
  Y3+  Y52  1  0.49929410  0.50002154  0.25268942  1
  Y3+  Y53  1  0.50199020  0.49975589  0.76067176  1
  Y3+  Y54  1  0.50180277  0.74957336  0.25170398  1
  Y3+  Y55  1  0.50271786  0.75145368  0.76073823  1
  Y3+  Y56  1  0.74846902  0.00094568  0.25812840  1
  Y3+  Y57  1  0.75078789  0.00149961  0.75635799  1
  Y3+  Y58  1  0.74994113  0.24694310  0.25986597  1
  Y3+  Y59  1  0.74954731  0.24708828  0.75429946  1
  Y3+  Y60  1  0.75070291  0.50095054  0.25244264  1
  Y3+  Y61  1  0.74850074  0.50219613  0.76010504  1
  Y3+  Y62  1  0.74968993  0.75048448  0.25077333  1
  Y3+  Y63  1  0.74904802  0.75016233  0.76215175  1
  Fe3+  Fe64  1  0.87419684  0.87445302  0.37703565  1
  Fe3+  Fe65  1  0.12529222  0.37532384  0.37961993  1
  Fe3+  Fe66  1  0.37492317  0.87604353  0.88050192  1
  Fe3+  Fe67  1  0.12501684  0.62552833  0.37573651  1
  Fe3+  Fe68  1  0.87535405  0.87659933  0.87587337  1
  Fe3+  Fe69  1  0.87405480  0.37528929  0.38039967  1
  Fe3+  Fe70  1  0.37582631  0.37464016  0.38035087  1
  Fe3+  Fe71  1  0.12423481  0.62510200  0.87988951  1
  Fe3+  Fe72  1  0.62598657  0.12517728  0.87770637  1
  Fe3+  Fe73  1  0.87415631  0.62513314  0.37883721  1
  Fe3+  Fe74  1  0.62532945  0.37435993  0.87977410  1
  Fe3+  Fe75  1  0.12394913  0.12469332  0.87783277  1
  Fe3+  Fe76  1  0.62505879  0.62549900  0.37581340  1
  Fe3+  Fe77  1  0.37585862  0.62505792  0.37853218  1
  Fe3+  Fe78  1  0.62482257  0.87470479  0.37871751  1
  Fe3+  Fe79  1  0.37581124  0.87480127  0.37595505  1
  Fe3+  Fe80  1  0.12441145  0.87572792  0.87887449  1
  Fe3+  Fe81  1  0.37431599  0.62544197  0.87696966  1
  Fe3+  Fe82  1  0.87472194  0.37345851  0.87515001  1
  Fe3+  Fe83  1  0.62483160  0.37525746  0.37514188  1
  Fe3+  Fe84  1  0.62561525  0.37354636  0.13377321  1
  Fe3+  Fe85  1  0.87498351  0.62556298  0.63544348  1
  Fe3+  Fe86  1  0.37510087  0.62556133  0.63593954  1
  Fe3+  Fe87  1  0.37566718  0.87577575  0.13521339  1
  Fe3+  Fe88  1  0.87427696  0.37459644  0.63382049  1
  Fe3+  Fe89  1  0.12478503  0.62403538  0.13493933  1
  Fe3+  Fe90  1  0.87536740  0.12447632  0.13938868  1
  Fe3+  Fe91  1  0.12530594  0.37369687  0.63451830  1
  Fe3+  Fe92  1  0.37548838  0.37396422  0.63456882  1
  Fe3+  Fe93  1  0.12499256  0.87713016  0.63897718  1
  Fe3+  Fe94  1  0.37460418  0.12468076  0.63920544  1
  Fe3+  Fe95  1  0.62491852  0.87687151  0.63606189  1
  Cu2+  Cu96  1  0.62501258  0.12433157  0.37140586  1
  Cu2+  Cu97  1  0.37522526  0.12513897  0.36214564  1
  Cu2+  Cu98  1  0.87597598  0.62530798  0.87180224  1
  Cu2+  Cu99  1  0.62557320  0.87634465  0.87248816  1
  Cu2+  Cu100  1  0.12485756  0.12479019  0.37144007  1
  Cu2+  Cu101  1  0.87522319  0.12476189  0.86552895  1
  Cu2+  Cu102  1  0.62516739  0.62480679  0.87232901  1
  Cu2+  Cu103  1  0.37470178  0.12452357  0.87385155  1
  Cu2+  Cu104  1  0.12403602  0.37404757  0.87210482  1
  Cu2+  Cu105  1  0.87462541  0.12464612  0.37148152  1
  Cu2+  Cu106  1  0.37561576  0.37480795  0.87203071  1
  Cu2+  Cu107  1  0.12507533  0.87428979  0.36127752  1
  Cu2+  Cu108  1  0.12642659  0.12523820  0.64358545  1
  Cu2+  Cu109  1  0.37483850  0.12451612  0.14304305  1
  Cu2+  Cu110  1  0.87521218  0.12523248  0.64242113  1
  Cu2+  Cu111  1  0.62527660  0.62390072  0.14132211  1
  Cu2+  Cu112  1  0.62580968  0.12585947  0.14914886  1
  Cu2+  Cu113  1  0.87460746  0.87520629  0.64892444  1
  Cu2+  Cu114  1  0.62475496  0.62636459  0.65350930  1
  Cu2+  Cu115  1  0.37562484  0.37393905  0.14412335  1
  Cu2+  Cu116  1  0.62464344  0.37415609  0.65307548  1
  Cu2+  Cu117  1  0.12420450  0.12517509  0.15197742  1
  Cu2+  Cu118  1  0.37418179  0.62537217  0.14750583  1
  Cu2+  Cu119  1  0.12515481  0.62507766  0.65165417  1
  Cu2+  Cu120  1  0.62514287  0.87585172  0.14140604  1
  Cu2+  Cu121  1  0.12513177  0.87537664  0.14824269  1
  Cu2+  Cu122  1  0.87434657  0.37327009  0.15306802  1
  Cu2+  Cu123  1  0.12488269  0.37406846  0.14308574  1
  Cu2+  Cu124  1  0.62360439  0.12427725  0.64414229  1
  Cu2+  Cu125  1  0.37517338  0.87586638  0.65089771  1
  Cu2+  Cu126  1  0.87486158  0.87654257  0.15237804  1
  Cu2+  Cu127  1  0.87567750  0.62488562  0.14172038  1
  O2-  O128  1  0.12285227  0.12506925  -0.00117963  1
  O2-  O129  1  0.12596460  0.12375784  0.50663805  1
  O2-  O130  1  0.12399148  0.37476650  0.00751435  1
  O2-  O131  1  0.12615339  0.37627981  0.50673573  1
  O2-  O132  1  0.12448037  0.62433878  0.00670515  1
  O2-  O133  1  0.12566193  0.62610160  0.49661721  1
  O2-  O134  1  0.12412897  0.87471759  -0.00091975  1
  O2-  O135  1  0.12626025  0.87561619  0.51746992  1
  O2-  O136  1  0.37393801  0.12389453  0.00868686  1
  O2-  O137  1  0.37508493  0.12496934  0.51805032  1
  O2-  O138  1  0.37571613  0.37522829  0.00733918  1
  O2-  O139  1  0.37601579  0.37476661  0.50739029  1
  O2-  O140  1  0.37270590  0.62539692  -0.00242623  1
  O2-  O141  1  0.37591326  0.62572727  0.50595859  1
  O2-  O142  1  0.37486705  0.87500701  0.00716174  1
  O2-  O143  1  0.37577060  0.87302356  0.49636121  1
  O2-  O144  1  0.62730267  0.12610973  -0.00127434  1
  O2-  O145  1  0.62398167  0.12293684  0.50726542  1
  O2-  O146  1  0.62564466  0.37407881  0.00612673  1
  O2-  O147  1  0.62440865  0.37633888  0.49582794  1
  O2-  O148  1  0.62542967  0.62368963  0.00649055  1
  O2-  O149  1  0.62438083  0.62592142  0.49652173  1
  O2-  O150  1  0.62532961  0.87557959  0.00712805  1
  O2-  O151  1  0.62419132  0.87472899  0.50664235  1
  O2-  O152  1  0.87614852  0.12475712  0.01816435  1
  O2-  O153  1  0.87456642  0.12559682  0.50730957  1
  O2-  O154  1  0.87522830  0.37371951  -0.00424504  1
  O2-  O155  1  0.87323531  0.37644435  0.50672243  1
  O2-  O156  1  0.87688724  0.62495314  0.00677961  1
  O2-  O157  1  0.87418620  0.62546613  0.50606205  1
  O2-  O158  1  0.87579620  0.87622915  -0.00325322  1
  O2-  O159  1  0.87406656  0.87218553  0.49738140  1
  O2-  O160  1  0.12491245  0.00030475  0.16525593  1
  O2-  O161  1  0.12571397  -0.00079839  0.66782042  1
  O2-  O162  1  0.12444521  0.24882636  0.16759257  1
  O2-  O163  1  0.12551147  0.25329938  0.66373854  1
  O2-  O164  1  0.12511312  0.50197029  0.16484785  1
  O2-  O165  1  0.12545450  0.49814602  0.66321538  1
  O2-  O166  1  0.12504179  0.74798497  0.16136239  1
  O2-  O167  1  0.12511294  0.75059177  0.66664171  1
  O2-  O168  1  0.37464306  -0.00257209  0.16440947  1
  O2-  O169  1  0.37520271  0.00024333  0.66806034  1
  O2-  O170  1  0.37514758  0.24902056  0.16784587  1
  O2-  O171  1  0.37506570  0.25190260  0.66623531  1
  O2-  O172  1  0.37458187  0.50105045  0.16687630  1
  O2-  O173  1  0.37507149  0.49964521  0.65849095  1
  O2-  O174  1  0.37443224  0.75177567  0.16255752  1
  O2-  O175  1  0.37481558  0.74884032  0.66226122  1
  O2-  O176  1  0.62513822  0.00205806  0.16579391  1
  O2-  O177  1  0.62417375  -0.00245364  0.66491475  1
  O2-  O178  1  0.62573093  0.25135299  0.16433108  1
  O2-  O179  1  0.62417136  0.25051870  0.66507545  1
  O2-  O180  1  0.62519912  0.49663530  0.16271202  1
  O2-  O181  1  0.62441260  0.50071231  0.66391593  1
  O2-  O182  1  0.62500594  0.74942831  0.16397730  1
  O2-  O183  1  0.62455206  0.75229194  0.66380801  1
  O2-  O184  1  0.87536616  0.00063791  0.16742074  1
  O2-  O185  1  0.87472568  -0.00096231  0.66388691  1
  O2-  O186  1  0.87503824  0.24861987  0.16894421  1
  O2-  O187  1  0.87499287  0.25364079  0.66299350  1
  O2-  O188  1  0.87553306  0.49760241  0.16633830  1
  O2-  O189  1  0.87468585  0.50031888  0.65979504  1
  O2-  O190  1  0.87556800  0.75248732  0.16381096  1
  O2-  O191  1  0.87510436  0.74794318  0.66220744  1
  O2-  O192  1  -0.00012824  0.12498328  0.16829509  1
  O2-  O193  1  0.00077693  0.12570031  0.66304679  1
  O2-  O194  1  -0.00180963  0.37444890  0.16899650  1
  O2-  O195  1  -0.00013733  0.37685849  0.65829519  1
  O2-  O196  1  0.00272250  0.62444851  0.16572765  1
  O2-  O197  1  -0.00186985  0.62414022  0.66208805  1
  O2-  O198  1  0.00009378  0.87511302  0.16541390  1
  O2-  O199  1  -0.00012937  0.87426276  0.66353290  1
  O2-  O200  1  0.24779004  0.12494861  0.16514387  1
  O2-  O201  1  0.25203585  0.12593574  0.66855396  1
  O2-  O202  1  0.25076657  0.37465679  0.16816252  1
  O2-  O203  1  0.25077047  0.37639633  0.66268178  1
  O2-  O204  1  0.24786618  0.62514207  0.16472086  1
  O2-  O205  1  0.25228349  0.62484191  0.66310223  1
  O2-  O206  1  0.25157727  0.87416176  0.16298298  1
  O2-  O207  1  0.24974500  0.87411132  0.66775915  1
  O2-  O208  1  0.50180529  0.12503531  0.16436122  1
  O2-  O209  1  0.49757808  0.12520069  0.66838695  1
  O2-  O210  1  0.50277710  0.37481479  0.16358007  1
  O2-  O211  1  0.49823789  0.37594714  0.66412463  1
  O2-  O212  1  0.49848329  0.62446307  0.16412585  1
  O2-  O213  1  0.49802155  0.62534370  0.66339409  1
  O2-  O214  1  0.49768777  0.87491296  0.16395036  1
  O2-  O215  1  0.50139671  0.87434415  0.66471861  1
  O2-  O216  1  0.75080369  0.12522184  0.16698761  1
  O2-  O217  1  0.74948278  0.12519224  0.66391665  1
  O2-  O218  1  0.74881289  0.37430618  0.16288698  1
  O2-  O219  1  0.75090894  0.37613617  0.66221255  1
  O2-  O220  1  0.75081867  0.62447465  0.16499506  1
  O2-  O221  1  0.75137924  0.62492983  0.66315431  1
  O2-  O222  1  0.75094232  0.87565646  0.16553931  1
  O2-  O223  1  0.74858212  0.87458252  0.66170782  1
  O2-  O224  1  0.12559057  -0.00172613  0.34965628  1
  O2-  O225  1  0.12509394  -0.00027389  0.84754752  1
  O2-  O226  1  0.12554963  0.25415168  0.35123878  1
  O2-  O227  1  0.12433420  0.24784885  0.84635853  1
  O2-  O228  1  0.12528628  0.49913018  0.34811952  1
  O2-  O229  1  0.12506372  0.50246591  0.84862358  1
  O2-  O230  1  0.12549321  0.74817076  0.34454530  1
  O2-  O231  1  0.12539691  0.74944491  0.84929816  1
  O2-  O232  1  0.37545820  -0.00048862  0.34838824  1
  O2-  O233  1  0.37470009  -0.00271369  0.85079714  1
  O2-  O234  1  0.37479824  0.25182479  0.35250662  1
  O2-  O235  1  0.37522873  0.24956452  0.84925594  1
  O2-  O236  1  0.37524798  0.50001095  0.35167047  1
  O2-  O237  1  0.37449166  0.50223359  0.84322542  1
  O2-  O238  1  0.37501969  0.74820463  0.34604386  1
  O2-  O239  1  0.37415633  0.75150399  0.84674892  1
  O2-  O240  1  0.62416027  -0.00335666  0.34995068  1
  O2-  O241  1  0.62516111  0.00228291  0.84707338  1
  O2-  O242  1  0.62479456  0.25184741  0.34746235  1
  O2-  O243  1  0.62569200  0.25074450  0.84799508  1
  O2-  O244  1  0.62469115  0.50070494  0.34421521  1
  O2-  O245  1  0.62536158  0.49719230  0.84903154  1
  O2-  O246  1  0.62463290  0.75017894  0.34678308  1
  O2-  O247  1  0.62494702  0.75059672  0.84869905  1
  O2-  O248  1  0.87478791  -0.00250296  0.34909949  1
  O2-  O249  1  0.87530722  0.00039324  0.84683734  1
  O2-  O250  1  0.87499081  0.25346666  0.35222550  1
  O2-  O251  1  0.87450172  0.24960803  0.84576406  1
  O2-  O252  1  0.87517542  0.50046600  0.35067595  1
  O2-  O253  1  0.87497727  0.49784912  0.84373996  1
  O2-  O254  1  0.87485516  0.74812165  0.34682533  1
  O2-  O255  1  0.87574002  0.75235068  0.84571237  1
  O2-  O256  1  -0.00011010  0.12518767  0.35087173  1
  O2-  O257  1  0.00012256  0.12503208  0.84595598  1
  O2-  O258  1  -0.00008239  0.37686814  0.35415532  1
  O2-  O259  1  -0.00193962  0.37477980  0.84243835  1
  O2-  O260  1  -0.00147765  0.62413243  0.34978046  1
  O2-  O261  1  0.00321486  0.62490310  0.84650715  1
  O2-  O262  1  -0.00029453  0.87296553  0.34952123  1
  O2-  O263  1  0.00079344  0.87499918  0.84393084  1
  O2-  O264  1  0.25105921  0.12489591  0.34923097  1
  O2-  O265  1  0.24819592  0.12479975  0.84969545  1
  O2-  O266  1  0.25073292  0.37662210  0.35334531  1
  O2-  O267  1  0.24985049  0.37547219  0.84773957  1
  O2-  O268  1  0.25170423  0.62416559  0.34890659  1
  O2-  O269  1  0.24818775  0.62536086  0.84695073  1
  O2-  O270  1  0.25072365  0.87381933  0.34730601  1
  O2-  O271  1  0.25037785  0.87411222  0.84974721  1
  O2-  O272  1  0.49889799  0.12509654  0.34830462  1
  O2-  O273  1  0.50165374  0.12529092  0.84986155  1
  O2-  O274  1  0.49852068  0.37565938  0.34711980  1
  O2-  O275  1  0.50322995  0.37521089  0.84887314  1
  O2-  O276  1  0.49907387  0.62475325  0.34714646  1
  O2-  O277  1  0.49794825  0.62548037  0.84726735  1
  O2-  O278  1  0.50121063  0.87364948  0.34692225  1
  O2-  O279  1  0.49733359  0.87466395  0.84986820  1
  O2-  O280  1  0.74995492  0.12488938  0.34944517  1
  O2-  O281  1  0.74992169  0.12557530  0.84713891  1
  O2-  O282  1  0.75096758  0.37643480  0.34681321  1
  O2-  O283  1  0.74857152  0.37469046  0.84626832  1
  O2-  O284  1  0.75087638  0.62446645  0.34781509  1
  O2-  O285  1  0.75043191  0.62500929  0.84815439  1
  O2-  O286  1  0.74840318  0.87342966  0.34853984  1
  O2-  O287  1  0.75186405  0.87576336  0.84554547  1
