# generated using pymatgen
data_BaYFeCuO5
_symmetry_space_group_name_H-M   'P 1'
_cell_length_a   15.66342509
_cell_length_b   15.66460829
_cell_length_c   15.47023521
_cell_angle_alpha   89.99786577
_cell_angle_beta   90.00049115
_cell_angle_gamma   89.99950982
_symmetry_Int_Tables_number   1
_chemical_formula_structural   BaYFeCuO5
_chemical_formula_sum   'Ba32 Y32 Fe32 Cu32 O160'
_cell_volume   3795.79885234
_cell_formula_units_Z   32
loop_
 _symmetry_equiv_pos_site_id
 _symmetry_equiv_pos_as_xyz
  1  'x, y, z'
loop_
 _atom_type_symbol
 _atom_type_oxidation_number
  Ba2+  2.0
  Y3+  3.0
  Fe3+  3.0
  Cu2+  2.0
  O2-  -2.0
loop_
 _atom_site_type_symbol
 _atom_site_label
 _atom_site_symmetry_multiplicity
 _atom_site_fract_x
 _atom_site_fract_y
 _atom_site_fract_z
 _atom_site_occupancy
  Ba2+  Ba0  1  0.00049486  -0.00523094  0.00733986  1
  Ba2+  Ba1  1  0.00073376  -0.00425866  0.51249213  1
  Ba2+  Ba2  1  -0.00324205  0.24458922  0.01158527  1
  Ba2+  Ba3  1  -0.00048708  0.25053664  0.51707802  1
  Ba2+  Ba4  1  -0.01030293  0.50177249  0.01246143  1
  Ba2+  Ba5  1  0.00220980  0.50351504  0.51250151  1
  Ba2+  Ba6  1  -0.00601157  0.75603026  0.00739067  1
  Ba2+  Ba7  1  0.00363184  0.74940528  0.50500633  1
  Ba2+  Ba8  1  0.24159004  0.00194708  0.01708238  1
  Ba2+  Ba9  1  0.24225654  0.00005199  0.51612628  1
  Ba2+  Ba10  1  0.25340934  0.24547358  0.02190275  1
  Ba2+  Ba11  1  0.24468331  0.24547438  0.51897195  1
  Ba2+  Ba12  1  0.26092284  0.50147463  0.01198755  1
  Ba2+  Ba13  1  0.24315255  0.50738131  0.51627067  1
  Ba2+  Ba14  1  0.24892755  0.75058427  0.00638512  1
  Ba2+  Ba15  1  0.24032868  0.74683832  0.51164080  1
  Ba2+  Ba16  1  0.49513791  0.00519751  0.01166318  1
  Ba2+  Ba17  1  0.50667681  0.00320557  0.51688702  1
  Ba2+  Ba18  1  0.49594722  0.25600834  0.01386801  1
  Ba2+  Ba19  1  0.50255337  0.23978056  0.51101641  1
  Ba2+  Ba20  1  0.50240321  0.50397869  0.00579838  1
  Ba2+  Ba21  1  0.50059809  0.50985445  0.51743201  1
  Ba2+  Ba22  1  0.50084057  0.73784125  0.00650482  1
  Ba2+  Ba23  1  0.50468877  0.74726079  0.52424062  1
  Ba2+  Ba24  1  0.76084332  -0.00219832  0.00225265  1
  Ba2+  Ba25  1  0.74935966  -0.00006159  0.51280451  1
  Ba2+  Ba26  1  0.75348753  0.25542124  0.00145708  1
  Ba2+  Ba27  1  0.75287134  0.24288921  0.50523513  1
  Ba2+  Ba28  1  0.74913609  0.50536312  0.00657375  1
  Ba2+  Ba29  1  0.75578427  0.50505895  0.51132832  1
  Ba2+  Ba30  1  0.75566550  0.74393335  0.00737875  1
  Ba2+  Ba31  1  0.75097305  0.75215350  0.52075676  1
  Y3+  Y32  1  0.00087749  -0.00352914  0.25564290  1
  Y3+  Y33  1  0.00016741  -0.00412209  0.75996524  1
  Y3+  Y34  1  -0.00153321  0.24915888  0.25719745  1
  Y3+  Y35  1  -0.00007169  0.25071902  0.75598810  1
  Y3+  Y36  1  -0.00195480  0.50349753  0.25805350  1
  Y3+  Y37  1  0.00046284  0.50078689  0.75676243  1
  Y3+  Y38  1  0.00020277  0.75073352  0.25606428  1
  Y3+  Y39  1  0.00063535  0.75267316  0.76036623  1
  Y3+  Y40  1  0.24652837  -0.00223831  0.25654992  1
  Y3+  Y41  1  0.24670060  -0.00179812  0.75570307  1
  Y3+  Y42  1  0.25076716  0.24916408  0.25631688  1
  Y3+  Y43  1  0.24841311  0.24920521  0.75306350  1
  Y3+  Y44  1  0.25058092  0.50237210  0.25652735  1
  Y3+  Y45  1  0.24948868  0.50299430  0.75623274  1
  Y3+  Y46  1  0.24644914  0.75026942  0.25720986  1
  Y3+  Y47  1  0.24766733  0.74946021  0.75782447  1
  Y3+  Y48  1  0.50028411  0.00066030  0.25795359  1
  Y3+  Y49  1  0.50124407  0.00110072  0.75494819  1
  Y3+  Y50  1  0.50006224  0.24921581  0.25933600  1
  Y3+  Y51  1  0.50177515  0.24891875  0.75440384  1
  Y3+  Y52  1  0.49930637  0.50205736  0.25304740  1
  Y3+  Y53  1  0.50080019  0.50297042  0.76032942  1
  Y3+  Y54  1  0.49984648  0.74792573  0.25194028  1
  Y3+  Y55  1  0.50049560  0.74683807  0.76122978  1
  Y3+  Y56  1  0.75156540  0.00007118  0.25903341  1
  Y3+  Y57  1  0.75181939  -0.00159063  0.75781598  1
  Y3+  Y58  1  0.74991467  0.24864881  0.26074848  1
  Y3+  Y59  1  0.75033451  0.25056785  0.75543357  1
  Y3+  Y60  1  0.75199744  0.50272966  0.25414987  1
  Y3+  Y61  1  0.75006269  0.50153187  0.76092488  1
  Y3+  Y62  1  0.75293606  0.74856865  0.25238547  1
  Y3+  Y63  1  0.75155371  0.74957399  0.76352314  1
  Fe3+  Fe64  1  0.37476032  0.37597398  0.38070744  1
  Fe3+  Fe65  1  0.12541138  0.37557622  0.37595782  1
  Fe3+  Fe66  1  0.37488833  0.87382284  0.38046263  1
  Fe3+  Fe67  1  0.87458245  0.87401728  0.37692951  1
  Fe3+  Fe68  1  0.37452546  0.87581920  0.87902436  1
  Fe3+  Fe69  1  0.12335196  0.12467038  0.37544370  1
  Fe3+  Fe70  1  0.62452480  0.87324570  0.37539952  1
  Fe3+  Fe71  1  0.12441573  0.62441997  0.88059532  1
  Fe3+  Fe72  1  0.62420843  0.87545304  0.88020591  1
  Fe3+  Fe73  1  0.37360935  0.12327792  0.37712199  1
  Fe3+  Fe74  1  0.62554953  0.12598279  0.87990887  1
  Fe3+  Fe75  1  0.12621668  0.37468224  0.88002641  1
  Fe3+  Fe76  1  0.37529007  0.62655457  0.37682907  1
  Fe3+  Fe77  1  0.62445443  0.37648806  0.38098025  1
  Fe3+  Fe78  1  0.37463723  0.37391122  0.87372151  1
  Fe3+  Fe79  1  0.12483920  0.12566893  0.87594669  1
  Fe3+  Fe80  1  0.87540284  0.37573311  0.37777573  1
  Fe3+  Fe81  1  0.62592909  0.62644222  0.37521807  1
  Fe3+  Fe82  1  0.37387264  0.12549562  0.87425386  1
  Fe3+  Fe83  1  0.87572335  0.37498301  0.87546734  1
  Fe3+  Fe84  1  0.12453257  0.62510181  0.13430081  1
  Fe3+  Fe85  1  0.62610538  0.37509156  0.13842077  1
  Fe3+  Fe86  1  0.37528086  0.37571188  0.63326200  1
  Fe3+  Fe87  1  0.87576005  0.12388516  0.64004454  1
  Fe3+  Fe88  1  0.62592078  0.12528631  0.13465524  1
  Fe3+  Fe89  1  0.12429611  0.37523211  0.13359876  1
  Fe3+  Fe90  1  0.87442450  0.12471690  0.13890361  1
  Fe3+  Fe91  1  0.62593752  0.87506547  0.13216440  1
  Fe3+  Fe92  1  0.37496734  0.87464562  0.13410173  1
  Fe3+  Fe93  1  0.37472807  0.87418734  0.63574312  1
  Fe3+  Fe94  1  0.62631381  0.37595424  0.63467669  1
  Fe3+  Fe95  1  0.87603648  0.62630296  0.64115316  1
  Cu2+  Cu96  1  0.12497686  0.87452330  0.37207195  1
  Cu2+  Cu97  1  0.12611287  0.87532427  0.87378690  1
  Cu2+  Cu98  1  0.87604302  0.12373979  0.36461346  1
  Cu2+  Cu99  1  0.62447725  0.37440321  0.86203551  1
  Cu2+  Cu100  1  0.87527927  0.87497329  0.87262559  1
  Cu2+  Cu101  1  0.87564777  0.12555427  0.86258669  1
  Cu2+  Cu102  1  0.62497573  0.12356801  0.37271075  1
  Cu2+  Cu103  1  0.62582665  0.62466953  0.87234270  1
  Cu2+  Cu104  1  0.12459031  0.62471136  0.37016707  1
  Cu2+  Cu105  1  0.37352446  0.62476139  0.87153989  1
  Cu2+  Cu106  1  0.87663115  0.62445079  0.87224719  1
  Cu2+  Cu107  1  0.87462672  0.62607597  0.36296230  1
  Cu2+  Cu108  1  0.62720455  0.12487741  0.64403738  1
  Cu2+  Cu109  1  0.12490510  0.37593261  0.65011092  1
  Cu2+  Cu110  1  0.37458525  0.62585455  0.65245047  1
  Cu2+  Cu111  1  0.62545965  0.87420768  0.65627884  1
  Cu2+  Cu112  1  0.87583748  0.62540639  0.14185966  1
  Cu2+  Cu113  1  0.12339176  0.62622540  0.64710970  1
  Cu2+  Cu114  1  0.87515797  0.87422084  0.65327804  1
  Cu2+  Cu115  1  0.37527222  0.37500495  0.15357624  1
  Cu2+  Cu116  1  0.12386394  0.12520804  0.15170103  1
  Cu2+  Cu117  1  0.12323935  0.12405078  0.65265685  1
  Cu2+  Cu118  1  0.37443450  0.12422029  0.64803931  1
  Cu2+  Cu119  1  0.12417496  0.87410418  0.14089748  1
  Cu2+  Cu120  1  0.87449485  0.37424225  0.15201022  1
  Cu2+  Cu121  1  0.12374223  0.87372527  0.64292501  1
  Cu2+  Cu122  1  0.37429858  0.62570224  0.14109297  1
  Cu2+  Cu123  1  0.62571994  0.62464783  0.14119004  1
  Cu2+  Cu124  1  0.62661950  0.62474490  0.65679161  1
  Cu2+  Cu125  1  0.37535250  0.12398842  0.15281793  1
  Cu2+  Cu126  1  0.87472973  0.37590738  0.64941911  1
  Cu2+  Cu127  1  0.87449191  0.87550914  0.14281688  1
  O2-  O128  1  0.12694032  0.12777433  -0.00376466  1
  O2-  O129  1  0.12346520  0.12576501  0.49602465  1
  O2-  O130  1  0.12642976  0.37383332  0.00536862  1
  O2-  O131  1  0.12562483  0.37502727  0.49622573  1
  O2-  O132  1  0.12518228  0.62342423  0.00746008  1
  O2-  O133  1  0.12359791  0.62460780  0.50679382  1
  O2-  O134  1  0.12649184  0.87610076  0.00736826  1
  O2-  O135  1  0.12495105  0.87480690  0.50755482  1
  O2-  O136  1  0.37466425  0.12717661  -0.00552062  1
  O2-  O137  1  0.37430871  0.12283234  0.49737131  1
  O2-  O138  1  0.37416847  0.37221514  -0.00581883  1
  O2-  O139  1  0.37472539  0.37624577  0.50584401  1
  O2-  O140  1  0.37437782  0.62429831  0.00598852  1
  O2-  O141  1  0.37648349  0.62707766  0.49718930  1
  O2-  O142  1  0.37513213  0.87668633  0.00603225  1
  O2-  O143  1  0.37597316  0.87378578  0.50660731  1
  O2-  O144  1  0.62487861  0.12707891  0.00759686  1
  O2-  O145  1  0.62585518  0.12369074  0.50761487  1
  O2-  O146  1  0.62461334  0.37377759  0.01819207  1
  O2-  O147  1  0.62512137  0.37635519  0.50738665  1
  O2-  O148  1  0.62535085  0.62311197  0.00636423  1
  O2-  O149  1  0.62566628  0.62775435  0.49566593  1
  O2-  O150  1  0.62347493  0.87680115  0.00600216  1
  O2-  O151  1  0.62423860  0.87309028  0.49558436  1
  O2-  O152  1  0.87313888  0.12688732  0.01818088  1
  O2-  O153  1  0.87568580  0.12351937  0.51890155  1
  O2-  O154  1  0.87595739  0.37307173  -0.00381371  1
  O2-  O155  1  0.87612509  0.37607167  0.49791990  1
  O2-  O156  1  0.87596372  0.62401244  0.00758936  1
  O2-  O157  1  0.87523225  0.62689965  0.52000775  1
  O2-  O158  1  0.87445716  0.87636624  0.00696588  1
  O2-  O159  1  0.87321872  0.87413184  0.49750366  1
  O2-  O160  1  0.12496092  0.00112889  0.16372853  1
  O2-  O161  1  0.12504051  0.00011361  0.66486718  1
  O2-  O162  1  0.12565446  0.25188780  0.16207929  1
  O2-  O163  1  0.12471740  0.25010247  0.66234971  1
  O2-  O164  1  0.12556945  0.49926141  0.16103944  1
  O2-  O165  1  0.12544750  0.49992217  0.66706844  1
  O2-  O166  1  0.12528496  0.74726071  0.16349837  1
  O2-  O167  1  0.12487991  0.74988308  0.66956389  1
  O2-  O168  1  0.37605018  -0.00155288  0.16244719  1
  O2-  O169  1  0.37519327  -0.00196815  0.66369693  1
  O2-  O170  1  0.37532088  0.24888796  0.16622144  1
  O2-  O171  1  0.37567535  0.25155808  0.65845861  1
  O2-  O172  1  0.37470275  0.49912497  0.16571633  1
  O2-  O173  1  0.37486863  0.49933857  0.66168296  1
  O2-  O174  1  0.37531400  0.75327878  0.16220442  1
  O2-  O175  1  0.37616655  0.75114751  0.66658775  1
  O2-  O176  1  0.62352009  0.00094016  0.16015199  1
  O2-  O177  1  0.62544501  -0.00138111  0.66831015  1
  O2-  O178  1  0.62444980  0.24832372  0.16808081  1
  O2-  O179  1  0.62484438  0.25339157  0.66345728  1
  O2-  O180  1  0.62486803  0.49827118  0.16795967  1
  O2-  O181  1  0.62477342  0.49875989  0.66320952  1
  O2-  O182  1  0.62429265  0.75275861  0.15868931  1
  O2-  O183  1  0.62464923  0.74937158  0.66846332  1
  O2-  O184  1  0.87446414  0.00194348  0.16691345  1
  O2-  O185  1  0.87465801  -0.00129794  0.66626193  1
  O2-  O186  1  0.87418618  0.24895054  0.16835020  1
  O2-  O187  1  0.87538335  0.25055270  0.66364073  1
  O2-  O188  1  0.87518765  0.49804296  0.16500669  1
  O2-  O189  1  0.87495696  0.50050162  0.66577474  1
  O2-  O190  1  0.87518125  0.75079054  0.16339053  1
  O2-  O191  1  0.87422235  0.75049311  0.66948341  1
  O2-  O192  1  -0.00061480  0.12612881  0.16455632  1
  O2-  O193  1  -0.00075551  0.12503077  0.66849967  1
  O2-  O194  1  0.00126500  0.37434157  0.16048955  1
  O2-  O195  1  0.00062844  0.37570154  0.66556969  1
  O2-  O196  1  0.00301924  0.62381645  0.16436382  1
  O2-  O197  1  -0.00169085  0.62492717  0.67066447  1
  O2-  O198  1  -0.00045528  0.87504784  0.16450395  1
  O2-  O199  1  -0.00117301  0.87474066  0.66781983  1
  O2-  O200  1  0.24962011  0.12469796  0.16275643  1
  O2-  O201  1  0.24846138  0.12506240  0.66083551  1
  O2-  O202  1  0.24902294  0.37458457  0.16210997  1
  O2-  O203  1  0.25210124  0.37503619  0.66160415  1
  O2-  O204  1  0.24702640  0.62458144  0.16296198  1
  O2-  O205  1  0.25012280  0.62580408  0.66567813  1
  O2-  O206  1  0.25261130  0.87562247  0.16397279  1
  O2-  O207  1  0.25254635  0.87420314  0.66372136  1
  O2-  O208  1  0.50225391  0.12545751  0.16186222  1
  O2-  O209  1  0.49953717  0.12445877  0.66534181  1
  O2-  O210  1  0.50033227  0.37358554  0.16806285  1
  O2-  O211  1  0.50004578  0.37553694  0.66025143  1
  O2-  O212  1  0.49962271  0.62476755  0.16237922  1
  O2-  O213  1  0.50115290  0.62501696  0.66503266  1
  O2-  O214  1  0.50035790  0.87616428  0.16161644  1
  O2-  O215  1  0.49886568  0.87514979  0.66478074  1
  O2-  O216  1  0.74795580  0.12509613  0.16759682  1
  O2-  O217  1  0.75278449  0.12510860  0.67075401  1
  O2-  O218  1  0.74959823  0.37370134  0.16907329  1
  O2-  O219  1  0.74800484  0.37574089  0.66467388  1
  O2-  O220  1  0.75051933  0.62463234  0.16390392  1
  O2-  O221  1  0.75106570  0.62530295  0.66888244  1
  O2-  O222  1  0.74671952  0.87645728  0.16287116  1
  O2-  O223  1  0.74940626  0.87448491  0.66759153  1
  O2-  O224  1  0.12538177  0.00120197  0.34640044  1
  O2-  O225  1  0.12542341  0.00194170  0.84785632  1
  O2-  O226  1  0.12552132  0.25061165  0.34343744  1
  O2-  O227  1  0.12579865  0.25154405  0.84538323  1
  O2-  O228  1  0.12549071  0.49811172  0.34373961  1
  O2-  O229  1  0.12584461  0.49869733  0.85115796  1
  O2-  O230  1  0.12520179  0.74969564  0.34738046  1
  O2-  O231  1  0.12632909  0.74778688  0.85332774  1
  O2-  O232  1  0.37479156  -0.00208393  0.34636661  1
  O2-  O233  1  0.37629502  0.00013873  0.84726935  1
  O2-  O234  1  0.37482239  0.25118949  0.35021103  1
  O2-  O235  1  0.37505079  0.24935288  0.83948946  1
  O2-  O236  1  0.37535892  0.49931803  0.34860953  1
  O2-  O237  1  0.37452018  0.49762706  0.84534628  1
  O2-  O238  1  0.37546717  0.75117593  0.34470130  1
  O2-  O239  1  0.37513002  0.75293326  0.85173273  1
  O2-  O240  1  0.62431647  -0.00310391  0.34317206  1
  O2-  O241  1  0.62375628  0.00108541  0.85276280  1
  O2-  O242  1  0.62415789  0.25332688  0.35188178  1
  O2-  O243  1  0.62524548  0.24765085  0.84763531  1
  O2-  O244  1  0.62426952  0.49949299  0.34951116  1
  O2-  O245  1  0.62442839  0.49839090  0.84785679  1
  O2-  O246  1  0.62416750  0.74985831  0.33943466  1
  O2-  O247  1  0.62377087  0.75317290  0.85267272  1
  O2-  O248  1  0.87454293  -0.00092620  0.34823848  1
  O2-  O249  1  0.87521189  0.00177443  0.84970968  1
  O2-  O250  1  0.87460233  0.25017958  0.35011500  1
  O2-  O251  1  0.87456022  0.25100673  0.84559531  1
  O2-  O252  1  0.87443842  0.50042329  0.34833725  1
  O2-  O253  1  0.87586072  0.49771008  0.84715804  1
  O2-  O254  1  0.87473284  0.75001549  0.34593279  1
  O2-  O255  1  0.87522974  0.74973137  0.85183312  1
  O2-  O256  1  0.00043616  0.12543256  0.34598442  1
  O2-  O257  1  0.00051914  0.12682355  0.85043466  1
  O2-  O258  1  -0.00013099  0.37527988  0.34381494  1
  O2-  O259  1  0.00257449  0.37432381  0.84923053  1
  O2-  O260  1  -0.00181762  0.62485505  0.34805566  1
  O2-  O261  1  0.00356958  0.62380754  0.85185804  1
  O2-  O262  1  -0.00163214  0.87447679  0.34729022  1
  O2-  O263  1  0.00064894  0.87515887  0.85147918  1
  O2-  O264  1  0.24979990  0.12503501  0.34450023  1
  O2-  O265  1  0.24997704  0.12522299  0.84203100  1
  O2-  O266  1  0.25189769  0.37521525  0.34559320  1
  O2-  O267  1  0.24867769  0.37446091  0.84471222  1
  O2-  O268  1  0.25262628  0.62516469  0.34507376  1
  O2-  O269  1  0.24639976  0.62416139  0.84913247  1
  O2-  O270  1  0.25285618  0.87432063  0.34858173  1
  O2-  O271  1  0.25327235  0.87602288  0.84771078  1
  O2-  O272  1  0.49705063  0.12462497  0.34526572  1
  O2-  O273  1  0.50104411  0.12556369  0.84820132  1
  O2-  O274  1  0.49921930  0.37484442  0.35160341  1
  O2-  O275  1  0.49944127  0.37368922  0.84444748  1
  O2-  O276  1  0.49997443  0.62504404  0.34301580  1
  O2-  O277  1  0.49971171  0.62442037  0.84966280  1
  O2-  O278  1  0.49827233  0.87499324  0.34458024  1
  O2-  O279  1  0.49968983  0.87631242  0.84999306  1
  O2-  O280  1  0.75166518  0.12469114  0.35040646  1
  O2-  O281  1  0.74880354  0.12516952  0.85390589  1
  O2-  O282  1  0.74882478  0.37491486  0.35141319  1
  O2-  O283  1  0.74989000  0.37425494  0.84876873  1
  O2-  O284  1  0.74916468  0.62502025  0.34599617  1
  O2-  O285  1  0.75098290  0.62432991  0.85156772  1
  O2-  O286  1  0.74993699  0.87451042  0.34410355  1
  O2-  O287  1  0.74672405  0.87642655  0.85196374  1
