# generated using pymatgen
data_BaYFeCuO5
_symmetry_space_group_name_H-M   'P 1'
_cell_length_a   15.68352146
_cell_length_b   15.68016330
_cell_length_c   15.52329052
_cell_angle_alpha   89.99196448
_cell_angle_beta   89.99160216
_cell_angle_gamma   89.98790072
_symmetry_Int_Tables_number   1
_chemical_formula_structural   BaYFeCuO5
_chemical_formula_sum   'Ba32 Y32 Fe32 Cu32 O160'
_cell_volume   3817.49019785
_cell_formula_units_Z   32
loop_
 _symmetry_equiv_pos_site_id
 _symmetry_equiv_pos_as_xyz
  1  'x, y, z'
loop_
 _atom_type_symbol
 _atom_type_oxidation_number
  Ba2+  2.0
  Y3+  3.0
  Fe3+  3.0
  Cu2+  2.0
  O2-  -2.0
loop_
 _atom_site_type_symbol
 _atom_site_label
 _atom_site_symmetry_multiplicity
 _atom_site_fract_x
 _atom_site_fract_y
 _atom_site_fract_z
 _atom_site_occupancy
  Ba2+  Ba0  1  0.00585177  -0.00567502  0.01154469  1
  Ba2+  Ba1  1  -0.00135469  0.00113773  0.52730276  1
  Ba2+  Ba2  1  0.00090884  0.24984754  0.01337583  1
  Ba2+  Ba3  1  -0.00221666  0.25003212  0.52802409  1
  Ba2+  Ba4  1  -0.01093853  0.50367582  0.01092487  1
  Ba2+  Ba5  1  -0.00213018  0.49920590  0.50585093  1
  Ba2+  Ba6  1  -0.00754441  0.75059173  0.00622814  1
  Ba2+  Ba7  1  -0.00097355  0.75021887  0.50597552  1
  Ba2+  Ba8  1  0.25384493  -0.00391157  0.01231771  1
  Ba2+  Ba9  1  0.24364120  -0.00447535  0.52223978  1
  Ba2+  Ba10  1  0.25878933  0.24783498  0.00579687  1
  Ba2+  Ba11  1  0.23850909  0.24980190  0.51845630  1
  Ba2+  Ba12  1  0.26229719  0.49918318  0.01250729  1
  Ba2+  Ba13  1  0.24509391  0.50546235  0.49913206  1
  Ba2+  Ba14  1  0.25713714  0.75589113  0.01761053  1
  Ba2+  Ba15  1  0.24955428  0.75035302  0.50561245  1
  Ba2+  Ba16  1  0.49321206  -0.00737947  -0.00438074  1
  Ba2+  Ba17  1  0.50696561  -0.00626849  0.51475894  1
  Ba2+  Ba18  1  0.49716407  0.25969898  0.00196626  1
  Ba2+  Ba19  1  0.51013547  0.24935096  0.51769972  1
  Ba2+  Ba20  1  0.50177855  0.49822954  0.01860635  1
  Ba2+  Ba21  1  0.50686310  0.50700711  0.50673149  1
  Ba2+  Ba22  1  0.49845987  0.75021768  0.01562816  1
  Ba2+  Ba23  1  0.50633529  0.75015489  0.50717579  1
  Ba2+  Ba24  1  0.74865833  -0.01032167  -0.00369375  1
  Ba2+  Ba25  1  0.74995402  -0.00171863  0.52199801  1
  Ba2+  Ba26  1  0.74580248  0.26098191  0.01023779  1
  Ba2+  Ba27  1  0.75331049  0.25009121  0.52801175  1
  Ba2+  Ba28  1  0.74693049  0.50233319  0.01801264  1
  Ba2+  Ba29  1  0.74827671  0.50225716  0.51240934  1
  Ba2+  Ba30  1  0.74973462  0.74582940  0.00056047  1
  Ba2+  Ba31  1  0.74573970  0.75001933  0.50648071  1
  Y3+  Y32  1  0.00180472  0.00019697  0.25215604  1
  Y3+  Y33  1  -0.00070044  -0.00194830  0.75876154  1
  Y3+  Y34  1  -0.00008068  0.24970764  0.25134240  1
  Y3+  Y35  1  0.00020906  0.25050457  0.75869921  1
  Y3+  Y36  1  -0.00315094  0.50271458  0.25508542  1
  Y3+  Y37  1  -0.00184548  0.50053839  0.75947272  1
  Y3+  Y38  1  -0.00097057  0.74780043  0.25614263  1
  Y3+  Y39  1  -0.00297216  0.75033759  0.76013327  1
  Y3+  Y40  1  0.24964455  -0.00102351  0.25315791  1
  Y3+  Y41  1  0.25196005  -0.00256521  0.75866106  1
  Y3+  Y42  1  0.25090122  0.24951178  0.25403927  1
  Y3+  Y43  1  0.25160301  0.25090341  0.75928934  1
  Y3+  Y44  1  0.25328237  0.50174011  0.25682721  1
  Y3+  Y45  1  0.25111204  0.49910686  0.75818996  1
  Y3+  Y46  1  0.25251968  0.74993592  0.25728342  1
  Y3+  Y47  1  0.25187280  0.75228174  0.75656614  1
  Y3+  Y48  1  0.50035751  -0.00213979  0.25903043  1
  Y3+  Y49  1  0.49923786  -0.00422011  0.75606836  1
  Y3+  Y50  1  0.50025078  0.25215675  0.25463347  1
  Y3+  Y51  1  0.50025186  0.25208321  0.76071151  1
  Y3+  Y52  1  0.50119975  0.50225170  0.25802578  1
  Y3+  Y53  1  0.50230701  0.49903489  0.75722668  1
  Y3+  Y54  1  0.50129357  0.74846694  0.26238940  1
  Y3+  Y55  1  0.50121741  0.75236515  0.75462749  1
  Y3+  Y56  1  0.74873629  -0.00108391  0.25869500  1
  Y3+  Y57  1  0.74875487  -0.00331354  0.75643078  1
  Y3+  Y58  1  0.74981869  0.25216878  0.25148138  1
  Y3+  Y59  1  0.74747711  0.25185949  0.75977624  1
  Y3+  Y60  1  0.74942962  0.50282666  0.25647540  1
  Y3+  Y61  1  0.74784738  0.50072204  0.75826003  1
  Y3+  Y62  1  0.74858153  0.74672354  0.26051300  1
  Y3+  Y63  1  0.74865053  0.75031593  0.75627659  1
  Fe3+  Fe64  1  0.12596206  0.62512112  0.88234625  1
  Fe3+  Fe65  1  0.87448272  0.12448195  0.87929977  1
  Fe3+  Fe66  1  0.37624500  0.62563216  0.87641856  1
  Fe3+  Fe67  1  0.12570929  0.37609133  0.88049393  1
  Fe3+  Fe68  1  0.87558738  0.12569972  0.37493501  1
  Fe3+  Fe69  1  0.12611234  0.12440573  0.87738212  1
  Fe3+  Fe70  1  0.87393331  0.37568026  0.87727797  1
  Fe3+  Fe71  1  0.62359968  0.12426132  0.87929232  1
  Fe3+  Fe72  1  0.12594635  0.87339157  0.87711499  1
  Fe3+  Fe73  1  0.37475268  0.87642250  0.37881935  1
  Fe3+  Fe74  1  0.62690652  0.12615177  0.37701202  1
  Fe3+  Fe75  1  0.62366733  0.62499312  0.87636655  1
  Fe3+  Fe76  1  0.37535815  0.37408115  0.38090462  1
  Fe3+  Fe77  1  0.12371177  0.87603081  0.37449197  1
  Fe3+  Fe78  1  0.12332258  0.37402819  0.37306568  1
  Fe3+  Fe79  1  0.87565762  0.87664141  0.37712087  1
  Fe3+  Fe80  1  0.87485941  0.37335095  0.37426305  1
  Fe3+  Fe81  1  0.12362020  0.12503069  0.37484784  1
  Fe3+  Fe82  1  0.62687732  0.37375704  0.37593188  1
  Fe3+  Fe83  1  0.37448235  0.12520073  0.38246963  1
  Fe3+  Fe84  1  0.37527421  0.62533385  0.63585087  1
  Fe3+  Fe85  1  0.12614460  0.37621033  0.13290249  1
  Fe3+  Fe86  1  0.12445229  0.62525920  0.64031836  1
  Fe3+  Fe87  1  0.87444688  0.62520070  0.63888842  1
  Fe3+  Fe88  1  0.87330450  0.87395620  0.13745912  1
  Fe3+  Fe89  1  0.62481353  0.87439502  0.13832547  1
  Fe3+  Fe90  1  0.37531602  0.12474385  0.63565353  1
  Fe3+  Fe91  1  0.62382949  0.12362363  0.13155732  1
  Fe3+  Fe92  1  0.12577036  0.62567562  0.13469582  1
  Fe3+  Fe93  1  0.37742010  0.12408497  0.13755193  1
  Fe3+  Fe94  1  0.37479801  0.37633027  0.63372004  1
  Fe3+  Fe95  1  0.87336712  0.12361700  0.13051013  1
  Cu2+  Cu96  1  0.37534683  0.12410783  0.86085171  1
  Cu2+  Cu97  1  0.62595606  0.62435975  0.37278259  1
  Cu2+  Cu98  1  0.87510357  0.62472274  0.36516781  1
  Cu2+  Cu99  1  0.62410565  0.87360268  0.86209600  1
  Cu2+  Cu100  1  0.62636246  0.87608630  0.37301110  1
  Cu2+  Cu101  1  0.37541579  0.37703455  0.87124755  1
  Cu2+  Cu102  1  0.37444708  0.87254680  0.87037058  1
  Cu2+  Cu103  1  0.87364548  0.62446542  0.87286971  1
  Cu2+  Cu104  1  0.12456092  0.62526436  0.35885396  1
  Cu2+  Cu105  1  0.87495945  0.87485678  0.86289991  1
  Cu2+  Cu106  1  0.37535537  0.62521842  0.36721740  1
  Cu2+  Cu107  1  0.62479210  0.37681096  0.87208277  1
  Cu2+  Cu108  1  0.87448474  0.12482923  0.65907740  1
  Cu2+  Cu109  1  0.87508620  0.37560632  0.14712476  1
  Cu2+  Cu110  1  0.12517987  0.87344475  0.14899966  1
  Cu2+  Cu111  1  0.12625197  0.12496462  0.14336299  1
  Cu2+  Cu112  1  0.12402265  0.87313951  0.65484089  1
  Cu2+  Cu113  1  0.37562048  0.37483039  0.14505916  1
  Cu2+  Cu114  1  0.12517660  0.37697500  0.65586452  1
  Cu2+  Cu115  1  0.62515372  0.62538147  0.64316514  1
  Cu2+  Cu116  1  0.62442236  0.62634390  0.15306976  1
  Cu2+  Cu117  1  0.62442830  0.37568052  0.65229941  1
  Cu2+  Cu118  1  0.12557083  0.12463965  0.65762372  1
  Cu2+  Cu119  1  0.37481014  0.87414714  0.64591250  1
  Cu2+  Cu120  1  0.62405943  0.37582479  0.14208234  1
  Cu2+  Cu121  1  0.37616506  0.62589012  0.15394478  1
  Cu2+  Cu122  1  0.87464952  0.37631879  0.65646619  1
  Cu2+  Cu123  1  0.87491389  0.87349121  0.65315641  1
  Cu2+  Cu124  1  0.62553188  0.87383505  0.64301233  1
  Cu2+  Cu125  1  0.62423457  0.12488879  0.65708040  1
  Cu2+  Cu126  1  0.87344024  0.62677023  0.14222944  1
  Cu2+  Cu127  1  0.37714906  0.87533426  0.14623167  1
  O2-  O128  1  0.12662579  0.12437451  -0.00294592  1
  O2-  O129  1  0.12112833  0.12607990  0.49426328  1
  O2-  O130  1  0.12679827  0.37612522  0.00612131  1
  O2-  O131  1  0.12149438  0.37251415  0.49302462  1
  O2-  O132  1  0.12652694  0.62565329  0.00804460  1
  O2-  O133  1  0.12319544  0.62408758  0.52044476  1
  O2-  O134  1  0.12693540  0.87360565  -0.00283503  1
  O2-  O135  1  0.12217039  0.87750699  0.49427497  1
  O2-  O136  1  0.37752681  0.12416148  0.01757860  1
  O2-  O137  1  0.37378208  0.12520978  0.50764767  1
  O2-  O138  1  0.37500347  0.37546378  0.00691704  1
  O2-  O139  1  0.37391359  0.37426887  0.50694493  1
  O2-  O140  1  0.37698535  0.62554712  -0.00323053  1
  O2-  O141  1  0.37186745  0.62409789  0.51573366  1
  O2-  O142  1  0.37569296  0.87411868  0.00705470  1
  O2-  O143  1  0.37197162  0.87776377  0.49887105  1
  O2-  O144  1  0.62247684  0.12287231  0.00597725  1
  O2-  O145  1  0.62970291  0.12737777  0.49675666  1
  O2-  O146  1  0.62386283  0.37710982  0.00723040  1
  O2-  O147  1  0.62843681  0.37131642  0.49595375  1
  O2-  O148  1  0.62258775  0.62528108  -0.00356565  1
  O2-  O149  1  0.62688590  0.62484935  0.50705694  1
  O2-  O150  1  0.62389787  0.87411153  0.01843467  1
  O2-  O151  1  0.62703787  0.87639474  0.50790954  1
  O2-  O152  1  0.87408453  0.12338201  0.00456572  1
  O2-  O153  1  0.87652070  0.12686097  0.49426645  1
  O2-  O154  1  0.87478799  0.37524299  -0.00258191  1
  O2-  O155  1  0.87672732  0.37102436  0.49374395  1
  O2-  O156  1  0.87317808  0.62585143  0.00799810  1
  O2-  O157  1  0.87743102  0.62436022  0.51875446  1
  O2-  O158  1  0.87269689  0.87405089  0.01726784  1
  O2-  O159  1  0.87827264  0.87893756  0.49710177  1
  O2-  O160  1  0.12594934  -0.00069245  0.15995015  1
  O2-  O161  1  0.12472095  -0.00135127  0.66500502  1
  O2-  O162  1  0.12516519  0.25230050  0.15808701  1
  O2-  O163  1  0.12531586  0.25115329  0.66634433  1
  O2-  O164  1  0.12615610  0.50070275  0.16207543  1
  O2-  O165  1  0.12482784  0.50144870  0.67137891  1
  O2-  O166  1  0.12591923  0.74771333  0.16547952  1
  O2-  O167  1  0.12446374  0.74896085  0.66804674  1
  O2-  O168  1  0.37554908  0.00105277  0.16744344  1
  O2-  O169  1  0.37440817  0.00131122  0.66290341  1
  O2-  O170  1  0.37548996  0.24794921  0.16747055  1
  O2-  O171  1  0.37413986  0.25066289  0.66237814  1
  O2-  O172  1  0.37525056  0.50136415  0.16745020  1
  O2-  O173  1  0.37440413  0.49878099  0.66423050  1
  O2-  O174  1  0.37581096  0.74975665  0.16694143  1
  O2-  O175  1  0.37395250  0.74957549  0.66423965  1
  O2-  O176  1  0.62548464  0.00124473  0.16530851  1
  O2-  O177  1  0.62485603  0.00092573  0.66704630  1
  O2-  O178  1  0.62407137  0.24631585  0.15868652  1
  O2-  O179  1  0.62429719  0.25021294  0.66836041  1
  O2-  O180  1  0.62458384  0.50283944  0.16547256  1
  O2-  O181  1  0.62459604  0.49876998  0.66349305  1
  O2-  O182  1  0.62429158  0.75003115  0.16899062  1
  O2-  O183  1  0.62530568  0.74959866  0.66549590  1
  O2-  O184  1  0.87452476  0.00081676  0.16238451  1
  O2-  O185  1  0.87515157  -0.00058542  0.66626215  1
  O2-  O186  1  0.87556069  0.24783401  0.15615564  1
  O2-  O187  1  0.87527024  0.25097066  0.66796252  1
  O2-  O188  1  0.87441417  0.49960362  0.16491487  1
  O2-  O189  1  0.87556052  0.50034185  0.66628118  1
  O2-  O190  1  0.87497524  0.75226482  0.16992770  1
  O2-  O191  1  0.87519202  0.74910831  0.66764229  1
  O2-  O192  1  -0.00172783  0.12424527  0.15578665  1
  O2-  O193  1  0.00047756  0.12530217  0.66888006  1
  O2-  O194  1  0.00212056  0.37585910  0.15754880  1
  O2-  O195  1  0.00032572  0.37517233  0.66841677  1
  O2-  O196  1  0.00281266  0.62490833  0.16168476  1
  O2-  O197  1  -0.00048370  0.62492314  0.67363160  1
  O2-  O198  1  -0.00055347  0.87518153  0.16082568  1
  O2-  O199  1  -0.00029258  0.87451117  0.66802215  1
  O2-  O200  1  0.25132403  0.12519489  0.16647456  1
  O2-  O201  1  0.25156565  0.12552578  0.66257360  1
  O2-  O202  1  0.24760867  0.37522089  0.16508630  1
  O2-  O203  1  0.25180799  0.37495226  0.66414529  1
  O2-  O204  1  0.24963093  0.62497080  0.16294812  1
  O2-  O205  1  0.25018286  0.62465215  0.66931709  1
  O2-  O206  1  0.24950352  0.87474249  0.16371268  1
  O2-  O207  1  0.24892671  0.87482134  0.66353325  1
  O2-  O208  1  0.50179296  0.12431538  0.17099218  1
  O2-  O209  1  0.49782757  0.12571634  0.66309933  1
  O2-  O210  1  0.49987838  0.37552317  0.16922662  1
  O2-  O211  1  0.49769599  0.37395547  0.66235655  1
  O2-  O212  1  0.50016462  0.62542609  0.16738812  1
  O2-  O213  1  0.49831192  0.62463919  0.66261497  1
  O2-  O214  1  0.50277774  0.87519241  0.17150513  1
  O2-  O215  1  0.49907864  0.87537768  0.66359586  1
  O2-  O216  1  0.74946962  0.12526552  0.15864219  1
  O2-  O217  1  0.74942321  0.12526643  0.66948072  1
  O2-  O218  1  0.75097899  0.37454298  0.16104073  1
  O2-  O219  1  0.74932511  0.37417990  0.66565422  1
  O2-  O220  1  0.74768494  0.62580050  0.16573938  1
  O2-  O221  1  0.75117686  0.62429522  0.66649754  1
  O2-  O222  1  0.74903543  0.87543960  0.16883885  1
  O2-  O223  1  0.75128409  0.87548370  0.66658346  1
  O2-  O224  1  0.12497016  0.00106659  0.34059177  1
  O2-  O225  1  0.12515454  -0.00029341  0.84718069  1
  O2-  O226  1  0.12546284  0.24965052  0.33849923  1
  O2-  O227  1  0.12552561  0.25103009  0.85029146  1
  O2-  O228  1  0.12510264  0.49941449  0.34645080  1
  O2-  O229  1  0.12518894  0.49997884  0.85333447  1
  O2-  O230  1  0.12491735  0.75048074  0.34905147  1
  O2-  O231  1  0.12464140  0.74834779  0.84928007  1
  O2-  O232  1  0.37471047  0.00233270  0.34768945  1
  O2-  O233  1  0.37483591  -0.00021805  0.84741079  1
  O2-  O234  1  0.37408666  0.24985674  0.34951358  1
  O2-  O235  1  0.37498712  0.24919855  0.84746690  1
  O2-  O236  1  0.37447145  0.49764424  0.35222745  1
  O2-  O237  1  0.37414852  0.50274577  0.84464852  1
  O2-  O238  1  0.37413228  0.75131308  0.35060022  1
  O2-  O239  1  0.37428512  0.74742939  0.84452568  1
  O2-  O240  1  0.62493948  0.00328543  0.34511692  1
  O2-  O241  1  0.62444020  -0.00001266  0.85159041  1
  O2-  O242  1  0.62521179  0.25016220  0.33888733  1
  O2-  O243  1  0.62396153  0.24727703  0.85251582  1
  O2-  O244  1  0.62483520  0.49696700  0.34819345  1
  O2-  O245  1  0.62476852  0.50194958  0.84518978  1
  O2-  O246  1  0.62579206  0.75009276  0.35190321  1
  O2-  O247  1  0.62478521  0.75009217  0.84735446  1
  O2-  O248  1  0.87613488  0.00124057  0.34105076  1
  O2-  O249  1  0.87454157  0.00185710  0.85031568  1
  O2-  O250  1  0.87562182  0.24963533  0.33638058  1
  O2-  O251  1  0.87499189  0.24852221  0.85015659  1
  O2-  O252  1  0.87638497  0.49935142  0.34845766  1
  O2-  O253  1  0.87533634  0.49820468  0.84722710  1
  O2-  O254  1  0.87605991  0.75018141  0.35189807  1
  O2-  O255  1  0.87520845  0.75087292  0.85056584  1
  O2-  O256  1  0.00016287  0.12584715  0.33705876  1
  O2-  O257  1  -0.00074716  0.12525208  0.85140999  1
  O2-  O258  1  -0.00023788  0.37497269  0.33830004  1
  O2-  O259  1  0.00151625  0.37446206  0.85137190  1
  O2-  O260  1  0.00014861  0.62460466  0.34571210  1
  O2-  O261  1  0.00283720  0.62431695  0.85523202  1
  O2-  O262  1  0.00006721  0.87487793  0.34024658  1
  O2-  O263  1  0.00080392  0.87525985  0.85074168  1
  O2-  O264  1  0.25058050  0.12606671  0.34887749  1
  O2-  O265  1  0.24992915  0.12546315  0.84577725  1
  O2-  O266  1  0.25112356  0.37501201  0.34815165  1
  O2-  O267  1  0.24697141  0.37496216  0.84827619  1
  O2-  O268  1  0.24976298  0.62436612  0.34763578  1
  O2-  O269  1  0.24846787  0.62415248  0.84966094  1
  O2-  O270  1  0.24955013  0.87553886  0.34499006  1
  O2-  O271  1  0.24822761  0.87452643  0.84552353  1
  O2-  O272  1  0.49852245  0.12658005  0.35321868  1
  O2-  O273  1  0.50113173  0.12404132  0.84822453  1
  O2-  O274  1  0.49885114  0.37337827  0.35176871  1
  O2-  O275  1  0.50013320  0.37512050  0.84622614  1
  O2-  O276  1  0.49945026  0.62454391  0.35121938  1
  O2-  O277  1  0.50012495  0.62517801  0.84219067  1
  O2-  O278  1  0.49862810  0.87622361  0.35222041  1
  O2-  O279  1  0.50033452  0.87477200  0.84661564  1
  O2-  O280  1  0.75118881  0.12573345  0.33996676  1
  O2-  O281  1  0.74924106  0.12424003  0.85390813  1
  O2-  O282  1  0.75089953  0.37447735  0.34150066  1
  O2-  O283  1  0.75113287  0.37401322  0.84814335  1
  O2-  O284  1  0.75159104  0.62389836  0.34870752  1
  O2-  O285  1  0.74784946  0.62581016  0.84749680  1
  O2-  O286  1  0.75254452  0.87622168  0.34777785  1
  O2-  O287  1  0.75005175  0.87532754  0.85097642  1
