# generated using pymatgen
data_BaYFeCuO5
_symmetry_space_group_name_H-M   'P 1'
_cell_length_a   15.65971996
_cell_length_b   15.66002713
_cell_length_c   15.46001328
_cell_angle_alpha   89.99903353
_cell_angle_beta   90.00656454
_cell_angle_gamma   90.00403857
_symmetry_Int_Tables_number   1
_chemical_formula_structural   BaYFeCuO5
_chemical_formula_sum   'Ba32 Y32 Fe32 Cu32 O160'
_cell_volume   3791.28436687
_cell_formula_units_Z   32
loop_
 _symmetry_equiv_pos_site_id
 _symmetry_equiv_pos_as_xyz
  1  'x, y, z'
loop_
 _atom_type_symbol
 _atom_type_oxidation_number
  Ba2+  2.0
  Y3+  3.0
  Fe3+  3.0
  Cu2+  2.0
  O2-  -2.0
loop_
 _atom_site_type_symbol
 _atom_site_label
 _atom_site_symmetry_multiplicity
 _atom_site_fract_x
 _atom_site_fract_y
 _atom_site_fract_z
 _atom_site_occupancy
  Ba2+  Ba0  1  0.00045301  -0.00334522  0.01330010  1
  Ba2+  Ba1  1  0.00690883  0.00556252  0.49910491  1
  Ba2+  Ba2  1  0.00716466  0.24682716  0.00660426  1
  Ba2+  Ba3  1  0.01011744  0.24856040  0.50351332  1
  Ba2+  Ba4  1  0.00772319  0.50251313  0.01767681  1
  Ba2+  Ba5  1  0.00784138  0.50487310  0.50694441  1
  Ba2+  Ba6  1  0.00104970  0.75304582  0.02347509  1
  Ba2+  Ba7  1  0.00491623  0.74163423  0.50278978  1
  Ba2+  Ba8  1  0.24789945  -0.00072743  0.02706573  1
  Ba2+  Ba9  1  0.25025080  0.00520832  0.50545127  1
  Ba2+  Ba10  1  0.24305728  0.24743151  0.01752386  1
  Ba2+  Ba11  1  0.24819396  0.24860983  0.51146706  1
  Ba2+  Ba12  1  0.24477536  0.50408315  0.01092047  1
  Ba2+  Ba13  1  0.24622732  0.49916779  0.51672314  1
  Ba2+  Ba14  1  0.24915573  0.74957202  0.02103483  1
  Ba2+  Ba15  1  0.24757446  0.74746243  0.51070104  1
  Ba2+  Ba16  1  0.49408512  0.00304795  0.02168838  1
  Ba2+  Ba17  1  0.49167159  -0.00070473  0.51522607  1
  Ba2+  Ba18  1  0.49782401  0.24056257  0.01750192  1
  Ba2+  Ba19  1  0.49337307  0.25328101  0.51178631  1
  Ba2+  Ba20  1  0.49189620  0.50581904  0.00591600  1
  Ba2+  Ba21  1  0.49653934  0.49397927  0.51825392  1
  Ba2+  Ba22  1  0.48776781  0.75040956  0.00986349  1
  Ba2+  Ba23  1  0.49469459  0.75323904  0.52263854  1
  Ba2+  Ba24  1  0.75950097  0.00008220  0.00504598  1
  Ba2+  Ba25  1  0.74932516  -0.00041101  0.50710108  1
  Ba2+  Ba26  1  0.75179495  0.24002044  0.00698250  1
  Ba2+  Ba27  1  0.74683811  0.25386678  0.50232247  1
  Ba2+  Ba28  1  0.75670459  0.50463712  0.01208759  1
  Ba2+  Ba29  1  0.75093454  0.50040243  0.50680019  1
  Ba2+  Ba30  1  0.76238417  0.75456802  0.01141224  1
  Ba2+  Ba31  1  0.75371619  0.74593187  0.51121207  1
  Y3+  Y32  1  0.00244817  -0.00023984  0.25999395  1
  Y3+  Y33  1  -0.00036925  0.00029281  0.75766436  1
  Y3+  Y34  1  0.00431176  0.25006856  0.26078228  1
  Y3+  Y35  1  0.00375960  0.25060795  0.75679237  1
  Y3+  Y36  1  0.00318439  0.50180598  0.26079289  1
  Y3+  Y37  1  0.00384210  0.49961894  0.75459239  1
  Y3+  Y38  1  0.00142165  0.74871789  0.26053722  1
  Y3+  Y39  1  -0.00037347  0.74871249  0.75398330  1
  Y3+  Y40  1  0.24880296  0.00133554  0.26153387  1
  Y3+  Y41  1  0.24999405  0.00155477  0.74966031  1
  Y3+  Y42  1  0.24737542  0.24878974  0.26068103  1
  Y3+  Y43  1  0.24732272  0.25114214  0.75344577  1
  Y3+  Y44  1  0.24629277  0.50089840  0.25617378  1
  Y3+  Y45  1  0.24840196  0.49965589  0.75752603  1
  Y3+  Y46  1  0.24769392  0.74925495  0.25756221  1
  Y3+  Y47  1  0.25103154  0.74731533  0.75457385  1
  Y3+  Y48  1  0.49753760  0.00222391  0.25809474  1
  Y3+  Y49  1  0.49816013  -0.00101840  0.75265662  1
  Y3+  Y50  1  0.49956480  0.24897281  0.25983269  1
  Y3+  Y51  1  0.49823156  0.25073881  0.75390852  1
  Y3+  Y52  1  0.49955798  0.49977377  0.25549170  1
  Y3+  Y53  1  0.49700000  0.49976749  0.75822175  1
  Y3+  Y54  1  0.49742082  0.74943277  0.25304404  1
  Y3+  Y55  1  0.49721086  0.74990267  0.75819879  1
  Y3+  Y56  1  0.75133279  0.00062091  0.25737276  1
  Y3+  Y57  1  0.75197569  -0.00198811  0.75815405  1
  Y3+  Y58  1  0.74926703  0.25013425  0.26054976  1
  Y3+  Y59  1  0.75010772  0.25080738  0.75687311  1
  Y3+  Y60  1  0.75111670  0.50039559  0.26093639  1
  Y3+  Y61  1  0.75056441  0.49983888  0.75468437  1
  Y3+  Y62  1  0.75387731  0.74950200  0.25790082  1
  Y3+  Y63  1  0.75180019  0.75115572  0.75625218  1
  Fe3+  Fe64  1  0.62341596  0.87355250  0.37742741  1
  Fe3+  Fe65  1  0.62282841  0.62552578  0.37900881  1
  Fe3+  Fe66  1  0.87661556  0.37489638  0.88065747  1
  Fe3+  Fe67  1  0.12578009  0.87462436  0.87569653  1
  Fe3+  Fe68  1  0.62547911  0.62611289  0.87975459  1
  Fe3+  Fe69  1  0.37520310  0.62444963  0.37697955  1
  Fe3+  Fe70  1  0.37198395  0.87675063  0.87549242  1
  Fe3+  Fe71  1  0.62422597  0.87542173  0.87954924  1
  Fe3+  Fe72  1  0.62354180  0.12347879  0.87603232  1
  Fe3+  Fe73  1  0.37479187  0.87396833  0.37529866  1
  Fe3+  Fe74  1  0.87709199  0.62506225  0.87604114  1
  Fe3+  Fe75  1  0.62470628  0.37468342  0.88079074  1
  Fe3+  Fe76  1  0.62376468  0.12451536  0.37952136  1
  Fe3+  Fe77  1  0.12634421  0.12312790  0.87552253  1
  Fe3+  Fe78  1  0.87587344  0.87521042  0.37947347  1
  Fe3+  Fe79  1  0.37337580  0.12418888  0.87496275  1
  Fe3+  Fe80  1  0.87671495  0.37508383  0.37936619  1
  Fe3+  Fe81  1  0.12489546  0.62651523  0.87611920  1
  Fe3+  Fe82  1  0.37397150  0.37604450  0.37479158  1
  Fe3+  Fe83  1  0.37315761  0.37328037  0.87980869  1
  Fe3+  Fe84  1  0.62567305  0.87590341  0.13379007  1
  Fe3+  Fe85  1  0.87629277  0.87501972  0.63380312  1
  Fe3+  Fe86  1  0.87629326  0.37440401  0.13663713  1
  Fe3+  Fe87  1  0.62437104  0.62469961  0.63647951  1
  Fe3+  Fe88  1  0.87661537  0.12547206  0.14161821  1
  Fe3+  Fe89  1  0.12464197  0.87505142  0.63378810  1
  Fe3+  Fe90  1  0.87644726  0.37502865  0.63523398  1
  Fe3+  Fe91  1  0.62529919  0.12506906  0.63516486  1
  Fe3+  Fe92  1  0.87572121  0.12578273  0.63609349  1
  Fe3+  Fe93  1  0.62563614  0.37464724  0.13373031  1
  Fe3+  Fe94  1  0.62585855  0.62597277  0.13369782  1
  Fe3+  Fe95  1  0.37360355  0.37471874  0.13472921  1
  Cu2+  Cu96  1  0.87481745  0.12551240  0.36913078  1
  Cu2+  Cu97  1  0.37318817  0.62551070  0.87234678  1
  Cu2+  Cu98  1  0.12523093  0.37497967  0.87407109  1
  Cu2+  Cu99  1  0.12617339  0.12546279  0.37151037  1
  Cu2+  Cu100  1  0.62297404  0.37646335  0.37336157  1
  Cu2+  Cu101  1  0.12671039  0.37605760  0.37230902  1
  Cu2+  Cu102  1  0.37526720  0.12561989  0.37245171  1
  Cu2+  Cu103  1  0.87736246  0.87421793  0.87185124  1
  Cu2+  Cu104  1  0.12716604  0.62477236  0.37104524  1
  Cu2+  Cu105  1  0.87580942  0.12549100  0.86199923  1
  Cu2+  Cu106  1  0.12594835  0.87451368  0.36795193  1
  Cu2+  Cu107  1  0.87520039  0.62459699  0.37401145  1
  Cu2+  Cu108  1  0.12452582  0.37496364  0.64137986  1
  Cu2+  Cu109  1  0.12478799  0.87523326  0.15636065  1
  Cu2+  Cu110  1  0.87571113  0.62396367  0.64031024  1
  Cu2+  Cu111  1  0.12422059  0.12456224  0.15572760  1
  Cu2+  Cu112  1  0.37410990  0.62402863  0.14110906  1
  Cu2+  Cu113  1  0.12402007  0.12453331  0.64189096  1
  Cu2+  Cu114  1  0.37460932  0.87551885  0.15291692  1
  Cu2+  Cu115  1  0.62546129  0.37485438  0.64115718  1
  Cu2+  Cu116  1  0.37470591  0.62408106  0.64895153  1
  Cu2+  Cu117  1  0.37372310  0.37528231  0.65348249  1
  Cu2+  Cu118  1  0.62544750  0.87476898  0.64777877  1
  Cu2+  Cu119  1  0.87525397  0.62422854  0.15443626  1
  Cu2+  Cu120  1  0.87561025  0.87585592  0.14703427  1
  Cu2+  Cu121  1  0.12430763  0.62564132  0.15335954  1
  Cu2+  Cu122  1  0.37353626  0.87451675  0.64943304  1
  Cu2+  Cu123  1  0.62607465  0.12485437  0.15250937  1
  Cu2+  Cu124  1  0.37404172  0.12602318  0.63955964  1
  Cu2+  Cu125  1  0.12420998  0.37470473  0.14272662  1
  Cu2+  Cu126  1  0.37369478  0.12623708  0.15540485  1
  Cu2+  Cu127  1  0.12538601  0.62527229  0.64334216  1
  O2-  O128  1  0.12647847  0.12194265  -0.00372164  1
  O2-  O129  1  0.12591345  0.12497304  0.50700320  1
  O2-  O130  1  0.12411851  0.37445277  0.00789879  1
  O2-  O131  1  0.12587661  0.37570729  0.50755677  1
  O2-  O132  1  0.12351209  0.62826713  -0.00306417  1
  O2-  O133  1  0.12756788  0.62497682  0.50675736  1
  O2-  O134  1  0.12627737  0.87499874  -0.00406654  1
  O2-  O135  1  0.12409856  0.87472351  0.51332916  1
  O2-  O136  1  0.37344582  0.12317217  -0.00476089  1
  O2-  O137  1  0.37660841  0.12611160  0.50616019  1
  O2-  O138  1  0.37440824  0.37253387  0.00649678  1
  O2-  O139  1  0.37482645  0.37691470  0.49575898  1
  O2-  O140  1  0.37383511  0.62572656  0.00650846  1
  O2-  O141  1  0.37805849  0.62416075  0.49714091  1
  O2-  O142  1  0.37214791  0.87829669  -0.00400706  1
  O2-  O143  1  0.37691372  0.87271022  0.49568423  1
  O2-  O144  1  0.62343831  0.12279621  -0.00340006  1
  O2-  O145  1  0.62450197  0.12524363  0.50704476  1
  O2-  O146  1  0.62621803  0.37394900  0.00684289  1
  O2-  O147  1  0.62435757  0.37615189  0.50722297  1
  O2-  O148  1  0.62683409  0.62634617  0.00644499  1
  O2-  O149  1  0.62237902  0.62507069  0.50701825  1
  O2-  O150  1  0.62528838  0.87679209  0.00607807  1
  O2-  O151  1  0.62322956  0.87288260  0.49721576  1
  O2-  O152  1  0.87650142  0.12477303  0.02049778  1
  O2-  O153  1  0.87297240  0.12584562  0.51606505  1
  O2-  O154  1  0.87509911  0.37401801  0.00867872  1
  O2-  O155  1  0.87557391  0.37503042  0.50793710  1
  O2-  O156  1  0.87688586  0.62588301  -0.00331892  1
  O2-  O157  1  0.87324399  0.62406729  0.50686355  1
  O2-  O158  1  0.87687352  0.87587455  0.00772965  1
  O2-  O159  1  0.87451992  0.87504656  0.50720775  1
  O2-  O160  1  0.12421985  -0.00010307  0.16673003  1
  O2-  O161  1  0.12400464  -0.00213446  0.66331518  1
  O2-  O162  1  0.12434717  0.24855830  0.16656054  1
  O2-  O163  1  0.12429896  0.24984102  0.66534679  1
  O2-  O164  1  0.12359101  0.50168835  0.16398411  1
  O2-  O165  1  0.12530528  0.50061219  0.66603254  1
  O2-  O166  1  0.12429258  0.75019934  0.16486228  1
  O2-  O167  1  0.12481457  0.75159097  0.66322612  1
  O2-  O168  1  0.37590051  0.00119543  0.16583634  1
  O2-  O169  1  0.37580060  -0.00133936  0.65991786  1
  O2-  O170  1  0.37598006  0.25176812  0.16348156  1
  O2-  O171  1  0.37515598  0.25237712  0.66548265  1
  O2-  O172  1  0.37653065  0.49677923  0.16069191  1
  O2-  O173  1  0.37577591  0.49875864  0.66745486  1
  O2-  O174  1  0.37584009  0.75080898  0.16207777  1
  O2-  O175  1  0.37627649  0.74978437  0.66394434  1
  O2-  O176  1  0.62479260  -0.00173311  0.16569836  1
  O2-  O177  1  0.62553426  0.00144384  0.66089207  1
  O2-  O178  1  0.62578761  0.25229255  0.16437867  1
  O2-  O179  1  0.62578302  0.24706211  0.66573844  1
  O2-  O180  1  0.62616086  0.49954174  0.16024878  1
  O2-  O181  1  0.62438014  0.50263798  0.66783929  1
  O2-  O182  1  0.62569012  0.75058741  0.16049239  1
  O2-  O183  1  0.62447426  0.74823271  0.66507686  1
  O2-  O184  1  0.87479530  0.00203705  0.17059204  1
  O2-  O185  1  0.87389800  -0.00098035  0.66375780  1
  O2-  O186  1  0.87390040  0.25148277  0.16814754  1
  O2-  O187  1  0.87408426  0.25095384  0.66794612  1
  O2-  O188  1  0.87324195  0.49833183  0.16287996  1
  O2-  O189  1  0.87418093  0.49732211  0.66589654  1
  O2-  O190  1  0.87402957  0.74857292  0.16626362  1
  O2-  O191  1  0.87382565  0.75239034  0.66140502  1
  O2-  O192  1  -0.00000157  0.12553349  0.16916458  1
  O2-  O193  1  -0.00240008  0.12522198  0.66726936  1
  O2-  O194  1  -0.00281943  0.37530633  0.16662063  1
  O2-  O195  1  -0.00250822  0.37466398  0.66570417  1
  O2-  O196  1  -0.00037619  0.62516131  0.16706351  1
  O2-  O197  1  0.00056622  0.62445693  0.66298623  1
  O2-  O198  1  0.00091358  0.87487175  0.16958788  1
  O2-  O199  1  -0.00157020  0.87491896  0.66373225  1
  O2-  O200  1  0.24873578  0.12505734  0.16538902  1
  O2-  O201  1  0.24943184  0.12553555  0.66109520  1
  O2-  O202  1  0.25171216  0.37497080  0.16124546  1
  O2-  O203  1  0.25110347  0.37550830  0.66475509  1
  O2-  O204  1  0.24828352  0.62486184  0.16411137  1
  O2-  O205  1  0.25134427  0.62431963  0.66342903  1
  O2-  O206  1  0.25012154  0.87535451  0.16506300  1
  O2-  O207  1  0.24948280  0.87443571  0.66074790  1
  O2-  O208  1  0.50039399  0.12575968  0.16310518  1
  O2-  O209  1  0.50245317  0.12537689  0.66223305  1
  O2-  O210  1  0.50114427  0.37481180  0.15838800  1
  O2-  O211  1  0.49757264  0.37526491  0.66712505  1
  O2-  O212  1  0.50404498  0.62476041  0.16107340  1
  O2-  O213  1  0.50091974  0.62461999  0.66606884  1
  O2-  O214  1  0.50155416  0.87488105  0.15885898  1
  O2-  O215  1  0.49915743  0.87440965  0.66489871  1
  O2-  O216  1  0.75102063  0.12586365  0.16929263  1
  O2-  O217  1  0.74946675  0.12465992  0.66666426  1
  O2-  O218  1  0.74983962  0.37530577  0.16458763  1
  O2-  O219  1  0.75339178  0.37493361  0.66703632  1
  O2-  O220  1  0.74773848  0.62471455  0.16590699  1
  O2-  O221  1  0.74713824  0.62481943  0.66421060  1
  O2-  O222  1  0.74731796  0.87510343  0.16550252  1
  O2-  O223  1  0.75234509  0.87485898  0.66489222  1
  O2-  O224  1  0.12524255  -0.00076330  0.35077691  1
  O2-  O225  1  0.12495575  0.00001354  0.84232614  1
  O2-  O226  1  0.12554865  0.25062909  0.35015780  1
  O2-  O227  1  0.12457218  0.24769937  0.84833463  1
  O2-  O228  1  0.12558254  0.50017195  0.34741273  1
  O2-  O229  1  0.12478589  0.50177906  0.84906325  1
  O2-  O230  1  0.12529757  0.75051386  0.34893208  1
  O2-  O231  1  0.12463981  0.74988002  0.84248931  1
  O2-  O232  1  0.37595499  -0.00160939  0.34921463  1
  O2-  O233  1  0.37561678  0.00029259  0.84026620  1
  O2-  O234  1  0.37609250  0.25158249  0.34695944  1
  O2-  O235  1  0.37657891  0.25027961  0.84785435  1
  O2-  O236  1  0.37610639  0.50110769  0.34161161  1
  O2-  O237  1  0.37610315  0.49679533  0.85230953  1
  O2-  O238  1  0.37622478  0.74926673  0.34334668  1
  O2-  O239  1  0.37571870  0.75253636  0.84685956  1
  O2-  O240  1  0.62555482  0.00001973  0.35009134  1
  O2-  O241  1  0.62518058  -0.00149277  0.84466715  1
  O2-  O242  1  0.62507141  0.24740792  0.35004097  1
  O2-  O243  1  0.62534646  0.25108533  0.84931597  1
  O2-  O244  1  0.62476108  0.50385331  0.34568676  1
  O2-  O245  1  0.62545171  0.49952029  0.85346417  1
  O2-  O246  1  0.62503554  0.74900832  0.34480592  1
  O2-  O247  1  0.62510005  0.75047835  0.85060337  1
  O2-  O248  1  0.87369150  -0.00148458  0.35347038  1
  O2-  O249  1  0.87430153  0.00157899  0.84716631  1
  O2-  O250  1  0.87376112  0.25172204  0.35142580  1
  O2-  O251  1  0.87323539  0.25170850  0.85226089  1
  O2-  O252  1  0.87427660  0.49717359  0.34796957  1
  O2-  O253  1  0.87276220  0.49894068  0.84927547  1
  O2-  O254  1  0.87415950  0.75309053  0.35042617  1
  O2-  O255  1  0.87412097  0.74717193  0.84333745  1
  O2-  O256  1  -0.00078237  0.12559654  0.35175040  1
  O2-  O257  1  0.00042717  0.12521222  0.84917300  1
  O2-  O258  1  -0.00128234  0.37492809  0.35138203  1
  O2-  O259  1  -0.00288475  0.37479667  0.84944947  1
  O2-  O260  1  0.00098191  0.62464039  0.35166206  1
  O2-  O261  1  0.00004931  0.62401011  0.84315066  1
  O2-  O262  1  -0.00119218  0.87538984  0.35368733  1
  O2-  O263  1  0.00241253  0.87522122  0.84438462  1
  O2-  O264  1  0.25043895  0.12525020  0.34940347  1
  O2-  O265  1  0.25043956  0.12529308  0.84131046  1
  O2-  O266  1  0.25180506  0.37572816  0.34389541  1
  O2-  O267  1  0.25243566  0.37410124  0.84882692  1
  O2-  O268  1  0.25264429  0.62516538  0.34660212  1
  O2-  O269  1  0.24789594  0.62497152  0.84564384  1
  O2-  O270  1  0.25090494  0.87439041  0.34847884  1
  O2-  O271  1  0.24956442  0.87529820  0.84049935  1
  O2-  O272  1  0.50288905  0.12465751  0.34754212  1
  O2-  O273  1  0.49968869  0.12500709  0.84324409  1
  O2-  O274  1  0.49768959  0.37590434  0.34154793  1
  O2-  O275  1  0.50068549  0.37502451  0.85193293  1
  O2-  O276  1  0.50048780  0.62534517  0.34304448  1
  O2-  O277  1  0.50329431  0.62488055  0.85093890  1
  O2-  O278  1  0.50044206  0.87454272  0.34053223  1
  O2-  O279  1  0.50065057  0.87514615  0.84875906  1
  O2-  O280  1  0.74760641  0.12489808  0.35227960  1
  O2-  O281  1  0.74921552  0.12481653  0.84948042  1
  O2-  O282  1  0.75243545  0.37542160  0.35037731  1
  O2-  O283  1  0.74923195  0.37487387  0.85158026  1
  O2-  O284  1  0.74671996  0.62523730  0.35107030  1
  O2-  O285  1  0.74872327  0.62470696  0.84784000  1
  O2-  O286  1  0.75016521  0.87485157  0.34892525  1
  O2-  O287  1  0.74744254  0.87482546  0.85029781  1
