# generated using pymatgen
data_BaYFeCuO5
_symmetry_space_group_name_H-M   'P 1'
_cell_length_a   15.65843468
_cell_length_b   15.65921435
_cell_length_c   15.46222027
_cell_angle_alpha   90.00296690
_cell_angle_beta   90.00236044
_cell_angle_gamma   89.99754293
_symmetry_Int_Tables_number   1
_chemical_formula_structural   BaYFeCuO5
_chemical_formula_sum   'Ba32 Y32 Fe32 Cu32 O160'
_cell_volume   3791.31761417
_cell_formula_units_Z   32
loop_
 _symmetry_equiv_pos_site_id
 _symmetry_equiv_pos_as_xyz
  1  'x, y, z'
loop_
 _atom_type_symbol
 _atom_type_oxidation_number
  Ba2+  2.0
  Y3+  3.0
  Fe3+  3.0
  Cu2+  2.0
  O2-  -2.0
loop_
 _atom_site_type_symbol
 _atom_site_label
 _atom_site_symmetry_multiplicity
 _atom_site_fract_x
 _atom_site_fract_y
 _atom_site_fract_z
 _atom_site_occupancy
  Ba2+  Ba0  1  0.00718792  0.00117660  0.00698711  1
  Ba2+  Ba1  1  0.00038371  0.00077643  0.52210688  1
  Ba2+  Ba2  1  -0.00080582  0.25315094  0.01156476  1
  Ba2+  Ba3  1  0.00565442  0.24397661  0.51545976  1
  Ba2+  Ba4  1  0.00462045  0.49578333  0.01291889  1
  Ba2+  Ba5  1  0.00239974  0.50867311  0.51018242  1
  Ba2+  Ba6  1  0.01165726  0.74992977  0.00673663  1
  Ba2+  Ba7  1  -0.00192365  0.74726409  0.51754262  1
  Ba2+  Ba8  1  0.24604657  0.00331345  0.01200725  1
  Ba2+  Ba9  1  0.24332102  0.00638660  0.51536743  1
  Ba2+  Ba10  1  0.24673459  0.24504844  0.01715156  1
  Ba2+  Ba11  1  0.24730625  0.24741534  0.51100964  1
  Ba2+  Ba12  1  0.24355144  0.50542752  0.01691822  1
  Ba2+  Ba13  1  0.24315039  0.49727013  0.50631771  1
  Ba2+  Ba14  1  0.24281885  0.74646761  0.01209464  1
  Ba2+  Ba15  1  0.23892849  0.74854204  0.51109268  1
  Ba2+  Ba16  1  0.49980879  0.00471444  0.00705056  1
  Ba2+  Ba17  1  0.50519847  0.00521035  0.51230555  1
  Ba2+  Ba18  1  0.49703534  0.24058537  0.01109781  1
  Ba2+  Ba19  1  0.50012359  0.24897528  0.51781578  1
  Ba2+  Ba20  1  0.50106215  0.50977822  0.01207722  1
  Ba2+  Ba21  1  0.50494682  0.49463142  0.51207902  1
  Ba2+  Ba22  1  0.50428759  0.74533224  0.00696260  1
  Ba2+  Ba23  1  0.50974764  0.75054311  0.50621985  1
  Ba2+  Ba24  1  0.74677282  0.00340849  0.00283142  1
  Ba2+  Ba25  1  0.75188438  -0.00050827  0.51767649  1
  Ba2+  Ba26  1  0.75780935  0.24965041  0.00520682  1
  Ba2+  Ba27  1  0.74570545  0.24561735  0.52346207  1
  Ba2+  Ba28  1  0.75163454  0.49931404  0.00670942  1
  Ba2+  Ba29  1  0.74930889  0.50623991  0.51833116  1
  Ba2+  Ba30  1  0.74077812  0.74781027  0.00231522  1
  Ba2+  Ba31  1  0.75522910  0.74859134  0.51291378  1
  Y3+  Y32  1  0.00295481  0.00038091  0.25602429  1
  Y3+  Y33  1  0.00115001  -0.00042063  0.75821226  1
  Y3+  Y34  1  0.00120549  0.25064856  0.25582950  1
  Y3+  Y35  1  -0.00071408  0.24974939  0.75744915  1
  Y3+  Y36  1  0.00002928  0.50137830  0.25781242  1
  Y3+  Y37  1  0.00089105  0.50156561  0.75665008  1
  Y3+  Y38  1  0.00157317  0.74755531  0.25841109  1
  Y3+  Y39  1  0.00253468  0.74925662  0.75738658  1
  Y3+  Y40  1  0.24795095  0.00156361  0.25540628  1
  Y3+  Y41  1  0.24851070  0.00112411  0.75842319  1
  Y3+  Y42  1  0.24879801  0.24857993  0.25775392  1
  Y3+  Y43  1  0.24961518  0.24766305  0.75529173  1
  Y3+  Y44  1  0.24776315  0.50139761  0.25833105  1
  Y3+  Y45  1  0.24662885  0.50114733  0.75524472  1
  Y3+  Y46  1  0.24672222  0.74849820  0.25643053  1
  Y3+  Y47  1  0.24549808  0.75027309  0.75830584  1
  Y3+  Y48  1  0.49946648  0.00124996  0.25509010  1
  Y3+  Y49  1  0.49821978  0.00137555  0.75975899  1
  Y3+  Y50  1  0.49791807  0.24896659  0.25480897  1
  Y3+  Y51  1  0.49860492  0.24804912  0.75808621  1
  Y3+  Y52  1  0.49926433  0.50078333  0.25598057  1
  Y3+  Y53  1  0.50216855  0.50080944  0.75794941  1
  Y3+  Y54  1  0.50079083  0.74897522  0.25598787  1
  Y3+  Y55  1  0.50196069  0.74980563  0.75990006  1
  Y3+  Y56  1  0.74926421  -0.00036516  0.25630405  1
  Y3+  Y57  1  0.75225388  0.00050685  0.75892044  1
  Y3+  Y58  1  0.75164570  0.25079084  0.25237494  1
  Y3+  Y59  1  0.75249730  0.25061564  0.75998738  1
  Y3+  Y60  1  0.75246705  0.50072467  0.25482608  1
  Y3+  Y61  1  0.75086816  0.50116386  0.75930800  1
  Y3+  Y62  1  0.75036164  0.74895244  0.25771614  1
  Y3+  Y63  1  0.75051814  0.74797574  0.75864251  1
  Fe3+  Fe64  1  0.12412502  0.37412964  0.37636605  1
  Fe3+  Fe65  1  0.12477520  0.12606992  0.87535314  1
  Fe3+  Fe66  1  0.12576623  0.37518041  0.87569747  1
  Fe3+  Fe67  1  0.62561590  0.37365021  0.37500398  1
  Fe3+  Fe68  1  0.87580476  0.87467108  0.88001238  1
  Fe3+  Fe69  1  0.62419476  0.37505158  0.87931252  1
  Fe3+  Fe70  1  0.87520583  0.87543991  0.37678100  1
  Fe3+  Fe71  1  0.87528290  0.12519217  0.37719071  1
  Fe3+  Fe72  1  0.87406437  0.37483728  0.38074330  1
  Fe3+  Fe73  1  0.37460650  0.12525384  0.37671313  1
  Fe3+  Fe74  1  0.37499883  0.87541094  0.38055354  1
  Fe3+  Fe75  1  0.37367641  0.37512560  0.88055879  1
  Fe3+  Fe76  1  0.62625130  0.12549687  0.37403090  1
  Fe3+  Fe77  1  0.12394018  0.87585076  0.37737416  1
  Fe3+  Fe78  1  0.37377547  0.87482851  0.87986627  1
  Fe3+  Fe79  1  0.37490100  0.62466441  0.38003377  1
  Fe3+  Fe80  1  0.62538624  0.12558549  0.87567175  1
  Fe3+  Fe81  1  0.87687223  0.62466457  0.87975261  1
  Fe3+  Fe82  1  0.62641705  0.62435384  0.37548290  1
  Fe3+  Fe83  1  0.37327214  0.62456488  0.87631813  1
  Fe3+  Fe84  1  0.37405070  0.87406825  0.13508613  1
  Fe3+  Fe85  1  0.37395274  0.37579404  0.13438847  1
  Fe3+  Fe86  1  0.62488240  0.37461514  0.13283435  1
  Fe3+  Fe87  1  0.37434529  0.37536763  0.63747954  1
  Fe3+  Fe88  1  0.87583164  0.87443269  0.13305182  1
  Fe3+  Fe89  1  0.62550997  0.87518908  0.64085811  1
  Fe3+  Fe90  1  0.62515956  0.87532504  0.13729064  1
  Fe3+  Fe91  1  0.37463640  0.87496221  0.63459370  1
  Fe3+  Fe92  1  0.87562297  0.12377460  0.13525072  1
  Fe3+  Fe93  1  0.37544001  0.62570071  0.63386875  1
  Fe3+  Fe94  1  0.87543251  0.62591523  0.13422101  1
  Fe3+  Fe95  1  0.87576796  0.37556612  0.63551019  1
  Cu2+  Cu96  1  0.12423699  0.62543791  0.37189223  1
  Cu2+  Cu97  1  0.87666433  0.37585227  0.87258356  1
  Cu2+  Cu98  1  0.87647567  0.12484323  0.86646095  1
  Cu2+  Cu99  1  0.62487129  0.62415030  0.87178973  1
  Cu2+  Cu100  1  0.62518073  0.87566765  0.36304467  1
  Cu2+  Cu101  1  0.37329184  0.12550802  0.87327421  1
  Cu2+  Cu102  1  0.12401364  0.12452003  0.37103735  1
  Cu2+  Cu103  1  0.12581563  0.87531242  0.87249716  1
  Cu2+  Cu104  1  0.37529428  0.37482115  0.36355956  1
  Cu2+  Cu105  1  0.12518253  0.62404738  0.87058223  1
  Cu2+  Cu106  1  0.62464488  0.87552621  0.86515663  1
  Cu2+  Cu107  1  0.87476307  0.62492503  0.37228594  1
  Cu2+  Cu108  1  0.37445890  0.62569542  0.15194423  1
  Cu2+  Cu109  1  0.12402093  0.12545726  0.15078675  1
  Cu2+  Cu110  1  0.12366868  0.62482897  0.14457020  1
  Cu2+  Cu111  1  0.87571417  0.37552720  0.14020617  1
  Cu2+  Cu112  1  0.12456245  0.37482047  0.64923232  1
  Cu2+  Cu113  1  0.12486251  0.87487321  0.14201904  1
  Cu2+  Cu114  1  0.87506425  0.12509095  0.65317067  1
  Cu2+  Cu115  1  0.37420539  0.12400472  0.14117368  1
  Cu2+  Cu116  1  0.62596166  0.62510726  0.14232575  1
  Cu2+  Cu117  1  0.12488274  0.12515533  0.64464547  1
  Cu2+  Cu118  1  0.12538853  0.62484261  0.64268693  1
  Cu2+  Cu119  1  0.12525900  0.37501719  0.15197949  1
  Cu2+  Cu120  1  0.62556545  0.12514662  0.14785394  1
  Cu2+  Cu121  1  0.12504426  0.87527853  0.65172768  1
  Cu2+  Cu122  1  0.87524435  0.62499080  0.64484611  1
  Cu2+  Cu123  1  0.87528846  0.87456463  0.65532614  1
  Cu2+  Cu124  1  0.62531656  0.37474505  0.65530083  1
  Cu2+  Cu125  1  0.37500691  0.12416099  0.65038933  1
  Cu2+  Cu126  1  0.62514120  0.12424638  0.65715377  1
  Cu2+  Cu127  1  0.62451762  0.62549257  0.65353226  1
  O2-  O128  1  0.12441677  0.12721534  -0.00329821  1
  O2-  O129  1  0.12432687  0.12440657  0.50682822  1
  O2-  O130  1  0.12693415  0.37411874  -0.00368706  1
  O2-  O131  1  0.12424000  0.37352518  0.49714019  1
  O2-  O132  1  0.12483749  0.62355638  0.00810231  1
  O2-  O133  1  0.12503018  0.62559962  0.50762562  1
  O2-  O134  1  0.12681544  0.87561863  0.00683478  1
  O2-  O135  1  0.12296212  0.87648657  0.49792591  1
  O2-  O136  1  0.37388375  0.12427961  0.00700152  1
  O2-  O137  1  0.37673120  0.12478202  0.49726356  1
  O2-  O138  1  0.37370841  0.37599439  0.00685600  1
  O2-  O139  1  0.37688372  0.37482686  0.51714561  1
  O2-  O140  1  0.37345153  0.62562819  -0.00310406  1
  O2-  O141  1  0.37659559  0.62438713  0.50682632  1
  O2-  O142  1  0.37441694  0.87362431  0.00739027  1
  O2-  O143  1  0.37599022  0.87610283  0.50728889  1
  O2-  O144  1  0.62508408  0.12569332  -0.00323142  1
  O2-  O145  1  0.62612611  0.12600826  0.49447886  1
  O2-  O146  1  0.62392118  0.37476584  0.00568334  1
  O2-  O147  1  0.62580780  0.37260794  0.49525323  1
  O2-  O148  1  0.62460218  0.62441948  0.00675409  1
  O2-  O149  1  0.62589637  0.62426506  0.49633936  1
  O2-  O150  1  0.62360089  0.87555533  0.01672907  1
  O2-  O151  1  0.62578094  0.87584634  0.51988170  1
  O2-  O152  1  0.87620002  0.12366853  0.01442722  1
  O2-  O153  1  0.87307520  0.12486784  0.49764370  1
  O2-  O154  1  0.87575840  0.37553831  0.00649052  1
  O2-  O155  1  0.87296246  0.37435204  0.50679551  1
  O2-  O156  1  0.87634044  0.62534547  0.00696308  1
  O2-  O157  1  0.87345874  0.62502253  0.50823714  1
  O2-  O158  1  0.87489945  0.87469121  0.00693161  1
  O2-  O159  1  0.87501046  0.87622819  0.49731744  1
  O2-  O160  1  0.12511814  0.00133989  0.16261597  1
  O2-  O161  1  0.12516359  -0.00097383  0.66686496  1
  O2-  O162  1  0.12506518  0.25032986  0.16333375  1
  O2-  O163  1  0.12546603  0.25082476  0.66367724  1
  O2-  O164  1  0.12469699  0.49891918  0.16607930  1
  O2-  O165  1  0.12521935  0.49878642  0.66422438  1
  O2-  O166  1  0.12488209  0.74960759  0.16604587  1
  O2-  O167  1  0.12513251  0.75141201  0.66630723  1
  O2-  O168  1  0.37489971  -0.00331646  0.16317683  1
  O2-  O169  1  0.37530944  -0.00196781  0.66444992  1
  O2-  O170  1  0.37459688  0.25278629  0.16131307  1
  O2-  O171  1  0.37580572  0.25005849  0.66622921  1
  O2-  O172  1  0.37508303  0.49909580  0.16338648  1
  O2-  O173  1  0.37614243  0.50157523  0.66526733  1
  O2-  O174  1  0.37509627  0.75133867  0.16642339  1
  O2-  O175  1  0.37592476  0.75039262  0.66190728  1
  O2-  O176  1  0.62463215  -0.00065314  0.16511499  1
  O2-  O177  1  0.62493483  -0.00043667  0.66781678  1
  O2-  O178  1  0.62413885  0.25178495  0.15928356  1
  O2-  O179  1  0.62487982  0.24876579  0.66534589  1
  O2-  O180  1  0.62435266  0.49685274  0.16212633  1
  O2-  O181  1  0.62454537  0.50070260  0.66488268  1
  O2-  O182  1  0.62499383  0.75193098  0.16702948  1
  O2-  O183  1  0.62470579  0.75061965  0.66775847  1
  O2-  O184  1  0.87496540  -0.00155731  0.16308870  1
  O2-  O185  1  0.87484684  0.00004565  0.66656515  1
  O2-  O186  1  0.87536185  0.24790822  0.16410739  1
  O2-  O187  1  0.87426247  0.25182115  0.66385940  1
  O2-  O188  1  0.87508269  0.50287470  0.16394803  1
  O2-  O189  1  0.87430959  0.49724889  0.66521956  1
  O2-  O190  1  0.87452456  0.75039513  0.16271172  1
  O2-  O191  1  0.87470513  0.75061935  0.66854599  1
  O2-  O192  1  -0.00040523  0.12468123  0.16500130  1
  O2-  O193  1  -0.00122595  0.12486130  0.66550499  1
  O2-  O194  1  0.00171270  0.37513782  0.16506179  1
  O2-  O195  1  -0.00129608  0.37483108  0.66200445  1
  O2-  O196  1  -0.00321737  0.62529167  0.16489940  1
  O2-  O197  1  0.00050605  0.62521470  0.66646701  1
  O2-  O198  1  -0.00254334  0.87495326  0.16141280  1
  O2-  O199  1  -0.00022458  0.87484103  0.66630003  1
  O2-  O200  1  0.24774839  0.12487113  0.16513728  1
  O2-  O201  1  0.25109615  0.12452881  0.66424836  1
  O2-  O202  1  0.25129118  0.37588112  0.16313841  1
  O2-  O203  1  0.25027179  0.37526812  0.66439605  1
  O2-  O204  1  0.25024753  0.62497961  0.16741771  1
  O2-  O205  1  0.25346461  0.62567314  0.66207270  1
  O2-  O206  1  0.25200254  0.87415947  0.16537540  1
  O2-  O207  1  0.25189116  0.87462726  0.66231994  1
  O2-  O208  1  0.50135686  0.12453420  0.16324620  1
  O2-  O209  1  0.50017195  0.12434586  0.66554027  1
  O2-  O210  1  0.49917533  0.37544741  0.16062092  1
  O2-  O211  1  0.49988142  0.37492485  0.66828442  1
  O2-  O212  1  0.49928850  0.62534580  0.16532267  1
  O2-  O213  1  0.49840766  0.62536178  0.66327234  1
  O2-  O214  1  0.49866807  0.87447261  0.16630830  1
  O2-  O215  1  0.49861867  0.87514567  0.66730571  1
  O2-  O216  1  0.75082980  0.12461188  0.16258715  1
  O2-  O217  1  0.75010146  0.12477282  0.66646054  1
  O2-  O218  1  0.74738501  0.37482574  0.16142230  1
  O2-  O219  1  0.75098712  0.37509619  0.66588719  1
  O2-  O220  1  0.75306700  0.62525041  0.16202467  1
  O2-  O221  1  0.74838550  0.62482392  0.66834962  1
  O2-  O222  1  0.75143162  0.87525644  0.16350940  1
  O2-  O223  1  0.74997842  0.87496995  0.66944935  1
  O2-  O224  1  0.12567893  -0.00198589  0.34454032  1
  O2-  O225  1  0.12491590  0.00182004  0.84927080  1
  O2-  O226  1  0.12479447  0.25132958  0.34601796  1
  O2-  O227  1  0.12519799  0.25038693  0.84427501  1
  O2-  O228  1  0.12492772  0.49850137  0.34882549  1
  O2-  O229  1  0.12572500  0.49879722  0.84629018  1
  O2-  O230  1  0.12531757  0.75203299  0.34782120  1
  O2-  O231  1  0.12568553  0.74932103  0.85026220  1
  O2-  O232  1  0.37550349  -0.00114482  0.34662249  1
  O2-  O233  1  0.37521637  -0.00260934  0.85026915  1
  O2-  O234  1  0.37545608  0.24904932  0.34468166  1
  O2-  O235  1  0.37528665  0.25335509  0.84981193  1
  O2-  O236  1  0.37593483  0.50193746  0.34893668  1
  O2-  O237  1  0.37522916  0.49854940  0.84796348  1
  O2-  O238  1  0.37625147  0.75000869  0.35219139  1
  O2-  O239  1  0.37506741  0.75094993  0.84712116  1
  O2-  O240  1  0.62440502  0.00095565  0.34664762  1
  O2-  O241  1  0.62507735  0.00082347  0.84949374  1
  O2-  O242  1  0.62522956  0.24973073  0.33994106  1
  O2-  O243  1  0.62478627  0.25145793  0.84849706  1
  O2-  O244  1  0.62482053  0.49937821  0.34366951  1
  O2-  O245  1  0.62469051  0.49692866  0.84905708  1
  O2-  O246  1  0.62438538  0.74961000  0.34887894  1
  O2-  O247  1  0.62433962  0.75115708  0.85079583  1
  O2-  O248  1  0.87430237  0.00017647  0.34367315  1
  O2-  O249  1  0.87489056  -0.00207095  0.85163036  1
  O2-  O250  1  0.87423840  0.25134297  0.34638026  1
  O2-  O251  1  0.87546047  0.24954758  0.84837506  1
  O2-  O252  1  0.87410222  0.49676121  0.34859098  1
  O2-  O253  1  0.87498097  0.50303553  0.84863317  1
  O2-  O254  1  0.87422872  0.75187645  0.34596412  1
  O2-  O255  1  0.87464774  0.74968905  0.85280528  1
  O2-  O256  1  -0.00217563  0.12517512  0.34618309  1
  O2-  O257  1  0.00092022  0.12526692  0.84764029  1
  O2-  O258  1  -0.00219039  0.37488940  0.34824886  1
  O2-  O259  1  0.00243652  0.37550158  0.84558688  1
  O2-  O260  1  -0.00002747  0.62466337  0.34795492  1
  O2-  O261  1  -0.00176043  0.62522024  0.84979312  1
  O2-  O262  1  -0.00010045  0.87520383  0.34302324  1
  O2-  O263  1  -0.00222179  0.87450906  0.85121061  1
  O2-  O264  1  0.25140498  0.12469716  0.34785819  1
  O2-  O265  1  0.24783645  0.12527136  0.84622398  1
  O2-  O266  1  0.24983442  0.37537323  0.34772697  1
  O2-  O267  1  0.25103588  0.37535485  0.84593555  1
  O2-  O268  1  0.25269164  0.62533355  0.35141946  1
  O2-  O269  1  0.25125979  0.62484861  0.84390441  1
  O2-  O270  1  0.25154715  0.87440902  0.34949587  1
  O2-  O271  1  0.25254425  0.87478259  0.84700301  1
  O2-  O272  1  0.50012319  0.12498461  0.34459875  1
  O2-  O273  1  0.50129607  0.12526401  0.84868127  1
  O2-  O274  1  0.50106971  0.37494844  0.34419228  1
  O2-  O275  1  0.49948826  0.37522941  0.85207969  1
  O2-  O276  1  0.49946364  0.62494805  0.34837019  1
  O2-  O277  1  0.49759277  0.62484577  0.84647159  1
  O2-  O278  1  0.49845477  0.87492064  0.35104192  1
  O2-  O279  1  0.49791642  0.87464978  0.85113466  1
  O2-  O280  1  0.75041475  0.12531772  0.34239576  1
  O2-  O281  1  0.75028641  0.12558875  0.84987450  1
  O2-  O282  1  0.75103270  0.37471642  0.34359702  1
  O2-  O283  1  0.74758315  0.37490333  0.85179080  1
  O2-  O284  1  0.74823244  0.62462919  0.34371844  1
  O2-  O285  1  0.75298651  0.62496463  0.85243687  1
  O2-  O286  1  0.75004605  0.87541037  0.34566778  1
  O2-  O287  1  0.75163751  0.87470696  0.85351412  1
