# generated using pymatgen
data_BaYFeCuO5
_symmetry_space_group_name_H-M   'P 1'
_cell_length_a   15.66172591
_cell_length_b   15.66010481
_cell_length_c   15.45757897
_cell_angle_alpha   89.99971663
_cell_angle_beta   89.99713286
_cell_angle_gamma   89.99936304
_symmetry_Int_Tables_number   1
_chemical_formula_structural   BaYFeCuO5
_chemical_formula_sum   'Ba32 Y32 Fe32 Cu32 O160'
_cell_volume   3791.19180523
_cell_formula_units_Z   32
loop_
 _symmetry_equiv_pos_site_id
 _symmetry_equiv_pos_as_xyz
  1  'x, y, z'
loop_
 _atom_type_symbol
 _atom_type_oxidation_number
  Ba2+  2.0
  Y3+  3.0
  Fe3+  3.0
  Cu2+  2.0
  O2-  -2.0
loop_
 _atom_site_type_symbol
 _atom_site_label
 _atom_site_symmetry_multiplicity
 _atom_site_fract_x
 _atom_site_fract_y
 _atom_site_fract_z
 _atom_site_occupancy
  Ba2+  Ba0  1  0.00255054  0.00952885  0.01135740  1
  Ba2+  Ba1  1  0.00417142  0.00758060  0.51342037  1
  Ba2+  Ba2  1  -0.00008909  0.24412818  0.01493694  1
  Ba2+  Ba3  1  0.00095942  0.24827240  0.51943858  1
  Ba2+  Ba4  1  0.00125245  0.49935358  0.01537998  1
  Ba2+  Ba5  1  -0.00331002  0.49292029  0.51037950  1
  Ba2+  Ba6  1  0.00549079  0.74626886  0.01150795  1
  Ba2+  Ba7  1  -0.00027578  0.75061985  0.50656801  1
  Ba2+  Ba8  1  0.25591103  0.00750006  0.01163456  1
  Ba2+  Ba9  1  0.25670869  0.00300611  0.50668328  1
  Ba2+  Ba10  1  0.25630932  0.24420607  0.00686869  1
  Ba2+  Ba11  1  0.25442478  0.24718891  0.51811385  1
  Ba2+  Ba12  1  0.25787998  0.50092654  0.01689164  1
  Ba2+  Ba13  1  0.25108544  0.48759270  0.51089998  1
  Ba2+  Ba14  1  0.25736206  0.74604431  0.02385407  1
  Ba2+  Ba15  1  0.25205021  0.76124113  0.50184894  1
  Ba2+  Ba16  1  0.49876442  -0.00059216  0.00645044  1
  Ba2+  Ba17  1  0.49921704  0.00299863  0.50702758  1
  Ba2+  Ba18  1  0.49264763  0.24550839  0.00185726  1
  Ba2+  Ba19  1  0.49696339  0.24489117  0.51189102  1
  Ba2+  Ba20  1  0.49391494  0.50257032  0.01836900  1
  Ba2+  Ba21  1  0.49823834  0.48793632  0.51166611  1
  Ba2+  Ba22  1  0.50013933  0.75254637  0.02458648  1
  Ba2+  Ba23  1  0.49997736  0.76251222  0.50686111  1
  Ba2+  Ba24  1  0.74067877  0.00079288  0.00550717  1
  Ba2+  Ba25  1  0.74100231  0.00595768  0.51129132  1
  Ba2+  Ba26  1  0.75297366  0.24554438  0.01313710  1
  Ba2+  Ba27  1  0.74642869  0.24572577  0.51239303  1
  Ba2+  Ba28  1  0.74736363  0.50116575  0.01522232  1
  Ba2+  Ba29  1  0.75385824  0.49368053  0.51109100  1
  Ba2+  Ba30  1  0.73656507  0.75254905  0.01083708  1
  Ba2+  Ba31  1  0.74680933  0.75447058  0.51098740  1
  Y3+  Y32  1  0.00168573  0.00257381  0.25535607  1
  Y3+  Y33  1  0.00151564  0.00290306  0.75941096  1
  Y3+  Y34  1  -0.00129750  0.24897088  0.25278678  1
  Y3+  Y35  1  0.00326851  0.24732213  0.75966669  1
  Y3+  Y36  1  -0.00019089  0.49835308  0.25572705  1
  Y3+  Y37  1  0.00017097  0.49965287  0.75587896  1
  Y3+  Y38  1  0.00165223  0.75117265  0.25731077  1
  Y3+  Y39  1  -0.00100956  0.74938188  0.75608307  1
  Y3+  Y40  1  0.25395249  0.00201852  0.25816762  1
  Y3+  Y41  1  0.25270505  0.00363567  0.75777922  1
  Y3+  Y42  1  0.25462723  0.24821747  0.25521179  1
  Y3+  Y43  1  0.25293440  0.24790029  0.76019972  1
  Y3+  Y44  1  0.25243361  0.49793145  0.25689036  1
  Y3+  Y45  1  0.25209275  0.49525614  0.75630389  1
  Y3+  Y46  1  0.25196090  0.75254725  0.26036083  1
  Y3+  Y47  1  0.25179552  0.75160680  0.75292246  1
  Y3+  Y48  1  0.49923823  0.00024446  0.26146266  1
  Y3+  Y49  1  0.50030679  0.00113006  0.75546466  1
  Y3+  Y50  1  0.49645141  0.24814643  0.25992754  1
  Y3+  Y51  1  0.49732836  0.24753451  0.75682230  1
  Y3+  Y52  1  0.49763807  0.49820910  0.25840559  1
  Y3+  Y53  1  0.49801660  0.49528519  0.75592062  1
  Y3+  Y54  1  0.50062286  0.75467641  0.26086750  1
  Y3+  Y55  1  0.50112166  0.75503517  0.75295177  1
  Y3+  Y56  1  0.74598910  0.00078976  0.25884830  1
  Y3+  Y57  1  0.74440505  0.00043026  0.75669269  1
  Y3+  Y58  1  0.75084868  0.24910176  0.25751660  1
  Y3+  Y59  1  0.74619712  0.24679667  0.75717307  1
  Y3+  Y60  1  0.75051620  0.49823012  0.25627994  1
  Y3+  Y61  1  0.74914176  0.50026536  0.75594323  1
  Y3+  Y62  1  0.74621978  0.75288511  0.25769005  1
  Y3+  Y63  1  0.74779378  0.75203091  0.75556662  1
  Fe3+  Fe64  1  0.12535832  0.62408918  0.37853303  1
  Fe3+  Fe65  1  0.87394423  0.62531435  0.87879629  1
  Fe3+  Fe66  1  0.87551737  0.87733764  0.37902232  1
  Fe3+  Fe67  1  0.62525759  0.37354908  0.37647450  1
  Fe3+  Fe68  1  0.12586797  0.12643787  0.37529837  1
  Fe3+  Fe69  1  0.62491099  0.62402613  0.37924630  1
  Fe3+  Fe70  1  0.12756418  0.62490067  0.87595663  1
  Fe3+  Fe71  1  0.37526876  0.87374796  0.87664718  1
  Fe3+  Fe72  1  0.87465967  0.62466337  0.37677752  1
  Fe3+  Fe73  1  0.37529771  0.62433175  0.38027065  1
  Fe3+  Fe74  1  0.12590616  0.37496905  0.87984534  1
  Fe3+  Fe75  1  0.62410159  0.37471423  0.87993014  1
  Fe3+  Fe76  1  0.62187887  0.62511530  0.87476367  1
  Fe3+  Fe77  1  0.37612958  0.62610313  0.87275284  1
  Fe3+  Fe78  1  0.87447214  0.87475171  0.88025892  1
  Fe3+  Fe79  1  0.87531791  0.12609386  0.37641739  1
  Fe3+  Fe80  1  0.12490884  0.37226223  0.37510400  1
  Fe3+  Fe81  1  0.12675112  0.87456506  0.88095554  1
  Fe3+  Fe82  1  0.87376207  0.12446104  0.87636041  1
  Fe3+  Fe83  1  0.87453966  0.37514930  0.87893890  1
  Fe3+  Fe84  1  0.62383273  0.37392682  0.13523117  1
  Fe3+  Fe85  1  0.12541954  0.62418882  0.63248273  1
  Fe3+  Fe86  1  0.12529749  0.87659545  0.63736498  1
  Fe3+  Fe87  1  0.87398374  0.87629851  0.13388739  1
  Fe3+  Fe88  1  0.87449193  0.37243832  0.64056575  1
  Fe3+  Fe89  1  0.37495454  0.62502666  0.63145401  1
  Fe3+  Fe90  1  0.12662229  0.37397839  0.13462762  1
  Fe3+  Fe91  1  0.87512973  0.87722857  0.63560843  1
  Fe3+  Fe92  1  0.62325610  0.12510036  0.13869021  1
  Fe3+  Fe93  1  0.87407684  0.62697965  0.13511598  1
  Fe3+  Fe94  1  0.62442302  0.62409782  0.63261900  1
  Fe3+  Fe95  1  0.12676077  0.87613080  0.13574116  1
  Cu2+  Cu96  1  0.62465273  0.12628376  0.37200686  1
  Cu2+  Cu97  1  0.62600394  0.87658923  0.37390414  1
  Cu2+  Cu98  1  0.62422420  0.12509435  0.86538670  1
  Cu2+  Cu99  1  0.12582915  0.12483219  0.87427515  1
  Cu2+  Cu100  1  0.12422540  0.87696283  0.36384321  1
  Cu2+  Cu101  1  0.37534725  0.37539234  0.87375902  1
  Cu2+  Cu102  1  0.37514631  0.87669867  0.37226495  1
  Cu2+  Cu103  1  0.87575552  0.37407476  0.36093330  1
  Cu2+  Cu104  1  0.37576576  0.12357235  0.87061660  1
  Cu2+  Cu105  1  0.62327663  0.87438385  0.87205236  1
  Cu2+  Cu106  1  0.37500729  0.12595478  0.37194230  1
  Cu2+  Cu107  1  0.37428474  0.37379894  0.37249800  1
  Cu2+  Cu108  1  0.12613399  0.12480889  0.65282041  1
  Cu2+  Cu109  1  0.37694486  0.12448937  0.14435029  1
  Cu2+  Cu110  1  0.87451209  0.37503210  0.14627728  1
  Cu2+  Cu111  1  0.37621659  0.37351541  0.14149418  1
  Cu2+  Cu112  1  0.62457734  0.62496020  0.15521757  1
  Cu2+  Cu113  1  0.12684282  0.12505246  0.14161929  1
  Cu2+  Cu114  1  0.62397857  0.87686795  0.14421325  1
  Cu2+  Cu115  1  0.87457766  0.12420853  0.65326271  1
  Cu2+  Cu116  1  0.12579397  0.62503345  0.15318384  1
  Cu2+  Cu117  1  0.87478244  0.62526437  0.64736416  1
  Cu2+  Cu118  1  0.62330155  0.12528669  0.64345293  1
  Cu2+  Cu119  1  0.37490316  0.37316838  0.64312925  1
  Cu2+  Cu120  1  0.37541319  0.87630388  0.15332647  1
  Cu2+  Cu121  1  0.37492927  0.12428966  0.64603086  1
  Cu2+  Cu122  1  0.62447380  0.87633782  0.64119306  1
  Cu2+  Cu123  1  0.37591430  0.62580075  0.15989631  1
  Cu2+  Cu124  1  0.12491086  0.37362773  0.65327293  1
  Cu2+  Cu125  1  0.87347942  0.12336374  0.15042357  1
  Cu2+  Cu126  1  0.37461657  0.87665376  0.64104932  1
  Cu2+  Cu127  1  0.62490930  0.37402974  0.65213689  1
  O2-  O128  1  0.12501458  0.12495525  0.00695311  1
  O2-  O129  1  0.12422830  0.12753275  0.49581644  1
  O2-  O130  1  0.12608141  0.37737749  0.00636743  1
  O2-  O131  1  0.12247166  0.37246330  0.49569324  1
  O2-  O132  1  0.12761857  0.62547445  -0.00396493  1
  O2-  O133  1  0.12340400  0.62419310  0.50527240  1
  O2-  O134  1  0.12750284  0.87249606  0.00727899  1
  O2-  O135  1  0.12133480  0.87618246  0.51678116  1
  O2-  O136  1  0.37693964  0.12344857  0.00763441  1
  O2-  O137  1  0.37415090  0.12537443  0.50835740  1
  O2-  O138  1  0.37558780  0.37679452  0.00756106  1
  O2-  O139  1  0.37411690  0.37402375  0.50805579  1
  O2-  O140  1  0.37679621  0.62722642  -0.00653601  1
  O2-  O141  1  0.37341595  0.62388723  0.50564745  1
  O2-  O142  1  0.37464526  0.87098169  -0.00284580  1
  O2-  O143  1  0.37364669  0.87646211  0.50660349  1
  O2-  O144  1  0.62394671  0.12519289  0.01752270  1
  O2-  O145  1  0.62462811  0.12698598  0.50811717  1
  O2-  O146  1  0.62425361  0.37617494  0.00701201  1
  O2-  O147  1  0.62797645  0.37498718  0.49715518  1
  O2-  O148  1  0.62083989  0.62496070  -0.00492242  1
  O2-  O149  1  0.62753263  0.62323032  0.50531161  1
  O2-  O150  1  0.62328240  0.87401910  0.00775824  1
  O2-  O151  1  0.62795544  0.87541948  0.50728887  1
  O2-  O152  1  0.87384105  0.12363468  -0.00276174  1
  O2-  O153  1  0.87672488  0.12628182  0.49668243  1
  O2-  O154  1  0.87412616  0.37835098  -0.00090414  1
  O2-  O155  1  0.87550499  0.37289950  0.51935886  1
  O2-  O156  1  0.87435174  0.62675440  0.00596416  1
  O2-  O157  1  0.87639733  0.62342631  0.49691032  1
  O2-  O158  1  0.87422034  0.87325878  0.00689220  1
  O2-  O159  1  0.87682124  0.87740242  0.50692919  1
  O2-  O160  1  0.12450729  -0.00269810  0.16290177  1
  O2-  O161  1  0.12394611  -0.00003316  0.66858606  1
  O2-  O162  1  0.12437249  0.25236795  0.15941330  1
  O2-  O163  1  0.12429186  0.24885709  0.66718427  1
  O2-  O164  1  0.12458414  0.49897168  0.16313840  1
  O2-  O165  1  0.12435316  0.50129245  0.66136937  1
  O2-  O166  1  0.12515211  0.75184509  0.16616139  1
  O2-  O167  1  0.12324984  0.74860816  0.66313512  1
  O2-  O168  1  0.37555862  -0.00074783  0.16644966  1
  O2-  O169  1  0.37396794  0.00102819  0.66643823  1
  O2-  O170  1  0.37600276  0.24923031  0.16533134  1
  O2-  O171  1  0.37441721  0.24845589  0.66754305  1
  O2-  O172  1  0.37547403  0.50149714  0.16599417  1
  O2-  O173  1  0.37421296  0.50274967  0.66287703  1
  O2-  O174  1  0.37495598  0.75049906  0.16797927  1
  O2-  O175  1  0.37467474  0.74681310  0.65985629  1
  O2-  O176  1  0.62536061  0.00176555  0.16820190  1
  O2-  O177  1  0.62492788  0.00031876  0.66647004  1
  O2-  O178  1  0.62653518  0.25120307  0.16382146  1
  O2-  O179  1  0.62499528  0.25092074  0.66840721  1
  O2-  O180  1  0.62608474  0.49889597  0.16255970  1
  O2-  O181  1  0.62583404  0.50106455  0.66248497  1
  O2-  O182  1  0.62485433  0.74948377  0.16804199  1
  O2-  O183  1  0.62566794  0.74708746  0.66041444  1
  O2-  O184  1  0.87586760  -0.00280468  0.16388265  1
  O2-  O185  1  0.87611390  -0.00093062  0.66502017  1
  O2-  O186  1  0.87446962  0.24895626  0.16047309  1
  O2-  O187  1  0.87522461  0.24876014  0.66876408  1
  O2-  O188  1  0.87481675  0.50359616  0.16253751  1
  O2-  O189  1  0.87498549  0.49893614  0.66617985  1
  O2-  O190  1  0.87578752  0.75101792  0.16467236  1
  O2-  O191  1  0.87614952  0.75230623  0.66251549  1
  O2-  O192  1  -0.00168438  0.12430056  0.16141159  1
  O2-  O193  1  0.00037029  0.12452166  0.66542377  1
  O2-  O194  1  0.00127673  0.37630226  0.16009227  1
  O2-  O195  1  -0.00067419  0.37466986  0.66882968  1
  O2-  O196  1  -0.00194210  0.62648149  0.16103215  1
  O2-  O197  1  0.00199777  0.62478207  0.66489814  1
  O2-  O198  1  0.00028060  0.87362175  0.15957150  1
  O2-  O199  1  -0.00081328  0.87512665  0.66911641  1
  O2-  O200  1  0.25142155  0.12463560  0.16456741  1
  O2-  O201  1  0.24980020  0.12525954  0.66641026  1
  O2-  O202  1  0.24845343  0.37610126  0.16335879  1
  O2-  O203  1  0.24838894  0.37450475  0.66582079  1
  O2-  O204  1  0.25092619  0.62539956  0.16718442  1
  O2-  O205  1  0.24908809  0.62511396  0.65871719  1
  O2-  O206  1  0.24939302  0.87425831  0.16382532  1
  O2-  O207  1  0.24779866  0.87425532  0.66555319  1
  O2-  O208  1  0.50193896  0.12533492  0.17026045  1
  O2-  O209  1  0.49852901  0.12524703  0.66566751  1
  O2-  O210  1  0.50297455  0.37626118  0.16607181  1
  O2-  O211  1  0.50105992  0.37498635  0.66504414  1
  O2-  O212  1  0.50029396  0.62514349  0.16962168  1
  O2-  O213  1  0.50017766  0.62377222  0.65502278  1
  O2-  O214  1  0.49848010  0.87454740  0.16824759  1
  O2-  O215  1  0.49960100  0.87525780  0.66206810  1
  O2-  O216  1  0.74896661  0.12464801  0.16592177  1
  O2-  O217  1  0.75035136  0.12462646  0.66581990  1
  O2-  O218  1  0.74832415  0.37617917  0.16178845  1
  O2-  O219  1  0.75054140  0.37488817  0.66870186  1
  O2-  O220  1  0.75143220  0.62690758  0.16184964  1
  O2-  O221  1  0.74819251  0.62510583  0.66417217  1
  O2-  O222  1  0.75253826  0.87424209  0.16432369  1
  O2-  O223  1  0.75297771  0.87472866  0.66502918  1
  O2-  O224  1  0.12378643  0.00175126  0.34616860  1
  O2-  O225  1  0.12360420  -0.00420181  0.85215801  1
  O2-  O226  1  0.12427128  0.24961041  0.33994189  1
  O2-  O227  1  0.12433156  0.25297276  0.85192826  1
  O2-  O228  1  0.12442917  0.50102188  0.34751388  1
  O2-  O229  1  0.12434425  0.49970248  0.84519163  1
  O2-  O230  1  0.12387990  0.74865146  0.35202751  1
  O2-  O231  1  0.12397249  0.75038668  0.84537903  1
  O2-  O232  1  0.37457212  0.00146106  0.35006678  1
  O2-  O233  1  0.37459028  -0.00264861  0.84878284  1
  O2-  O234  1  0.37449327  0.24952935  0.34810130  1
  O2-  O235  1  0.37518072  0.24936149  0.85132919  1
  O2-  O236  1  0.37419721  0.50285594  0.34944177  1
  O2-  O237  1  0.37493721  0.50187550  0.84485315  1
  O2-  O238  1  0.37456757  0.74702929  0.35208073  1
  O2-  O239  1  0.37455354  0.75010224  0.83918665  1
  O2-  O240  1  0.62602376  0.00108286  0.35068872  1
  O2-  O241  1  0.62514005  0.00114021  0.85049953  1
  O2-  O242  1  0.62623388  0.25181189  0.34506198  1
  O2-  O243  1  0.62600294  0.25142714  0.85310874  1
  O2-  O244  1  0.62596891  0.50096377  0.34643065  1
  O2-  O245  1  0.62506726  0.49920038  0.84568307  1
  O2-  O246  1  0.62637083  0.74703734  0.35213277  1
  O2-  O247  1  0.62575973  0.74755083  0.84231784  1
  O2-  O248  1  0.87609065  -0.00013772  0.34733244  1
  O2-  O249  1  0.87544253  -0.00215200  0.84923226  1
  O2-  O250  1  0.87579898  0.24970047  0.34416882  1
  O2-  O251  1  0.87410644  0.25065619  0.85002148  1
  O2-  O252  1  0.87594323  0.50064823  0.34643372  1
  O2-  O253  1  0.87525872  0.50178612  0.84823403  1
  O2-  O254  1  0.87604011  0.75095966  0.34951278  1
  O2-  O255  1  0.87485614  0.74924571  0.84796897  1
  O2-  O256  1  0.00008018  0.12528412  0.34289243  1
  O2-  O257  1  -0.00233877  0.12454744  0.84828923  1
  O2-  O258  1  0.00096553  0.37607471  0.34332832  1
  O2-  O259  1  0.00047817  0.37673050  0.85086504  1
  O2-  O260  1  0.00121677  0.62547783  0.34562408  1
  O2-  O261  1  -0.00101180  0.62572993  0.84955963  1
  O2-  O262  1  -0.00235454  0.87451799  0.34494854  1
  O2-  O263  1  -0.00029585  0.87220461  0.85362455  1
  O2-  O264  1  0.24900782  0.12526653  0.34647870  1
  O2-  O265  1  0.25067715  0.12426859  0.84983898  1
  O2-  O266  1  0.24811626  0.37586191  0.34592923  1
  O2-  O267  1  0.24766793  0.37612477  0.85001296  1
  O2-  O268  1  0.24926452  0.62552952  0.35228400  1
  O2-  O269  1  0.25025560  0.62522528  0.84035078  1
  O2-  O270  1  0.24843544  0.87492437  0.34856953  1
  O2-  O271  1  0.24885914  0.87332413  0.84701432  1
  O2-  O272  1  0.49956991  0.12597246  0.35198106  1
  O2-  O273  1  0.50116520  0.12479249  0.84884023  1
  O2-  O274  1  0.50108337  0.37625240  0.34899736  1
  O2-  O275  1  0.50281242  0.37528052  0.84941709  1
  O2-  O276  1  0.50051819  0.62428937  0.35460238  1
  O2-  O277  1  0.49946270  0.62476794  0.83708273  1
  O2-  O278  1  0.50070171  0.87491148  0.35192941  1
  O2-  O279  1  0.49817686  0.87412431  0.84450601  1
  O2-  O280  1  0.75200926  0.12534811  0.34748422  1
  O2-  O281  1  0.75003753  0.12375490  0.84833972  1
  O2-  O282  1  0.75029727  0.37635682  0.34550772  1
  O2-  O283  1  0.74891976  0.37711812  0.85063661  1
  O2-  O284  1  0.74951292  0.62473714  0.34601098  1
  O2-  O285  1  0.75072309  0.62479855  0.84868729  1
  O2-  O286  1  0.75383379  0.87475170  0.34848128  1
  O2-  O287  1  0.75257119  0.87371318  0.85020291  1
