# generated using pymatgen
data_BaYFeCuO5
_symmetry_space_group_name_H-M   'P 1'
_cell_length_a   15.66575773
_cell_length_b   15.66182564
_cell_length_c   15.47208467
_cell_angle_alpha   90.00068183
_cell_angle_beta   89.99946442
_cell_angle_gamma   89.99989663
_symmetry_Int_Tables_number   1
_chemical_formula_structural   BaYFeCuO5
_chemical_formula_sum   'Ba32 Y32 Fe32 Cu32 O160'
_cell_volume   3796.14352591
_cell_formula_units_Z   32
loop_
 _symmetry_equiv_pos_site_id
 _symmetry_equiv_pos_as_xyz
  1  'x, y, z'
loop_
 _atom_type_symbol
 _atom_type_oxidation_number
  Ba2+  2.0
  Y3+  3.0
  Fe3+  3.0
  Cu2+  2.0
  O2-  -2.0
loop_
 _atom_site_type_symbol
 _atom_site_label
 _atom_site_symmetry_multiplicity
 _atom_site_fract_x
 _atom_site_fract_y
 _atom_site_fract_z
 _atom_site_occupancy
  Ba2+  Ba0  1  -0.00202877  0.01042628  0.01179591  1
  Ba2+  Ba1  1  0.00624035  -0.00125221  0.50658812  1
  Ba2+  Ba2  1  0.00278330  0.24579259  0.01705367  1
  Ba2+  Ba3  1  0.00422562  0.24718473  0.51189350  1
  Ba2+  Ba4  1  0.00776718  0.50374187  0.01575769  1
  Ba2+  Ba5  1  0.00413352  0.50375313  0.51165543  1
  Ba2+  Ba6  1  0.00302874  0.73967662  0.01153063  1
  Ba2+  Ba7  1  0.00659214  0.75071737  0.50608263  1
  Ba2+  Ba8  1  0.25101375  -0.00060644  0.01641622  1
  Ba2+  Ba9  1  0.24381666  -0.00072348  0.50679016  1
  Ba2+  Ba10  1  0.24594117  0.25612492  0.02307369  1
  Ba2+  Ba11  1  0.24875718  0.25009940  0.50574896  1
  Ba2+  Ba12  1  0.24986657  0.50379055  0.01602092  1
  Ba2+  Ba13  1  0.24861413  0.49965016  0.51645726  1
  Ba2+  Ba14  1  0.25371139  0.74058166  0.01003777  1
  Ba2+  Ba15  1  0.24510264  0.75054846  0.51720017  1
  Ba2+  Ba16  1  0.50364288  -0.00408702  0.01262219  1
  Ba2+  Ba17  1  0.49455082  -0.00382173  0.50198161  1
  Ba2+  Ba18  1  0.50334815  0.25529663  0.01320595  1
  Ba2+  Ba19  1  0.49296683  0.25585357  0.50687059  1
  Ba2+  Ba20  1  0.49147343  0.49806849  0.01637344  1
  Ba2+  Ba21  1  0.49314315  0.49434728  0.51501961  1
  Ba2+  Ba22  1  0.49178636  0.75098870  0.01680476  1
  Ba2+  Ba23  1  0.49364359  0.75348370  0.51312685  1
  Ba2+  Ba24  1  0.74916690  0.00713596  0.00557886  1
  Ba2+  Ba25  1  0.75547247  -0.00429410  0.50029882  1
  Ba2+  Ba26  1  0.75000085  0.24384418  0.00504295  1
  Ba2+  Ba27  1  0.75452429  0.25387046  0.51176117  1
  Ba2+  Ba28  1  0.74958335  0.49833282  0.01598894  1
  Ba2+  Ba29  1  0.75538660  0.49706507  0.51133095  1
  Ba2+  Ba30  1  0.74943574  0.75035880  0.01615736  1
  Ba2+  Ba31  1  0.75560893  0.75399289  0.50034963  1
  Y3+  Y32  1  0.00182808  0.00066731  0.25920704  1
  Y3+  Y33  1  0.00090520  0.00215212  0.75583702  1
  Y3+  Y34  1  0.00147799  0.24835052  0.25743844  1
  Y3+  Y35  1  0.00060508  0.24690265  0.75599002  1
  Y3+  Y36  1  0.00245905  0.50202830  0.25675220  1
  Y3+  Y37  1  0.00354069  0.50263281  0.75612406  1
  Y3+  Y38  1  0.00300108  0.74912727  0.25885271  1
  Y3+  Y39  1  0.00386727  0.74795952  0.75611419  1
  Y3+  Y40  1  0.24802472  0.00106180  0.26066745  1
  Y3+  Y41  1  0.24775939  -0.00148282  0.75348976  1
  Y3+  Y42  1  0.24933901  0.25042786  0.26146155  1
  Y3+  Y43  1  0.24863476  0.25139139  0.75127805  1
  Y3+  Y44  1  0.24940879  0.50075108  0.25703273  1
  Y3+  Y45  1  0.25003231  0.50305934  0.75634040  1
  Y3+  Y46  1  0.24810538  0.74785909  0.25687534  1
  Y3+  Y47  1  0.24924130  0.74672672  0.75724450  1
  Y3+  Y48  1  0.49944174  -0.00188464  0.25796239  1
  Y3+  Y49  1  0.50012361  0.00081068  0.75801657  1
  Y3+  Y50  1  0.49712553  0.25218159  0.26029174  1
  Y3+  Y51  1  0.50019651  0.25170538  0.75439361  1
  Y3+  Y52  1  0.49658460  0.49832802  0.25698403  1
  Y3+  Y53  1  0.49633875  0.49954057  0.75483441  1
  Y3+  Y54  1  0.49857943  0.75121182  0.25568731  1
  Y3+  Y55  1  0.49625368  0.74797926  0.75763968  1
  Y3+  Y56  1  0.75022916  -0.00150567  0.25629464  1
  Y3+  Y57  1  0.75196892  0.00359677  0.75985630  1
  Y3+  Y58  1  0.75145709  0.25048825  0.25617990  1
  Y3+  Y59  1  0.75113494  0.24776222  0.75806610  1
  Y3+  Y60  1  0.75092311  0.49965428  0.25679275  1
  Y3+  Y61  1  0.75017574  0.49939996  0.75544649  1
  Y3+  Y62  1  0.74952246  0.75199450  0.25707006  1
  Y3+  Y63  1  0.75106646  0.74894488  0.75704298  1
  Fe3+  Fe64  1  0.87476954  0.62400457  0.87765312  1
  Fe3+  Fe65  1  0.62504063  0.87425540  0.87845398  1
  Fe3+  Fe66  1  0.87527904  0.12541693  0.37685554  1
  Fe3+  Fe67  1  0.62475046  0.37558466  0.87589342  1
  Fe3+  Fe68  1  0.62555651  0.37591318  0.37724941  1
  Fe3+  Fe69  1  0.37323283  0.37462933  0.87593802  1
  Fe3+  Fe70  1  0.62455980  0.12510623  0.38027812  1
  Fe3+  Fe71  1  0.87573682  0.62481212  0.37557402  1
  Fe3+  Fe72  1  0.12403839  0.37616662  0.37611651  1
  Fe3+  Fe73  1  0.37377258  0.62463631  0.37784378  1
  Fe3+  Fe74  1  0.62344695  0.62434872  0.87929695  1
  Fe3+  Fe75  1  0.12734697  0.12568187  0.87682358  1
  Fe3+  Fe76  1  0.87626046  0.87490171  0.88124063  1
  Fe3+  Fe77  1  0.62365499  0.62520875  0.37894689  1
  Fe3+  Fe78  1  0.37287085  0.87379771  0.37494324  1
  Fe3+  Fe79  1  0.12557473  0.37517634  0.87605914  1
  Fe3+  Fe80  1  0.87682858  0.37481824  0.87985366  1
  Fe3+  Fe81  1  0.37404924  0.87526691  0.87664235  1
  Fe3+  Fe82  1  0.37470985  0.12635330  0.88053221  1
  Fe3+  Fe83  1  0.12493068  0.87448487  0.88093477  1
  Fe3+  Fe84  1  0.87596207  0.87492350  0.63980211  1
  Fe3+  Fe85  1  0.62465318  0.12574552  0.14024435  1
  Fe3+  Fe86  1  0.12532416  0.87487934  0.13500212  1
  Fe3+  Fe87  1  0.87596401  0.87550445  0.13540035  1
  Fe3+  Fe88  1  0.62539958  0.62514932  0.63334482  1
  Fe3+  Fe89  1  0.87703120  0.37502239  0.63905995  1
  Fe3+  Fe90  1  0.37486919  0.12396606  0.63642074  1
  Fe3+  Fe91  1  0.62553233  0.12473131  0.63406856  1
  Fe3+  Fe92  1  0.37509928  0.12537911  0.13670239  1
  Fe3+  Fe93  1  0.87591433  0.37465365  0.13525750  1
  Fe3+  Fe94  1  0.62391617  0.62438209  0.13578906  1
  Fe3+  Fe95  1  0.62554245  0.87552454  0.63743046  1
  Cu2+  Cu96  1  0.37341049  0.37622236  0.37194321  1
  Cu2+  Cu97  1  0.62413045  0.87435013  0.36492112  1
  Cu2+  Cu98  1  0.87663811  0.12579570  0.87325369  1
  Cu2+  Cu99  1  0.12590029  0.62441641  0.87186251  1
  Cu2+  Cu100  1  0.12556906  0.87418038  0.37056601  1
  Cu2+  Cu101  1  0.37497149  0.12483454  0.36490537  1
  Cu2+  Cu102  1  0.37532422  0.62395074  0.87166706  1
  Cu2+  Cu103  1  0.87589993  0.37528509  0.36126265  1
  Cu2+  Cu104  1  0.62325791  0.12575387  0.86299103  1
  Cu2+  Cu105  1  0.87622872  0.87489061  0.35958215  1
  Cu2+  Cu106  1  0.12493971  0.12543924  0.37218506  1
  Cu2+  Cu107  1  0.12608569  0.62485297  0.37206231  1
  Cu2+  Cu108  1  0.62574401  0.37480443  0.64847768  1
  Cu2+  Cu109  1  0.37352271  0.37425840  0.64155613  1
  Cu2+  Cu110  1  0.12458536  0.87492319  0.64451907  1
  Cu2+  Cu111  1  0.12514289  0.62543674  0.64165243  1
  Cu2+  Cu112  1  0.87459790  0.12482070  0.14365530  1
  Cu2+  Cu113  1  0.37390383  0.37423339  0.15293467  1
  Cu2+  Cu114  1  0.12459544  0.37519064  0.15277378  1
  Cu2+  Cu115  1  0.37506303  0.62541473  0.64735632  1
  Cu2+  Cu116  1  0.62485540  0.87534099  0.14913340  1
  Cu2+  Cu117  1  0.12511649  0.12446517  0.64081102  1
  Cu2+  Cu118  1  0.37474374  0.62475369  0.14396838  1
  Cu2+  Cu119  1  0.62493248  0.37462551  0.15157786  1
  Cu2+  Cu120  1  0.37354577  0.87579852  0.15148916  1
  Cu2+  Cu121  1  0.37490715  0.87543657  0.65257494  1
  Cu2+  Cu122  1  0.87498533  0.12412800  0.64840859  1
  Cu2+  Cu123  1  0.12585051  0.12456288  0.15272640  1
  Cu2+  Cu124  1  0.87471447  0.62527695  0.15068245  1
  Cu2+  Cu125  1  0.12560274  0.62553741  0.14383540  1
  Cu2+  Cu126  1  0.12435471  0.37503867  0.64962910  1
  Cu2+  Cu127  1  0.87512969  0.62591931  0.65005222  1
  O2-  O128  1  0.12812202  0.12594746  -0.00261092  1
  O2-  O129  1  0.12464551  0.12479545  0.50620997  1
  O2-  O130  1  0.12553727  0.37436791  -0.00360141  1
  O2-  O131  1  0.12323299  0.37578150  0.49696144  1
  O2-  O132  1  0.12562309  0.62471941  0.00781477  1
  O2-  O133  1  0.12519184  0.62513318  0.50765507  1
  O2-  O134  1  0.12514584  0.87516755  0.00740455  1
  O2-  O135  1  0.12462964  0.87473239  0.50753596  1
  O2-  O136  1  0.37567356  0.12657175  0.00760840  1
  O2-  O137  1  0.37653269  0.12342164  0.51611239  1
  O2-  O138  1  0.37406055  0.37316931  -0.00358365  1
  O2-  O139  1  0.37380406  0.37497185  0.50693929  1
  O2-  O140  1  0.37678720  0.62395535  0.00754920  1
  O2-  O141  1  0.37563487  0.62589091  0.49840849  1
  O2-  O142  1  0.37541559  0.87645611  -0.00299996  1
  O2-  O143  1  0.37373947  0.87441437  0.49558893  1
  O2-  O144  1  0.62341924  0.12582827  0.01918652  1
  O2-  O145  1  0.62532821  0.12405525  0.50736190  1
  O2-  O146  1  0.62437910  0.37569411  -0.00387382  1
  O2-  O147  1  0.62692182  0.37667467  0.49740783  1
  O2-  O148  1  0.62403676  0.62428448  0.00661193  1
  O2-  O149  1  0.62497968  0.62575246  0.50574594  1
  O2-  O150  1  0.62452981  0.87388301  -0.00117160  1
  O2-  O151  1  0.62673111  0.87495871  0.51733717  1
  O2-  O152  1  0.87441606  0.12591175  0.00776346  1
  O2-  O153  1  0.87419406  0.12531988  0.49736358  1
  O2-  O154  1  0.87556439  0.37463633  0.00644061  1
  O2-  O155  1  0.87576073  0.37521676  0.51813094  1
  O2-  O156  1  0.87236556  0.62340209  -0.00224267  1
  O2-  O157  1  0.87403685  0.62523600  0.49593031  1
  O2-  O158  1  0.87505378  0.87527398  0.00796169  1
  O2-  O159  1  0.87502726  0.87472824  0.51933147  1
  O2-  O160  1  0.12499514  -0.00172733  0.16415139  1
  O2-  O161  1  0.12467540  -0.00050054  0.66704530  1
  O2-  O162  1  0.12464072  0.24967625  0.16460542  1
  O2-  O163  1  0.12390990  0.25127493  0.66247837  1
  O2-  O164  1  0.12479847  0.49923644  0.16421009  1
  O2-  O165  1  0.12475702  0.49877766  0.66365349  1
  O2-  O166  1  0.12453791  0.75302730  0.16422974  1
  O2-  O167  1  0.12513878  0.75024551  0.66747174  1
  O2-  O168  1  0.37534776  0.00206216  0.16273541  1
  O2-  O169  1  0.37618506  0.00040581  0.66900580  1
  O2-  O170  1  0.37520911  0.24860539  0.16513937  1
  O2-  O171  1  0.37599614  0.24764618  0.66588604  1
  O2-  O172  1  0.37519293  0.49774761  0.16425667  1
  O2-  O173  1  0.37483749  0.50084589  0.66349585  1
  O2-  O174  1  0.37580280  0.75179916  0.16343253  1
  O2-  O175  1  0.37628033  0.75074713  0.66453651  1
  O2-  O176  1  0.62427979  0.00080370  0.16827674  1
  O2-  O177  1  0.62582574  0.00110606  0.66735241  1
  O2-  O178  1  0.62418500  0.25010240  0.16875232  1
  O2-  O179  1  0.62560514  0.24807704  0.66164848  1
  O2-  O180  1  0.62551396  0.50058598  0.16189594  1
  O2-  O181  1  0.62603001  0.50189956  0.66128743  1
  O2-  O182  1  0.62471864  0.74861336  0.16274792  1
  O2-  O183  1  0.62497041  0.74897971  0.66597651  1
  O2-  O184  1  0.87477767  -0.00276256  0.16426733  1
  O2-  O185  1  0.87398669  -0.00040492  0.66938602  1
  O2-  O186  1  0.87512274  0.25243804  0.16373723  1
  O2-  O187  1  0.87518889  0.24969866  0.66600657  1
  O2-  O188  1  0.87401516  0.49862680  0.16134520  1
  O2-  O189  1  0.87448060  0.50049693  0.66554147  1
  O2-  O190  1  0.87424228  0.75192372  0.16167006  1
  O2-  O191  1  0.87412394  0.75031230  0.66906879  1
  O2-  O192  1  0.00153071  0.12449060  0.16299408  1
  O2-  O193  1  -0.00097536  0.12427637  0.66482490  1
  O2-  O194  1  -0.00115766  0.37529711  0.16097065  1
  O2-  O195  1  0.00024988  0.37539454  0.66830240  1
  O2-  O196  1  -0.00119963  0.62543886  0.16417570  1
  O2-  O197  1  -0.00110340  0.62545562  0.66577602  1
  O2-  O198  1  0.00037604  0.87531661  0.16138546  1
  O2-  O199  1  -0.00193711  0.87490007  0.67137938  1
  O2-  O200  1  0.25180015  0.12492351  0.16336905  1
  O2-  O201  1  0.25154154  0.12423066  0.66555591  1
  O2-  O202  1  0.24894996  0.37424159  0.16386771  1
  O2-  O203  1  0.24731315  0.37436641  0.66210170  1
  O2-  O204  1  0.25033498  0.62517789  0.16463600  1
  O2-  O205  1  0.25159770  0.62582125  0.66484757  1
  O2-  O206  1  0.24804231  0.87605101  0.16094178  1
  O2-  O207  1  0.25153199  0.87497911  0.66580149  1
  O2-  O208  1  0.49854699  0.12529877  0.16755321  1
  O2-  O209  1  0.50198447  0.12439525  0.66557267  1
  O2-  O210  1  0.49950956  0.37466074  0.16500089  1
  O2-  O211  1  0.50127225  0.37524183  0.66339869  1
  O2-  O212  1  0.50243208  0.62433544  0.16512452  1
  O2-  O213  1  0.50192691  0.62496907  0.66254597  1
  O2-  O214  1  0.49880084  0.87577991  0.16416292  1
  O2-  O215  1  0.50116794  0.87524880  0.66492081  1
  O2-  O216  1  0.74806197  0.12511238  0.16812357  1
  O2-  O217  1  0.74826135  0.12517066  0.66501813  1
  O2-  O218  1  0.75197453  0.37505102  0.16310363  1
  O2-  O219  1  0.75154653  0.37477514  0.66790621  1
  O2-  O220  1  0.74764278  0.62527820  0.16351587  1
  O2-  O221  1  0.74805448  0.62523949  0.66423177  1
  O2-  O222  1  0.75192986  0.87469323  0.16390991  1
  O2-  O223  1  0.74969325  0.87476728  0.67157612  1
  O2-  O224  1  0.12489796  -0.00002399  0.34871402  1
  O2-  O225  1  0.12520202  -0.00121041  0.84966352  1
  O2-  O226  1  0.12434221  0.25177446  0.34795106  1
  O2-  O227  1  0.12600226  0.24978496  0.84361799  1
  O2-  O228  1  0.12402007  0.49916088  0.34639632  1
  O2-  O229  1  0.12474047  0.49856122  0.84621475  1
  O2-  O230  1  0.12493950  0.74955347  0.34745219  1
  O2-  O231  1  0.12529487  0.75241294  0.85119042  1
  O2-  O232  1  0.37573654  -0.00072383  0.34663680  1
  O2-  O233  1  0.37629305  0.00151151  0.85062167  1
  O2-  O234  1  0.37500328  0.24914900  0.34990569  1
  O2-  O235  1  0.37513930  0.24901108  0.84679586  1
  O2-  O236  1  0.37571230  0.50212362  0.34644134  1
  O2-  O237  1  0.37577269  0.49780264  0.84615382  1
  O2-  O238  1  0.37550483  0.74914090  0.34448642  1
  O2-  O239  1  0.37530685  0.75155408  0.84809043  1
  O2-  O240  1  0.62430135  0.00134545  0.35247994  1
  O2-  O241  1  0.62459518  -0.00050498  0.85028871  1
  O2-  O242  1  0.62572967  0.24909408  0.35097731  1
  O2-  O243  1  0.62521068  0.25116894  0.84571881  1
  O2-  O244  1  0.62530323  0.50177683  0.34605797  1
  O2-  O245  1  0.62525084  0.50067285  0.84528049  1
  O2-  O246  1  0.62542116  0.74792432  0.34830694  1
  O2-  O247  1  0.62604562  0.74874669  0.84860866  1
  O2-  O248  1  0.87411724  -0.00012906  0.34757815  1
  O2-  O249  1  0.87518696  -0.00267389  0.85258860  1
  O2-  O250  1  0.87361425  0.24961970  0.34654639  1
  O2-  O251  1  0.87461634  0.25292796  0.84923344  1
  O2-  O252  1  0.87396136  0.50078510  0.34488924  1
  O2-  O253  1  0.87421374  0.49856550  0.84771546  1
  O2-  O254  1  0.87377432  0.75003005  0.34574768  1
  O2-  O255  1  0.87347712  0.75081165  0.85102842  1
  O2-  O256  1  -0.00226580  0.12485204  0.34609795  1
  O2-  O257  1  0.00353028  0.12482596  0.84777868  1
  O2-  O258  1  -0.00013693  0.37514190  0.34405738  1
  O2-  O259  1  -0.00050674  0.37473179  0.84934691  1
  O2-  O260  1  -0.00101238  0.62551094  0.34734064  1
  O2-  O261  1  -0.00187245  0.62534300  0.84879770  1
  O2-  O262  1  -0.00030798  0.87482175  0.34561886  1
  O2-  O263  1  0.00033139  0.87440919  0.85413340  1
  O2-  O264  1  0.25123117  0.12495133  0.34827626  1
  O2-  O265  1  0.25175587  0.12385907  0.84693790  1
  O2-  O266  1  0.24787431  0.37511294  0.34694022  1
  O2-  O267  1  0.24998202  0.37458641  0.84291980  1
  O2-  O268  1  0.25145386  0.62502845  0.34655661  1
  O2-  O269  1  0.25027670  0.62483212  0.84889933  1
  O2-  O270  1  0.25126282  0.87527075  0.34349800  1
  O2-  O271  1  0.24867086  0.87598587  0.84904555  1
  O2-  O272  1  0.50199776  0.12520766  0.35115030  1
  O2-  O273  1  0.49762382  0.12574886  0.84897836  1
  O2-  O274  1  0.50162667  0.37501909  0.34849251  1
  O2-  O275  1  0.49960347  0.37445886  0.84488717  1
  O2-  O276  1  0.50081122  0.62540407  0.34813949  1
  O2-  O277  1  0.50297453  0.62479756  0.84681888  1
  O2-  O278  1  0.49868071  0.87446860  0.34749857  1
  O2-  O279  1  0.50037298  0.87480713  0.84554943  1
  O2-  O280  1  0.74842017  0.12386086  0.34942594  1
  O2-  O281  1  0.74834272  0.12526006  0.85010591  1
  O2-  O282  1  0.74975373  0.37579413  0.34640660  1
  O2-  O283  1  0.75126548  0.37522397  0.85011922  1
  O2-  O284  1  0.74823114  0.62548057  0.34775554  1
  O2-  O285  1  0.74849816  0.62414431  0.84734960  1
  O2-  O286  1  0.74960166  0.87475339  0.34903806  1
  O2-  O287  1  0.75108872  0.87533968  0.85194526  1
