# generated using pymatgen
data_BaYFeCuO5
_symmetry_space_group_name_H-M   'P 1'
_cell_length_a   15.67530174
_cell_length_b   15.67226237
_cell_length_c   15.48770651
_cell_angle_alpha   90.00566892
_cell_angle_beta   89.98521031
_cell_angle_gamma   90.00820563
_symmetry_Int_Tables_number   1
_chemical_formula_structural   BaYFeCuO5
_chemical_formula_sum   'Ba32 Y32 Fe32 Cu32 O160'
_cell_volume   3804.82505132
_cell_formula_units_Z   32
loop_
 _symmetry_equiv_pos_site_id
 _symmetry_equiv_pos_as_xyz
  1  'x, y, z'
loop_
 _atom_type_symbol
 _atom_type_oxidation_number
  Ba2+  2.0
  Y3+  3.0
  Fe3+  3.0
  Cu2+  2.0
  O2-  -2.0
loop_
 _atom_site_type_symbol
 _atom_site_label
 _atom_site_symmetry_multiplicity
 _atom_site_fract_x
 _atom_site_fract_y
 _atom_site_fract_z
 _atom_site_occupancy
  Ba2+  Ba0  1  0.00389962  -0.00509333  0.01157309  1
  Ba2+  Ba1  1  0.00796797  -0.00246015  0.51495274  1
  Ba2+  Ba2  1  0.00350726  0.25563669  -0.00079420  1
  Ba2+  Ba3  1  0.00799119  0.25265508  0.51518834  1
  Ba2+  Ba4  1  0.00007775  0.50237140  -0.00042340  1
  Ba2+  Ba5  1  -0.00284805  0.50264202  0.51083163  1
  Ba2+  Ba6  1  0.00006742  0.74571873  0.01443672  1
  Ba2+  Ba7  1  -0.00313407  0.74718320  0.51071346  1
  Ba2+  Ba8  1  0.24670659  0.00584975  0.00829167  1
  Ba2+  Ba9  1  0.25190061  0.00448744  0.51620939  1
  Ba2+  Ba10  1  0.24784521  0.24413384  0.00880746  1
  Ba2+  Ba11  1  0.25185688  0.24573811  0.51666382  1
  Ba2+  Ba12  1  0.23794541  0.50112136  0.00245216  1
  Ba2+  Ba13  1  0.25251839  0.49896621  0.51907170  1
  Ba2+  Ba14  1  0.23733145  0.74811671  0.00197331  1
  Ba2+  Ba15  1  0.25245836  0.75108691  0.51882862  1
  Ba2+  Ba16  1  0.49334376  0.00609930  0.00729410  1
  Ba2+  Ba17  1  0.49507151  0.00173551  0.51264350  1
  Ba2+  Ba18  1  0.50001272  0.25129239  0.00710000  1
  Ba2+  Ba19  1  0.49520757  0.24840178  0.51198477  1
  Ba2+  Ba20  1  0.51100689  0.49719784  0.01062753  1
  Ba2+  Ba21  1  0.50112603  0.50144549  0.52194051  1
  Ba2+  Ba22  1  0.50475275  0.74539653  0.01060028  1
  Ba2+  Ba23  1  0.50148330  0.74856387  0.52188042  1
  Ba2+  Ba24  1  0.75671863  -0.00504307  0.01190923  1
  Ba2+  Ba25  1  0.74384388  -0.00598211  0.51257691  1
  Ba2+  Ba26  1  0.74941645  0.26220706  0.00183791  1
  Ba2+  Ba27  1  0.74400402  0.25580259  0.51258366  1
  Ba2+  Ba28  1  0.75076990  0.49922620  0.01366180  1
  Ba2+  Ba29  1  0.74866669  0.50529985  0.51457919  1
  Ba2+  Ba30  1  0.75729099  0.74431530  0.02365386  1
  Ba2+  Ba31  1  0.74882439  0.74428164  0.51331365  1
  Y3+  Y32  1  0.00217076  0.00083616  0.25952356  1
  Y3+  Y33  1  0.00218860  -0.00181116  0.75363440  1
  Y3+  Y34  1  0.00281672  0.24836995  0.26098657  1
  Y3+  Y35  1  0.00126408  0.25298751  0.75393520  1
  Y3+  Y36  1  0.00046727  0.50421815  0.26004315  1
  Y3+  Y37  1  -0.00096448  0.49869835  0.75525879  1
  Y3+  Y38  1  -0.00041066  0.74619854  0.25979551  1
  Y3+  Y39  1  0.00040159  0.75026862  0.75483011  1
  Y3+  Y40  1  0.25057148  0.00488687  0.25876844  1
  Y3+  Y41  1  0.24988466  0.00159775  0.75620037  1
  Y3+  Y42  1  0.25090202  0.24553510  0.25926186  1
  Y3+  Y43  1  0.25066140  0.24870564  0.75640849  1
  Y3+  Y44  1  0.24791893  0.50175253  0.25636352  1
  Y3+  Y45  1  0.24813088  0.49899292  0.75902880  1
  Y3+  Y46  1  0.24742189  0.74764868  0.25596668  1
  Y3+  Y47  1  0.24752996  0.75107573  0.75889802  1
  Y3+  Y48  1  0.49750637  0.00442153  0.25684481  1
  Y3+  Y49  1  0.49670780  0.00113673  0.75848426  1
  Y3+  Y50  1  0.49883418  0.24820169  0.25576357  1
  Y3+  Y51  1  0.49815022  0.25099278  0.75980079  1
  Y3+  Y52  1  0.50328646  0.49989254  0.25494987  1
  Y3+  Y53  1  0.50184456  0.49874324  0.75751439  1
  Y3+  Y54  1  0.50172420  0.74721535  0.25618123  1
  Y3+  Y55  1  0.50031651  0.74950452  0.75596458  1
  Y3+  Y56  1  0.75049642  0.00033261  0.25746317  1
  Y3+  Y57  1  0.75092991  -0.00179458  0.75602542  1
  Y3+  Y58  1  0.74824840  0.25126945  0.25714552  1
  Y3+  Y59  1  0.74959020  0.25497605  0.75779185  1
  Y3+  Y60  1  0.74902861  0.50268798  0.25975080  1
  Y3+  Y61  1  0.75007545  0.49838748  0.75392318  1
  Y3+  Y62  1  0.75124532  0.74550238  0.26122462  1
  Y3+  Y63  1  0.75130568  0.74881936  0.74967588  1
  Fe3+  Fe64  1  0.62624901  0.87417371  0.87964087  1
  Fe3+  Fe65  1  0.37502263  0.37569684  0.37554089  1
  Fe3+  Fe66  1  0.12370405  0.12471863  0.87447906  1
  Fe3+  Fe67  1  0.87541794  0.12544641  0.87862575  1
  Fe3+  Fe68  1  0.37511515  0.87415415  0.37470014  1
  Fe3+  Fe69  1  0.87572383  0.87338277  0.87520599  1
  Fe3+  Fe70  1  0.87486671  0.37510214  0.37943005  1
  Fe3+  Fe71  1  0.87437955  0.12533739  0.38144319  1
  Fe3+  Fe72  1  0.62745624  0.62548515  0.87519692  1
  Fe3+  Fe73  1  0.37554952  0.62455199  0.37598488  1
  Fe3+  Fe74  1  0.62297972  0.87470529  0.37456676  1
  Fe3+  Fe75  1  0.12693931  0.37578511  0.37917295  1
  Fe3+  Fe76  1  0.12693360  0.87415132  0.37800065  1
  Fe3+  Fe77  1  0.37377143  0.87469857  0.87993174  1
  Fe3+  Fe78  1  0.62317963  0.37533579  0.37667127  1
  Fe3+  Fe79  1  0.87428511  0.62506781  0.87330094  1
  Fe3+  Fe80  1  0.62621728  0.12486780  0.88021130  1
  Fe3+  Fe81  1  0.37407218  0.37530875  0.87983798  1
  Fe3+  Fe82  1  0.87493202  0.87509498  0.37752164  1
  Fe3+  Fe83  1  0.37490144  0.62467294  0.87936823  1
  Fe3+  Fe84  1  0.12483101  0.87483885  0.13902485  1
  Fe3+  Fe85  1  0.37400150  0.87445838  0.13285644  1
  Fe3+  Fe86  1  0.12518932  0.62473042  0.63826989  1
  Fe3+  Fe87  1  0.37408605  0.37533024  0.13348727  1
  Fe3+  Fe88  1  0.87450384  0.12544354  0.63511503  1
  Fe3+  Fe89  1  0.37423248  0.62417918  0.13161999  1
  Fe3+  Fe90  1  0.87677173  0.37564785  0.13949670  1
  Fe3+  Fe91  1  0.12410402  0.37475526  0.13887488  1
  Fe3+  Fe92  1  0.87675152  0.12654188  0.13415191  1
  Fe3+  Fe93  1  0.62663807  0.12573557  0.13393794  1
  Fe3+  Fe94  1  0.62554059  0.87528840  0.13391579  1
  Fe3+  Fe95  1  0.62419916  0.12538953  0.64035392  1
  Cu2+  Cu96  1  0.37421453  0.12539083  0.87330383  1
  Cu2+  Cu97  1  0.12384933  0.87554152  0.86232404  1
  Cu2+  Cu98  1  0.87518047  0.37582640  0.86109029  1
  Cu2+  Cu99  1  0.12269342  0.62541508  0.87000936  1
  Cu2+  Cu100  1  0.87478898  0.62432839  0.37430313  1
  Cu2+  Cu101  1  0.62318575  0.62465694  0.37301325  1
  Cu2+  Cu102  1  0.12648669  0.62507395  0.36884098  1
  Cu2+  Cu103  1  0.37538007  0.12535238  0.37263187  1
  Cu2+  Cu104  1  0.62488196  0.37622602  0.87198041  1
  Cu2+  Cu105  1  0.62505608  0.12511447  0.36310547  1
  Cu2+  Cu106  1  0.12507053  0.37431641  0.86094964  1
  Cu2+  Cu107  1  0.12560165  0.12479081  0.37531581  1
  Cu2+  Cu108  1  0.87566359  0.62450748  0.64166794  1
  Cu2+  Cu109  1  0.37565570  0.12542261  0.64528530  1
  Cu2+  Cu110  1  0.37488876  0.87505709  0.65554883  1
  Cu2+  Cu111  1  0.87578131  0.87474620  0.15362107  1
  Cu2+  Cu112  1  0.12598008  0.37559127  0.65036798  1
  Cu2+  Cu113  1  0.12387810  0.12552462  0.15182238  1
  Cu2+  Cu114  1  0.12596531  0.87448347  0.64989646  1
  Cu2+  Cu115  1  0.37433499  0.62474884  0.65684048  1
  Cu2+  Cu116  1  0.87483743  0.37462218  0.64621838  1
  Cu2+  Cu117  1  0.12531741  0.12534061  0.64283448  1
  Cu2+  Cu118  1  0.87519581  0.87561693  0.64537801  1
  Cu2+  Cu119  1  0.12414283  0.62404537  0.14227951  1
  Cu2+  Cu120  1  0.62604418  0.37451049  0.14197779  1
  Cu2+  Cu121  1  0.37503593  0.37510478  0.65519997  1
  Cu2+  Cu122  1  0.62565499  0.62505710  0.15061594  1
  Cu2+  Cu123  1  0.87575402  0.62366599  0.15463990  1
  Cu2+  Cu124  1  0.62396800  0.87603322  0.65411676  1
  Cu2+  Cu125  1  0.37432372  0.12561762  0.13995952  1
  Cu2+  Cu126  1  0.62456673  0.62466945  0.64276895  1
  Cu2+  Cu127  1  0.62395416  0.37429802  0.65205558  1
  O2-  O128  1  0.12146045  0.12451626  -0.00442088  1
  O2-  O129  1  0.12557468  0.12465711  0.50836593  1
  O2-  O130  1  0.12210454  0.37484151  0.01829785  1
  O2-  O131  1  0.12911083  0.37596291  0.49947302  1
  O2-  O132  1  0.12226474  0.62463097  0.00625022  1
  O2-  O133  1  0.12805873  0.62508680  0.51740238  1
  O2-  O134  1  0.12287049  0.87496112  0.01814410  1
  O2-  O135  1  0.12866040  0.87406183  0.49821866  1
  O2-  O136  1  0.37377744  0.12513196  0.00701816  1
  O2-  O137  1  0.37639025  0.12492533  0.50854722  1
  O2-  O138  1  0.37359273  0.37547337  0.00659520  1
  O2-  O139  1  0.37601696  0.37645447  0.49552351  1
  O2-  O140  1  0.37451841  0.62449759  0.00529111  1
  O2-  O141  1  0.37593888  0.62534990  0.49605049  1
  O2-  O142  1  0.37321439  0.87441351  0.00625156  1
  O2-  O143  1  0.37701484  0.87318397  0.49462731  1
  O2-  O144  1  0.62835588  0.12473416  0.00720373  1
  O2-  O145  1  0.62413096  0.12444101  0.51994295  1
  O2-  O146  1  0.62636166  0.37535016  0.00666153  1
  O2-  O147  1  0.62145378  0.37461142  0.49692657  1
  O2-  O148  1  0.62935657  0.62658084  -0.00429374  1
  O2-  O149  1  0.62202176  0.62517487  0.50742034  1
  O2-  O150  1  0.62791827  0.87407101  0.00550844  1
  O2-  O151  1  0.62110667  0.87578492  0.49454914  1
  O2-  O152  1  0.87633814  0.12603345  0.00625100  1
  O2-  O153  1  0.87300498  0.12472655  0.50781144  1
  O2-  O154  1  0.87765743  0.37551975  0.01896373  1
  O2-  O155  1  0.87351790  0.37363857  0.49966695  1
  O2-  O156  1  0.87397464  0.62513757  -0.00623234  1
  O2-  O157  1  0.87518158  0.62483576  0.50708673  1
  O2-  O158  1  0.87581690  0.87285059  -0.00475370  1
  O2-  O159  1  0.87346090  0.87698673  0.49764382  1
  O2-  O160  1  0.12473998  0.00007095  0.16532187  1
  O2-  O161  1  0.12549579  -0.00165763  0.66462849  1
  O2-  O162  1  0.12476602  0.25017946  0.16699420  1
  O2-  O163  1  0.12547368  0.25184899  0.66527464  1
  O2-  O164  1  0.12487036  0.49837341  0.16731430  1
  O2-  O165  1  0.12608655  0.50045051  0.66710126  1
  O2-  O166  1  0.12415536  0.75091472  0.16568710  1
  O2-  O167  1  0.12620721  0.74961332  0.66609766  1
  O2-  O168  1  0.37470466  -0.00325678  0.16233073  1
  O2-  O169  1  0.37554747  -0.00099643  0.66746689  1
  O2-  O170  1  0.37463609  0.25294892  0.16329288  1
  O2-  O171  1  0.37551727  0.25144851  0.66806747  1
  O2-  O172  1  0.37514297  0.50030038  0.15969617  1
  O2-  O173  1  0.37491599  0.49980460  0.66711881  1
  O2-  O174  1  0.37666239  0.74964489  0.15871961  1
  O2-  O175  1  0.37521901  0.75013230  0.66743944  1
  O2-  O176  1  0.62659929  0.00026248  0.15971246  1
  O2-  O177  1  0.62496684  0.00089012  0.67076000  1
  O2-  O178  1  0.62636434  0.24669334  0.16360172  1
  O2-  O179  1  0.62505547  0.24964574  0.66945707  1
  O2-  O180  1  0.62582916  0.50140062  0.16322372  1
  O2-  O181  1  0.62394305  0.49789949  0.66471604  1
  O2-  O182  1  0.62506653  0.75176167  0.16135017  1
  O2-  O183  1  0.62366154  0.75207809  0.66455418  1
  O2-  O184  1  0.87493351  0.00260858  0.16113874  1
  O2-  O185  1  0.87429907  0.00198385  0.66503375  1
  O2-  O186  1  0.87507884  0.24870663  0.16652312  1
  O2-  O187  1  0.87404976  0.24818238  0.66579884  1
  O2-  O188  1  0.87531826  0.49972394  0.16668452  1
  O2-  O189  1  0.87505465  0.49826281  0.66456459  1
  O2-  O190  1  0.87530076  0.74876761  0.16402118  1
  O2-  O191  1  0.87500300  0.75176077  0.66140383  1
  O2-  O192  1  -0.00187430  0.12480832  0.16721085  1
  O2-  O193  1  -0.00285842  0.12525759  0.66179060  1
  O2-  O194  1  0.00014351  0.37405350  0.17359013  1
  O2-  O195  1  0.00053363  0.37430451  0.66268475  1
  O2-  O196  1  -0.00113174  0.62497515  0.16847103  1
  O2-  O197  1  0.00179445  0.62496368  0.66403189  1
  O2-  O198  1  0.00013485  0.87601363  0.16855158  1
  O2-  O199  1  0.00058271  0.87579396  0.66192278  1
  O2-  O200  1  0.24801523  0.12507089  0.16461909  1
  O2-  O201  1  0.25039395  0.12505962  0.66614435  1
  O2-  O202  1  0.25053079  0.37542362  0.16262631  1
  O2-  O203  1  0.25096761  0.37539951  0.66797699  1
  O2-  O204  1  0.25299960  0.62525667  0.16175258  1
  O2-  O205  1  0.24952354  0.62511779  0.66942752  1
  O2-  O206  1  0.25109500  0.87378090  0.16275557  1
  O2-  O207  1  0.25093464  0.87477352  0.66794678  1
  O2-  O208  1  0.50356604  0.12440298  0.16070022  1
  O2-  O209  1  0.50127090  0.12507817  0.67178333  1
  O2-  O210  1  0.49763501  0.37509435  0.15876586  1
  O2-  O211  1  0.49932650  0.37458691  0.66859879  1
  O2-  O212  1  0.49851353  0.62483112  0.15746272  1
  O2-  O213  1  0.49826270  0.62501991  0.66924865  1
  O2-  O214  1  0.50038611  0.87554285  0.15442598  1
  O2-  O215  1  0.49932458  0.87564944  0.67033200  1
  O2-  O216  1  0.75106561  0.12420170  0.16327408  1
  O2-  O217  1  0.75089685  0.12463763  0.66719119  1
  O2-  O218  1  0.75246660  0.37457057  0.16712108  1
  O2-  O219  1  0.74898379  0.37387363  0.66335458  1
  O2-  O220  1  0.75054910  0.62516044  0.16599859  1
  O2-  O221  1  0.75026467  0.62514586  0.66105413  1
  O2-  O222  1  0.74917538  0.87582698  0.16167207  1
  O2-  O223  1  0.74914789  0.87666887  0.66326681  1
  O2-  O224  1  0.12518474  -0.00216350  0.34717908  1
  O2-  O225  1  0.12386153  0.00070861  0.84703486  1
  O2-  O226  1  0.12543215  0.25190122  0.34866698  1
  O2-  O227  1  0.12389188  0.24934365  0.84782535  1
  O2-  O228  1  0.12583701  0.49971250  0.34834031  1
  O2-  O229  1  0.12467811  0.49829363  0.85031176  1
  O2-  O230  1  0.12586553  0.75025840  0.34696427  1
  O2-  O231  1  0.12402927  0.75179416  0.84868076  1
  O2-  O232  1  0.37600409  -0.00128932  0.34562220  1
  O2-  O233  1  0.37495562  -0.00315267  0.85134787  1
  O2-  O234  1  0.37581831  0.25155425  0.34607411  1
  O2-  O235  1  0.37488081  0.25266426  0.85163676  1
  O2-  O236  1  0.37510473  0.50003342  0.34097047  1
  O2-  O237  1  0.37440388  0.50056802  0.85161114  1
  O2-  O238  1  0.37528430  0.74952947  0.34002568  1
  O2-  O239  1  0.37528205  0.75020623  0.85203367  1
  O2-  O240  1  0.62483660  -0.00040891  0.34297826  1
  O2-  O241  1  0.62605894  -0.00075497  0.85386121  1
  O2-  O242  1  0.62495303  0.25051105  0.34628365  1
  O2-  O243  1  0.62592207  0.24730474  0.85273532  1
  O2-  O244  1  0.62427227  0.49778098  0.34570664  1
  O2-  O245  1  0.62458618  0.50262145  0.84693345  1
  O2-  O246  1  0.62427189  0.75181635  0.34401430  1
  O2-  O247  1  0.62466325  0.75153871  0.84698090  1
  O2-  O248  1  0.87442245  0.00099039  0.34568177  1
  O2-  O249  1  0.87427879  0.00096986  0.84937042  1
  O2-  O250  1  0.87431364  0.24918176  0.34836144  1
  O2-  O251  1  0.87436445  0.24920687  0.85165206  1
  O2-  O252  1  0.87513649  0.49757091  0.34830746  1
  O2-  O253  1  0.87491883  0.49996537  0.84734131  1
  O2-  O254  1  0.87476428  0.75187527  0.34776422  1
  O2-  O255  1  0.87464642  0.75016767  0.84203713  1
  O2-  O256  1  -0.00361152  0.12471380  0.35135458  1
  O2-  O257  1  -0.00215736  0.12558926  0.84510251  1
  O2-  O258  1  0.00058606  0.37411531  0.35228828  1
  O2-  O259  1  0.00019366  0.37427765  0.84765944  1
  O2-  O260  1  0.00184619  0.62519724  0.35265122  1
  O2-  O261  1  -0.00253908  0.62468328  0.84450872  1
  O2-  O262  1  0.00041874  0.87537160  0.34971106  1
  O2-  O263  1  -0.00116401  0.87607369  0.84481426  1
  O2-  O264  1  0.25057874  0.12479245  0.34880696  1
  O2-  O265  1  0.24778807  0.12482817  0.84860314  1
  O2-  O266  1  0.25051856  0.37559945  0.34268605  1
  O2-  O267  1  0.25118211  0.37537338  0.85234971  1
  O2-  O268  1  0.25127291  0.62500265  0.34394349  1
  O2-  O269  1  0.25210326  0.62569845  0.85281260  1
  O2-  O270  1  0.25083900  0.87432795  0.34244009  1
  O2-  O271  1  0.25059497  0.87438718  0.85318929  1
  O2-  O272  1  0.50133207  0.12519953  0.34507006  1
  O2-  O273  1  0.50316778  0.12419139  0.85483216  1
  O2-  O274  1  0.49966418  0.37439570  0.34015904  1
  O2-  O275  1  0.49687600  0.37557900  0.85241661  1
  O2-  O276  1  0.49795915  0.62475864  0.34007233  1
  O2-  O277  1  0.49936321  0.62610415  0.85217703  1
  O2-  O278  1  0.49933820  0.87526276  0.33665664  1
  O2-  O279  1  0.50062544  0.87499050  0.85551572  1
  O2-  O280  1  0.75190881  0.12447915  0.34807761  1
  O2-  O281  1  0.75071353  0.12450305  0.85105834  1
  O2-  O282  1  0.74931694  0.37371559  0.34763593  1
  O2-  O283  1  0.75094743  0.37515667  0.84753356  1
  O2-  O284  1  0.74913069  0.62495902  0.35061645  1
  O2-  O285  1  0.75025424  0.62557076  0.84077378  1
  O2-  O286  1  0.74955541  0.87622665  0.34463911  1
  O2-  O287  1  0.74920606  0.87573975  0.84639821  1
