# generated using pymatgen
data_BaYFeCuO5
_symmetry_space_group_name_H-M   'P 1'
_cell_length_a   15.68772994
_cell_length_b   15.68615544
_cell_length_c   15.53258549
_cell_angle_alpha   90.00273605
_cell_angle_beta   90.00487466
_cell_angle_gamma   89.99618865
_symmetry_Int_Tables_number   1
_chemical_formula_structural   BaYFeCuO5
_chemical_formula_sum   'Ba32 Y32 Fe32 Cu32 O160'
_cell_volume   3822.26125621
_cell_formula_units_Z   32
loop_
 _symmetry_equiv_pos_site_id
 _symmetry_equiv_pos_as_xyz
  1  'x, y, z'
loop_
 _atom_type_symbol
 _atom_type_oxidation_number
  Ba2+  2.0
  Y3+  3.0
  Fe3+  3.0
  Cu2+  2.0
  O2-  -2.0
loop_
 _atom_site_type_symbol
 _atom_site_label
 _atom_site_symmetry_multiplicity
 _atom_site_fract_x
 _atom_site_fract_y
 _atom_site_fract_z
 _atom_site_occupancy
  Ba2+  Ba0  1  0.00520740  -0.00613689  0.01259232  1
  Ba2+  Ba1  1  -0.00453540  0.01128544  0.50143746  1
  Ba2+  Ba2  1  0.00077745  0.24941926  0.01578901  1
  Ba2+  Ba3  1  -0.00151612  0.24752192  0.51761427  1
  Ba2+  Ba4  1  -0.00399293  0.50609949  0.02005119  1
  Ba2+  Ba5  1  -0.00623190  0.49231055  0.52203710  1
  Ba2+  Ba6  1  -0.00014462  0.74990800  0.02042621  1
  Ba2+  Ba7  1  -0.00913297  0.74892039  0.50582611  1
  Ba2+  Ba8  1  0.25234285  -0.00044859  0.02198938  1
  Ba2+  Ba9  1  0.24725102  0.01247817  0.50269381  1
  Ba2+  Ba10  1  0.25665589  0.24468571  0.01291191  1
  Ba2+  Ba11  1  0.24993981  0.25232673  0.50617041  1
  Ba2+  Ba12  1  0.25494146  0.50481995  0.00009394  1
  Ba2+  Ba13  1  0.25902875  0.49328004  0.51092884  1
  Ba2+  Ba14  1  0.25030802  0.75139772  0.00427928  1
  Ba2+  Ba15  1  0.25589046  0.74267666  0.50672288  1
  Ba2+  Ba16  1  0.50026316  0.00063781  0.02405912  1
  Ba2+  Ba17  1  0.50213867  0.01097071  0.50653279  1
  Ba2+  Ba18  1  0.50461685  0.24954541  0.00686679  1
  Ba2+  Ba19  1  0.49945257  0.25554801  0.51284240  1
  Ba2+  Ba20  1  0.50171779  0.49893927  -0.00810912  1
  Ba2+  Ba21  1  0.49775740  0.49658099  0.51740350  1
  Ba2+  Ba22  1  0.49870416  0.75099010  0.00679250  1
  Ba2+  Ba23  1  0.50056510  0.73776413  0.51150815  1
  Ba2+  Ba24  1  0.74251106  -0.00299320  0.01722452  1
  Ba2+  Ba25  1  0.75662553  0.00882569  0.50544742  1
  Ba2+  Ba26  1  0.74076662  0.25285178  0.00993000  1
  Ba2+  Ba27  1  0.75180293  0.25045815  0.52553122  1
  Ba2+  Ba28  1  0.74624493  0.49800370  0.01014983  1
  Ba2+  Ba29  1  0.74873268  0.49685159  0.52781506  1
  Ba2+  Ba30  1  0.75004897  0.75051176  0.01826356  1
  Ba2+  Ba31  1  0.75263653  0.74380408  0.51229187  1
  Y3+  Y32  1  -0.00143908  0.00229195  0.26109683  1
  Y3+  Y33  1  0.00056749  0.00220036  0.75373216  1
  Y3+  Y34  1  -0.00040071  0.24852555  0.25715476  1
  Y3+  Y35  1  0.00032270  0.24844037  0.75510463  1
  Y3+  Y36  1  -0.00121092  0.49930485  0.25334894  1
  Y3+  Y37  1  -0.00046522  0.49806602  0.75691409  1
  Y3+  Y38  1  -0.00237981  0.75022327  0.25894104  1
  Y3+  Y39  1  0.00014494  0.75079999  0.75543720  1
  Y3+  Y40  1  0.24980118  0.00440874  0.26164589  1
  Y3+  Y41  1  0.24762587  0.00097018  0.75452670  1
  Y3+  Y42  1  0.25176667  0.24878545  0.26017543  1
  Y3+  Y43  1  0.25005006  0.25172145  0.75532887  1
  Y3+  Y44  1  0.25298027  0.49966628  0.26147479  1
  Y3+  Y45  1  0.25361907  0.49837142  0.75448957  1
  Y3+  Y46  1  0.25136714  0.74810984  0.26119814  1
  Y3+  Y47  1  0.25129802  0.74881201  0.75437767  1
  Y3+  Y48  1  0.50067922  0.00201419  0.25780033  1
  Y3+  Y49  1  0.50243742  0.00240065  0.75648659  1
  Y3+  Y50  1  0.49991485  0.25030222  0.25548353  1
  Y3+  Y51  1  0.50186822  0.25248839  0.76084333  1
  Y3+  Y52  1  0.49861329  0.49792777  0.26042346  1
  Y3+  Y53  1  0.49946615  0.49869174  0.75675960  1
  Y3+  Y54  1  0.49933184  0.74989331  0.26050623  1
  Y3+  Y55  1  0.49962261  0.74587900  0.75549997  1
  Y3+  Y56  1  0.75110964  0.00053123  0.25732729  1
  Y3+  Y57  1  0.74959182  0.00365030  0.75655236  1
  Y3+  Y58  1  0.74863043  0.25088767  0.25044726  1
  Y3+  Y59  1  0.74712784  0.24882809  0.76197041  1
  Y3+  Y60  1  0.74977150  0.49743234  0.24985193  1
  Y3+  Y61  1  0.74675222  0.49919651  0.76112380  1
  Y3+  Y62  1  0.75155637  0.75182817  0.25747682  1
  Y3+  Y63  1  0.74872898  0.74810984  0.75613756  1
  Fe3+  Fe64  1  0.62472559  0.87482406  0.87438369  1
  Fe3+  Fe65  1  0.62679799  0.37502872  0.37615218  1
  Fe3+  Fe66  1  0.87487588  0.62607567  0.87584722  1
  Fe3+  Fe67  1  0.12548896  0.37490866  0.87981339  1
  Fe3+  Fe68  1  0.12404956  0.62575653  0.87461200  1
  Fe3+  Fe69  1  0.12350884  0.62233888  0.38039131  1
  Fe3+  Fe70  1  0.87613196  0.37454100  0.87835695  1
  Fe3+  Fe71  1  0.37527362  0.12363484  0.87614520  1
  Fe3+  Fe72  1  0.87537330  0.87499111  0.87682226  1
  Fe3+  Fe73  1  0.87299662  0.37410523  0.37370733  1
  Fe3+  Fe74  1  0.12406848  0.87502424  0.38160075  1
  Fe3+  Fe75  1  0.12576667  0.12384908  0.87764033  1
  Fe3+  Fe76  1  0.37594222  0.87602802  0.38149622  1
  Fe3+  Fe77  1  0.87319119  0.62114807  0.37478999  1
  Fe3+  Fe78  1  0.62677901  0.12840746  0.37564988  1
  Fe3+  Fe79  1  0.62656243  0.62206696  0.37725293  1
  Fe3+  Fe80  1  0.87509016  0.12378458  0.88095329  1
  Fe3+  Fe81  1  0.12328788  0.37522075  0.37640373  1
  Fe3+  Fe82  1  0.37476368  0.87660984  0.87391826  1
  Fe3+  Fe83  1  0.62632544  0.87509718  0.38056137  1
  Fe3+  Fe84  1  0.37506439  0.62521933  0.13987741  1
  Fe3+  Fe85  1  0.12470992  0.87545879  0.63198219  1
  Fe3+  Fe86  1  0.87440679  0.87586028  0.63554628  1
  Fe3+  Fe87  1  0.37567850  0.37600839  0.13718345  1
  Fe3+  Fe88  1  0.12445428  0.62354036  0.63315700  1
  Fe3+  Fe89  1  0.37581914  0.87614711  0.63234757  1
  Fe3+  Fe90  1  0.12657013  0.87442253  0.14386219  1
  Fe3+  Fe91  1  0.87494994  0.12426778  0.13413623  1
  Fe3+  Fe92  1  0.12711382  0.37572811  0.13422927  1
  Fe3+  Fe93  1  0.37535224  0.12636847  0.63776474  1
  Fe3+  Fe94  1  0.62523746  0.87572028  0.63231368  1
  Fe3+  Fe95  1  0.62282103  0.62502232  0.13729769  1
  Cu2+  Cu96  1  0.62501703  0.62624545  0.86353633  1
  Cu2+  Cu97  1  0.37633041  0.37411965  0.37279666  1
  Cu2+  Cu98  1  0.12355611  0.12804342  0.37302438  1
  Cu2+  Cu99  1  0.37459474  0.62554318  0.85924742  1
  Cu2+  Cu100  1  0.37639531  0.62352218  0.37500627  1
  Cu2+  Cu101  1  0.37408770  0.37428583  0.86447838  1
  Cu2+  Cu102  1  0.62492911  0.37514358  0.87233522  1
  Cu2+  Cu103  1  0.87420861  0.87526542  0.36678574  1
  Cu2+  Cu104  1  0.87291453  0.12862953  0.36725319  1
  Cu2+  Cu105  1  0.12506070  0.87506425  0.85812149  1
  Cu2+  Cu106  1  0.62435206  0.12313255  0.87414085  1
  Cu2+  Cu107  1  0.37674508  0.12628689  0.36377894  1
  Cu2+  Cu108  1  0.12652878  0.62495514  0.15496598  1
  Cu2+  Cu109  1  0.62451791  0.12494404  0.14180569  1
  Cu2+  Cu110  1  0.12553189  0.12576784  0.64113347  1
  Cu2+  Cu111  1  0.37499470  0.62394435  0.64254917  1
  Cu2+  Cu112  1  0.37506276  0.12537507  0.15503334  1
  Cu2+  Cu113  1  0.87543959  0.87604481  0.15371599  1
  Cu2+  Cu114  1  0.62246876  0.37612594  0.14024277  1
  Cu2+  Cu115  1  0.12509425  0.12539312  0.15258444  1
  Cu2+  Cu116  1  0.62505283  0.37427081  0.65656776  1
  Cu2+  Cu117  1  0.62518466  0.62436494  0.65262631  1
  Cu2+  Cu118  1  0.37440421  0.87462411  0.15865030  1
  Cu2+  Cu119  1  0.87465991  0.12514449  0.64480161  1
  Cu2+  Cu120  1  0.87407767  0.37418567  0.65816159  1
  Cu2+  Cu121  1  0.62403168  0.87382746  0.15721461  1
  Cu2+  Cu122  1  0.37564845  0.37325312  0.64459876  1
  Cu2+  Cu123  1  0.62477484  0.12542019  0.65187971  1
  Cu2+  Cu124  1  0.87417485  0.62567779  0.15118181  1
  Cu2+  Cu125  1  0.12513322  0.37491747  0.65099524  1
  Cu2+  Cu126  1  0.87530247  0.37415057  0.14341993  1
  Cu2+  Cu127  1  0.87524831  0.62458994  0.65325531  1
  O2-  O128  1  0.12660650  0.12154354  -0.00290692  1
  O2-  O129  1  0.12390128  0.12797136  0.50620370  1
  O2-  O130  1  0.12686765  0.37599737  0.00597614  1
  O2-  O131  1  0.12163729  0.37566515  0.49608755  1
  O2-  O132  1  0.12430633  0.62848545  -0.00565483  1
  O2-  O133  1  0.12259917  0.62067796  0.50633321  1
  O2-  O134  1  0.12787294  0.87313207  0.02337295  1
  O2-  O135  1  0.12293393  0.87521640  0.50718381  1
  O2-  O136  1  0.37438138  0.12005686  -0.00400493  1
  O2-  O137  1  0.37596410  0.12810650  0.51734462  1
  O2-  O138  1  0.37363227  0.37753161  0.01742296  1
  O2-  O139  1  0.37623907  0.37305670  0.50931804  1
  O2-  O140  1  0.37392528  0.62723247  0.02009217  1
  O2-  O141  1  0.37572695  0.62336837  0.50864461  1
  O2-  O142  1  0.37417502  0.87656116  -0.00634068  1
  O2-  O143  1  0.37647533  0.87627537  0.50694072  1
  O2-  O144  1  0.62388287  0.12152802  0.00717527  1
  O2-  O145  1  0.62777471  0.12927971  0.49565941  1
  O2-  O146  1  0.62286790  0.37685256  0.00587961  1
  O2-  O147  1  0.62888984  0.37453103  0.49577011  1
  O2-  O148  1  0.62211689  0.62838738  0.01718397  1
  O2-  O149  1  0.62861682  0.62085160  0.49710862  1
  O2-  O150  1  0.62315644  0.87374604  -0.00578359  1
  O2-  O151  1  0.62675514  0.87531305  0.50612228  1
  O2-  O152  1  0.87615902  0.12166569  0.00624271  1
  O2-  O153  1  0.87365152  0.12857172  0.50811577  1
  O2-  O154  1  0.87836855  0.37627405  -0.00207029  1
  O2-  O155  1  0.87267705  0.37450771  0.49338565  1
  O2-  O156  1  0.87662615  0.62889298  -0.00460662  1
  O2-  O157  1  0.87321959  0.61982465  0.49451118  1
  O2-  O158  1  0.87611316  0.87354087  -0.00355735  1
  O2-  O159  1  0.87420990  0.87557499  0.51545634  1
  O2-  O160  1  0.12576294  0.00007254  0.17034253  1
  O2-  O161  1  0.12530043  -0.00321748  0.66215356  1
  O2-  O162  1  0.12563408  0.25147408  0.15796006  1
  O2-  O163  1  0.12466118  0.25183365  0.66813099  1
  O2-  O164  1  0.12536114  0.49935375  0.16033075  1
  O2-  O165  1  0.12396205  0.50101939  0.66474839  1
  O2-  O166  1  0.12512655  0.74972619  0.17405614  1
  O2-  O167  1  0.12455785  0.74983013  0.65822095  1
  O2-  O168  1  0.37425934  0.00003852  0.16832961  1
  O2-  O169  1  0.37459117  -0.00115978  0.66112809  1
  O2-  O170  1  0.37380325  0.25049789  0.16298680  1
  O2-  O171  1  0.37577181  0.24811042  0.67057995  1
  O2-  O172  1  0.37404832  0.50051171  0.17001097  1
  O2-  O173  1  0.37502763  0.49895705  0.66591282  1
  O2-  O174  1  0.37418056  0.74969679  0.17163423  1
  O2-  O175  1  0.37546935  0.75353207  0.66116109  1
  O2-  O176  1  0.62446275  -0.00242948  0.16836516  1
  O2-  O177  1  0.62595535  -0.00133861  0.66025620  1
  O2-  O178  1  0.62419957  0.25065178  0.15929873  1
  O2-  O179  1  0.62507744  0.24971314  0.66889382  1
  O2-  O180  1  0.62440814  0.50223053  0.16403565  1
  O2-  O181  1  0.62570181  0.49949919  0.66675343  1
  O2-  O182  1  0.62457184  0.74953045  0.17083420  1
  O2-  O183  1  0.62444160  0.75144075  0.65953168  1
  O2-  O184  1  0.87585484  0.00139263  0.16574964  1
  O2-  O185  1  0.87438597  -0.00184836  0.66671668  1
  O2-  O186  1  0.87598373  0.24786704  0.15713904  1
  O2-  O187  1  0.87495431  0.25093052  0.67005047  1
  O2-  O188  1  0.87578365  0.50006053  0.15848803  1
  O2-  O189  1  0.87545912  0.49951611  0.66579284  1
  O2-  O190  1  0.87566196  0.75111027  0.16720247  1
  O2-  O191  1  0.87564935  0.75056106  0.66159706  1
  O2-  O192  1  -0.00129440  0.12427897  0.16295962  1
  O2-  O193  1  0.00040204  0.12513951  0.66587891  1
  O2-  O194  1  0.00288601  0.37536059  0.16028049  1
  O2-  O195  1  -0.00087947  0.37469448  0.66449228  1
  O2-  O196  1  -0.00033862  0.62590461  0.16360767  1
  O2-  O197  1  0.00162359  0.62483194  0.66047897  1
  O2-  O198  1  0.00131001  0.87488207  0.16859681  1
  O2-  O199  1  0.00092908  0.87460457  0.66388587  1
  O2-  O200  1  0.24990150  0.12448427  0.16799110  1
  O2-  O201  1  0.25158257  0.12497559  0.66482732  1
  O2-  O202  1  0.24940835  0.37538478  0.16862452  1
  O2-  O203  1  0.24892892  0.37489404  0.66600425  1
  O2-  O204  1  0.25142733  0.62558456  0.17279114  1
  O2-  O205  1  0.24633641  0.62504878  0.66215579  1
  O2-  O206  1  0.24979469  0.87519633  0.17492931  1
  O2-  O207  1  0.24991119  0.87406746  0.65918544  1
  O2-  O208  1  0.49887724  0.12383700  0.16705622  1
  O2-  O209  1  0.50006762  0.12372623  0.66431793  1
  O2-  O210  1  0.49715548  0.37520130  0.16975776  1
  O2-  O211  1  0.50207057  0.37480931  0.66626385  1
  O2-  O212  1  0.49887245  0.62669935  0.17162293  1
  O2-  O213  1  0.50128699  0.62443138  0.66502686  1
  O2-  O214  1  0.49866457  0.87477942  0.16849238  1
  O2-  O215  1  0.50073679  0.87604938  0.65860700  1
  O2-  O216  1  0.75256025  0.12360618  0.16036242  1
  O2-  O217  1  0.74817358  0.12568743  0.66796759  1
  O2-  O218  1  0.75056596  0.37514715  0.15784933  1
  O2-  O219  1  0.74959217  0.37437597  0.66752630  1
  O2-  O220  1  0.74934857  0.62651085  0.16140659  1
  O2-  O221  1  0.75042825  0.62530865  0.66499362  1
  O2-  O222  1  0.75011912  0.87485647  0.16378081  1
  O2-  O223  1  0.74859766  0.87384731  0.66379626  1
  O2-  O224  1  0.12441582  -0.00210259  0.35358264  1
  O2-  O225  1  0.12431732  0.00039007  0.84425640  1
  O2-  O226  1  0.12460646  0.25300639  0.34122841  1
  O2-  O227  1  0.12521494  0.25063161  0.85121766  1
  O2-  O228  1  0.12405179  0.50069584  0.34328173  1
  O2-  O229  1  0.12478268  0.49885130  0.84865367  1
  O2-  O230  1  0.12422558  0.74913225  0.35708993  1
  O2-  O231  1  0.12577780  0.74967213  0.84125355  1
  O2-  O232  1  0.37527803  -0.00129380  0.35308292  1
  O2-  O233  1  0.37457968  -0.00018267  0.83889838  1
  O2-  O234  1  0.37577036  0.24907084  0.34574900  1
  O2-  O235  1  0.37339943  0.24915854  0.85191132  1
  O2-  O236  1  0.37518549  0.49951641  0.34974165  1
  O2-  O237  1  0.37405050  0.50025680  0.85007446  1
  O2-  O238  1  0.37506188  0.75326616  0.35400983  1
  O2-  O239  1  0.37376408  0.75085439  0.84405540  1
  O2-  O240  1  0.62553400  -0.00054587  0.35190664  1
  O2-  O241  1  0.62517421  -0.00259158  0.84187472  1
  O2-  O242  1  0.62534739  0.25115220  0.33991814  1
  O2-  O243  1  0.62514565  0.24943153  0.85285961  1
  O2-  O244  1  0.62576185  0.49907841  0.34232258  1
  O2-  O245  1  0.62469774  0.50211482  0.85098127  1
  O2-  O246  1  0.62586758  0.75086239  0.35325305  1
  O2-  O247  1  0.62472915  0.75087691  0.84215154  1
  O2-  O248  1  0.87460365  0.00042519  0.35013388  1
  O2-  O249  1  0.87629779  0.00082054  0.84709482  1
  O2-  O250  1  0.87418310  0.25255818  0.33822416  1
  O2-  O251  1  0.87623215  0.24809137  0.85271431  1
  O2-  O252  1  0.87506768  0.49905465  0.33859030  1
  O2-  O253  1  0.87619903  0.50028438  0.84743897  1
  O2-  O254  1  0.87480728  0.74810529  0.35070150  1
  O2-  O255  1  0.87544556  0.75044590  0.84142228  1
  O2-  O256  1  -0.00181681  0.12615995  0.34662521  1
  O2-  O257  1  -0.00040593  0.12453402  0.84795084  1
  O2-  O258  1  -0.00107292  0.37544665  0.34170647  1
  O2-  O259  1  0.00174421  0.37447698  0.84698709  1
  O2-  O260  1  0.00043725  0.62465182  0.34712059  1
  O2-  O261  1  -0.00007478  0.62550728  0.84095933  1
  O2-  O262  1  0.00127504  0.87438357  0.35142312  1
  O2-  O263  1  -0.00023987  0.87479441  0.84568192  1
  O2-  O264  1  0.25192795  0.12589941  0.35239827  1
  O2-  O265  1  0.24956255  0.12421539  0.84398916  1
  O2-  O266  1  0.24885960  0.37519476  0.35099611  1
  O2-  O267  1  0.24780195  0.37595725  0.84933949  1
  O2-  O268  1  0.24670549  0.62469315  0.35494623  1
  O2-  O269  1  0.24901166  0.62522262  0.84517216  1
  O2-  O270  1  0.24969359  0.87494927  0.35743193  1
  O2-  O271  1  0.25023506  0.87451087  0.84213753  1
  O2-  O272  1  0.50190215  0.12451055  0.34924610  1
  O2-  O273  1  0.49785542  0.12451092  0.84532603  1
  O2-  O274  1  0.50224943  0.37469543  0.35010737  1
  O2-  O275  1  0.49814089  0.37531784  0.84941942  1
  O2-  O276  1  0.50300924  0.62577969  0.35022249  1
  O2-  O277  1  0.49910890  0.62631584  0.84953896  1
  O2-  O278  1  0.50095590  0.87552593  0.35305199  1
  O2-  O279  1  0.49941298  0.87383041  0.84049170  1
  O2-  O280  1  0.74820657  0.12503926  0.34155574  1
  O2-  O281  1  0.75333870  0.12381213  0.85088483  1
  O2-  O282  1  0.74963952  0.37514016  0.33804880  1
  O2-  O283  1  0.75272305  0.37506586  0.84982993  1
  O2-  O284  1  0.74987259  0.62496032  0.34109044  1
  O2-  O285  1  0.75109597  0.62573966  0.84756240  1
  O2-  O286  1  0.74816973  0.87536170  0.34812716  1
  O2-  O287  1  0.75072920  0.87506129  0.84460572  1
