# generated using pymatgen
data_BaYFeCuO5
_symmetry_space_group_name_H-M   'P 1'
_cell_length_a   15.68545283
_cell_length_b   15.68004360
_cell_length_c   15.52261660
_cell_angle_alpha   90.00396651
_cell_angle_beta   89.99518389
_cell_angle_gamma   90.00411068
_symmetry_Int_Tables_number   1
_chemical_formula_structural   BaYFeCuO5
_chemical_formula_sum   'Ba32 Y32 Fe32 Cu32 O160'
_cell_volume   3817.76554441
_cell_formula_units_Z   32
loop_
 _symmetry_equiv_pos_site_id
 _symmetry_equiv_pos_as_xyz
  1  'x, y, z'
loop_
 _atom_type_symbol
 _atom_type_oxidation_number
  Ba2+  2.0
  Y3+  3.0
  Fe3+  3.0
  Cu2+  2.0
  O2-  -2.0
loop_
 _atom_site_type_symbol
 _atom_site_label
 _atom_site_symmetry_multiplicity
 _atom_site_fract_x
 _atom_site_fract_y
 _atom_site_fract_z
 _atom_site_occupancy
  Ba2+  Ba0  1  0.00243308  -0.00065470  0.01213760  1
  Ba2+  Ba1  1  -0.00283775  0.00235232  0.51081525  1
  Ba2+  Ba2  1  0.00071268  0.25109540  0.02153192  1
  Ba2+  Ba3  1  -0.00712105  0.25338052  0.51003725  1
  Ba2+  Ba4  1  -0.00417860  0.49494920  0.01426634  1
  Ba2+  Ba5  1  -0.00072893  0.49792931  0.51221458  1
  Ba2+  Ba6  1  -0.00192754  0.75588108  0.00757517  1
  Ba2+  Ba7  1  0.00601458  0.74672881  0.51380346  1
  Ba2+  Ba8  1  0.24537638  -0.00736272  0.00936067  1
  Ba2+  Ba9  1  0.25581547  -0.00560808  0.52482069  1
  Ba2+  Ba10  1  0.24341551  0.25397825  0.02268383  1
  Ba2+  Ba11  1  0.25408212  0.25372170  0.50936550  1
  Ba2+  Ba12  1  0.25294579  0.49532917  0.02219852  1
  Ba2+  Ba13  1  0.25221686  0.50556791  0.51183023  1
  Ba2+  Ba14  1  0.25303549  0.75689193  0.00978060  1
  Ba2+  Ba15  1  0.25354930  0.74885520  0.52419441  1
  Ba2+  Ba16  1  0.50070742  -0.01021950  0.00607149  1
  Ba2+  Ba17  1  0.49939529  -0.00286674  0.53034372  1
  Ba2+  Ba18  1  0.50018487  0.25975520  0.01834796  1
  Ba2+  Ba19  1  0.49731358  0.24316535  0.51280612  1
  Ba2+  Ba20  1  0.50067456  0.50094475  0.01831945  1
  Ba2+  Ba21  1  0.49401761  0.50827869  0.49665073  1
  Ba2+  Ba22  1  0.50074244  0.75302157  0.00706210  1
  Ba2+  Ba23  1  0.49576773  0.74964257  0.51407481  1
  Ba2+  Ba24  1  0.75234209  -0.00627562  0.00822354  1
  Ba2+  Ba25  1  0.74551467  0.00449888  0.51855501  1
  Ba2+  Ba26  1  0.75543282  0.25574013  0.01509391  1
  Ba2+  Ba27  1  0.75716973  0.24590471  0.51027518  1
  Ba2+  Ba28  1  0.75024701  0.50039668  0.00666483  1
  Ba2+  Ba29  1  0.75577553  0.50263448  0.49741585  1
  Ba2+  Ba30  1  0.74764960  0.74966920  0.00104201  1
  Ba2+  Ba31  1  0.74400335  0.74676351  0.50056184  1
  Y3+  Y32  1  0.00034176  -0.00068866  0.25702775  1
  Y3+  Y33  1  0.00010278  0.00057750  0.75679427  1
  Y3+  Y34  1  -0.00170976  0.24971186  0.26303876  1
  Y3+  Y35  1  -0.00233595  0.25048308  0.75048466  1
  Y3+  Y36  1  -0.00183620  0.49896575  0.26079051  1
  Y3+  Y37  1  0.00029821  0.49948532  0.75375673  1
  Y3+  Y38  1  0.00009073  0.75164930  0.25632854  1
  Y3+  Y39  1  0.00228901  0.74953252  0.75934971  1
  Y3+  Y40  1  0.24841682  -0.00271901  0.24998179  1
  Y3+  Y41  1  0.25008874  -0.00342005  0.76203518  1
  Y3+  Y42  1  0.24957476  0.25095254  0.25799476  1
  Y3+  Y43  1  0.24909786  0.25023755  0.75315960  1
  Y3+  Y44  1  0.25344766  0.50076559  0.25944604  1
  Y3+  Y45  1  0.24881149  0.50181251  0.75292707  1
  Y3+  Y46  1  0.25251970  0.75058469  0.25249260  1
  Y3+  Y47  1  0.25026184  0.75135218  0.76065257  1
  Y3+  Y48  1  0.49993679  -0.00394590  0.24929495  1
  Y3+  Y49  1  0.50079085  -0.00284833  0.76330581  1
  Y3+  Y50  1  0.49912983  0.25292220  0.25790879  1
  Y3+  Y51  1  0.50069747  0.24831263  0.75643176  1
  Y3+  Y52  1  0.49729400  0.50214880  0.25921857  1
  Y3+  Y53  1  0.50000897  0.50268458  0.75697530  1
  Y3+  Y54  1  0.49790907  0.74902339  0.25452263  1
  Y3+  Y55  1  0.49996012  0.75094554  0.76178993  1
  Y3+  Y56  1  0.75099603  -0.00115987  0.25716642  1
  Y3+  Y57  1  0.74949119  0.00133327  0.75889849  1
  Y3+  Y58  1  0.75239402  0.25098309  0.26255112  1
  Y3+  Y59  1  0.75282881  0.24854452  0.75322683  1
  Y3+  Y60  1  0.75074131  0.49974342  0.26067500  1
  Y3+  Y61  1  0.75142149  0.50051304  0.75749487  1
  Y3+  Y62  1  0.74884230  0.75079872  0.25696643  1
  Y3+  Y63  1  0.74783601  0.74924891  0.76096719  1
  Fe3+  Fe64  1  0.87645516  0.37402831  0.87368809  1
  Fe3+  Fe65  1  0.62501536  0.37498474  0.87542603  1
  Fe3+  Fe66  1  0.62236788  0.87586402  0.37616481  1
  Fe3+  Fe67  1  0.12742815  0.87479416  0.37731156  1
  Fe3+  Fe68  1  0.37543080  0.12145888  0.37368910  1
  Fe3+  Fe69  1  0.37467691  0.87577547  0.37408339  1
  Fe3+  Fe70  1  0.87578620  0.87569688  0.87481657  1
  Fe3+  Fe71  1  0.62638075  0.12708013  0.88065151  1
  Fe3+  Fe72  1  0.12367757  0.12713594  0.87563026  1
  Fe3+  Fe73  1  0.12612243  0.62695781  0.37546876  1
  Fe3+  Fe74  1  0.12498081  0.37456204  0.87388502  1
  Fe3+  Fe75  1  0.37380191  0.37491158  0.87570461  1
  Fe3+  Fe76  1  0.37405175  0.12680511  0.88037854  1
  Fe3+  Fe77  1  0.12678487  0.12313375  0.37960932  1
  Fe3+  Fe78  1  0.62379364  0.37489223  0.38028980  1
  Fe3+  Fe79  1  0.37437622  0.62311397  0.87879581  1
  Fe3+  Fe80  1  0.62290080  0.12248183  0.37490378  1
  Fe3+  Fe81  1  0.87480237  0.87487199  0.38071050  1
  Fe3+  Fe82  1  0.12613241  0.37558137  0.37774848  1
  Fe3+  Fe83  1  0.12471063  0.62339969  0.88055816  1
  Fe3+  Fe84  1  0.12481795  0.62451145  0.13425184  1
  Fe3+  Fe85  1  0.87466268  0.62523896  0.13886190  1
  Fe3+  Fe86  1  0.37444676  0.12495404  0.13206549  1
  Fe3+  Fe87  1  0.62557704  0.62470979  0.13983910  1
  Fe3+  Fe88  1  0.62532984  0.37575855  0.63287116  1
  Fe3+  Fe89  1  0.62571885  0.12586561  0.13343521  1
  Fe3+  Fe90  1  0.62454417  0.62498980  0.63843291  1
  Fe3+  Fe91  1  0.12596653  0.12479192  0.63361419  1
  Fe3+  Fe92  1  0.87405239  0.87375262  0.63555449  1
  Fe3+  Fe93  1  0.37676506  0.37620941  0.63548875  1
  Fe3+  Fe94  1  0.87428434  0.62637079  0.63876205  1
  Fe3+  Fe95  1  0.87492121  0.12470048  0.13955642  1
  Cu2+  Cu96  1  0.87630615  0.62705103  0.36415320  1
  Cu2+  Cu97  1  0.12371339  0.87498535  0.87210741  1
  Cu2+  Cu98  1  0.62403982  0.62614091  0.36329099  1
  Cu2+  Cu99  1  0.37493466  0.37462831  0.36581867  1
  Cu2+  Cu100  1  0.87457443  0.12255006  0.37418950  1
  Cu2+  Cu101  1  0.62617382  0.87477586  0.87316715  1
  Cu2+  Cu102  1  0.87606409  0.62387657  0.86514258  1
  Cu2+  Cu103  1  0.62475889  0.62336755  0.86545079  1
  Cu2+  Cu104  1  0.87579200  0.12637273  0.86267084  1
  Cu2+  Cu105  1  0.37476004  0.87445089  0.87283426  1
  Cu2+  Cu106  1  0.87534440  0.37512913  0.37416947  1
  Cu2+  Cu107  1  0.37313988  0.62823660  0.37092483  1
  Cu2+  Cu108  1  0.12448665  0.87527413  0.65217384  1
  Cu2+  Cu109  1  0.87462472  0.87438413  0.15308317  1
  Cu2+  Cu110  1  0.62571815  0.87382933  0.65565331  1
  Cu2+  Cu111  1  0.12377039  0.37633086  0.15707016  1
  Cu2+  Cu112  1  0.37472057  0.12429768  0.65670772  1
  Cu2+  Cu113  1  0.87351469  0.37656315  0.64043389  1
  Cu2+  Cu114  1  0.37491169  0.37479474  0.15516395  1
  Cu2+  Cu115  1  0.12351172  0.87398691  0.14024435  1
  Cu2+  Cu116  1  0.37488178  0.62492265  0.14625831  1
  Cu2+  Cu117  1  0.12411729  0.12549155  0.15283578  1
  Cu2+  Cu118  1  0.37607425  0.62539155  0.64516358  1
  Cu2+  Cu119  1  0.37570033  0.87428793  0.65995132  1
  Cu2+  Cu120  1  0.62637119  0.87389119  0.13991518  1
  Cu2+  Cu121  1  0.62599525  0.37544439  0.15660418  1
  Cu2+  Cu122  1  0.62448319  0.12473632  0.65496555  1
  Cu2+  Cu123  1  0.37544611  0.87452196  0.13897976  1
  Cu2+  Cu124  1  0.87515365  0.12354538  0.64170738  1
  Cu2+  Cu125  1  0.87470759  0.37543503  0.15818199  1
  Cu2+  Cu126  1  0.12553989  0.37521219  0.64382891  1
  Cu2+  Cu127  1  0.12496332  0.62566253  0.65299135  1
  O2-  O128  1  0.12308412  0.12946759  -0.00444962  1
  O2-  O129  1  0.12840864  0.12266195  0.50534866  1
  O2-  O130  1  0.12392239  0.37397874  -0.00651506  1
  O2-  O131  1  0.12723837  0.37599700  0.49760211  1
  O2-  O132  1  0.12434832  0.62193163  0.00666024  1
  O2-  O133  1  0.12718426  0.62764196  0.49562212  1
  O2-  O134  1  0.12197966  0.87482021  0.00606880  1
  O2-  O135  1  0.12956668  0.87409687  0.49660633  1
  O2-  O136  1  0.37282875  0.12894089  0.00552673  1
  O2-  O137  1  0.37675219  0.11982363  0.49323023  1
  O2-  O138  1  0.37324881  0.37419172  -0.00441984  1
  O2-  O139  1  0.37778059  0.37491914  0.51530972  1
  O2-  O140  1  0.37394753  0.62051931  -0.00120855  1
  O2-  O141  1  0.37454193  0.62773848  0.50657379  1
  O2-  O142  1  0.37493138  0.87519473  0.00530945  1
  O2-  O143  1  0.37562178  0.87687858  0.49384158  1
  O2-  O144  1  0.62755344  0.12958519  0.00667669  1
  O2-  O145  1  0.62017333  0.12057362  0.49463192  1
  O2-  O146  1  0.62564824  0.37472469  -0.00471141  1
  O2-  O147  1  0.62341579  0.37479626  0.50690408  1
  O2-  O148  1  0.62699375  0.62187200  0.01964191  1
  O2-  O149  1  0.62402848  0.62613631  0.51865036  1
  O2-  O150  1  0.62778361  0.87384054  0.00633911  1
  O2-  O151  1  0.62139930  0.87782491  0.49567269  1
  O2-  O152  1  0.87589591  0.12742594  0.01968563  1
  O2-  O153  1  0.87447759  0.12202544  0.50723313  1
  O2-  O154  1  0.87712875  0.37336500  -0.00601674  1
  O2-  O155  1  0.87383908  0.37647592  0.50690766  1
  O2-  O156  1  0.87442003  0.62305959  0.01899837  1
  O2-  O157  1  0.87465922  0.62825323  0.51877814  1
  O2-  O158  1  0.87627391  0.87650976  -0.00452490  1
  O2-  O159  1  0.87370001  0.87376545  0.50764908  1
  O2-  O160  1  0.12325542  0.00092793  0.16268875  1
  O2-  O161  1  0.12582321  0.00115918  0.66383875  1
  O2-  O162  1  0.12447053  0.25152838  0.16780373  1
  O2-  O163  1  0.12628261  0.24817387  0.65766669  1
  O2-  O164  1  0.12409032  0.50155523  0.16335990  1
  O2-  O165  1  0.12498019  0.50059035  0.66310636  1
  O2-  O166  1  0.12408654  0.74626074  0.16087986  1
  O2-  O167  1  0.12523756  0.75102936  0.66803568  1
  O2-  O168  1  0.37490986  0.00348590  0.15715634  1
  O2-  O169  1  0.37503520  -0.00075185  0.66934771  1
  O2-  O170  1  0.37457587  0.24831490  0.16469929  1
  O2-  O171  1  0.37600198  0.25036364  0.66288007  1
  O2-  O172  1  0.37519866  0.49901843  0.16646658  1
  O2-  O173  1  0.37560279  0.49915097  0.66470466  1
  O2-  O174  1  0.37498349  0.74895157  0.16208996  1
  O2-  O175  1  0.37513420  0.75094812  0.66803329  1
  O2-  O176  1  0.62555817  0.00341352  0.15756328  1
  O2-  O177  1  0.62500032  -0.00071002  0.66859408  1
  O2-  O178  1  0.62521557  0.24907795  0.16544497  1
  O2-  O179  1  0.62376951  0.25093554  0.66012791  1
  O2-  O180  1  0.62492994  0.49995144  0.17073251  1
  O2-  O181  1  0.62481010  0.49922738  0.66537473  1
  O2-  O182  1  0.62569535  0.74782457  0.16722053  1
  O2-  O183  1  0.62508555  0.74952801  0.66923666  1
  O2-  O184  1  0.87524021  0.00014604  0.16579233  1
  O2-  O185  1  0.87468736  -0.00358596  0.66363363  1
  O2-  O186  1  0.87488107  0.25046562  0.16943276  1
  O2-  O187  1  0.87430867  0.24956014  0.65995968  1
  O2-  O188  1  0.87504515  0.49990660  0.16798202  1
  O2-  O189  1  0.87495232  0.50281090  0.66650868  1
  O2-  O190  1  0.87500963  0.74947747  0.16684040  1
  O2-  O191  1  0.87532672  0.75117893  0.66884298  1
  O2-  O192  1  -0.00063102  0.12589986  0.17025838  1
  O2-  O193  1  0.00348720  0.12444055  0.66006094  1
  O2-  O194  1  -0.00055082  0.37494585  0.16659935  1
  O2-  O195  1  0.00085302  0.37546460  0.65997621  1
  O2-  O196  1  0.00053168  0.62430799  0.16523163  1
  O2-  O197  1  -0.00014110  0.62621468  0.66576184  1
  O2-  O198  1  -0.00177878  0.87481164  0.16859458  1
  O2-  O199  1  -0.00178080  0.87448788  0.65984856  1
  O2-  O200  1  0.25030940  0.12598755  0.16067535  1
  O2-  O201  1  0.24906974  0.12462184  0.66317455  1
  O2-  O202  1  0.24917221  0.37504505  0.16362675  1
  O2-  O203  1  0.25152557  0.37503614  0.66246969  1
  O2-  O204  1  0.24866694  0.62368135  0.16004273  1
  O2-  O205  1  0.24883130  0.62550515  0.66519686  1
  O2-  O206  1  0.24979275  0.87516217  0.15974185  1
  O2-  O207  1  0.25033868  0.87512386  0.66690969  1
  O2-  O208  1  0.50014386  0.12664135  0.15518003  1
  O2-  O209  1  0.49956207  0.12400835  0.66976461  1
  O2-  O210  1  0.50023550  0.37443687  0.16402775  1
  O2-  O211  1  0.50175718  0.37406337  0.66661008  1
  O2-  O212  1  0.49998329  0.62357432  0.16494010  1
  O2-  O213  1  0.50187517  0.62571111  0.66950025  1
  O2-  O214  1  0.50017707  0.87484864  0.15979393  1
  O2-  O215  1  0.50068894  0.87526440  0.66883402  1
  O2-  O216  1  0.74922655  0.12604080  0.16672689  1
  O2-  O217  1  0.74843109  0.12415342  0.66649117  1
  O2-  O218  1  0.75038957  0.37475702  0.16869150  1
  O2-  O219  1  0.74632513  0.37476952  0.66452312  1
  O2-  O220  1  0.75057343  0.62396960  0.17179935  1
  O2-  O221  1  0.74950956  0.62561459  0.67042993  1
  O2-  O222  1  0.75140785  0.87548833  0.16895179  1
  O2-  O223  1  0.75130901  0.87478136  0.66327479  1
  O2-  O224  1  0.12575475  0.00004312  0.34492689  1
  O2-  O225  1  0.12431715  0.00253890  0.84707908  1
  O2-  O226  1  0.12637908  0.24819623  0.35145322  1
  O2-  O227  1  0.12481613  0.25070850  0.83825811  1
  O2-  O228  1  0.12548502  0.50059643  0.34625163  1
  O2-  O229  1  0.12502836  0.50027938  0.84563261  1
  O2-  O230  1  0.12464234  0.75161371  0.34164301  1
  O2-  O231  1  0.12432738  0.74655652  0.85258033  1
  O2-  O232  1  0.37463694  -0.00098181  0.33564227  1
  O2-  O233  1  0.37526097  0.00428301  0.85280729  1
  O2-  O234  1  0.37542839  0.24805403  0.34793038  1
  O2-  O235  1  0.37491350  0.24933420  0.84374522  1
  O2-  O236  1  0.37423887  0.49997075  0.35111112  1
  O2-  O237  1  0.37455826  0.49929911  0.84345421  1
  O2-  O238  1  0.37458055  0.75318881  0.34315130  1
  O2-  O239  1  0.37453412  0.74664213  0.85027410  1
  O2-  O240  1  0.62431399  -0.00117656  0.33763248  1
  O2-  O241  1  0.62543234  0.00437125  0.85295429  1
  O2-  O242  1  0.62334322  0.25056581  0.34949182  1
  O2-  O243  1  0.62535556  0.24944821  0.84337930  1
  O2-  O244  1  0.62449277  0.49967593  0.35460309  1
  O2-  O245  1  0.62549527  0.49832499  0.84573569  1
  O2-  O246  1  0.62490340  0.75084893  0.34841633  1
  O2-  O247  1  0.62578984  0.74744607  0.85236271  1
  O2-  O248  1  0.87500750  -0.00429709  0.34819693  1
  O2-  O249  1  0.87524771  0.00108673  0.84669518  1
  O2-  O250  1  0.87479140  0.24891891  0.35194988  1
  O2-  O251  1  0.87534337  0.25092818  0.84180720  1
  O2-  O252  1  0.87524836  0.50244878  0.35103817  1
  O2-  O253  1  0.87527227  0.49886691  0.84754613  1
  O2-  O254  1  0.87532897  0.75299570  0.34972524  1
  O2-  O255  1  0.87539639  0.74920811  0.85085800  1
  O2-  O256  1  0.00389542  0.12365081  0.35325747  1
  O2-  O257  1  0.00024317  0.12592254  0.84247673  1
  O2-  O258  1  0.00248392  0.37486547  0.34921129  1
  O2-  O259  1  0.00054746  0.37517040  0.84074196  1
  O2-  O260  1  0.00141673  0.62618422  0.34659329  1
  O2-  O261  1  0.00222637  0.62366427  0.84908576  1
  O2-  O262  1  0.00011031  0.87546181  0.35195672  1
  O2-  O263  1  -0.00208125  0.87526675  0.84265231  1
  O2-  O264  1  0.24940205  0.12463817  0.34400488  1
  O2-  O265  1  0.25060192  0.12621270  0.84658677  1
  O2-  O266  1  0.24962686  0.37419377  0.34659882  1
  O2-  O267  1  0.24977731  0.37441068  0.84207349  1
  O2-  O268  1  0.24780989  0.62602306  0.34170779  1
  O2-  O269  1  0.24831459  0.62383171  0.84806721  1
  O2-  O270  1  0.24999992  0.87572263  0.34001757  1
  O2-  O271  1  0.24965889  0.87514246  0.85055951  1
  O2-  O272  1  0.49974320  0.12460601  0.33665726  1
  O2-  O273  1  0.50028539  0.12704026  0.85464477  1
  O2-  O274  1  0.50150409  0.37551275  0.34892194  1
  O2-  O275  1  0.49947459  0.37420560  0.84635397  1
  O2-  O276  1  0.49995797  0.62553802  0.34770462  1
  O2-  O277  1  0.49948743  0.62323926  0.85066797  1
  O2-  O278  1  0.49947032  0.87522311  0.34010631  1
  O2-  O279  1  0.50043704  0.87484057  0.85208107  1
  O2-  O280  1  0.74682847  0.12439515  0.34770948  1
  O2-  O281  1  0.74941348  0.12640161  0.85063044  1
  O2-  O282  1  0.74653190  0.37506509  0.35245491  1
  O2-  O283  1  0.75053446  0.37454507  0.84570480  1
  O2-  O284  1  0.75052464  0.62603087  0.35360487  1
  O2-  O285  1  0.75002563  0.62373542  0.85218629  1
  O2-  O286  1  0.74996548  0.87459578  0.35154539  1
  O2-  O287  1  0.75232982  0.87529799  0.84586553  1
