# generated using pymatgen
data_BaYFeCuO5
_symmetry_space_group_name_H-M   'P 1'
_cell_length_a   15.66188776
_cell_length_b   15.66038206
_cell_length_c   15.45683866
_cell_angle_alpha   90.00131538
_cell_angle_beta   89.99604375
_cell_angle_gamma   90.00052480
_symmetry_Int_Tables_number   1
_chemical_formula_structural   BaYFeCuO5
_chemical_formula_sum   'Ba32 Y32 Fe32 Cu32 O160'
_cell_volume   3791.11652283
_cell_formula_units_Z   32
loop_
 _symmetry_equiv_pos_site_id
 _symmetry_equiv_pos_as_xyz
  1  'x, y, z'
loop_
 _atom_type_symbol
 _atom_type_oxidation_number
  Ba2+  2.0
  Y3+  3.0
  Fe3+  3.0
  Cu2+  2.0
  O2-  -2.0
loop_
 _atom_site_type_symbol
 _atom_site_label
 _atom_site_symmetry_multiplicity
 _atom_site_fract_x
 _atom_site_fract_y
 _atom_site_fract_z
 _atom_site_occupancy
  Ba2+  Ba0  1  0.00232636  0.00756976  0.01554948  1
  Ba2+  Ba1  1  0.00185195  -0.00355265  0.51760635  1
  Ba2+  Ba2  1  0.00016185  0.25011792  0.01548081  1
  Ba2+  Ba3  1  0.00754790  0.24667763  0.51792906  1
  Ba2+  Ba4  1  -0.00324561  0.49472319  0.01206824  1
  Ba2+  Ba5  1  0.01090958  0.49874942  0.51305884  1
  Ba2+  Ba6  1  -0.00201203  0.74705470  0.01046884  1
  Ba2+  Ba7  1  0.00410283  0.75931797  0.51070527  1
  Ba2+  Ba8  1  0.25280947  -0.00039918  0.02114120  1
  Ba2+  Ba9  1  0.24103843  -0.00521329  0.50634506  1
  Ba2+  Ba10  1  0.24723316  0.25108375  0.01300842  1
  Ba2+  Ba11  1  0.24423295  0.25731206  0.51101406  1
  Ba2+  Ba12  1  0.25425932  0.49567159  0.00078881  1
  Ba2+  Ba13  1  0.24587239  0.49238446  0.51138081  1
  Ba2+  Ba14  1  0.25982598  0.75349922  0.01034634  1
  Ba2+  Ba15  1  0.24190926  0.75542068  0.50676054  1
  Ba2+  Ba16  1  0.49804297  -0.00134412  0.02222311  1
  Ba2+  Ba17  1  0.49478798  -0.00434755  0.50251141  1
  Ba2+  Ba18  1  0.49981757  0.24991870  0.00616958  1
  Ba2+  Ba19  1  0.49197102  0.25616830  0.50716964  1
  Ba2+  Ba20  1  0.49804281  0.50190793  0.00027408  1
  Ba2+  Ba21  1  0.49498594  0.49794032  0.51167596  1
  Ba2+  Ba22  1  0.49621605  0.74997907  0.01696478  1
  Ba2+  Ba23  1  0.49968295  0.74826786  0.50758952  1
  Ba2+  Ba24  1  0.74717578  0.00672938  0.01715672  1
  Ba2+  Ba25  1  0.76227910  -0.00286018  0.51079845  1
  Ba2+  Ba26  1  0.75279921  0.24803785  0.01163942  1
  Ba2+  Ba27  1  0.75622089  0.24537170  0.51138349  1
  Ba2+  Ba28  1  0.75135673  0.50169686  0.01184287  1
  Ba2+  Ba29  1  0.74678278  0.50517266  0.51220870  1
  Ba2+  Ba30  1  0.74621034  0.74420781  0.01724993  1
  Ba2+  Ba31  1  0.75473589  0.75356936  0.51098646  1
  Y3+  Y32  1  0.00128709  -0.00151560  0.25650840  1
  Y3+  Y33  1  -0.00059501  0.00070018  0.75623858  1
  Y3+  Y34  1  0.00210025  0.25114554  0.25327182  1
  Y3+  Y35  1  0.00193563  0.24856339  0.75970410  1
  Y3+  Y36  1  0.00146978  0.49846749  0.25425584  1
  Y3+  Y37  1  0.00334663  0.50004774  0.76084108  1
  Y3+  Y38  1  0.00042032  0.75185936  0.25639443  1
  Y3+  Y39  1  0.00058030  0.75063261  0.75694276  1
  Y3+  Y40  1  0.24920182  -0.00287911  0.25694694  1
  Y3+  Y41  1  0.24823122  -0.00163163  0.75671731  1
  Y3+  Y42  1  0.24794649  0.25219260  0.25844500  1
  Y3+  Y43  1  0.24818381  0.25360477  0.75675468  1
  Y3+  Y44  1  0.24934255  0.49776131  0.25781853  1
  Y3+  Y45  1  0.24976064  0.49782297  0.75832203  1
  Y3+  Y46  1  0.25068103  0.75272364  0.25525291  1
  Y3+  Y47  1  0.25014887  0.74968000  0.76011778  1
  Y3+  Y48  1  0.49828840  -0.00153354  0.25648737  1
  Y3+  Y49  1  0.49820183  -0.00163856  0.75711214  1
  Y3+  Y50  1  0.49791616  0.24991001  0.25926744  1
  Y3+  Y51  1  0.49803314  0.25293833  0.75618698  1
  Y3+  Y52  1  0.49741221  0.50139009  0.25802826  1
  Y3+  Y53  1  0.49745213  0.49947724  0.75752494  1
  Y3+  Y54  1  0.49778619  0.75026309  0.25468662  1
  Y3+  Y55  1  0.49752208  0.74873355  0.76007109  1
  Y3+  Y56  1  0.75131947  -0.00001185  0.25650499  1
  Y3+  Y57  1  0.75429931  0.00017296  0.75667961  1
  Y3+  Y58  1  0.75236393  0.24878586  0.25527835  1
  Y3+  Y59  1  0.75190534  0.24786531  0.75861048  1
  Y3+  Y60  1  0.75202101  0.50185375  0.25559590  1
  Y3+  Y61  1  0.74973391  0.50210512  0.75865474  1
  Y3+  Y62  1  0.75107663  0.74977951  0.25656325  1
  Y3+  Y63  1  0.75192860  0.74955821  0.75696518  1
  Fe3+  Fe64  1  0.62505057  0.62507866  0.37773461  1
  Fe3+  Fe65  1  0.12470949  0.62527731  0.37588926  1
  Fe3+  Fe66  1  0.37291908  0.62539202  0.37983469  1
  Fe3+  Fe67  1  0.12540425  0.62491590  0.88002798  1
  Fe3+  Fe68  1  0.87459172  0.37464834  0.87524077  1
  Fe3+  Fe69  1  0.62479855  0.87564280  0.87730679  1
  Fe3+  Fe70  1  0.87734669  0.12483503  0.37581523  1
  Fe3+  Fe71  1  0.62428516  0.12448211  0.87434067  1
  Fe3+  Fe72  1  0.37426032  0.12433841  0.87569897  1
  Fe3+  Fe73  1  0.12412023  0.12480917  0.37539556  1
  Fe3+  Fe74  1  0.62482989  0.62550820  0.87519718  1
  Fe3+  Fe75  1  0.62536136  0.12503416  0.38012174  1
  Fe3+  Fe76  1  0.62571541  0.87489474  0.37844256  1
  Fe3+  Fe77  1  0.87685695  0.62536523  0.37939573  1
  Fe3+  Fe78  1  0.12538175  0.87587229  0.87966709  1
  Fe3+  Fe79  1  0.87456395  0.87540813  0.88040068  1
  Fe3+  Fe80  1  0.87661661  0.37517051  0.38026423  1
  Fe3+  Fe81  1  0.62593036  0.37512714  0.38074308  1
  Fe3+  Fe82  1  0.12580268  0.12487293  0.87645251  1
  Fe3+  Fe83  1  0.37277941  0.12475331  0.37922242  1
  Fe3+  Fe84  1  0.37290675  0.62510347  0.63559946  1
  Fe3+  Fe85  1  0.87621310  0.37521753  0.63482772  1
  Fe3+  Fe86  1  0.37545959  0.37519812  0.13948513  1
  Fe3+  Fe87  1  0.12684719  0.62482287  0.13457905  1
  Fe3+  Fe88  1  0.62413417  0.12407933  0.63232349  1
  Fe3+  Fe89  1  0.87688327  0.62504104  0.63515355  1
  Fe3+  Fe90  1  0.62435846  0.37543033  0.13908376  1
  Fe3+  Fe91  1  0.37287171  0.12497731  0.63334199  1
  Fe3+  Fe92  1  0.62568576  0.37499340  0.63548442  1
  Fe3+  Fe93  1  0.87483027  0.87530349  0.13522311  1
  Fe3+  Fe94  1  0.62501209  0.87454455  0.63409835  1
  Fe3+  Fe95  1  0.37395998  0.87425818  0.63667243  1
  Cu2+  Cu96  1  0.12352523  0.37491081  0.37050369  1
  Cu2+  Cu97  1  0.12394069  0.87499069  0.36858737  1
  Cu2+  Cu98  1  0.87578659  0.87522987  0.37067433  1
  Cu2+  Cu99  1  0.37475365  0.62536270  0.87309341  1
  Cu2+  Cu100  1  0.37547885  0.87632063  0.87258868  1
  Cu2+  Cu101  1  0.87516626  0.62532800  0.87303910  1
  Cu2+  Cu102  1  0.37502839  0.37373460  0.86280576  1
  Cu2+  Cu103  1  0.87561114  0.12445043  0.87321053  1
  Cu2+  Cu104  1  0.12463311  0.37406050  0.87427790  1
  Cu2+  Cu105  1  0.62547320  0.37457518  0.86169833  1
  Cu2+  Cu106  1  0.37391311  0.37561128  0.37371947  1
  Cu2+  Cu107  1  0.37480114  0.87422565  0.36599296  1
  Cu2+  Cu108  1  0.62392584  0.12612602  0.15596331  1
  Cu2+  Cu109  1  0.87458810  0.37505248  0.15231508  1
  Cu2+  Cu110  1  0.12589189  0.37573738  0.14013370  1
  Cu2+  Cu111  1  0.37395123  0.37519936  0.64257150  1
  Cu2+  Cu112  1  0.12598500  0.12449465  0.65077334  1
  Cu2+  Cu113  1  0.62433959  0.62552535  0.64823598  1
  Cu2+  Cu114  1  0.37507202  0.87530351  0.14438372  1
  Cu2+  Cu115  1  0.87549175  0.12511369  0.14160171  1
  Cu2+  Cu116  1  0.12476271  0.87441649  0.14505076  1
  Cu2+  Cu117  1  0.87593825  0.62498882  0.14148764  1
  Cu2+  Cu118  1  0.12565829  0.62545967  0.65155833  1
  Cu2+  Cu119  1  0.62540842  0.87491015  0.15225867  1
  Cu2+  Cu120  1  0.87587799  0.12555050  0.65096504  1
  Cu2+  Cu121  1  0.37450541  0.12637239  0.15460147  1
  Cu2+  Cu122  1  0.12404115  0.37531803  0.64671680  1
  Cu2+  Cu123  1  0.87592435  0.87455208  0.64335584  1
  Cu2+  Cu124  1  0.12609751  0.12504709  0.15173954  1
  Cu2+  Cu125  1  0.62395955  0.62400393  0.15276617  1
  Cu2+  Cu126  1  0.37407077  0.62334574  0.14283595  1
  Cu2+  Cu127  1  0.12545294  0.87455544  0.64715771  1
  O2-  O128  1  0.12744097  0.12469621  -0.00303642  1
  O2-  O129  1  0.12403317  0.12401026  0.49598246  1
  O2-  O130  1  0.12535047  0.37445975  0.00744552  1
  O2-  O131  1  0.12275670  0.37460987  0.50699384  1
  O2-  O132  1  0.12637008  0.62475333  0.00696843  1
  O2-  O133  1  0.12446997  0.62587523  0.49650720  1
  O2-  O134  1  0.12529358  0.87665942  -0.00030454  1
  O2-  O135  1  0.12416706  0.87545706  0.50607502  1
  O2-  O136  1  0.37645275  0.12444663  -0.00392087  1
  O2-  O137  1  0.37285718  0.12456058  0.50624335  1
  O2-  O138  1  0.37795550  0.37383407  0.01861318  1
  O2-  O139  1  0.37431675  0.37593154  0.50834047  1
  O2-  O140  1  0.37609595  0.62383885  0.00710806  1
  O2-  O141  1  0.37256115  0.62588247  0.50743845  1
  O2-  O142  1  0.37709278  0.87712365  0.00824259  1
  O2-  O143  1  0.37484449  0.87292087  0.51611709  1
  O2-  O144  1  0.62301981  0.12466476  -0.00531627  1
  O2-  O145  1  0.62561963  0.12456530  0.50593992  1
  O2-  O146  1  0.62425567  0.37447932  0.01901849  1
  O2-  O147  1  0.62608603  0.37514137  0.50739972  1
  O2-  O148  1  0.62447753  0.62512837  -0.00399730  1
  O2-  O149  1  0.62569105  0.62543325  0.49754366  1
  O2-  O150  1  0.62506110  0.87657753  -0.00257882  1
  O2-  O151  1  0.62544185  0.87473891  0.50601940  1
  O2-  O152  1  0.87391845  0.12523049  0.00730612  1
  O2-  O153  1  0.87761733  0.12508263  0.49636468  1
  O2-  O154  1  0.87200480  0.37465725  -0.00354308  1
  O2-  O155  1  0.87680926  0.37501929  0.50676746  1
  O2-  O156  1  0.87376371  0.62480008  0.00691463  1
  O2-  O157  1  0.87695340  0.62541435  0.50666581  1
  O2-  O158  1  0.87284521  0.87547117  0.00706192  1
  O2-  O159  1  0.87574423  0.87440323  0.50720965  1
  O2-  O160  1  0.12546507  0.00056047  0.16363320  1
  O2-  O161  1  0.12514658  0.00050579  0.66399811  1
  O2-  O162  1  0.12550953  0.24873631  0.16399591  1
  O2-  O163  1  0.12459117  0.24881879  0.66450906  1
  O2-  O164  1  0.12476734  0.50231893  0.16479876  1
  O2-  O165  1  0.12487827  0.50115197  0.66773440  1
  O2-  O166  1  0.12508031  0.74854597  0.16263156  1
  O2-  O167  1  0.12501684  0.74931306  0.66769950  1
  O2-  O168  1  0.37557911  0.00200720  0.16739459  1
  O2-  O169  1  0.37579125  0.00061451  0.66156334  1
  O2-  O170  1  0.37570699  0.25080756  0.16893670  1
  O2-  O171  1  0.37516772  0.24717213  0.66219736  1
  O2-  O172  1  0.37536159  0.49784619  0.17001837  1
  O2-  O173  1  0.37473709  0.50257730  0.66434287  1
  O2-  O174  1  0.37526304  0.74984345  0.16555058  1
  O2-  O175  1  0.37495393  0.74902366  0.66638473  1
  O2-  O176  1  0.62442270  0.00128015  0.16703586  1
  O2-  O177  1  0.62396113  -0.00010836  0.65823872  1
  O2-  O178  1  0.62490328  0.25103692  0.17063048  1
  O2-  O179  1  0.62551620  0.24927011  0.65974321  1
  O2-  O180  1  0.62524184  0.49941634  0.16935568  1
  O2-  O181  1  0.62583850  0.49857870  0.66207392  1
  O2-  O182  1  0.62509761  0.74877222  0.16519977  1
  O2-  O183  1  0.62466386  0.75189371  0.66078538  1
  O2-  O184  1  0.87439460  -0.00254787  0.16314025  1
  O2-  O185  1  0.87531905  0.00170275  0.66476875  1
  O2-  O186  1  0.87445303  0.25094626  0.16586069  1
  O2-  O187  1  0.87433593  0.25144239  0.66124331  1
  O2-  O188  1  0.87508629  0.49902565  0.16817960  1
  O2-  O189  1  0.87388165  0.50019425  0.66028642  1
  O2-  O190  1  0.87412103  0.75319148  0.16486984  1
  O2-  O191  1  0.87556090  0.74681371  0.66503091  1
  O2-  O192  1  0.00282696  0.12523023  0.16141660  1
  O2-  O193  1  0.00091596  0.12495154  0.66468687  1
  O2-  O194  1  -0.00155013  0.37504836  0.16249840  1
  O2-  O195  1  -0.00297296  0.37578938  0.66471136  1
  O2-  O196  1  0.00336163  0.62551015  0.16204329  1
  O2-  O197  1  -0.00091255  0.62413429  0.66469612  1
  O2-  O198  1  -0.00162820  0.87472499  0.16085491  1
  O2-  O199  1  0.00074119  0.87469312  0.66744470  1
  O2-  O200  1  0.24945154  0.12529986  0.16558774  1
  O2-  O201  1  0.25148587  0.12436885  0.66117920  1
  O2-  O202  1  0.25196093  0.37458008  0.16773909  1
  O2-  O203  1  0.24861840  0.37543696  0.66588306  1
  O2-  O204  1  0.24757297  0.62501001  0.16585601  1
  O2-  O205  1  0.25114139  0.62529529  0.66477803  1
  O2-  O206  1  0.24899537  0.87526061  0.16527219  1
  O2-  O207  1  0.25171315  0.87454021  0.66655839  1
  O2-  O208  1  0.49962567  0.12550536  0.17033690  1
  O2-  O209  1  0.49967377  0.12498910  0.65758287  1
  O2-  O210  1  0.50015533  0.37463976  0.17389452  1
  O2-  O211  1  0.50323384  0.37496495  0.66241080  1
  O2-  O212  1  0.50038994  0.62472966  0.16893966  1
  O2-  O213  1  0.49756575  0.62505238  0.66029115  1
  O2-  O214  1  0.50160606  0.87518931  0.16834295  1
  O2-  O215  1  0.50042537  0.87492014  0.66242190  1
  O2-  O216  1  0.74843408  0.12520807  0.16727877  1
  O2-  O217  1  0.74773978  0.12432812  0.66114857  1
  O2-  O218  1  0.74945272  0.37523268  0.17002161  1
  O2-  O219  1  0.75052948  0.37477750  0.65833627  1
  O2-  O220  1  0.74893378  0.62465721  0.16632638  1
  O2-  O221  1  0.75189217  0.62550838  0.66045727  1
  O2-  O222  1  0.75088691  0.87528358  0.16510575  1
  O2-  O223  1  0.74728691  0.87530144  0.66279795  1
  O2-  O224  1  0.12496393  0.00135892  0.34602909  1
  O2-  O225  1  0.12490276  -0.00040920  0.84497031  1
  O2-  O226  1  0.12451000  0.24856323  0.34666037  1
  O2-  O227  1  0.12543518  0.24850543  0.84705295  1
  O2-  O228  1  0.12432086  0.50165796  0.34713526  1
  O2-  O229  1  0.12513152  0.50177927  0.85196821  1
  O2-  O230  1  0.12426878  0.74843997  0.34543373  1
  O2-  O231  1  0.12471024  0.74980944  0.85073905  1
  O2-  O232  1  0.37590271  0.00131351  0.35210580  1
  O2-  O233  1  0.37535914  0.00201065  0.84231360  1
  O2-  O234  1  0.37554237  0.24716442  0.35182861  1
  O2-  O235  1  0.37600398  0.24918215  0.84554451  1
  O2-  O236  1  0.37479356  0.50329469  0.35193353  1
  O2-  O237  1  0.37550214  0.49777294  0.84907309  1
  O2-  O238  1  0.37569554  0.74809204  0.34998924  1
  O2-  O239  1  0.37529765  0.75058120  0.84925257  1
  O2-  O240  1  0.62482049  0.00075784  0.35237766  1
  O2-  O241  1  0.62503677  -0.00023882  0.84005879  1
  O2-  O242  1  0.62530193  0.24972761  0.35407483  1
  O2-  O243  1  0.62457193  0.24935898  0.84354834  1
  O2-  O244  1  0.62646642  0.49931997  0.35117047  1
  O2-  O245  1  0.62497737  0.49991104  0.84658674  1
  O2-  O246  1  0.62510282  0.75031440  0.34926330  1
  O2-  O247  1  0.62532630  0.75097777  0.84330320  1
  O2-  O248  1  0.87396748  0.00212061  0.34541455  1
  O2-  O249  1  0.87467787  -0.00327129  0.84852666  1
  O2-  O250  1  0.87421000  0.25105937  0.34924350  1
  O2-  O251  1  0.87429302  0.25099380  0.84505757  1
  O2-  O252  1  0.87396786  0.50034215  0.35289745  1
  O2-  O253  1  0.87439005  0.49862089  0.84421949  1
  O2-  O254  1  0.87468279  0.74697452  0.34917927  1
  O2-  O255  1  0.87466067  0.75352255  0.84888576  1
  O2-  O256  1  -0.00009746  0.12532133  0.34229946  1
  O2-  O257  1  0.00209948  0.12443174  0.84800044  1
  O2-  O258  1  -0.00358217  0.37577275  0.34617992  1
  O2-  O259  1  -0.00166255  0.37504664  0.84703865  1
  O2-  O260  1  -0.00126866  0.62461316  0.34528515  1
  O2-  O261  1  0.00335668  0.62556220  0.84938539  1
  O2-  O262  1  -0.00047653  0.87457948  0.34415010  1
  O2-  O263  1  -0.00064183  0.87450404  0.85072075  1
  O2-  O264  1  0.25041029  0.12443514  0.34889779  1
  O2-  O265  1  0.25004555  0.12515902  0.84290019  1
  O2-  O266  1  0.24931304  0.37528741  0.35016397  1
  O2-  O267  1  0.25127188  0.37481161  0.84975477  1
  O2-  O268  1  0.25053821  0.62573611  0.34830550  1
  O2-  O269  1  0.24712130  0.62486679  0.84910579  1
  O2-  O270  1  0.25103517  0.87448818  0.34938237  1
  O2-  O271  1  0.24810503  0.87488146  0.84805384  1
  O2-  O272  1  0.50031887  0.12492148  0.35544397  1
  O2-  O273  1  0.49995343  0.12544461  0.83982406  1
  O2-  O274  1  0.50326103  0.37535311  0.35530894  1
  O2-  O275  1  0.49998013  0.37447925  0.84707001  1
  O2-  O276  1  0.49918664  0.62494725  0.35238817  1
  O2-  O277  1  0.50180342  0.62427820  0.84388955  1
  O2-  O278  1  0.50214783  0.87504475  0.35286024  1
  O2-  O279  1  0.50205913  0.87544962  0.84359449  1
  O2-  O280  1  0.74911492  0.12546396  0.35054003  1
  O2-  O281  1  0.74813043  0.12459183  0.84479274  1
  O2-  O282  1  0.75064410  0.37467990  0.35404129  1
  O2-  O283  1  0.75070817  0.37464724  0.84174249  1
  O2-  O284  1  0.75122604  0.62519470  0.35006814  1
  O2-  O285  1  0.74785942  0.62545675  0.84359683  1
  O2-  O286  1  0.74704471  0.87503916  0.34946607  1
  O2-  O287  1  0.75069159  0.87519612  0.84561665  1
