# generated using pymatgen
data_BaYFeCuO5
_symmetry_space_group_name_H-M   'P 1'
_cell_length_a   15.65994636
_cell_length_b   15.66003981
_cell_length_c   15.46099674
_cell_angle_alpha   89.99812145
_cell_angle_beta   89.99767915
_cell_angle_gamma   90.00116745
_symmetry_Int_Tables_number   1
_chemical_formula_structural   BaYFeCuO5
_chemical_formula_sum   'Ba32 Y32 Fe32 Cu32 O160'
_cell_volume   3791.58345973
_cell_formula_units_Z   32
loop_
 _symmetry_equiv_pos_site_id
 _symmetry_equiv_pos_as_xyz
  1  'x, y, z'
loop_
 _atom_type_symbol
 _atom_type_oxidation_number
  Ba2+  2.0
  Y3+  3.0
  Fe3+  3.0
  Cu2+  2.0
  O2-  -2.0
loop_
 _atom_site_type_symbol
 _atom_site_label
 _atom_site_symmetry_multiplicity
 _atom_site_fract_x
 _atom_site_fract_y
 _atom_site_fract_z
 _atom_site_occupancy
  Ba2+  Ba0  1  -0.00208173  -0.00296400  0.01181133  1
  Ba2+  Ba1  1  0.00911415  -0.00041563  0.49528659  1
  Ba2+  Ba2  1  0.00218554  0.25684379  0.01691253  1
  Ba2+  Ba3  1  -0.00014754  0.25876537  0.49557419  1
  Ba2+  Ba4  1  -0.00219772  0.50332282  0.01102124  1
  Ba2+  Ba5  1  -0.00326908  0.49859761  0.51341949  1
  Ba2+  Ba6  1  -0.00516064  0.74343899  0.00685750  1
  Ba2+  Ba7  1  0.00469236  0.74321619  0.51452141  1
  Ba2+  Ba8  1  0.25712884  0.00501845  0.01694004  1
  Ba2+  Ba9  1  0.24838180  -0.00833297  0.49676218  1
  Ba2+  Ba10  1  0.24846335  0.24370677  0.01737203  1
  Ba2+  Ba11  1  0.23998320  0.25062783  0.49576927  1
  Ba2+  Ba12  1  0.24269334  0.50554648  0.01567390  1
  Ba2+  Ba13  1  0.24739177  0.50812008  0.50704401  1
  Ba2+  Ba14  1  0.25165356  0.74442898  0.01704515  1
  Ba2+  Ba15  1  0.25438288  0.74931851  0.50640213  1
  Ba2+  Ba16  1  0.50032063  0.00002506  0.01748657  1
  Ba2+  Ba17  1  0.49576962  -0.00449688  0.51096385  1
  Ba2+  Ba18  1  0.50171103  0.24206093  0.01618167  1
  Ba2+  Ba19  1  0.51003888  0.25131417  0.51666228  1
  Ba2+  Ba20  1  0.50072078  0.49984993  0.01555898  1
  Ba2+  Ba21  1  0.50295036  0.50718797  0.51671821  1
  Ba2+  Ba22  1  0.49884922  0.75740249  0.01693505  1
  Ba2+  Ba23  1  0.49094947  0.74584614  0.50998423  1
  Ba2+  Ba24  1  0.74417922  -0.00805682  0.01069253  1
  Ba2+  Ba25  1  0.74600485  0.00494904  0.51254656  1
  Ba2+  Ba26  1  0.74715620  0.25579403  0.01627942  1
  Ba2+  Ba27  1  0.75033760  0.25912296  0.51668064  1
  Ba2+  Ba28  1  0.75894615  0.49787360  0.00897515  1
  Ba2+  Ba29  1  0.75235489  0.49819809  0.52286700  1
  Ba2+  Ba30  1  0.75581141  0.75541457  0.00601276  1
  Ba2+  Ba31  1  0.74986569  0.73917124  0.51893650  1
  Y3+  Y32  1  0.00110915  -0.00063954  0.25612610  1
  Y3+  Y33  1  -0.00074489  -0.00159093  0.76053794  1
  Y3+  Y34  1  0.00058718  0.25368881  0.25729152  1
  Y3+  Y35  1  -0.00219173  0.25301389  0.75863523  1
  Y3+  Y36  1  -0.00100086  0.49901106  0.25331760  1
  Y3+  Y37  1  -0.00245713  0.50171255  0.76217888  1
  Y3+  Y38  1  -0.00069811  0.74864246  0.25248187  1
  Y3+  Y39  1  -0.00035749  0.74660107  0.76346428  1
  Y3+  Y40  1  0.25073027  -0.00067391  0.25834709  1
  Y3+  Y41  1  0.25272081  -0.00034032  0.75762749  1
  Y3+  Y42  1  0.24740294  0.24948858  0.25602968  1
  Y3+  Y43  1  0.25121473  0.24873126  0.75953115  1
  Y3+  Y44  1  0.24846309  0.50261000  0.25631716  1
  Y3+  Y45  1  0.24903995  0.50331327  0.75740435  1
  Y3+  Y46  1  0.25233842  0.74924141  0.25925647  1
  Y3+  Y47  1  0.25044253  0.74764943  0.75552434  1
  Y3+  Y48  1  0.49901941  -0.00184179  0.25636263  1
  Y3+  Y49  1  0.49939768  -0.00062858  0.75758889  1
  Y3+  Y50  1  0.50079768  0.24932557  0.25465674  1
  Y3+  Y51  1  0.50035456  0.24816764  0.75698970  1
  Y3+  Y52  1  0.49880386  0.50189398  0.25675433  1
  Y3+  Y53  1  0.50032654  0.50164282  0.75475596  1
  Y3+  Y54  1  0.49732176  0.75117454  0.25832667  1
  Y3+  Y55  1  0.49856672  0.75061536  0.75439806  1
  Y3+  Y56  1  0.74892643  -0.00195155  0.25430917  1
  Y3+  Y57  1  0.74916636  -0.00195683  0.75981325  1
  Y3+  Y58  1  0.75120472  0.25322415  0.25601510  1
  Y3+  Y59  1  0.75091920  0.25231422  0.75630414  1
  Y3+  Y60  1  0.75329455  0.49827137  0.25221397  1
  Y3+  Y61  1  0.75364390  0.49953234  0.75953262  1
  Y3+  Y62  1  0.75110984  0.75062296  0.25138124  1
  Y3+  Y63  1  0.75130941  0.74966761  0.76252838  1
  Fe3+  Fe64  1  0.37506749  0.87511134  0.87722361  1
  Fe3+  Fe65  1  0.12658330  0.87412318  0.88167793  1
  Fe3+  Fe66  1  0.37485677  0.37449071  0.88022368  1
  Fe3+  Fe67  1  0.62555895  0.12542750  0.37653089  1
  Fe3+  Fe68  1  0.62586954  0.87340799  0.37986354  1
  Fe3+  Fe69  1  0.37550074  0.37595230  0.37933322  1
  Fe3+  Fe70  1  0.62565104  0.37698198  0.37484755  1
  Fe3+  Fe71  1  0.12568299  0.37537351  0.87894397  1
  Fe3+  Fe72  1  0.37560072  0.12607092  0.37898574  1
  Fe3+  Fe73  1  0.37573691  0.62491012  0.87780058  1
  Fe3+  Fe74  1  0.62397840  0.37523896  0.87646678  1
  Fe3+  Fe75  1  0.12509222  0.12471771  0.87949938  1
  Fe3+  Fe76  1  0.87405241  0.62405809  0.37492914  1
  Fe3+  Fe77  1  0.62492601  0.12448177  0.87585705  1
  Fe3+  Fe78  1  0.12343905  0.62516930  0.37446534  1
  Fe3+  Fe79  1  0.62651849  0.62459555  0.37444123  1
  Fe3+  Fe80  1  0.62430945  0.62583827  0.87894465  1
  Fe3+  Fe81  1  0.87462313  0.87327975  0.38058218  1
  Fe3+  Fe82  1  0.87421394  0.12563472  0.37868869  1
  Fe3+  Fe83  1  0.87418641  0.12582867  0.88074644  1
  Fe3+  Fe84  1  0.87674516  0.12501720  0.63435223  1
  Fe3+  Fe85  1  0.37429710  0.37510591  0.13561315  1
  Fe3+  Fe86  1  0.12409977  0.12511297  0.63685895  1
  Fe3+  Fe87  1  0.62499962  0.87378876  0.63520048  1
  Fe3+  Fe88  1  0.12572510  0.87446629  0.13627400  1
  Fe3+  Fe89  1  0.37378961  0.37481781  0.63364160  1
  Fe3+  Fe90  1  0.87448056  0.12486297  0.13589621  1
  Fe3+  Fe91  1  0.12496267  0.37540380  0.63875031  1
  Fe3+  Fe92  1  0.62565907  0.62558017  0.13340371  1
  Fe3+  Fe93  1  0.12499465  0.87455035  0.63955441  1
  Fe3+  Fe94  1  0.37372030  0.12511888  0.63303500  1
  Fe3+  Fe95  1  0.87640944  0.87464733  0.63505906  1
  Cu2+  Cu96  1  0.37570525  0.62394592  0.37088676  1
  Cu2+  Cu97  1  0.12440055  0.12504720  0.36104460  1
  Cu2+  Cu98  1  0.87412949  0.62438373  0.87264538  1
  Cu2+  Cu99  1  0.87380998  0.37701173  0.37154448  1
  Cu2+  Cu100  1  0.37562639  0.12503149  0.87285056  1
  Cu2+  Cu101  1  0.87503063  0.37357778  0.87403095  1
  Cu2+  Cu102  1  0.62319067  0.87444276  0.87141425  1
  Cu2+  Cu103  1  0.12501764  0.37755019  0.36097307  1
  Cu2+  Cu104  1  0.87541634  0.87606697  0.87317432  1
  Cu2+  Cu105  1  0.12609104  0.62502423  0.87373790  1
  Cu2+  Cu106  1  0.37564803  0.87453671  0.37215312  1
  Cu2+  Cu107  1  0.12389741  0.87269750  0.35991063  1
  Cu2+  Cu108  1  0.37388827  0.62468606  0.64182985  1
  Cu2+  Cu109  1  0.87574918  0.37462614  0.14127628  1
  Cu2+  Cu110  1  0.87682860  0.37521544  0.64363027  1
  Cu2+  Cu111  1  0.62448964  0.87420103  0.14319636  1
  Cu2+  Cu112  1  0.12573745  0.37557396  0.15018535  1
  Cu2+  Cu113  1  0.12417712  0.62474919  0.65367630  1
  Cu2+  Cu114  1  0.37355444  0.87500406  0.64156335  1
  Cu2+  Cu115  1  0.37531517  0.12505979  0.14505018  1
  Cu2+  Cu116  1  0.87569971  0.62567813  0.65555118  1
  Cu2+  Cu117  1  0.62557855  0.12408448  0.64972095  1
  Cu2+  Cu118  1  0.87462234  0.62527672  0.14098995  1
  Cu2+  Cu119  1  0.62477380  0.37582557  0.65382110  1
  Cu2+  Cu120  1  0.87558566  0.87555265  0.14250825  1
  Cu2+  Cu121  1  0.12429442  0.62599633  0.14221710  1
  Cu2+  Cu122  1  0.62584447  0.62573262  0.65506874  1
  Cu2+  Cu123  1  0.62592483  0.12465871  0.15206750  1
  Cu2+  Cu124  1  0.12405975  0.12434188  0.15236774  1
  Cu2+  Cu125  1  0.62416895  0.37591311  0.14856188  1
  Cu2+  Cu126  1  0.37559859  0.62498384  0.15034652  1
  Cu2+  Cu127  1  0.37415002  0.87500225  0.15307305  1
  O2-  O128  1  0.12549921  0.12452900  -0.00050798  1
  O2-  O129  1  0.12363092  0.12495354  0.51682849  1
  O2-  O130  1  0.12778702  0.37372176  -0.00055052  1
  O2-  O131  1  0.12471047  0.37550657  0.51808810  1
  O2-  O132  1  0.12561870  0.62621150  0.00747650  1
  O2-  O133  1  0.12301522  0.62461083  0.49549674  1
  O2-  O134  1  0.12673681  0.87526681  0.00833864  1
  O2-  O135  1  0.12335879  0.87422109  0.51895707  1
  O2-  O136  1  0.37583141  0.12517848  0.00820169  1
  O2-  O137  1  0.37428385  0.12687697  0.50614064  1
  O2-  O138  1  0.37477816  0.37437346  0.00668549  1
  O2-  O139  1  0.37490948  0.37456612  0.50656523  1
  O2-  O140  1  0.37669467  0.62433977  -0.00217044  1
  O2-  O141  1  0.37455523  0.62316004  0.50681480  1
  O2-  O142  1  0.37530461  0.87603877  -0.00230298  1
  O2-  O143  1  0.37422103  0.87542171  0.50638024  1
  O2-  O144  1  0.62526394  0.12447028  -0.00377724  1
  O2-  O145  1  0.62654481  0.12633415  0.49673111  1
  O2-  O146  1  0.62135581  0.37325665  -0.00347894  1
  O2-  O147  1  0.62544998  0.37784900  0.49529306  1
  O2-  O148  1  0.62386086  0.62618749  0.00554371  1
  O2-  O149  1  0.62738222  0.62323365  0.49478781  1
  O2-  O150  1  0.62299746  0.87493581  0.00717658  1
  O2-  O151  1  0.62673747  0.87312903  0.50657503  1
  O2-  O152  1  0.87379246  0.12517624  0.00744519  1
  O2-  O153  1  0.87607563  0.12546159  0.50668504  1
  O2-  O154  1  0.87524071  0.37229520  0.00729776  1
  O2-  O155  1  0.87494882  0.37589624  0.50760059  1
  O2-  O156  1  0.87351671  0.62483527  0.00649869  1
  O2-  O157  1  0.87436830  0.62423070  0.49538190  1
  O2-  O158  1  0.87561968  0.87762488  0.00727309  1
  O2-  O159  1  0.87564480  0.87379320  0.50761691  1
  O2-  O160  1  0.12543178  -0.00186436  0.16527877  1
  O2-  O161  1  0.12459421  0.00054609  0.66974049  1
  O2-  O162  1  0.12488156  0.24975914  0.16527207  1
  O2-  O163  1  0.12482815  0.24943323  0.66848869  1
  O2-  O164  1  0.12616972  0.49983712  0.16269908  1
  O2-  O165  1  0.12588698  0.50014313  0.66600306  1
  O2-  O166  1  0.12550410  0.75282940  0.16356823  1
  O2-  O167  1  0.12358312  0.74972641  0.66754571  1
  O2-  O168  1  0.37476051  -0.00074614  0.16855253  1
  O2-  O169  1  0.37450253  0.00336750  0.66239177  1
  O2-  O170  1  0.37524553  0.25278329  0.16584396  1
  O2-  O171  1  0.37551205  0.24973750  0.66299936  1
  O2-  O172  1  0.37458175  0.49821688  0.16259412  1
  O2-  O173  1  0.37468272  0.49643239  0.66426001  1
  O2-  O174  1  0.37550319  0.75004073  0.16467524  1
  O2-  O175  1  0.37450050  0.74994855  0.66385364  1
  O2-  O176  1  0.62506064  0.00043296  0.16790956  1
  O2-  O177  1  0.62603562  -0.00276405  0.66159640  1
  O2-  O178  1  0.62421106  0.25036556  0.16375791  1
  O2-  O179  1  0.62505958  0.24981521  0.66189452  1
  O2-  O180  1  0.62425520  0.50184108  0.15877201  1
  O2-  O181  1  0.62513876  0.50101254  0.66620466  1
  O2-  O182  1  0.62375542  0.74721220  0.16445530  1
  O2-  O183  1  0.62610317  0.75178164  0.66426068  1
  O2-  O184  1  0.87480901  0.00306418  0.16836386  1
  O2-  O185  1  0.87497407  -0.00073906  0.66240551  1
  O2-  O186  1  0.87533092  0.24730587  0.16552722  1
  O2-  O187  1  0.87552690  0.24713395  0.66420716  1
  O2-  O188  1  0.87491210  0.49945383  0.16136107  1
  O2-  O189  1  0.87508405  0.50166836  0.66686197  1
  O2-  O190  1  0.87510422  0.75047540  0.16469994  1
  O2-  O191  1  0.87560944  0.75206146  0.66397192  1
  O2-  O192  1  -0.00176513  0.12419414  0.16367800  1
  O2-  O193  1  -0.00103317  0.12379549  0.66914168  1
  O2-  O194  1  0.00196579  0.37437829  0.16509120  1
  O2-  O195  1  0.00238667  0.37550099  0.66964375  1
  O2-  O196  1  -0.00074645  0.62533680  0.16366983  1
  O2-  O197  1  -0.00039929  0.62515509  0.66784784  1
  O2-  O198  1  0.00288675  0.87657861  0.16473842  1
  O2-  O199  1  -0.00130757  0.87539046  0.66879953  1
  O2-  O200  1  0.24845669  0.12521322  0.16769941  1
  O2-  O201  1  0.25058251  0.12590861  0.66556383  1
  O2-  O202  1  0.25158319  0.37433964  0.16531215  1
  O2-  O203  1  0.25100597  0.37367477  0.66653218  1
  O2-  O204  1  0.25177482  0.62554653  0.16546761  1
  O2-  O205  1  0.24824513  0.62479963  0.66521381  1
  O2-  O206  1  0.24919619  0.87551078  0.16455720  1
  O2-  O207  1  0.24786299  0.87513079  0.66831826  1
  O2-  O208  1  0.50204198  0.12464069  0.16643286  1
  O2-  O209  1  0.49835502  0.12516073  0.65977677  1
  O2-  O210  1  0.49802404  0.37537684  0.16332343  1
  O2-  O211  1  0.49835040  0.37468625  0.66103103  1
  O2-  O212  1  0.50125888  0.62419928  0.16262115  1
  O2-  O213  1  0.50144673  0.62475513  0.66313463  1
  O2-  O214  1  0.49778994  0.87550710  0.16665672  1
  O2-  O215  1  0.50220493  0.87501498  0.65999512  1
  O2-  O216  1  0.75118807  0.12522006  0.16350737  1
  O2-  O217  1  0.75251988  0.12409254  0.66163029  1
  O2-  O218  1  0.74826598  0.37394157  0.16184958  1
  O2-  O219  1  0.74906820  0.37483421  0.66475008  1
  O2-  O220  1  0.74751056  0.62543187  0.16103242  1
  O2-  O221  1  0.75073172  0.62595243  0.66572602  1
  O2-  O222  1  0.75008254  0.87551677  0.16613419  1
  O2-  O223  1  0.75123669  0.87491679  0.66184024  1
  O2-  O224  1  0.12382196  -0.00174051  0.35034234  1
  O2-  O225  1  0.12480095  -0.00111150  0.85003132  1
  O2-  O226  1  0.12506503  0.25166490  0.35033006  1
  O2-  O227  1  0.12558710  0.24991540  0.84683329  1
  O2-  O228  1  0.12467198  0.50151786  0.34493094  1
  O2-  O229  1  0.12618468  0.49832956  0.84844791  1
  O2-  O230  1  0.12428772  0.74883724  0.34533940  1
  O2-  O231  1  0.12593906  0.75257271  0.85106993  1
  O2-  O232  1  0.37538249  0.00349531  0.35264534  1
  O2-  O233  1  0.37521278  -0.00156482  0.84511295  1
  O2-  O234  1  0.37432739  0.25026831  0.35042405  1
  O2-  O235  1  0.37530821  0.25293366  0.84728599  1
  O2-  O236  1  0.37579665  0.49682681  0.34706066  1
  O2-  O237  1  0.37599795  0.49863674  0.84796719  1
  O2-  O238  1  0.37534855  0.74964716  0.34931657  1
  O2-  O239  1  0.37507209  0.74972114  0.84545946  1
  O2-  O240  1  0.62563008  -0.00106840  0.35130397  1
  O2-  O241  1  0.62494841  0.00128183  0.84456865  1
  O2-  O242  1  0.62532113  0.25019167  0.34568364  1
  O2-  O243  1  0.62475211  0.24998500  0.84385541  1
  O2-  O244  1  0.62440597  0.50021983  0.34019127  1
  O2-  O245  1  0.62327025  0.50108730  0.84981585  1
  O2-  O246  1  0.62647252  0.75117393  0.34729253  1
  O2-  O247  1  0.62453468  0.74723263  0.84799908  1
  O2-  O248  1  0.87528860  -0.00053350  0.35405557  1
  O2-  O249  1  0.87496103  0.00388894  0.84702698  1
  O2-  O250  1  0.87462478  0.24781257  0.35031506  1
  O2-  O251  1  0.87435243  0.24656220  0.84747498  1
  O2-  O252  1  0.87489259  0.50190986  0.34329373  1
  O2-  O253  1  0.87465528  0.49907679  0.85085122  1
  O2-  O254  1  0.87393566  0.75121752  0.34741293  1
  O2-  O255  1  0.87469811  0.75014354  0.84918773  1
  O2-  O256  1  -0.00181606  0.12460465  0.34948924  1
  O2-  O257  1  -0.00066332  0.12458471  0.85081842  1
  O2-  O258  1  0.00095498  0.37497236  0.34939264  1
  O2-  O259  1  0.00184684  0.37375182  0.85057168  1
  O2-  O260  1  -0.00127713  0.62601067  0.34437845  1
  O2-  O261  1  -0.00003227  0.62504553  0.85212582  1
  O2-  O262  1  -0.00290783  0.87520289  0.34948316  1
  O2-  O263  1  0.00347165  0.87596096  0.85217748  1
  O2-  O264  1  0.25102197  0.12537400  0.35212205  1
  O2-  O265  1  0.24807358  0.12486132  0.84695481  1
  O2-  O266  1  0.25168152  0.37519114  0.35105640  1
  O2-  O267  1  0.25164963  0.37474706  0.84796259  1
  O2-  O268  1  0.24851827  0.62455253  0.34853140  1
  O2-  O269  1  0.25293131  0.62429782  0.84737778  1
  O2-  O270  1  0.24843593  0.87512222  0.34952656  1
  O2-  O271  1  0.24956161  0.87568861  0.84879195  1
  O2-  O272  1  0.49958589  0.12605636  0.34906342  1
  O2-  O273  1  0.50183129  0.12532309  0.84349659  1
  O2-  O274  1  0.49922532  0.37425049  0.34653846  1
  O2-  O275  1  0.49861742  0.37480595  0.84487362  1
  O2-  O276  1  0.50234971  0.62532837  0.34588801  1
  O2-  O277  1  0.50038262  0.62474671  0.84539249  1
  O2-  O278  1  0.50385462  0.87493598  0.35069357  1
  O2-  O279  1  0.49741393  0.87457986  0.84276324  1
  O2-  O280  1  0.75090192  0.12389416  0.34681352  1
  O2-  O281  1  0.75059969  0.12455971  0.84613330  1
  O2-  O282  1  0.74808322  0.37533816  0.34373010  1
  O2-  O283  1  0.74779520  0.37458308  0.84791858  1
  O2-  O284  1  0.75023712  0.62554437  0.34093071  1
  O2-  O285  1  0.74686514  0.62458557  0.85017494  1
  O2-  O286  1  0.75056495  0.87602221  0.35016054  1
  O2-  O287  1  0.74977171  0.87557553  0.84726222  1
