# generated using pymatgen
data_BaYFeCuO5
_symmetry_space_group_name_H-M   'P 1'
_cell_length_a   15.65078382
_cell_length_b   15.65167638
_cell_length_c   15.44027441
_cell_angle_alpha   90.00042711
_cell_angle_beta   90.00204361
_cell_angle_gamma   90.00028714
_symmetry_Int_Tables_number   1
_chemical_formula_structural   BaYFeCuO5
_chemical_formula_sum   'Ba32 Y32 Fe32 Cu32 O160'
_cell_volume   3782.26511017
_cell_formula_units_Z   32
loop_
 _symmetry_equiv_pos_site_id
 _symmetry_equiv_pos_as_xyz
  1  'x, y, z'
loop_
 _atom_type_symbol
 _atom_type_oxidation_number
  Ba2+  2.0
  Y3+  3.0
  Fe3+  3.0
  Cu2+  2.0
  O2-  -2.0
loop_
 _atom_site_type_symbol
 _atom_site_label
 _atom_site_symmetry_multiplicity
 _atom_site_fract_x
 _atom_site_fract_y
 _atom_site_fract_z
 _atom_site_occupancy
  Ba2+  Ba0  1  0.01182816  0.00292080  0.01106822  1
  Ba2+  Ba1  1  0.00036184  -0.00007160  0.50694375  1
  Ba2+  Ba2  1  0.01171586  0.24737260  0.01178716  1
  Ba2+  Ba3  1  0.00449902  0.26083036  0.50218771  1
  Ba2+  Ba4  1  0.00521600  0.49517991  0.01156620  1
  Ba2+  Ba5  1  -0.00194714  0.49824803  0.51254047  1
  Ba2+  Ba6  1  0.00519671  0.75458050  0.01070579  1
  Ba2+  Ba7  1  -0.00644779  0.74155234  0.51760880  1
  Ba2+  Ba8  1  0.25073098  0.00282463  0.01227304  1
  Ba2+  Ba9  1  0.24893069  0.00896105  0.50709166  1
  Ba2+  Ba10  1  0.25025097  0.24788551  0.01155111  1
  Ba2+  Ba11  1  0.24949381  0.25846333  0.50675351  1
  Ba2+  Ba12  1  0.25854638  0.49715498  0.01702880  1
  Ba2+  Ba13  1  0.25206129  0.49689245  0.51118059  1
  Ba2+  Ba14  1  0.25938614  0.75180381  0.01728560  1
  Ba2+  Ba15  1  0.25131012  0.73806684  0.51174576  1
  Ba2+  Ba16  1  0.49966968  -0.00309210  0.01311228  1
  Ba2+  Ba17  1  0.49604924  0.00396617  0.51114461  1
  Ba2+  Ba18  1  0.49827227  0.25165403  0.01813891  1
  Ba2+  Ba19  1  0.49408021  0.25828541  0.51432958  1
  Ba2+  Ba20  1  0.49901563  0.50403588  0.01651127  1
  Ba2+  Ba21  1  0.49803829  0.50119653  0.51181054  1
  Ba2+  Ba22  1  0.50091787  0.74645314  0.01127837  1
  Ba2+  Ba23  1  0.50068648  0.73700042  0.50678006  1
  Ba2+  Ba24  1  0.73731218  -0.00254124  0.01117093  1
  Ba2+  Ba25  1  0.75522640  -0.00588023  0.51254965  1
  Ba2+  Ba26  1  0.73955542  0.24994819  0.01760860  1
  Ba2+  Ba27  1  0.75277357  0.26292888  0.51138429  1
  Ba2+  Ba28  1  0.73762550  0.50185795  0.01193462  1
  Ba2+  Ba29  1  0.75251397  0.50295870  0.51167069  1
  Ba2+  Ba30  1  0.73608504  0.75010553  0.00593417  1
  Ba2+  Ba31  1  0.75340451  0.73840144  0.51126484  1
  Y3+  Y32  1  0.00312919  0.00189401  0.25634682  1
  Y3+  Y33  1  0.00046788  0.00056065  0.75882924  1
  Y3+  Y34  1  0.00399071  0.25150648  0.25901798  1
  Y3+  Y35  1  0.00174608  0.25196749  0.75665944  1
  Y3+  Y36  1  -0.00041378  0.49726599  0.26048816  1
  Y3+  Y37  1  -0.00005825  0.49933468  0.75412365  1
  Y3+  Y38  1  -0.00007870  0.74923298  0.25655067  1
  Y3+  Y39  1  -0.00179705  0.74832235  0.75675919  1
  Y3+  Y40  1  0.24808098  0.00075950  0.25704629  1
  Y3+  Y41  1  0.25089448  0.00416932  0.75808378  1
  Y3+  Y42  1  0.24784893  0.25286517  0.25944378  1
  Y3+  Y43  1  0.25092234  0.25052352  0.75494964  1
  Y3+  Y44  1  0.25369651  0.49798846  0.26035610  1
  Y3+  Y45  1  0.25244014  0.50016971  0.75328563  1
  Y3+  Y46  1  0.25326654  0.74849858  0.25709320  1
  Y3+  Y47  1  0.25262956  0.74553338  0.75678920  1
  Y3+  Y48  1  0.50085370  -0.00211065  0.25695775  1
  Y3+  Y49  1  0.49848074  0.00043553  0.75708053  1
  Y3+  Y50  1  0.49953799  0.25352603  0.25815234  1
  Y3+  Y51  1  0.49643588  0.25172624  0.75354592  1
  Y3+  Y52  1  0.49869943  0.50259181  0.25882436  1
  Y3+  Y53  1  0.49924147  0.50246523  0.75539071  1
  Y3+  Y54  1  0.50030185  0.74580361  0.25582165  1
  Y3+  Y55  1  0.50085084  0.74448430  0.75955788  1
  Y3+  Y56  1  0.74825153  -0.00129053  0.25604706  1
  Y3+  Y57  1  0.74930061  -0.00229635  0.75838384  1
  Y3+  Y58  1  0.75001837  0.25225891  0.25830041  1
  Y3+  Y59  1  0.75056637  0.25296936  0.75507593  1
  Y3+  Y60  1  0.74864657  0.50244980  0.26036731  1
  Y3+  Y61  1  0.74796730  0.50145407  0.75432610  1
  Y3+  Y62  1  0.74672250  0.74701207  0.25767835  1
  Y3+  Y63  1  0.74716557  0.74736546  0.75765007  1
  Fe3+  Fe64  1  0.37555098  0.37517180  0.87636063  1
  Fe3+  Fe65  1  0.87467701  0.62413823  0.88111757  1
  Fe3+  Fe66  1  0.62570790  0.12550899  0.38020049  1
  Fe3+  Fe67  1  0.62330159  0.37509486  0.87493442  1
  Fe3+  Fe68  1  0.62506186  0.87376304  0.38064446  1
  Fe3+  Fe69  1  0.62455250  0.37661150  0.37700931  1
  Fe3+  Fe70  1  0.12668505  0.37536235  0.87643412  1
  Fe3+  Fe71  1  0.87419554  0.87524565  0.88009804  1
  Fe3+  Fe72  1  0.37505302  0.12618231  0.37741510  1
  Fe3+  Fe73  1  0.87539737  0.87343491  0.37593348  1
  Fe3+  Fe74  1  0.87418826  0.37478287  0.88105595  1
  Fe3+  Fe75  1  0.87427638  0.12573003  0.88092420  1
  Fe3+  Fe76  1  0.87529221  0.12597128  0.37901572  1
  Fe3+  Fe77  1  0.62309251  0.12623736  0.87425563  1
  Fe3+  Fe78  1  0.12738184  0.87455714  0.87522209  1
  Fe3+  Fe79  1  0.12455377  0.62424928  0.37607239  1
  Fe3+  Fe80  1  0.12507189  0.87347937  0.37963183  1
  Fe3+  Fe81  1  0.37484528  0.87434261  0.38022635  1
  Fe3+  Fe82  1  0.37561851  0.87468572  0.87521720  1
  Fe3+  Fe83  1  0.12661802  0.62435192  0.87965582  1
  Fe3+  Fe84  1  0.62449398  0.87353128  0.63444994  1
  Fe3+  Fe85  1  0.87469450  0.12482337  0.13485278  1
  Fe3+  Fe86  1  0.37452874  0.87427806  0.63362668  1
  Fe3+  Fe87  1  0.87450251  0.87525474  0.13379572  1
  Fe3+  Fe88  1  0.87559630  0.12606514  0.63494522  1
  Fe3+  Fe89  1  0.12432723  0.12636636  0.63670887  1
  Fe3+  Fe90  1  0.87459448  0.37497460  0.13475049  1
  Fe3+  Fe91  1  0.62546842  0.12605328  0.63327722  1
  Fe3+  Fe92  1  0.37533854  0.12530551  0.14014903  1
  Fe3+  Fe93  1  0.12593909  0.62417624  0.13530170  1
  Fe3+  Fe94  1  0.87473588  0.62510513  0.13349140  1
  Fe3+  Fe95  1  0.12504797  0.87400855  0.63423923  1
  Cu2+  Cu96  1  0.62413578  0.62351309  0.87143254  1
  Cu2+  Cu97  1  0.87458193  0.37595773  0.37054206  1
  Cu2+  Cu98  1  0.12574632  0.37673753  0.37104718  1
  Cu2+  Cu99  1  0.12498114  0.12542949  0.36760752  1
  Cu2+  Cu100  1  0.37470586  0.62458854  0.37192295  1
  Cu2+  Cu101  1  0.37586391  0.37554378  0.37155738  1
  Cu2+  Cu102  1  0.37470944  0.62353669  0.87308910  1
  Cu2+  Cu103  1  0.37552946  0.12608361  0.86372790  1
  Cu2+  Cu104  1  0.87581534  0.62478160  0.36917085  1
  Cu2+  Cu105  1  0.62490311  0.62463316  0.37253998  1
  Cu2+  Cu106  1  0.62290719  0.87482136  0.87010825  1
  Cu2+  Cu107  1  0.12593731  0.12574497  0.87164659  1
  Cu2+  Cu108  1  0.37439151  0.37585067  0.64216252  1
  Cu2+  Cu109  1  0.87446922  0.62411113  0.64752045  1
  Cu2+  Cu110  1  0.37435459  0.12493612  0.64648939  1
  Cu2+  Cu111  1  0.62411577  0.87383973  0.14435243  1
  Cu2+  Cu112  1  0.37547646  0.62494338  0.64294732  1
  Cu2+  Cu113  1  0.62463580  0.62433976  0.64232114  1
  Cu2+  Cu114  1  0.37532693  0.87528411  0.15450698  1
  Cu2+  Cu115  1  0.87555495  0.37545070  0.64370773  1
  Cu2+  Cu116  1  0.12512226  0.37577082  0.64288749  1
  Cu2+  Cu117  1  0.37526794  0.37459302  0.15265327  1
  Cu2+  Cu118  1  0.62466758  0.37547614  0.64838028  1
  Cu2+  Cu119  1  0.62504735  0.37601181  0.15350265  1
  Cu2+  Cu120  1  0.62457519  0.12521693  0.15528917  1
  Cu2+  Cu121  1  0.12541343  0.37599688  0.15169003  1
  Cu2+  Cu122  1  0.12622961  0.12572869  0.14445577  1
  Cu2+  Cu123  1  0.87487155  0.87474543  0.65216040  1
  Cu2+  Cu124  1  0.12471916  0.62477977  0.65074015  1
  Cu2+  Cu125  1  0.62504353  0.62486793  0.14443788  1
  Cu2+  Cu126  1  0.37514955  0.62453612  0.14322505  1
  Cu2+  Cu127  1  0.12556618  0.87422923  0.15213880  1
  O2-  O128  1  0.12672986  0.12458498  0.00813430  1
  O2-  O129  1  0.12191889  0.12491695  0.51588075  1
  O2-  O130  1  0.12688892  0.37471541  -0.00281122  1
  O2-  O131  1  0.12494252  0.37702113  0.50700540  1
  O2-  O132  1  0.12677283  0.62549362  0.00641863  1
  O2-  O133  1  0.12233368  0.62544372  0.49676654  1
  O2-  O134  1  0.12823057  0.87492323  -0.00412638  1
  O2-  O135  1  0.12301212  0.87361056  0.50636582  1
  O2-  O136  1  0.37631562  0.12446742  0.01893527  1
  O2-  O137  1  0.37507108  0.12503433  0.49859941  1
  O2-  O138  1  0.37596592  0.37344239  -0.00287259  1
  O2-  O139  1  0.37460965  0.37550745  0.50663430  1
  O2-  O140  1  0.37412672  0.62453276  0.00845590  1
  O2-  O141  1  0.37432587  0.62490381  0.50689745  1
  O2-  O142  1  0.37496966  0.87672766  -0.00415737  1
  O2-  O143  1  0.37408265  0.87481735  0.50646795  1
  O2-  O144  1  0.62253541  0.12587803  -0.00493403  1
  O2-  O145  1  0.62741320  0.12533820  0.50599095  1
  O2-  O146  1  0.62324512  0.37268305  -0.00436164  1
  O2-  O147  1  0.62533949  0.37538106  0.49773616  1
  O2-  O148  1  0.62404601  0.62461241  0.00772449  1
  O2-  O149  1  0.62606688  0.62437104  0.50785816  1
  O2-  O150  1  0.62240399  0.87595736  0.00651727  1
  O2-  O151  1  0.62702421  0.87426783  0.50715744  1
  O2-  O152  1  0.87373234  0.12439337  0.00761951  1
  O2-  O153  1  0.87552775  0.12547496  0.50700153  1
  O2-  O154  1  0.87394252  0.37319880  0.00714228  1
  O2-  O155  1  0.87537201  0.37570763  0.50694346  1
  O2-  O156  1  0.87454104  0.62485424  0.00723197  1
  O2-  O157  1  0.87628394  0.62406521  0.50654520  1
  O2-  O158  1  0.87429234  0.87708587  0.00665858  1
  O2-  O159  1  0.87638428  0.87388337  0.49647865  1
  O2-  O160  1  0.12463541  -0.00152659  0.16756660  1
  O2-  O161  1  0.12415113  -0.00112834  0.66314383  1
  O2-  O162  1  0.12489516  0.25220280  0.16606715  1
  O2-  O163  1  0.12379638  0.24834249  0.66618787  1
  O2-  O164  1  0.12259644  0.50149785  0.16021534  1
  O2-  O165  1  0.12440346  0.50176156  0.66671461  1
  O2-  O166  1  0.12438445  0.74825685  0.16220070  1
  O2-  O167  1  0.12375683  0.75148654  0.66382470  1
  O2-  O168  1  0.37567201  0.00021686  0.16855322  1
  O2-  O169  1  0.37402302  -0.00227692  0.66268281  1
  O2-  O170  1  0.37542551  0.25008712  0.16599658  1
  O2-  O171  1  0.37468335  0.24893604  0.66362171  1
  O2-  O172  1  0.37521804  0.49783883  0.16489387  1
  O2-  O173  1  0.37485197  0.50060631  0.66500435  1
  O2-  O174  1  0.37441423  0.75158111  0.16547673  1
  O2-  O175  1  0.37531936  0.75333888  0.66488815  1
  O2-  O176  1  0.62510093  0.00051300  0.16868997  1
  O2-  O177  1  0.62655902  0.00013652  0.65949004  1
  O2-  O178  1  0.62672735  0.25052995  0.16495392  1
  O2-  O179  1  0.62635013  0.24815236  0.66000364  1
  O2-  O180  1  0.62591599  0.49938671  0.16376458  1
  O2-  O181  1  0.62546118  0.49870314  0.66492104  1
  O2-  O182  1  0.62557533  0.74924227  0.16730261  1
  O2-  O183  1  0.62464869  0.75296505  0.66521725  1
  O2-  O184  1  0.87510407  0.00034165  0.16437614  1
  O2-  O185  1  0.87474283  0.00207289  0.66354536  1
  O2-  O186  1  0.87337032  0.24959346  0.16245701  1
  O2-  O187  1  0.87485992  0.24695573  0.66578491  1
  O2-  O188  1  0.87630860  0.49984790  0.15933548  1
  O2-  O189  1  0.87480227  0.50003185  0.66945098  1
  O2-  O190  1  0.87610618  0.75035601  0.15903808  1
  O2-  O191  1  0.87492447  0.75084444  0.66881039  1
  O2-  O192  1  -0.00290540  0.12520247  0.16366378  1
  O2-  O193  1  -0.00118757  0.12387320  0.66850406  1
  O2-  O194  1  -0.00247277  0.37363089  0.16258241  1
  O2-  O195  1  0.00027448  0.37514095  0.66850708  1
  O2-  O196  1  -0.00047562  0.62631794  0.15843116  1
  O2-  O197  1  0.00027844  0.62560523  0.66932562  1
  O2-  O198  1  -0.00210431  0.87580159  0.16117323  1
  O2-  O199  1  0.00161302  0.87533760  0.66557697  1
  O2-  O200  1  0.25196377  0.12438564  0.16845721  1
  O2-  O201  1  0.24848264  0.12418731  0.66456944  1
  O2-  O202  1  0.24990433  0.37549926  0.16555841  1
  O2-  O203  1  0.24979551  0.37518560  0.66374150  1
  O2-  O204  1  0.24740688  0.62498179  0.16428597  1
  O2-  O205  1  0.24913368  0.62619365  0.66384768  1
  O2-  O206  1  0.24991242  0.87517144  0.16782069  1
  O2-  O207  1  0.24928375  0.87448987  0.65735176  1
  O2-  O208  1  0.49999712  0.12493786  0.16938011  1
  O2-  O209  1  0.50226045  0.12390851  0.65846186  1
  O2-  O210  1  0.50078615  0.37409263  0.16464829  1
  O2-  O211  1  0.50070199  0.37416262  0.66192181  1
  O2-  O212  1  0.49980655  0.62525726  0.16598329  1
  O2-  O213  1  0.49982107  0.62514793  0.66472684  1
  O2-  O214  1  0.49909750  0.87505749  0.17023045  1
  O2-  O215  1  0.50008291  0.87766235  0.65697282  1
  O2-  O216  1  0.75131832  0.12387643  0.16371075  1
  O2-  O217  1  0.75024541  0.12437846  0.66266206  1
  O2-  O218  1  0.75216732  0.37499773  0.16290702  1
  O2-  O219  1  0.74898763  0.37429264  0.66583175  1
  O2-  O220  1  0.75379290  0.62518844  0.16468344  1
  O2-  O221  1  0.74977588  0.62555952  0.66674204  1
  O2-  O222  1  0.75335892  0.87580392  0.16440285  1
  O2-  O223  1  0.74814883  0.87588943  0.66471947  1
  O2-  O224  1  0.12445888  -0.00256427  0.35249843  1
  O2-  O225  1  0.12435592  -0.00178862  0.84537540  1
  O2-  O226  1  0.12431010  0.24987908  0.35014060  1
  O2-  O227  1  0.12420947  0.25221924  0.84734215  1
  O2-  O228  1  0.12506451  0.50173541  0.34388341  1
  O2-  O229  1  0.12310998  0.50071602  0.84981333  1
  O2-  O230  1  0.12480051  0.75167138  0.34588542  1
  O2-  O231  1  0.12432142  0.74877298  0.84762203  1
  O2-  O232  1  0.37455485  -0.00121189  0.35080215  1
  O2-  O233  1  0.37505288  0.00058679  0.84632725  1
  O2-  O234  1  0.37610991  0.24812562  0.34756742  1
  O2-  O235  1  0.37465377  0.25074894  0.84659472  1
  O2-  O236  1  0.37506571  0.50023485  0.34843859  1
  O2-  O237  1  0.37456617  0.49795378  0.84734228  1
  O2-  O238  1  0.37528342  0.75358369  0.34950745  1
  O2-  O239  1  0.37434463  0.75011734  0.84779516  1
  O2-  O240  1  0.62682157  -0.00019051  0.35325065  1
  O2-  O241  1  0.62518932  0.00231495  0.84286188  1
  O2-  O242  1  0.62579587  0.24827732  0.34872738  1
  O2-  O243  1  0.62615261  0.25043063  0.84135712  1
  O2-  O244  1  0.62559756  0.49934245  0.34660175  1
  O2-  O245  1  0.62587460  0.49758235  0.84716974  1
  O2-  O246  1  0.62476463  0.75283639  0.35075973  1
  O2-  O247  1  0.62501070  0.74895462  0.84881458  1
  O2-  O248  1  0.87493207  0.00077003  0.34916434  1
  O2-  O249  1  0.87473285  0.00006204  0.84925364  1
  O2-  O250  1  0.87494683  0.24689374  0.34802301  1
  O2-  O251  1  0.87421701  0.25040787  0.85039097  1
  O2-  O252  1  0.87493308  0.50019932  0.34420020  1
  O2-  O253  1  0.87602171  0.49934927  0.85419204  1
  O2-  O254  1  0.87547699  0.75226544  0.34201398  1
  O2-  O255  1  0.87573392  0.74999944  0.85383536  1
  O2-  O256  1  -0.00148289  0.12391227  0.34886390  1
  O2-  O257  1  -0.00380272  0.12465859  0.85182767  1
  O2-  O258  1  0.00009358  0.37473220  0.34689292  1
  O2-  O259  1  -0.00163994  0.37436180  0.85149804  1
  O2-  O260  1  0.00193251  0.62582590  0.34125217  1
  O2-  O261  1  -0.00007443  0.62583230  0.85385289  1
  O2-  O262  1  0.00153694  0.87578509  0.34535701  1
  O2-  O263  1  -0.00128214  0.87508671  0.85023413  1
  O2-  O264  1  0.25030193  0.12427766  0.35058994  1
  O2-  O265  1  0.25144170  0.12491283  0.84832494  1
  O2-  O266  1  0.25069476  0.37479501  0.34987757  1
  O2-  O267  1  0.25015564  0.37513667  0.84474373  1
  O2-  O268  1  0.24832683  0.62660724  0.34707515  1
  O2-  O269  1  0.24692601  0.62461873  0.84781969  1
  O2-  O270  1  0.24963475  0.87514160  0.35318428  1
  O2-  O271  1  0.25066408  0.87488709  0.84000271  1
  O2-  O272  1  0.50222848  0.12301974  0.35203076  1
  O2-  O273  1  0.50032975  0.12549679  0.84215674  1
  O2-  O274  1  0.50197357  0.37472214  0.34754928  1
  O2-  O275  1  0.49962128  0.37397266  0.84320901  1
  O2-  O276  1  0.49977091  0.62565470  0.34978506  1
  O2-  O277  1  0.49975306  0.62414649  0.84828222  1
  O2-  O278  1  0.50049839  0.87726946  0.35533456  1
  O2-  O279  1  0.49733926  0.87538435  0.84020946  1
  O2-  O280  1  0.74998217  0.12435674  0.34906844  1
  O2-  O281  1  0.75137599  0.12462852  0.84709234  1
  O2-  O282  1  0.74811274  0.37402086  0.34574076  1
  O2-  O283  1  0.75140255  0.37455733  0.84898182  1
  O2-  O284  1  0.75004319  0.62621347  0.34823157  1
  O2-  O285  1  0.75322009  0.62490351  0.85048410  1
  O2-  O286  1  0.74877496  0.87570108  0.34781600  1
  O2-  O287  1  0.75283014  0.87539281  0.84971459  1
