# generated using pymatgen
data_BaYFeCuO5
_symmetry_space_group_name_H-M   'P 1'
_cell_length_a   15.67526564
_cell_length_b   15.67779954
_cell_length_c   15.50056965
_cell_angle_alpha   90.00121230
_cell_angle_beta   89.99202585
_cell_angle_gamma   90.00278149
_symmetry_Int_Tables_number   1
_chemical_formula_structural   BaYFeCuO5
_chemical_formula_sum   'Ba32 Y32 Fe32 Cu32 O160'
_cell_volume   3809.32187511
_cell_formula_units_Z   32
loop_
 _symmetry_equiv_pos_site_id
 _symmetry_equiv_pos_as_xyz
  1  'x, y, z'
loop_
 _atom_type_symbol
 _atom_type_oxidation_number
  Ba2+  2.0
  Y3+  3.0
  Fe3+  3.0
  Cu2+  2.0
  O2-  -2.0
loop_
 _atom_site_type_symbol
 _atom_site_label
 _atom_site_symmetry_multiplicity
 _atom_site_fract_x
 _atom_site_fract_y
 _atom_site_fract_z
 _atom_site_occupancy
  Ba2+  Ba0  1  0.00252176  -0.00935625  0.01718171  1
  Ba2+  Ba1  1  -0.00037948  0.00094041  0.49728610  1
  Ba2+  Ba2  1  0.01092551  0.24859186  0.01713275  1
  Ba2+  Ba3  1  -0.00406111  0.25573514  0.50035848  1
  Ba2+  Ba4  1  0.00675215  0.50734843  0.02221656  1
  Ba2+  Ba5  1  0.00265654  0.50252640  0.51134148  1
  Ba2+  Ba6  1  -0.00093646  0.75221057  0.02306172  1
  Ba2+  Ba7  1  0.00566741  0.74232566  0.50678648  1
  Ba2+  Ba8  1  0.25097352  -0.00186400  0.02813006  1
  Ba2+  Ba9  1  0.25678426  -0.00562516  0.50646190  1
  Ba2+  Ba10  1  0.25079895  0.24850520  0.01733966  1
  Ba2+  Ba11  1  0.25491992  0.25449358  0.51222379  1
  Ba2+  Ba12  1  0.24979291  0.50225542  0.00534734  1
  Ba2+  Ba13  1  0.24995713  0.50591097  0.50631733  1
  Ba2+  Ba14  1  0.24918105  0.75149509  0.02127506  1
  Ba2+  Ba15  1  0.25298700  0.74705781  0.50298319  1
  Ba2+  Ba16  1  0.50228025  -0.00255292  0.01770759  1
  Ba2+  Ba17  1  0.49694840  -0.00782550  0.51161119  1
  Ba2+  Ba18  1  0.49547917  0.24156862  0.00639941  1
  Ba2+  Ba19  1  0.49771362  0.25455004  0.52431675  1
  Ba2+  Ba20  1  0.49301164  0.50561016  -0.00056333  1
  Ba2+  Ba21  1  0.49364786  0.49904759  0.51727121  1
  Ba2+  Ba22  1  0.50125006  0.75437709  0.01350203  1
  Ba2+  Ba23  1  0.49401227  0.75423944  0.50673903  1
  Ba2+  Ba24  1  0.74362811  -0.00881074  0.00562812  1
  Ba2+  Ba25  1  0.74629938  -0.00145464  0.50114051  1
  Ba2+  Ba26  1  0.74333496  0.24303400  0.00697259  1
  Ba2+  Ba27  1  0.75270285  0.25460867  0.51599728  1
  Ba2+  Ba28  1  0.75001778  0.51212723  0.01544843  1
  Ba2+  Ba29  1  0.75392030  0.49539115  0.52403593  1
  Ba2+  Ba30  1  0.74965179  0.75556087  0.01687531  1
  Ba2+  Ba31  1  0.74700935  0.75168259  0.51167911  1
  Y3+  Y32  1  -0.00007832  -0.00167512  0.25751544  1
  Y3+  Y33  1  -0.00178618  -0.00239008  0.75937198  1
  Y3+  Y34  1  0.00193411  0.25052142  0.25686339  1
  Y3+  Y35  1  0.00024720  0.24992115  0.75741654  1
  Y3+  Y36  1  0.00434383  0.50166644  0.25902453  1
  Y3+  Y37  1  0.00034970  0.50250599  0.75344244  1
  Y3+  Y38  1  0.00191223  0.74979053  0.25926410  1
  Y3+  Y39  1  -0.00055060  0.74935793  0.75434452  1
  Y3+  Y40  1  0.25116135  -0.00241335  0.26153847  1
  Y3+  Y41  1  0.25300866  -0.00182521  0.75121327  1
  Y3+  Y42  1  0.24843204  0.25025913  0.25690073  1
  Y3+  Y43  1  0.25291920  0.25072915  0.75707997  1
  Y3+  Y44  1  0.24818699  0.50202681  0.26119223  1
  Y3+  Y45  1  0.25187409  0.50248104  0.75426514  1
  Y3+  Y46  1  0.25027648  0.75030437  0.26529178  1
  Y3+  Y47  1  0.25196103  0.74836045  0.75061146  1
  Y3+  Y48  1  0.50173813  -0.00275764  0.25841538  1
  Y3+  Y49  1  0.50144191  -0.00271851  0.75698449  1
  Y3+  Y50  1  0.50107886  0.24743478  0.25250429  1
  Y3+  Y51  1  0.49857871  0.24929807  0.76062303  1
  Y3+  Y52  1  0.49918774  0.50314668  0.25822639  1
  Y3+  Y53  1  0.49593002  0.50042631  0.75680249  1
  Y3+  Y54  1  0.50028347  0.75279686  0.26180421  1
  Y3+  Y55  1  0.49854004  0.75229847  0.75352837  1
  Y3+  Y56  1  0.74758480  -0.00180229  0.25507687  1
  Y3+  Y57  1  0.74739735  -0.00339024  0.76140709  1
  Y3+  Y58  1  0.74892097  0.24682422  0.25493796  1
  Y3+  Y59  1  0.74806309  0.24883059  0.76109528  1
  Y3+  Y60  1  0.74900742  0.50305337  0.25362669  1
  Y3+  Y61  1  0.75089837  0.50033317  0.75768509  1
  Y3+  Y62  1  0.74809638  0.75229436  0.25599755  1
  Y3+  Y63  1  0.74956529  0.75334712  0.75817875  1
  Fe3+  Fe64  1  0.87596363  0.12337614  0.88166995  1
  Fe3+  Fe65  1  0.37337710  0.12185759  0.87557300  1
  Fe3+  Fe66  1  0.62400941  0.62721606  0.87554848  1
  Fe3+  Fe67  1  0.87639029  0.62668749  0.87638982  1
  Fe3+  Fe68  1  0.62506477  0.37517109  0.37568027  1
  Fe3+  Fe69  1  0.12565379  0.62731374  0.87502865  1
  Fe3+  Fe70  1  0.62523533  0.62410275  0.38050485  1
  Fe3+  Fe71  1  0.37631904  0.37449920  0.37511030  1
  Fe3+  Fe72  1  0.12564751  0.37577511  0.87657318  1
  Fe3+  Fe73  1  0.37345303  0.87419433  0.87613538  1
  Fe3+  Fe74  1  0.87330776  0.37609010  0.37175255  1
  Fe3+  Fe75  1  0.12654002  0.87394504  0.87532074  1
  Fe3+  Fe76  1  0.12584523  0.12591642  0.37906204  1
  Fe3+  Fe77  1  0.87671357  0.37592854  0.88140298  1
  Fe3+  Fe78  1  0.12666369  0.12255081  0.87626554  1
  Fe3+  Fe79  1  0.87466302  0.87453184  0.37856514  1
  Fe3+  Fe80  1  0.62396961  0.37634303  0.87944537  1
  Fe3+  Fe81  1  0.37725573  0.12649281  0.37744499  1
  Fe3+  Fe82  1  0.87331021  0.62400064  0.37639335  1
  Fe3+  Fe83  1  0.62468916  0.12635567  0.38002817  1
  Fe3+  Fe84  1  0.87529160  0.37567074  0.13260748  1
  Fe3+  Fe85  1  0.62471962  0.62516406  0.63551113  1
  Fe3+  Fe86  1  0.87507920  0.12349840  0.13526251  1
  Fe3+  Fe87  1  0.37457035  0.37603799  0.13646499  1
  Fe3+  Fe88  1  0.87507052  0.87549679  0.63411780  1
  Fe3+  Fe89  1  0.12504350  0.12486375  0.63282584  1
  Fe3+  Fe90  1  0.62342091  0.37623769  0.13192923  1
  Fe3+  Fe91  1  0.62498258  0.12429244  0.63651380  1
  Fe3+  Fe92  1  0.37478119  0.62617722  0.14104072  1
  Fe3+  Fe93  1  0.12434951  0.87496394  0.63318594  1
  Fe3+  Fe94  1  0.87518530  0.12432960  0.63798898  1
  Fe3+  Fe95  1  0.12517524  0.37462208  0.63624141  1
  Cu2+  Cu96  1  0.37363119  0.37509772  0.86598907  1
  Cu2+  Cu97  1  0.12440197  0.87540218  0.36892013  1
  Cu2+  Cu98  1  0.37645606  0.62427536  0.37349585  1
  Cu2+  Cu99  1  0.12544501  0.37469832  0.36593959  1
  Cu2+  Cu100  1  0.62330115  0.12296352  0.87347640  1
  Cu2+  Cu101  1  0.37569147  0.87556470  0.37177626  1
  Cu2+  Cu102  1  0.87601533  0.87338643  0.87385096  1
  Cu2+  Cu103  1  0.12472058  0.62468071  0.37298147  1
  Cu2+  Cu104  1  0.62552519  0.87492498  0.37436018  1
  Cu2+  Cu105  1  0.37396566  0.62695666  0.86086332  1
  Cu2+  Cu106  1  0.87403508  0.12570265  0.36207336  1
  Cu2+  Cu107  1  0.62325904  0.87338500  0.87027263  1
  Cu2+  Cu108  1  0.37475922  0.12397547  0.15405605  1
  Cu2+  Cu109  1  0.37554998  0.12453331  0.64711144  1
  Cu2+  Cu110  1  0.37504080  0.87451262  0.15723256  1
  Cu2+  Cu111  1  0.62489168  0.12399296  0.14070273  1
  Cu2+  Cu112  1  0.37525320  0.62550653  0.64040778  1
  Cu2+  Cu113  1  0.87461410  0.87495624  0.14486683  1
  Cu2+  Cu114  1  0.37421572  0.37499332  0.65479730  1
  Cu2+  Cu115  1  0.62302802  0.62579611  0.15138572  1
  Cu2+  Cu116  1  0.87546778  0.62563140  0.15293807  1
  Cu2+  Cu117  1  0.12580162  0.87443467  0.15896902  1
  Cu2+  Cu118  1  0.87585707  0.37362011  0.65711753  1
  Cu2+  Cu119  1  0.12493728  0.12374608  0.15577803  1
  Cu2+  Cu120  1  0.62415835  0.87452518  0.14524938  1
  Cu2+  Cu121  1  0.12692152  0.62620104  0.15678178  1
  Cu2+  Cu122  1  0.62570504  0.87525220  0.64073319  1
  Cu2+  Cu123  1  0.12539691  0.62499242  0.64063369  1
  Cu2+  Cu124  1  0.12611883  0.37618428  0.15215420  1
  Cu2+  Cu125  1  0.87416236  0.62565218  0.64864525  1
  Cu2+  Cu126  1  0.62469615  0.37481576  0.65644823  1
  Cu2+  Cu127  1  0.37514721  0.87447648  0.64117048  1
  O2-  O128  1  0.12784246  0.12248296  -0.00400008  1
  O2-  O129  1  0.12367699  0.12715890  0.50666351  1
  O2-  O130  1  0.12529599  0.37543461  -0.00310177  1
  O2-  O131  1  0.12376859  0.37307632  0.51593665  1
  O2-  O132  1  0.12518444  0.62830672  -0.00485632  1
  O2-  O133  1  0.12449252  0.62299936  0.50663872  1
  O2-  O134  1  0.12748455  0.87427581  -0.00480609  1
  O2-  O135  1  0.12176925  0.87681346  0.51324266  1
  O2-  O136  1  0.37088491  0.12159095  -0.00440792  1
  O2-  O137  1  0.37817573  0.12913508  0.49717087  1
  O2-  O138  1  0.37290398  0.37678212  0.01636604  1
  O2-  O139  1  0.37796086  0.37288385  0.49532249  1
  O2-  O140  1  0.37306715  0.62595092  0.02046081  1
  O2-  O141  1  0.37655011  0.62318718  0.50727375  1
  O2-  O142  1  0.37219167  0.87510449  -0.00382153  1
  O2-  O143  1  0.37472211  0.87503100  0.50590564  1
  O2-  O144  1  0.62358582  0.12438933  0.00693232  1
  O2-  O145  1  0.62548045  0.12803823  0.50767915  1
  O2-  O146  1  0.62318758  0.37691442  0.00562324  1
  O2-  O147  1  0.62683220  0.37409466  0.49484666  1
  O2-  O148  1  0.62361497  0.62669422  -0.00405221  1
  O2-  O149  1  0.62667803  0.62167774  0.50705749  1
  O2-  O150  1  0.62321287  0.87317361  0.00861232  1
  O2-  O151  1  0.62731249  0.87594316  0.50746384  1
  O2-  O152  1  0.87696966  0.12273596  0.00828069  1
  O2-  O153  1  0.87485127  0.12761343  0.51814287  1
  O2-  O154  1  0.87771436  0.37608987  0.00591984  1
  O2-  O155  1  0.87198154  0.37493916  0.49202106  1
  O2-  O156  1  0.87809743  0.62655618  -0.00348338  1
  O2-  O157  1  0.87189340  0.62070558  0.49611478  1
  O2-  O158  1  0.87629446  0.87426499  0.00834265  1
  O2-  O159  1  0.87503075  0.87625105  0.50684248  1
  O2-  O160  1  0.12409169  -0.00082328  0.16837134  1
  O2-  O161  1  0.12429473  0.00144806  0.66148194  1
  O2-  O162  1  0.12459226  0.24951701  0.16352465  1
  O2-  O163  1  0.12475385  0.24824443  0.66608462  1
  O2-  O164  1  0.12573906  0.50127640  0.16480233  1
  O2-  O165  1  0.12420566  0.49802893  0.66529924  1
  O2-  O166  1  0.12530229  0.75049948  0.16781459  1
  O2-  O167  1  0.12326406  0.75176674  0.66120859  1
  O2-  O168  1  0.37491979  -0.00062380  0.16682469  1
  O2-  O169  1  0.37516947  0.00072231  0.66095567  1
  O2-  O170  1  0.37476020  0.25014834  0.16168377  1
  O2-  O171  1  0.37564953  0.24988231  0.66626324  1
  O2-  O172  1  0.37496404  0.50027590  0.16836409  1
  O2-  O173  1  0.37519152  0.49859967  0.66580581  1
  O2-  O174  1  0.37475136  0.75027270  0.16961521  1
  O2-  O175  1  0.37567604  0.75045604  0.66244341  1
  O2-  O176  1  0.62487274  -0.00045519  0.16825179  1
  O2-  O177  1  0.62636461  0.00267480  0.66374008  1
  O2-  O178  1  0.62594417  0.25383102  0.16156752  1
  O2-  O179  1  0.62543108  0.24885344  0.66654127  1
  O2-  O180  1  0.62475110  0.49833004  0.16263852  1
  O2-  O181  1  0.62610586  0.50023220  0.66431148  1
  O2-  O182  1  0.62472765  0.74898715  0.16906825  1
  O2-  O183  1  0.62632384  0.74768298  0.65995720  1
  O2-  O184  1  0.87593875  0.00249080  0.16755545  1
  O2-  O185  1  0.87484652  -0.00052283  0.66621016  1
  O2-  O186  1  0.87533896  0.25035866  0.15870124  1
  O2-  O187  1  0.87451425  0.24824810  0.67166226  1
  O2-  O188  1  0.87481746  0.49914073  0.15913448  1
  O2-  O189  1  0.87441940  0.49884949  0.66449049  1
  O2-  O190  1  0.87487213  0.74850873  0.16915467  1
  O2-  O191  1  0.87496638  0.75231674  0.65840671  1
  O2-  O192  1  -0.00148456  0.12552333  0.16507929  1
  O2-  O193  1  0.00103804  0.12508596  0.66633804  1
  O2-  O194  1  -0.00103426  0.37517719  0.16273365  1
  O2-  O195  1  0.00072472  0.37316541  0.66557800  1
  O2-  O196  1  0.00191286  0.62525902  0.16539933  1
  O2-  O197  1  -0.00225537  0.62436151  0.66129272  1
  O2-  O198  1  0.00141383  0.87482353  0.16728108  1
  O2-  O199  1  -0.00146852  0.87638103  0.66499560  1
  O2-  O200  1  0.24945384  0.12453218  0.16858100  1
  O2-  O201  1  0.24863909  0.12546779  0.65730527  1
  O2-  O202  1  0.25068214  0.37441324  0.16776012  1
  O2-  O203  1  0.24948332  0.37364803  0.66386564  1
  O2-  O204  1  0.25078148  0.62584396  0.17053459  1
  O2-  O205  1  0.25024974  0.62461941  0.66305992  1
  O2-  O206  1  0.25016507  0.87565548  0.16848979  1
  O2-  O207  1  0.24783394  0.87550076  0.66049258  1
  O2-  O208  1  0.49865493  0.12504957  0.16408593  1
  O2-  O209  1  0.50203179  0.12583561  0.66334012  1
  O2-  O210  1  0.50037166  0.37482848  0.16244694  1
  O2-  O211  1  0.49900873  0.37456949  0.66643140  1
  O2-  O212  1  0.49867902  0.62562072  0.16941909  1
  O2-  O213  1  0.50298509  0.62359128  0.66363206  1
  O2-  O214  1  0.49869285  0.87473096  0.16726573  1
  O2-  O215  1  0.50027472  0.87541221  0.66376753  1
  O2-  O216  1  0.75318077  0.12532638  0.16432719  1
  O2-  O217  1  0.74909027  0.12633258  0.66786698  1
  O2-  O218  1  0.75026849  0.37593007  0.15561892  1
  O2-  O219  1  0.75094429  0.37359803  0.66885543  1
  O2-  O220  1  0.74890710  0.62494868  0.16140573  1
  O2-  O221  1  0.74866399  0.62382165  0.66456862  1
  O2-  O222  1  0.74956010  0.87510376  0.16670110  1
  O2-  O223  1  0.75343088  0.87561214  0.66611446  1
  O2-  O224  1  0.12413455  0.00288360  0.35243609  1
  O2-  O225  1  0.12451635  -0.00053769  0.84118692  1
  O2-  O226  1  0.12392507  0.24816811  0.34815932  1
  O2-  O227  1  0.12471859  0.24927166  0.84698986  1
  O2-  O228  1  0.12471360  0.49854870  0.34902558  1
  O2-  O229  1  0.12483952  0.50072336  0.84615889  1
  O2-  O230  1  0.12393687  0.75118707  0.35171556  1
  O2-  O231  1  0.12522542  0.74999990  0.84035296  1
  O2-  O232  1  0.37537469  0.00316944  0.34945864  1
  O2-  O233  1  0.37452706  -0.00130586  0.84108613  1
  O2-  O234  1  0.37590880  0.24995316  0.34115217  1
  O2-  O235  1  0.37439001  0.24862841  0.84948178  1
  O2-  O236  1  0.37590979  0.49758232  0.34727178  1
  O2-  O237  1  0.37433140  0.50124735  0.85071225  1
  O2-  O238  1  0.37590106  0.74997164  0.35234094  1
  O2-  O239  1  0.37439234  0.75061167  0.84384975  1
  O2-  O240  1  0.62637685  0.00335055  0.35232804  1
  O2-  O241  1  0.62485938  -0.00168195  0.84723892  1
  O2-  O242  1  0.62591386  0.24911525  0.34408342  1
  O2-  O243  1  0.62488716  0.25352402  0.85136567  1
  O2-  O244  1  0.62611916  0.50073856  0.34499334  1
  O2-  O245  1  0.62488934  0.49936311  0.84781136  1
  O2-  O246  1  0.62606326  0.74720576  0.35363943  1
  O2-  O247  1  0.62463414  0.74824344  0.84195222  1
  O2-  O248  1  0.87473154  -0.00058948  0.35268526  1
  O2-  O249  1  0.87543820  0.00245527  0.84910613  1
  O2-  O250  1  0.87457082  0.25100115  0.34226208  1
  O2-  O251  1  0.87535341  0.25028215  0.85481425  1
  O2-  O252  1  0.87389308  0.49978369  0.34024954  1
  O2-  O253  1  0.87524868  0.49907388  0.84760474  1
  O2-  O254  1  0.87466557  0.75045155  0.35228900  1
  O2-  O255  1  0.87499345  0.74768682  0.84106440  1
  O2-  O256  1  0.00114166  0.12620016  0.35098244  1
  O2-  O257  1  -0.00025377  0.12510621  0.84792569  1
  O2-  O258  1  -0.00094382  0.37431975  0.34672634  1
  O2-  O259  1  -0.00082962  0.37438991  0.84672102  1
  O2-  O260  1  -0.00262842  0.62427707  0.34862101  1
  O2-  O261  1  0.00056903  0.62476018  0.84187174  1
  O2-  O262  1  -0.00255744  0.87626159  0.35047361  1
  O2-  O263  1  0.00240711  0.87486149  0.84574434  1
  O2-  O264  1  0.24971165  0.12639858  0.35247192  1
  O2-  O265  1  0.24968072  0.12432779  0.83878440  1
  O2-  O266  1  0.25090401  0.37370681  0.35006807  1
  O2-  O267  1  0.24865756  0.37514421  0.84538072  1
  O2-  O268  1  0.25044822  0.62443771  0.35291079  1
  O2-  O269  1  0.24965975  0.62474001  0.84527742  1
  O2-  O270  1  0.24897429  0.87594854  0.35238958  1
  O2-  O271  1  0.24996130  0.87476515  0.83942989  1
  O2-  O272  1  0.50231785  0.12616061  0.34663879  1
  O2-  O273  1  0.49712338  0.12489880  0.84633369  1
  O2-  O274  1  0.50156830  0.37471782  0.34169499  1
  O2-  O275  1  0.50061837  0.37591593  0.85173997  1
  O2-  O276  1  0.50367908  0.62378798  0.35146674  1
  O2-  O277  1  0.49910216  0.62431281  0.84707501  1
  O2-  O278  1  0.50090321  0.87589768  0.35023777  1
  O2-  O279  1  0.49750839  0.87403057  0.84592100  1
  O2-  O280  1  0.74793702  0.12619362  0.34867683  1
  O2-  O281  1  0.75290131  0.12552106  0.85205558  1
  O2-  O282  1  0.74875764  0.37443375  0.33735148  1
  O2-  O283  1  0.75081150  0.37502771  0.85360497  1
  O2-  O284  1  0.74866266  0.62459631  0.34449368  1
  O2-  O285  1  0.75026872  0.62405900  0.84659860  1
  O2-  O286  1  0.75310500  0.87557041  0.34952564  1
  O2-  O287  1  0.74943602  0.87456081  0.84984249  1
