# generated using pymatgen
data_BaYFeCuO5
_symmetry_space_group_name_H-M   'P 1'
_cell_length_a   15.66587038
_cell_length_b   15.66333198
_cell_length_c   15.46912183
_cell_angle_alpha   90.00333497
_cell_angle_beta   90.00498377
_cell_angle_gamma   89.99818229
_symmetry_Int_Tables_number   1
_chemical_formula_structural   BaYFeCuO5
_chemical_formula_sum   'Ba32 Y32 Fe32 Cu32 O160'
_cell_volume   3795.80889215
_cell_formula_units_Z   32
loop_
 _symmetry_equiv_pos_site_id
 _symmetry_equiv_pos_as_xyz
  1  'x, y, z'
loop_
 _atom_type_symbol
 _atom_type_oxidation_number
  Ba2+  2.0
  Y3+  3.0
  Fe3+  3.0
  Cu2+  2.0
  O2-  -2.0
loop_
 _atom_site_type_symbol
 _atom_site_label
 _atom_site_symmetry_multiplicity
 _atom_site_fract_x
 _atom_site_fract_y
 _atom_site_fract_z
 _atom_site_occupancy
  Ba2+  Ba0  1  0.00415939  -0.00726298  0.00261830  1
  Ba2+  Ba1  1  0.00754387  0.00625664  0.50576541  1
  Ba2+  Ba2  1  0.00678679  0.25642675  0.00641322  1
  Ba2+  Ba3  1  0.00376549  0.24809946  0.51152852  1
  Ba2+  Ba4  1  0.00773234  0.49667458  0.01114656  1
  Ba2+  Ba5  1  0.00057400  0.49898492  0.51863074  1
  Ba2+  Ba6  1  0.00499181  0.75487805  0.00734672  1
  Ba2+  Ba7  1  0.00524706  0.74643048  0.51299209  1
  Ba2+  Ba8  1  0.24256507  0.00257164  0.00577286  1
  Ba2+  Ba9  1  0.24912349  0.00040443  0.52264097  1
  Ba2+  Ba10  1  0.24842870  0.25310786  0.01209378  1
  Ba2+  Ba11  1  0.24828337  0.24797064  0.52030330  1
  Ba2+  Ba12  1  0.24257399  0.49523997  0.01108012  1
  Ba2+  Ba13  1  0.25212696  0.50282692  0.51203551  1
  Ba2+  Ba14  1  0.23814246  0.74911901  0.00696641  1
  Ba2+  Ba15  1  0.25306185  0.74854694  0.51309804  1
  Ba2+  Ba16  1  0.49404957  0.00581053  0.01093592  1
  Ba2+  Ba17  1  0.49961354  -0.00046893  0.52240605  1
  Ba2+  Ba18  1  0.49422629  0.25591348  0.02295394  1
  Ba2+  Ba19  1  0.49693859  0.24319838  0.51469130  1
  Ba2+  Ba20  1  0.50459777  0.49631733  0.01799333  1
  Ba2+  Ba21  1  0.49324691  0.50712759  0.50575168  1
  Ba2+  Ba22  1  0.50603719  0.74199531  0.00675385  1
  Ba2+  Ba23  1  0.49562127  0.74936249  0.51308521  1
  Ba2+  Ba24  1  0.75723835  -0.00561013  0.00744840  1
  Ba2+  Ba25  1  0.74338070  0.00473217  0.50682441  1
  Ba2+  Ba26  1  0.75043528  0.25980990  0.01888957  1
  Ba2+  Ba27  1  0.75194158  0.24361845  0.50492605  1
  Ba2+  Ba28  1  0.74494169  0.49820688  0.01771137  1
  Ba2+  Ba29  1  0.75519854  0.50346837  0.51272638  1
  Ba2+  Ba30  1  0.75193124  0.74815694  0.00621011  1
  Ba2+  Ba31  1  0.74591496  0.74767923  0.51214784  1
  Y3+  Y32  1  0.00071705  -0.00027056  0.25665075  1
  Y3+  Y33  1  0.00295830  -0.00112617  0.75964839  1
  Y3+  Y34  1  0.00164255  0.24945609  0.25926580  1
  Y3+  Y35  1  0.00360648  0.25129564  0.75631328  1
  Y3+  Y36  1  0.00295938  0.49976552  0.25462387  1
  Y3+  Y37  1  0.00206388  0.49846659  0.75949527  1
  Y3+  Y38  1  0.00198872  0.75100121  0.25297387  1
  Y3+  Y39  1  0.00113324  0.75105353  0.76246666  1
  Y3+  Y40  1  0.24773614  0.00066615  0.25523293  1
  Y3+  Y41  1  0.24663644  0.00029787  0.75802918  1
  Y3+  Y42  1  0.24914725  0.25061559  0.25627718  1
  Y3+  Y43  1  0.24698083  0.25067639  0.75616397  1
  Y3+  Y44  1  0.24847127  0.50154234  0.25655905  1
  Y3+  Y45  1  0.24901891  0.49874839  0.75784896  1
  Y3+  Y46  1  0.24740947  0.74756967  0.25632812  1
  Y3+  Y47  1  0.24839554  0.75003724  0.75911939  1
  Y3+  Y48  1  0.49960132  0.00186124  0.25640422  1
  Y3+  Y49  1  0.49994853  0.00030179  0.75574885  1
  Y3+  Y50  1  0.49911848  0.25019473  0.25918080  1
  Y3+  Y51  1  0.49869372  0.24912923  0.75180756  1
  Y3+  Y52  1  0.49985021  0.50225558  0.25844102  1
  Y3+  Y53  1  0.49809940  0.50144855  0.75538272  1
  Y3+  Y54  1  0.49992916  0.74575239  0.25766205  1
  Y3+  Y55  1  0.49954720  0.74864124  0.75770105  1
  Y3+  Y56  1  0.75205984  0.00094951  0.25821671  1
  Y3+  Y57  1  0.75020792  -0.00101441  0.75750073  1
  Y3+  Y58  1  0.74992314  0.24913344  0.26046181  1
  Y3+  Y59  1  0.75038420  0.25007716  0.75303722  1
  Y3+  Y60  1  0.74872457  0.50070039  0.25671088  1
  Y3+  Y61  1  0.75089710  0.50102923  0.75704682  1
  Y3+  Y62  1  0.75049400  0.74944081  0.25409062  1
  Y3+  Y63  1  0.75078236  0.74977442  0.76051193  1
  Fe3+  Fe64  1  0.62436007  0.87547803  0.87942783  1
  Fe3+  Fe65  1  0.37445181  0.62354466  0.88035223  1
  Fe3+  Fe66  1  0.12610042  0.87468912  0.37719145  1
  Fe3+  Fe67  1  0.62374419  0.87455185  0.37527524  1
  Fe3+  Fe68  1  0.62395839  0.37449158  0.87369255  1
  Fe3+  Fe69  1  0.37453573  0.12678303  0.87606471  1
  Fe3+  Fe70  1  0.62508360  0.12720713  0.88023786  1
  Fe3+  Fe71  1  0.87559137  0.87487752  0.38042305  1
  Fe3+  Fe72  1  0.37444324  0.87503215  0.37483046  1
  Fe3+  Fe73  1  0.87651177  0.62570478  0.37590910  1
  Fe3+  Fe74  1  0.37403765  0.37523311  0.37724334  1
  Fe3+  Fe75  1  0.87567025  0.12633293  0.88080324  1
  Fe3+  Fe76  1  0.62454048  0.37580890  0.37950250  1
  Fe3+  Fe77  1  0.87451299  0.37480918  0.87620550  1
  Fe3+  Fe78  1  0.37533325  0.37466069  0.87510568  1
  Fe3+  Fe79  1  0.87608695  0.37554652  0.37679868  1
  Fe3+  Fe80  1  0.37468215  0.87480523  0.87965820  1
  Fe3+  Fe81  1  0.12573907  0.37567103  0.37829769  1
  Fe3+  Fe82  1  0.37342872  0.12368751  0.37613302  1
  Fe3+  Fe83  1  0.87570033  0.62360539  0.87971688  1
  Fe3+  Fe84  1  0.87605877  0.12394399  0.63926839  1
  Fe3+  Fe85  1  0.62488667  0.37536734  0.63243959  1
  Fe3+  Fe86  1  0.37408084  0.87452573  0.13235774  1
  Fe3+  Fe87  1  0.62500867  0.62530331  0.63885049  1
  Fe3+  Fe88  1  0.87591431  0.87485666  0.63551800  1
  Fe3+  Fe89  1  0.87629262  0.12586852  0.13516421  1
  Fe3+  Fe90  1  0.62528132  0.12547818  0.13418627  1
  Fe3+  Fe91  1  0.87612884  0.62429779  0.13456195  1
  Fe3+  Fe92  1  0.62465692  0.87513040  0.13391166  1
  Fe3+  Fe93  1  0.12445684  0.12546024  0.13731240  1
  Fe3+  Fe94  1  0.12509539  0.62509831  0.64118151  1
  Fe3+  Fe95  1  0.37389833  0.62458191  0.13434905  1
  Cu2+  Cu96  1  0.87611737  0.12444088  0.36401675  1
  Cu2+  Cu97  1  0.37348385  0.62586394  0.37112502  1
  Cu2+  Cu98  1  0.12597534  0.87503612  0.87111420  1
  Cu2+  Cu99  1  0.87504445  0.87508949  0.87276029  1
  Cu2+  Cu100  1  0.12413449  0.62499462  0.36289480  1
  Cu2+  Cu101  1  0.12493260  0.12604371  0.86577761  1
  Cu2+  Cu102  1  0.62314284  0.12414183  0.37217707  1
  Cu2+  Cu103  1  0.62508412  0.62267827  0.87366424  1
  Cu2+  Cu104  1  0.12500517  0.62378463  0.87302576  1
  Cu2+  Cu105  1  0.62613684  0.62554520  0.36362012  1
  Cu2+  Cu106  1  0.12589000  0.37470770  0.87070848  1
  Cu2+  Cu107  1  0.12686740  0.12525243  0.37254957  1
  Cu2+  Cu108  1  0.87565305  0.37474775  0.15192089  1
  Cu2+  Cu109  1  0.12526830  0.87588074  0.14310507  1
  Cu2+  Cu110  1  0.12526506  0.37555395  0.64865985  1
  Cu2+  Cu111  1  0.12404955  0.12463963  0.64429409  1
  Cu2+  Cu112  1  0.12467813  0.62489624  0.14117177  1
  Cu2+  Cu113  1  0.62609920  0.12441407  0.64247655  1
  Cu2+  Cu114  1  0.37424134  0.12511265  0.14929863  1
  Cu2+  Cu115  1  0.62569720  0.87410594  0.65386367  1
  Cu2+  Cu116  1  0.37504443  0.37548079  0.64632326  1
  Cu2+  Cu117  1  0.87541952  0.87537623  0.14088676  1
  Cu2+  Cu118  1  0.12505758  0.37402690  0.14519604  1
  Cu2+  Cu119  1  0.37398569  0.12425272  0.65318492  1
  Cu2+  Cu120  1  0.37433552  0.87442277  0.65602838  1
  Cu2+  Cu121  1  0.62454826  0.37430250  0.15749101  1
  Cu2+  Cu122  1  0.12432127  0.87424788  0.65234861  1
  Cu2+  Cu123  1  0.87580766  0.62582158  0.65451021  1
  Cu2+  Cu124  1  0.37402063  0.62535820  0.64492359  1
  Cu2+  Cu125  1  0.62526561  0.62505541  0.14209072  1
  Cu2+  Cu126  1  0.87511408  0.37473605  0.64818197  1
  Cu2+  Cu127  1  0.37424253  0.37609070  0.15322622  1
  O2-  O128  1  0.12307912  0.12628502  0.01657560  1
  O2-  O129  1  0.12665093  0.12491125  0.50845475  1
  O2-  O130  1  0.12575308  0.37340235  0.00689342  1
  O2-  O131  1  0.12532645  0.37607367  0.49886487  1
  O2-  O132  1  0.12408677  0.62388976  0.00747026  1
  O2-  O133  1  0.12523502  0.62520403  0.52004696  1
  O2-  O134  1  0.12599964  0.87640039  0.00655708  1
  O2-  O135  1  0.12641079  0.87423877  0.49738831  1
  O2-  O136  1  0.37663048  0.12894479  -0.00368063  1
  O2-  O137  1  0.37440048  0.12184482  0.49651526  1
  O2-  O138  1  0.37684923  0.37499148  -0.00483977  1
  O2-  O139  1  0.37451379  0.37472271  0.49740431  1
  O2-  O140  1  0.37539355  0.62283113  0.00718545  1
  O2-  O141  1  0.37427440  0.62688565  0.50715654  1
  O2-  O142  1  0.37527401  0.87472378  0.00563988  1
  O2-  O143  1  0.37536711  0.87617992  0.49479515  1
  O2-  O144  1  0.62534681  0.12848327  0.00607500  1
  O2-  O145  1  0.62407783  0.12336060  0.50643790  1
  O2-  O146  1  0.62410872  0.37314136  -0.00588122  1
  O2-  O147  1  0.62520903  0.37567413  0.50571853  1
  O2-  O148  1  0.62530419  0.62271401  0.00736071  1
  O2-  O149  1  0.62534376  0.62662575  0.51800865  1
  O2-  O150  1  0.62490430  0.87572951  0.00637274  1
  O2-  O151  1  0.62324466  0.87488703  0.49550749  1
  O2-  O152  1  0.87499758  0.12701185  0.00819417  1
  O2-  O153  1  0.87507114  0.12279382  0.51848253  1
  O2-  O154  1  0.87278142  0.37584603  -0.00365991  1
  O2-  O155  1  0.87562510  0.37560231  0.49706141  1
  O2-  O156  1  0.87496211  0.62271950  0.00676843  1
  O2-  O157  1  0.87582466  0.62668974  0.49621669  1
  O2-  O158  1  0.87394867  0.87453345  0.00743296  1
  O2-  O159  1  0.87539634  0.87488991  0.50687587  1
  O2-  O160  1  0.12494937  0.00246823  0.16572445  1
  O2-  O161  1  0.12459709  -0.00211334  0.66683701  1
  O2-  O162  1  0.12475267  0.24819332  0.16725977  1
  O2-  O163  1  0.12442062  0.25166907  0.66366058  1
  O2-  O164  1  0.12532205  0.49899697  0.16439604  1
  O2-  O165  1  0.12472622  0.50024510  0.66695894  1
  O2-  O166  1  0.12458251  0.75068479  0.16392329  1
  O2-  O167  1  0.12413162  0.74978608  0.66848453  1
  O2-  O168  1  0.37571585  -0.00180875  0.15872477  1
  O2-  O169  1  0.37513365  -0.00092249  0.66791241  1
  O2-  O170  1  0.37605089  0.25085407  0.16414716  1
  O2-  O171  1  0.37590138  0.24949186  0.66028527  1
  O2-  O172  1  0.37499807  0.50180414  0.16344664  1
  O2-  O173  1  0.37503895  0.49936946  0.66463910  1
  O2-  O174  1  0.37647979  0.74980442  0.16049532  1
  O2-  O175  1  0.37508945  0.75117021  0.67003174  1
  O2-  O176  1  0.62501116  0.00114596  0.15757390  1
  O2-  O177  1  0.62556118  -0.00206724  0.66952474  1
  O2-  O178  1  0.62464943  0.24815399  0.16478193  1
  O2-  O179  1  0.62534913  0.25255273  0.66092661  1
  O2-  O180  1  0.62529863  0.49821629  0.16634821  1
  O2-  O181  1  0.62551478  0.49935122  0.66320915  1
  O2-  O182  1  0.62413957  0.75318184  0.16177712  1
  O2-  O183  1  0.62573491  0.74929076  0.67017147  1
  O2-  O184  1  0.87383752  0.00407444  0.16437217  1
  O2-  O185  1  0.87479933  -0.00227488  0.66901268  1
  O2-  O186  1  0.87384996  0.24835508  0.16417607  1
  O2-  O187  1  0.87495362  0.24942871  0.66557989  1
  O2-  O188  1  0.87407498  0.50053167  0.16228946  1
  O2-  O189  1  0.87468069  0.50014055  0.66290392  1
  O2-  O190  1  0.87465253  0.74731628  0.16296191  1
  O2-  O191  1  0.87475256  0.75216645  0.66646594  1
  O2-  O192  1  -0.00118683  0.12550662  0.16699267  1
  O2-  O193  1  -0.00162108  0.12429823  0.66988686  1
  O2-  O194  1  -0.00084064  0.37432824  0.16555042  1
  O2-  O195  1  -0.00002466  0.37549963  0.66535246  1
  O2-  O196  1  -0.00238911  0.62433078  0.16327173  1
  O2-  O197  1  0.00030628  0.62512987  0.66841296  1
  O2-  O198  1  0.00040251  0.87616879  0.16678655  1
  O2-  O199  1  -0.00174114  0.87443993  0.66457793  1
  O2-  O200  1  0.24983803  0.12546509  0.16221980  1
  O2-  O201  1  0.25048419  0.12442291  0.66602568  1
  O2-  O202  1  0.25109308  0.37459805  0.16404343  1
  O2-  O203  1  0.25047858  0.37508279  0.66466061  1
  O2-  O204  1  0.25236339  0.62565720  0.16296254  1
  O2-  O205  1  0.24822637  0.62551634  0.66949671  1
  O2-  O206  1  0.25309974  0.87466361  0.16128542  1
  O2-  O207  1  0.24939467  0.87449497  0.66625155  1
  O2-  O208  1  0.50142328  0.12485917  0.16068487  1
  O2-  O209  1  0.49871913  0.12361335  0.66504038  1
  O2-  O210  1  0.49955895  0.37550119  0.16549245  1
  O2-  O211  1  0.50187358  0.37516765  0.66015482  1
  O2-  O212  1  0.49715501  0.62415995  0.16355859  1
  O2-  O213  1  0.50142618  0.62580026  0.66732138  1
  O2-  O214  1  0.50004424  0.87636393  0.15814439  1
  O2-  O215  1  0.50008183  0.87475923  0.66643860  1
  O2-  O216  1  0.74961542  0.12584055  0.16250375  1
  O2-  O217  1  0.75247563  0.12390178  0.66975223  1
  O2-  O218  1  0.74969733  0.37395708  0.16560015  1
  O2-  O219  1  0.74805955  0.37539284  0.66135789  1
  O2-  O220  1  0.75268930  0.62476397  0.16332008  1
  O2-  O221  1  0.75022979  0.62566520  0.66687549  1
  O2-  O222  1  0.74621304  0.87602123  0.16462548  1
  O2-  O223  1  0.75213978  0.87454989  0.66429359  1
  O2-  O224  1  0.12448967  -0.00206172  0.34644995  1
  O2-  O225  1  0.12498662  0.00158441  0.85060250  1
  O2-  O226  1  0.12525221  0.25223240  0.34816225  1
  O2-  O227  1  0.12524223  0.24931215  0.84725112  1
  O2-  O228  1  0.12439092  0.49986966  0.34732020  1
  O2-  O229  1  0.12516881  0.49934259  0.84926621  1
  O2-  O230  1  0.12438777  0.75039610  0.34674074  1
  O2-  O231  1  0.12524616  0.74957530  0.85104389  1
  O2-  O232  1  0.37514945  -0.00089141  0.34011422  1
  O2-  O233  1  0.37645594  -0.00042948  0.85203950  1
  O2-  O234  1  0.37518396  0.25037170  0.34636730  1
  O2-  O235  1  0.37558437  0.24986250  0.84187948  1
  O2-  O236  1  0.37549856  0.49899016  0.34719602  1
  O2-  O237  1  0.37561745  0.50035440  0.84678950  1
  O2-  O238  1  0.37467220  0.75151449  0.34359413  1
  O2-  O239  1  0.37597225  0.75000835  0.85434108  1
  O2-  O240  1  0.62516699  -0.00294279  0.34045805  1
  O2-  O241  1  0.62437038  0.00123290  0.85430411  1
  O2-  O242  1  0.62530100  0.25337179  0.34945048  1
  O2-  O243  1  0.62541536  0.24860262  0.84292023  1
  O2-  O244  1  0.62527374  0.49903923  0.35074368  1
  O2-  O245  1  0.62481418  0.49713668  0.84387486  1
  O2-  O246  1  0.62621818  0.75084248  0.34412640  1
  O2-  O247  1  0.62483353  0.75254095  0.85415679  1
  O2-  O248  1  0.87501684  -0.00207559  0.34901274  1
  O2-  O249  1  0.87445669  0.00374805  0.85264871  1
  O2-  O250  1  0.87423465  0.25061526  0.34804027  1
  O2-  O251  1  0.87368209  0.24876315  0.84793499  1
  O2-  O252  1  0.87481911  0.50014453  0.34461876  1
  O2-  O253  1  0.87454374  0.49993975  0.84639140  1
  O2-  O254  1  0.87450885  0.75201457  0.34628356  1
  O2-  O255  1  0.87421632  0.74749603  0.85170030  1
  O2-  O256  1  -0.00027850  0.12488187  0.35047042  1
  O2-  O257  1  -0.00131422  0.12578510  0.85333839  1
  O2-  O258  1  0.00046675  0.37506491  0.34666975  1
  O2-  O259  1  -0.00178426  0.37404306  0.84860745  1
  O2-  O260  1  -0.00070830  0.62615142  0.34541271  1
  O2-  O261  1  -0.00269313  0.62443020  0.85138275  1
  O2-  O262  1  -0.00104572  0.87486122  0.34974527  1
  O2-  O263  1  0.00036021  0.87536276  0.84875260  1
  O2-  O264  1  0.25199491  0.12451762  0.34295424  1
  O2-  O265  1  0.25035877  0.12465058  0.84939571  1
  O2-  O266  1  0.24992098  0.37616582  0.34529100  1
  O2-  O267  1  0.25221296  0.37470688  0.84736406  1
  O2-  O268  1  0.24733869  0.62518517  0.34667227  1
  O2-  O269  1  0.25315641  0.62502072  0.85181872  1
  O2-  O270  1  0.24971699  0.87449259  0.34236258  1
  O2-  O271  1  0.25359061  0.87535865  0.85022410  1
  O2-  O272  1  0.49685216  0.12484923  0.34316245  1
  O2-  O273  1  0.50163128  0.12510462  0.84777911  1
  O2-  O274  1  0.50072833  0.37560144  0.34904520  1
  O2-  O275  1  0.49970855  0.37408941  0.84105183  1
  O2-  O276  1  0.50181547  0.62573870  0.34806034  1
  O2-  O277  1  0.49666210  0.62500125  0.84996794  1
  O2-  O278  1  0.49948271  0.87403923  0.34030040  1
  O2-  O279  1  0.49997705  0.87526227  0.85128367  1
  O2-  O280  1  0.75134634  0.12424329  0.34776804  1
  O2-  O281  1  0.74924524  0.12469431  0.85252197  1
  O2-  O282  1  0.74926280  0.37528157  0.34953854  1
  O2-  O283  1  0.74980521  0.37412203  0.84271671  1
  O2-  O284  1  0.75163826  0.62570373  0.34601406  1
  O2-  O285  1  0.75301893  0.62453488  0.84988274  1
  O2-  O286  1  0.75179126  0.87545938  0.34868910  1
  O2-  O287  1  0.74639657  0.87608722  0.84921328  1
