# generated using pymatgen
data_BaYFeCuO5
_symmetry_space_group_name_H-M   'P 1'
_cell_length_a   15.68258984
_cell_length_b   15.68284244
_cell_length_c   15.52103818
_cell_angle_alpha   90.00470992
_cell_angle_beta   90.00460900
_cell_angle_gamma   89.99976467
_symmetry_Int_Tables_number   1
_chemical_formula_structural   BaYFeCuO5
_chemical_formula_sum   'Ba32 Y32 Fe32 Cu32 O160'
_cell_volume   3817.36183865
_cell_formula_units_Z   32
loop_
 _symmetry_equiv_pos_site_id
 _symmetry_equiv_pos_as_xyz
  1  'x, y, z'
loop_
 _atom_type_symbol
 _atom_type_oxidation_number
  Ba2+  2.0
  Y3+  3.0
  Fe3+  3.0
  Cu2+  2.0
  O2-  -2.0
loop_
 _atom_site_type_symbol
 _atom_site_label
 _atom_site_symmetry_multiplicity
 _atom_site_fract_x
 _atom_site_fract_y
 _atom_site_fract_z
 _atom_site_occupancy
  Ba2+  Ba0  1  -0.00804445  0.00578451  0.00760627  1
  Ba2+  Ba1  1  0.00614006  -0.00442659  0.52471719  1
  Ba2+  Ba2  1  -0.00346202  0.24969003  0.00194113  1
  Ba2+  Ba3  1  0.00704579  0.25240893  0.52353142  1
  Ba2+  Ba4  1  -0.00396766  0.50152381  0.01093952  1
  Ba2+  Ba5  1  -0.00313248  0.49580660  0.52210796  1
  Ba2+  Ba6  1  -0.00746284  0.74308319  0.01383674  1
  Ba2+  Ba7  1  -0.00404383  0.75504863  0.52311105  1
  Ba2+  Ba8  1  0.25308759  0.00992981  0.00348361  1
  Ba2+  Ba9  1  0.24926496  0.00031090  0.52950533  1
  Ba2+  Ba10  1  0.25369572  0.25050267  0.00257647  1
  Ba2+  Ba11  1  0.24731118  0.24794067  0.51951995  1
  Ba2+  Ba12  1  0.25164783  0.49894877  0.01872194  1
  Ba2+  Ba13  1  0.25577665  0.49840766  0.50511637  1
  Ba2+  Ba14  1  0.25083400  0.74035896  0.01663041  1
  Ba2+  Ba15  1  0.25629805  0.75308251  0.51676431  1
  Ba2+  Ba16  1  0.50415404  0.00636875  -0.00310659  1
  Ba2+  Ba17  1  0.49652688  -0.00830284  0.51793965  1
  Ba2+  Ba18  1  0.49945385  0.25004276  0.00106538  1
  Ba2+  Ba19  1  0.48965040  0.24885063  0.50582356  1
  Ba2+  Ba20  1  0.50060774  0.49972132  0.02170683  1
  Ba2+  Ba21  1  0.49668296  0.50965234  0.50335981  1
  Ba2+  Ba22  1  0.50576390  0.74437863  0.01388850  1
  Ba2+  Ba23  1  0.50273870  0.74828058  0.51042728  1
  Ba2+  Ba24  1  0.75037246  0.00226943  0.00068887  1
  Ba2+  Ba25  1  0.74851723  -0.01152511  0.51165679  1
  Ba2+  Ba26  1  0.74988246  0.24920779  0.00003143  1
  Ba2+  Ba27  1  0.75565285  0.25442712  0.51141837  1
  Ba2+  Ba28  1  0.75113963  0.50221690  0.01311755  1
  Ba2+  Ba29  1  0.75183131  0.50815475  0.51522613  1
  Ba2+  Ba30  1  0.75163449  0.74628693  0.01253386  1
  Ba2+  Ba31  1  0.74504883  0.75026954  0.51501458  1
  Y3+  Y32  1  -0.00278134  0.00068746  0.25200567  1
  Y3+  Y33  1  0.00043475  0.00127725  0.76211763  1
  Y3+  Y34  1  -0.00200968  0.24900854  0.25398383  1
  Y3+  Y35  1  0.00204304  0.25025121  0.76113058  1
  Y3+  Y36  1  -0.00156033  0.50124252  0.25302139  1
  Y3+  Y37  1  -0.00105891  0.49948589  0.75846930  1
  Y3+  Y38  1  -0.00191322  0.74866972  0.25186721  1
  Y3+  Y39  1  -0.00251301  0.74916201  0.75883753  1
  Y3+  Y40  1  0.25047507  0.00152240  0.25138364  1
  Y3+  Y41  1  0.25104953  0.00235472  0.76242133  1
  Y3+  Y42  1  0.25253149  0.25036346  0.25469135  1
  Y3+  Y43  1  0.24854290  0.24894424  0.76143284  1
  Y3+  Y44  1  0.25258327  0.50096131  0.25877009  1
  Y3+  Y45  1  0.24935725  0.49933886  0.75465693  1
  Y3+  Y46  1  0.25034448  0.74716707  0.25684381  1
  Y3+  Y47  1  0.25180542  0.74969123  0.75541837  1
  Y3+  Y48  1  0.50076829  -0.00070624  0.25779885  1
  Y3+  Y49  1  0.50052347  -0.00096145  0.75885694  1
  Y3+  Y50  1  0.49664847  0.25006973  0.25742351  1
  Y3+  Y51  1  0.49965063  0.24909090  0.75909357  1
  Y3+  Y52  1  0.49820843  0.50289001  0.26333470  1
  Y3+  Y53  1  0.50136476  0.50254407  0.75247133  1
  Y3+  Y54  1  0.50213878  0.74809004  0.26290862  1
  Y3+  Y55  1  0.50243830  0.74987964  0.75207226  1
  Y3+  Y56  1  0.75124276  -0.00187974  0.25691637  1
  Y3+  Y57  1  0.74829583  -0.00215508  0.75818419  1
  Y3+  Y58  1  0.75206303  0.24955486  0.25790728  1
  Y3+  Y59  1  0.75011460  0.25015284  0.75814336  1
  Y3+  Y60  1  0.75000003  0.50282877  0.25836159  1
  Y3+  Y61  1  0.75086326  0.50268802  0.75530489  1
  Y3+  Y62  1  0.74906413  0.74909382  0.25898133  1
  Y3+  Y63  1  0.74866837  0.74926203  0.75519111  1
  Fe3+  Fe64  1  0.87688971  0.87473819  0.37558546  1
  Fe3+  Fe65  1  0.87705446  0.12386308  0.38215742  1
  Fe3+  Fe66  1  0.12535161  0.62415610  0.87578075  1
  Fe3+  Fe67  1  0.87691555  0.62585243  0.37762520  1
  Fe3+  Fe68  1  0.12485966  0.87593389  0.37390674  1
  Fe3+  Fe69  1  0.37641657  0.87289998  0.87980580  1
  Fe3+  Fe70  1  0.37250379  0.12291936  0.37709601  1
  Fe3+  Fe71  1  0.12447373  0.37434392  0.37634948  1
  Fe3+  Fe72  1  0.12478479  0.12373960  0.37626886  1
  Fe3+  Fe73  1  0.62490563  0.37482558  0.38160493  1
  Fe3+  Fe74  1  0.87391340  0.37666714  0.87457265  1
  Fe3+  Fe75  1  0.87387572  0.87342336  0.87646390  1
  Fe3+  Fe76  1  0.62509290  0.12399359  0.38336743  1
  Fe3+  Fe77  1  0.37608766  0.37797885  0.87590841  1
  Fe3+  Fe78  1  0.12343167  0.62584379  0.37977797  1
  Fe3+  Fe79  1  0.37319616  0.87613501  0.37434058  1
  Fe3+  Fe80  1  0.87704989  0.37515520  0.37729598  1
  Fe3+  Fe81  1  0.12538664  0.87373954  0.88003250  1
  Fe3+  Fe82  1  0.62498532  0.62405711  0.87466988  1
  Fe3+  Fe83  1  0.37618822  0.62414454  0.87474523  1
  Fe3+  Fe84  1  0.62512275  0.37460643  0.14137972  1
  Fe3+  Fe85  1  0.12471553  0.12645349  0.13418410  1
  Fe3+  Fe86  1  0.62457828  0.37502529  0.63414037  1
  Fe3+  Fe87  1  0.62424052  0.12518299  0.63515616  1
  Fe3+  Fe88  1  0.62523893  0.87494289  0.13776203  1
  Fe3+  Fe89  1  0.37642374  0.87483290  0.13252891  1
  Fe3+  Fe90  1  0.87500879  0.12416190  0.63649005  1
  Fe3+  Fe91  1  0.12435909  0.87486010  0.13079558  1
  Fe3+  Fe92  1  0.12469517  0.37478584  0.13552446  1
  Fe3+  Fe93  1  0.37490663  0.37485510  0.63786231  1
  Fe3+  Fe94  1  0.62507091  0.12552729  0.14091844  1
  Fe3+  Fe95  1  0.12537023  0.62516920  0.63408710  1
  Cu2+  Cu96  1  0.87409299  0.62484269  0.86995653  1
  Cu2+  Cu97  1  0.87407694  0.12531844  0.87005851  1
  Cu2+  Cu98  1  0.62551047  0.12537828  0.85838531  1
  Cu2+  Cu99  1  0.12458261  0.12528040  0.86808029  1
  Cu2+  Cu100  1  0.37390738  0.37408446  0.36416827  1
  Cu2+  Cu101  1  0.62653269  0.62534313  0.37371991  1
  Cu2+  Cu102  1  0.12567544  0.37660282  0.86663434  1
  Cu2+  Cu103  1  0.62469646  0.87319228  0.86472972  1
  Cu2+  Cu104  1  0.37337602  0.62710931  0.37301387  1
  Cu2+  Cu105  1  0.62519162  0.87547013  0.37308737  1
  Cu2+  Cu106  1  0.62458068  0.37682940  0.86002365  1
  Cu2+  Cu107  1  0.37595058  0.12586278  0.87206142  1
  Cu2+  Cu108  1  0.62469835  0.87522439  0.64328535  1
  Cu2+  Cu109  1  0.87573998  0.62558461  0.65092402  1
  Cu2+  Cu110  1  0.37537087  0.12545089  0.65626366  1
  Cu2+  Cu111  1  0.37484921  0.62497181  0.64032873  1
  Cu2+  Cu112  1  0.87366585  0.37465559  0.15052063  1
  Cu2+  Cu113  1  0.12550028  0.87443648  0.65826245  1
  Cu2+  Cu114  1  0.62499393  0.62488311  0.64052601  1
  Cu2+  Cu115  1  0.87478739  0.87579078  0.65528792  1
  Cu2+  Cu116  1  0.37592794  0.37544088  0.15348855  1
  Cu2+  Cu117  1  0.62472936  0.62486523  0.15653397  1
  Cu2+  Cu118  1  0.87336678  0.62431858  0.14193412  1
  Cu2+  Cu119  1  0.37707714  0.12514050  0.13919418  1
  Cu2+  Cu120  1  0.87256430  0.12571877  0.14053660  1
  Cu2+  Cu121  1  0.37506991  0.87547593  0.65737617  1
  Cu2+  Cu122  1  0.87376206  0.87497334  0.14696123  1
  Cu2+  Cu123  1  0.12487737  0.62412100  0.15083056  1
  Cu2+  Cu124  1  0.37602526  0.62576080  0.15485114  1
  Cu2+  Cu125  1  0.87462638  0.37403290  0.65281987  1
  Cu2+  Cu126  1  0.12504796  0.12475734  0.65892759  1
  Cu2+  Cu127  1  0.12567720  0.37551739  0.65392516  1
  O2-  O128  1  0.12413530  0.12746751  0.01406215  1
  O2-  O129  1  0.12538463  0.12204501  0.49570572  1
  O2-  O130  1  0.12594650  0.37570830  0.01561733  1
  O2-  O131  1  0.12422501  0.37345318  0.49630486  1
  O2-  O132  1  0.12650855  0.62324823  -0.00405507  1
  O2-  O133  1  0.12317304  0.62664001  0.50552766  1
  O2-  O134  1  0.12454883  0.87302546  0.00504329  1
  O2-  O135  1  0.12565910  0.87669902  0.49337720  1
  O2-  O136  1  0.37761711  0.12626436  0.00635895  1
  O2-  O137  1  0.36998363  0.12206598  0.49659237  1
  O2-  O138  1  0.37731660  0.37911230  -0.00405942  1
  O2-  O139  1  0.37277828  0.37241044  0.51747571  1
  O2-  O140  1  0.37664729  0.62299556  -0.00546186  1
  O2-  O141  1  0.37252933  0.62698295  0.50593965  1
  O2-  O142  1  0.37821336  0.87278903  0.00587013  1
  O2-  O143  1  0.37023872  0.87802782  0.49453716  1
  O2-  O144  1  0.62568459  0.12712044  0.02066353  1
  O2-  O145  1  0.62384209  0.12406064  0.50906741  1
  O2-  O146  1  0.62451083  0.37388841  0.02162417  1
  O2-  O147  1  0.62464123  0.37415768  0.50816988  1
  O2-  O148  1  0.62402304  0.62254709  -0.00506243  1
  O2-  O149  1  0.62633208  0.62534957  0.50685257  1
  O2-  O150  1  0.62429130  0.87527361  0.01778546  1
  O2-  O151  1  0.62425639  0.87575372  0.50833973  1
  O2-  O152  1  0.87203085  0.12641895  0.00635843  1
  O2-  O153  1  0.87881679  0.12310553  0.50772736  1
  O2-  O154  1  0.87235159  0.37614336  -0.00493859  1
  O2-  O155  1  0.87941942  0.37335825  0.49695728  1
  O2-  O156  1  0.87328304  0.62365119  0.00622145  1
  O2-  O157  1  0.87941343  0.62617876  0.49733217  1
  O2-  O158  1  0.87318345  0.87377900  -0.00341282  1
  O2-  O159  1  0.87955190  0.87646645  0.49543413  1
  O2-  O160  1  0.12480259  -0.00110264  0.15928129  1
  O2-  O161  1  0.12555449  -0.00084376  0.66959660  1
  O2-  O162  1  0.12474915  0.25079850  0.16774199  1
  O2-  O163  1  0.12492290  0.24998755  0.66570941  1
  O2-  O164  1  0.12536880  0.49898140  0.16793006  1
  O2-  O165  1  0.12483695  0.50173308  0.65999544  1
  O2-  O166  1  0.12494773  0.75106306  0.16148267  1
  O2-  O167  1  0.12494712  0.74901251  0.66288527  1
  O2-  O168  1  0.37512792  -0.00369103  0.16014942  1
  O2-  O169  1  0.37491312  0.00080145  0.66930370  1
  O2-  O170  1  0.37611983  0.25121057  0.16593951  1
  O2-  O171  1  0.37499743  0.25039096  0.66706948  1
  O2-  O172  1  0.37572433  0.50142936  0.16748702  1
  O2-  O173  1  0.37449283  0.49809583  0.66236330  1
  O2-  O174  1  0.37425238  0.75160944  0.16083130  1
  O2-  O175  1  0.37460541  0.75146429  0.66466713  1
  O2-  O176  1  0.62518160  -0.00073707  0.16995593  1
  O2-  O177  1  0.62487032  0.00346435  0.66614797  1
  O2-  O178  1  0.62482764  0.25043176  0.17516634  1
  O2-  O179  1  0.62522737  0.24976245  0.66312537  1
  O2-  O180  1  0.62453008  0.50036602  0.16898165  1
  O2-  O181  1  0.62584135  0.49700001  0.66048505  1
  O2-  O182  1  0.62478146  0.74956920  0.16548977  1
  O2-  O183  1  0.62517061  0.75004345  0.66392289  1
  O2-  O184  1  0.87392453  -0.00131589  0.16405671  1
  O2-  O185  1  0.87459540  0.00207332  0.66528711  1
  O2-  O186  1  0.87375081  0.25141553  0.16836478  1
  O2-  O187  1  0.87540124  0.24717800  0.66286118  1
  O2-  O188  1  0.87379967  0.49854117  0.16534857  1
  O2-  O189  1  0.87542337  0.49938924  0.66136686  1
  O2-  O190  1  0.87477081  0.75086459  0.16268491  1
  O2-  O191  1  0.87615881  0.75118957  0.66392112  1
  O2-  O192  1  0.00150178  0.12502207  0.16378510  1
  O2-  O193  1  -0.00122324  0.12396482  0.66515161  1
  O2-  O194  1  -0.00117402  0.37482491  0.16064892  1
  O2-  O195  1  0.00031896  0.37470644  0.66532662  1
  O2-  O196  1  0.00051112  0.62424785  0.16146311  1
  O2-  O197  1  0.00177163  0.62553020  0.66394959  1
  O2-  O198  1  0.00101995  0.87515913  0.15727374  1
  O2-  O199  1  -0.00000461  0.87585110  0.66655731  1
  O2-  O200  1  0.24818511  0.12523250  0.16147403  1
  O2-  O201  1  0.25008898  0.12465738  0.66821768  1
  O2-  O202  1  0.25068829  0.37575863  0.16344387  1
  O2-  O203  1  0.25027516  0.37406485  0.66712784  1
  O2-  O204  1  0.25058296  0.62492260  0.16393367  1
  O2-  O205  1  0.24700559  0.62580860  0.66259274  1
  O2-  O206  1  0.24970957  0.87437145  0.15559647  1
  O2-  O207  1  0.25057723  0.87521931  0.66957015  1
  O2-  O208  1  0.50233838  0.12471344  0.17241567  1
  O2-  O209  1  0.50146378  0.12549130  0.66260238  1
  O2-  O210  1  0.50016012  0.37595562  0.17139829  1
  O2-  O211  1  0.50132317  0.37407723  0.66431131  1
  O2-  O212  1  0.49996328  0.62531100  0.16864307  1
  O2-  O213  1  0.49975241  0.62498570  0.66201180  1
  O2-  O214  1  0.49942184  0.87392885  0.16742773  1
  O2-  O215  1  0.49847312  0.87635170  0.66579504  1
  O2-  O216  1  0.74733695  0.12507480  0.17479172  1
  O2-  O217  1  0.74978685  0.12564580  0.65881254  1
  O2-  O218  1  0.74962302  0.37502226  0.17117402  1
  O2-  O219  1  0.74850888  0.37341827  0.66057276  1
  O2-  O220  1  0.74832761  0.62471238  0.16727119  1
  O2-  O221  1  0.75215327  0.62531830  0.66282551  1
  O2-  O222  1  0.74908810  0.87452416  0.16812168  1
  O2-  O223  1  0.75123761  0.87561515  0.66410101  1
  O2-  O224  1  0.12432127  0.00040815  0.33859880  1
  O2-  O225  1  0.12522450  -0.00237715  0.85345284  1
  O2-  O226  1  0.12454373  0.24896611  0.34647223  1
  O2-  O227  1  0.12498214  0.25063175  0.85058021  1
  O2-  O228  1  0.12468580  0.50134883  0.35057186  1
  O2-  O229  1  0.12525075  0.50152329  0.84234645  1
  O2-  O230  1  0.12450405  0.74912968  0.34523582  1
  O2-  O231  1  0.12583501  0.75086218  0.84620212  1
  O2-  O232  1  0.37397709  0.00045208  0.33914642  1
  O2-  O233  1  0.37578608  -0.00321005  0.85368357  1
  O2-  O234  1  0.37413494  0.24809120  0.34832035  1
  O2-  O235  1  0.37589353  0.25280610  0.84911076  1
  O2-  O236  1  0.37406969  0.49887929  0.35219901  1
  O2-  O237  1  0.37537609  0.50093893  0.84025789  1
  O2-  O238  1  0.37349661  0.75290092  0.34380582  1
  O2-  O239  1  0.37499879  0.75027777  0.84714341  1
  O2-  O240  1  0.62602875  0.00385990  0.35018977  1
  O2-  O241  1  0.62513323  -0.00032508  0.85088298  1
  O2-  O242  1  0.62525963  0.24906014  0.35628903  1
  O2-  O243  1  0.62531982  0.25079947  0.84804406  1
  O2-  O244  1  0.62537182  0.49643378  0.35228972  1
  O2-  O245  1  0.62476253  0.50121958  0.84181294  1
  O2-  O246  1  0.62570056  0.75042511  0.34873236  1
  O2-  O247  1  0.62461420  0.74845403  0.84633927  1
  O2-  O248  1  0.87553423  0.00151196  0.34605350  1
  O2-  O249  1  0.87449417  -0.00211211  0.84837529  1
  O2-  O250  1  0.87583100  0.24804712  0.35021489  1
  O2-  O251  1  0.87426189  0.25237779  0.84596505  1
  O2-  O252  1  0.87590981  0.49998294  0.34666582  1
  O2-  O253  1  0.87490534  0.49904208  0.84380727  1
  O2-  O254  1  0.87672942  0.75011131  0.34400022  1
  O2-  O255  1  0.87475024  0.75111434  0.84619381  1
  O2-  O256  1  -0.00143249  0.12445220  0.34509276  1
  O2-  O257  1  0.00055050  0.12523775  0.84906757  1
  O2-  O258  1  0.00007285  0.37462190  0.34053580  1
  O2-  O259  1  -0.00005724  0.37539320  0.84890759  1
  O2-  O260  1  0.00103058  0.62517417  0.34249874  1
  O2-  O261  1  0.00139133  0.62542675  0.84703812  1
  O2-  O262  1  0.00037704  0.87540623  0.33823706  1
  O2-  O263  1  0.00137814  0.87450070  0.84951353  1
  O2-  O264  1  0.24915850  0.12438497  0.34056022  1
  O2-  O265  1  0.24916367  0.12526446  0.85197539  1
  O2-  O266  1  0.24854389  0.37520099  0.34532414  1
  O2-  O267  1  0.25097424  0.37600609  0.84880662  1
  O2-  O268  1  0.24580672  0.62541023  0.34809314  1
  O2-  O269  1  0.25098087  0.62537037  0.84339488  1
  O2-  O270  1  0.24841720  0.87531666  0.33673009  1
  O2-  O271  1  0.25057876  0.87452554  0.85368882  1
  O2-  O272  1  0.50010153  0.12493612  0.35357729  1
  O2-  O273  1  0.50210111  0.12518663  0.84673204  1
  O2-  O274  1  0.50080512  0.37361470  0.35490472  1
  O2-  O275  1  0.50036737  0.37527886  0.84577083  1
  O2-  O276  1  0.49988785  0.62564097  0.35279014  1
  O2-  O277  1  0.49982085  0.62535079  0.84189706  1
  O2-  O278  1  0.49817579  0.87627697  0.34906998  1
  O2-  O279  1  0.49905002  0.87452131  0.84965636  1
  O2-  O280  1  0.75169661  0.12574861  0.35813019  1
  O2-  O281  1  0.74845493  0.12517404  0.84319063  1
  O2-  O282  1  0.75030772  0.37318255  0.35290986  1
  O2-  O283  1  0.74904677  0.37511054  0.84444667  1
  O2-  O284  1  0.75344566  0.62494575  0.34914992  1
  O2-  O285  1  0.74831999  0.62464254  0.84522334  1
  O2-  O286  1  0.75279127  0.87560039  0.34962051  1
  O2-  O287  1  0.74940252  0.87509502  0.84675412  1
