# generated using pymatgen
data_BaYFeCuO5
_symmetry_space_group_name_H-M   'P 1'
_cell_length_a   15.67115215
_cell_length_b   15.67085171
_cell_length_c   15.49516627
_cell_angle_alpha   89.99847279
_cell_angle_beta   89.99493283
_cell_angle_gamma   89.99864302
_symmetry_Int_Tables_number   1
_chemical_formula_structural   BaYFeCuO5
_chemical_formula_sum   'Ba32 Y32 Fe32 Cu32 O160'
_cell_volume   3805.30758588
_cell_formula_units_Z   32
loop_
 _symmetry_equiv_pos_site_id
 _symmetry_equiv_pos_as_xyz
  1  'x, y, z'
loop_
 _atom_type_symbol
 _atom_type_oxidation_number
  Ba2+  2.0
  Y3+  3.0
  Fe3+  3.0
  Cu2+  2.0
  O2-  -2.0
loop_
 _atom_site_type_symbol
 _atom_site_label
 _atom_site_symmetry_multiplicity
 _atom_site_fract_x
 _atom_site_fract_y
 _atom_site_fract_z
 _atom_site_occupancy
  Ba2+  Ba0  1  0.00148767  -0.00329883  0.00063195  1
  Ba2+  Ba1  1  0.00394159  -0.00478730  0.52306874  1
  Ba2+  Ba2  1  0.00330708  0.24553623  -0.00054571  1
  Ba2+  Ba3  1  0.00536342  0.25643813  0.51657703  1
  Ba2+  Ba4  1  0.00321139  0.50473387  0.01239542  1
  Ba2+  Ba5  1  0.00397909  0.50139516  0.51553533  1
  Ba2+  Ba6  1  0.00088206  0.75261188  0.01225152  1
  Ba2+  Ba7  1  0.00245551  0.74775975  0.52082994  1
  Ba2+  Ba8  1  0.23905441  -0.00240220  0.00201102  1
  Ba2+  Ba9  1  0.24841139  -0.00737039  0.51858045  1
  Ba2+  Ba10  1  0.24623401  0.25550945  0.00235560  1
  Ba2+  Ba11  1  0.24425261  0.25627043  0.51701224  1
  Ba2+  Ba12  1  0.25141176  0.50127256  0.00678568  1
  Ba2+  Ba13  1  0.24405125  0.50167992  0.50637337  1
  Ba2+  Ba14  1  0.24269564  0.74763898  0.00545643  1
  Ba2+  Ba15  1  0.24907056  0.74831398  0.50582596  1
  Ba2+  Ba16  1  0.50504964  -0.00581529  0.01232027  1
  Ba2+  Ba17  1  0.50305049  -0.00449640  0.51268237  1
  Ba2+  Ba18  1  0.49960702  0.26070184  0.00667404  1
  Ba2+  Ba19  1  0.50749506  0.25354469  0.51124630  1
  Ba2+  Ba20  1  0.50045254  0.50223389  0.02021688  1
  Ba2+  Ba21  1  0.50169497  0.49859751  0.50159208  1
  Ba2+  Ba22  1  0.50480676  0.74367779  0.02355754  1
  Ba2+  Ba23  1  0.49625725  0.75184713  0.50090823  1
  Ba2+  Ba24  1  0.75542164  -0.00601886  0.01228197  1
  Ba2+  Ba25  1  0.74454138  -0.00196802  0.51687794  1
  Ba2+  Ba26  1  0.75047825  0.25072768  0.00611888  1
  Ba2+  Ba27  1  0.74224273  0.25343078  0.51048827  1
  Ba2+  Ba28  1  0.74582705  0.50553914  0.02335839  1
  Ba2+  Ba29  1  0.74891374  0.49787836  0.51086052  1
  Ba2+  Ba30  1  0.75140786  0.74892241  0.02547539  1
  Ba2+  Ba31  1  0.75133652  0.75072243  0.51491035  1
  Y3+  Y32  1  0.00085145  -0.00221840  0.25332552  1
  Y3+  Y33  1  0.00191532  -0.00002015  0.75994788  1
  Y3+  Y34  1  0.00171254  0.25173014  0.25825335  1
  Y3+  Y35  1  0.00074486  0.25014485  0.75619721  1
  Y3+  Y36  1  0.00253308  0.50015863  0.26033786  1
  Y3+  Y37  1  0.00065466  0.50135990  0.75287791  1
  Y3+  Y38  1  0.00098506  0.74976999  0.25565340  1
  Y3+  Y39  1  0.00231853  0.74901540  0.75708590  1
  Y3+  Y40  1  0.25027134  -0.00263820  0.25728333  1
  Y3+  Y41  1  0.24807069  -0.00172368  0.75851928  1
  Y3+  Y42  1  0.24820480  0.25179675  0.25985152  1
  Y3+  Y43  1  0.24960969  0.25211140  0.75679298  1
  Y3+  Y44  1  0.24830701  0.50150249  0.26206284  1
  Y3+  Y45  1  0.24922104  0.49962754  0.75456808  1
  Y3+  Y46  1  0.25043731  0.74866361  0.25993102  1
  Y3+  Y47  1  0.24765783  0.74996751  0.75587008  1
  Y3+  Y48  1  0.49969040  -0.00082112  0.26055252  1
  Y3+  Y49  1  0.50010005  -0.00087287  0.75437663  1
  Y3+  Y50  1  0.50261691  0.25049588  0.26118777  1
  Y3+  Y51  1  0.50044779  0.25224655  0.75451767  1
  Y3+  Y52  1  0.50127978  0.50158153  0.26086000  1
  Y3+  Y53  1  0.49885215  0.49770705  0.75434225  1
  Y3+  Y54  1  0.49853788  0.74798901  0.26060971  1
  Y3+  Y55  1  0.49874319  0.75138175  0.75323238  1
  Y3+  Y56  1  0.74931049  0.00023782  0.25784994  1
  Y3+  Y57  1  0.74981254  0.00074989  0.75513726  1
  Y3+  Y58  1  0.74764184  0.25005792  0.26025994  1
  Y3+  Y59  1  0.74917666  0.25055175  0.75359345  1
  Y3+  Y60  1  0.74789492  0.50036523  0.26002315  1
  Y3+  Y61  1  0.75118685  0.49949255  0.75166896  1
  Y3+  Y62  1  0.75018890  0.74923951  0.25734065  1
  Y3+  Y63  1  0.75197037  0.75008120  0.75213780  1
  Fe3+  Fe64  1  0.12452118  0.37706080  0.87564581  1
  Fe3+  Fe65  1  0.87554458  0.37476659  0.37775866  1
  Fe3+  Fe66  1  0.87406650  0.62462649  0.87619167  1
  Fe3+  Fe67  1  0.87596802  0.12425542  0.38165905  1
  Fe3+  Fe68  1  0.37561899  0.87357539  0.88023710  1
  Fe3+  Fe69  1  0.37611366  0.62483182  0.87715089  1
  Fe3+  Fe70  1  0.87402717  0.87348252  0.87408520  1
  Fe3+  Fe71  1  0.87431774  0.37619961  0.87860144  1
  Fe3+  Fe72  1  0.87630805  0.87555787  0.37750363  1
  Fe3+  Fe73  1  0.12452782  0.12383772  0.37977106  1
  Fe3+  Fe74  1  0.62581972  0.87443258  0.37507090  1
  Fe3+  Fe75  1  0.62537926  0.37768706  0.87610123  1
  Fe3+  Fe76  1  0.62495719  0.12472852  0.87895061  1
  Fe3+  Fe77  1  0.62556330  0.62542604  0.87473097  1
  Fe3+  Fe78  1  0.87579108  0.62577047  0.37756455  1
  Fe3+  Fe79  1  0.37428574  0.37435183  0.37893174  1
  Fe3+  Fe80  1  0.12406212  0.87477130  0.37598552  1
  Fe3+  Fe81  1  0.37418140  0.12448684  0.38161493  1
  Fe3+  Fe82  1  0.37555301  0.12521498  0.88052228  1
  Fe3+  Fe83  1  0.62562059  0.87251594  0.87583178  1
  Fe3+  Fe84  1  0.37480162  0.12549912  0.13412493  1
  Fe3+  Fe85  1  0.37416042  0.37547802  0.14010563  1
  Fe3+  Fe86  1  0.87571347  0.12544112  0.13695264  1
  Fe3+  Fe87  1  0.87578522  0.37480083  0.13464587  1
  Fe3+  Fe88  1  0.12579159  0.62449050  0.13981336  1
  Fe3+  Fe89  1  0.12569511  0.12561112  0.13734292  1
  Fe3+  Fe90  1  0.37466049  0.62453592  0.63615262  1
  Fe3+  Fe91  1  0.62453556  0.12519158  0.13469257  1
  Fe3+  Fe92  1  0.37458639  0.12535211  0.63638357  1
  Fe3+  Fe93  1  0.37398946  0.87406428  0.13498215  1
  Fe3+  Fe94  1  0.87540145  0.12555704  0.63576154  1
  Fe3+  Fe95  1  0.62385181  0.62533674  0.63401894  1
  Cu2+  Cu96  1  0.87389306  0.12527280  0.86256567  1
  Cu2+  Cu97  1  0.62517069  0.12388533  0.37398599  1
  Cu2+  Cu98  1  0.37392484  0.87557998  0.37312053  1
  Cu2+  Cu99  1  0.62622806  0.62583889  0.36769342  1
  Cu2+  Cu100  1  0.37449926  0.62453153  0.36697019  1
  Cu2+  Cu101  1  0.12451113  0.87349809  0.87180745  1
  Cu2+  Cu102  1  0.12463067  0.62417448  0.86184971  1
  Cu2+  Cu103  1  0.12346447  0.62605526  0.37304901  1
  Cu2+  Cu104  1  0.12432565  0.37498241  0.37308617  1
  Cu2+  Cu105  1  0.12578643  0.12607305  0.86098331  1
  Cu2+  Cu106  1  0.62549837  0.37541560  0.37099304  1
  Cu2+  Cu107  1  0.37558103  0.37597411  0.86275102  1
  Cu2+  Cu108  1  0.87600872  0.62413853  0.15254237  1
  Cu2+  Cu109  1  0.62412749  0.12510119  0.64214669  1
  Cu2+  Cu110  1  0.12517010  0.37595223  0.64559972  1
  Cu2+  Cu111  1  0.12510457  0.87455870  0.65543262  1
  Cu2+  Cu112  1  0.87574764  0.87574280  0.65035482  1
  Cu2+  Cu113  1  0.87525487  0.62504968  0.64658863  1
  Cu2+  Cu114  1  0.12598476  0.62516587  0.64261480  1
  Cu2+  Cu115  1  0.37397751  0.62465834  0.15348046  1
  Cu2+  Cu116  1  0.12520016  0.37495749  0.15067203  1
  Cu2+  Cu117  1  0.37482704  0.37555900  0.64613328  1
  Cu2+  Cu118  1  0.87531548  0.87536650  0.15134126  1
  Cu2+  Cu119  1  0.62440694  0.87550137  0.15307417  1
  Cu2+  Cu120  1  0.62486487  0.62498572  0.15814515  1
  Cu2+  Cu121  1  0.87519167  0.37462079  0.64780169  1
  Cu2+  Cu122  1  0.62463457  0.37619416  0.64244983  1
  Cu2+  Cu123  1  0.37439935  0.87411252  0.64153358  1
  Cu2+  Cu124  1  0.12566384  0.87488646  0.14121972  1
  Cu2+  Cu125  1  0.62515700  0.37433124  0.15303713  1
  Cu2+  Cu126  1  0.12556195  0.12503892  0.65172353  1
  Cu2+  Cu127  1  0.62475743  0.87418258  0.65010390  1
  O2-  O128  1  0.12520980  0.12664746  0.01690699  1
  O2-  O129  1  0.12466900  0.12285681  0.49947148  1
  O2-  O130  1  0.12422445  0.37681304  -0.00380763  1
  O2-  O131  1  0.12416615  0.37485278  0.50721187  1
  O2-  O132  1  0.12580200  0.62341120  0.01867964  1
  O2-  O133  1  0.12413350  0.62639416  0.50800209  1
  O2-  O134  1  0.12407259  0.87428516  0.00587559  1
  O2-  O135  1  0.12373531  0.87565122  0.49628990  1
  O2-  O136  1  0.37544048  0.12562965  0.00780484  1
  O2-  O137  1  0.37423608  0.12440321  0.50785770  1
  O2-  O138  1  0.37495492  0.37575191  0.01925478  1
  O2-  O139  1  0.37467212  0.37282442  0.49937695  1
  O2-  O140  1  0.37732600  0.62504452  -0.00231235  1
  O2-  O141  1  0.37515774  0.62502477  0.51555262  1
  O2-  O142  1  0.37631078  0.87346756  0.00691235  1
  O2-  O143  1  0.37395908  0.87600925  0.50736213  1
  O2-  O144  1  0.62528830  0.12524517  0.00668019  1
  O2-  O145  1  0.62479247  0.12339351  0.50731011  1
  O2-  O146  1  0.62574927  0.37813179  -0.00355701  1
  O2-  O147  1  0.62551217  0.37557825  0.50651882  1
  O2-  O148  1  0.62589308  0.62521693  -0.00516962  1
  O2-  O149  1  0.62435671  0.62607932  0.51354492  1
  O2-  O150  1  0.62635964  0.87203980  -0.00415645  1
  O2-  O151  1  0.62601837  0.87531984  0.49567291  1
  O2-  O152  1  0.87456524  0.12579175  0.01700280  1
  O2-  O153  1  0.87576822  0.12447127  0.50730376  1
  O2-  O154  1  0.87420298  0.37578236  0.00595565  1
  O2-  O155  1  0.87540789  0.37396701  0.49785632  1
  O2-  O156  1  0.87278048  0.62458963  -0.00395005  1
  O2-  O157  1  0.87548931  0.62598050  0.49764496  1
  O2-  O158  1  0.87310109  0.87297442  -0.00538094  1
  O2-  O159  1  0.87636146  0.87621522  0.49665583  1
  O2-  O160  1  0.12612274  0.00200929  0.16405711  1
  O2-  O161  1  0.12564798  -0.00057649  0.66675209  1
  O2-  O162  1  0.12588283  0.24940139  0.16713947  1
  O2-  O163  1  0.12525379  0.25001349  0.66652362  1
  O2-  O164  1  0.12489281  0.49973033  0.16808830  1
  O2-  O165  1  0.12484529  0.49994866  0.66415424  1
  O2-  O166  1  0.12509188  0.74858054  0.16518294  1
  O2-  O167  1  0.12504863  0.75117513  0.66551503  1
  O2-  O168  1  0.37540038  0.00065694  0.16127311  1
  O2-  O169  1  0.37439220  0.00247105  0.66695547  1
  O2-  O170  1  0.37587963  0.24842493  0.16629149  1
  O2-  O171  1  0.37465772  0.24875315  0.66553794  1
  O2-  O172  1  0.37524565  0.49973836  0.16767904  1
  O2-  O173  1  0.37519498  0.50042502  0.66476073  1
  O2-  O174  1  0.37535018  0.75084000  0.16371846  1
  O2-  O175  1  0.37505531  0.74814948  0.66611360  1
  O2-  O176  1  0.62440552  0.00227520  0.16091473  1
  O2-  O177  1  0.62455273  -0.00180263  0.66697324  1
  O2-  O178  1  0.62426869  0.24719217  0.16466171  1
  O2-  O179  1  0.62469468  0.25085661  0.66730728  1
  O2-  O180  1  0.62508927  0.49992787  0.16568175  1
  O2-  O181  1  0.62528268  0.50215769  0.66323721  1
  O2-  O182  1  0.62457846  0.75018308  0.16454547  1
  O2-  O183  1  0.62495964  0.74946081  0.66220526  1
  O2-  O184  1  0.87443908  0.00116432  0.16509397  1
  O2-  O185  1  0.87534537  0.00197072  0.66424570  1
  O2-  O186  1  0.87430715  0.25081592  0.16619388  1
  O2-  O187  1  0.87534027  0.24813664  0.66602714  1
  O2-  O188  1  0.87491463  0.49727900  0.16307762  1
  O2-  O189  1  0.87510451  0.49975637  0.66286642  1
  O2-  O190  1  0.87498855  0.75021557  0.16283187  1
  O2-  O191  1  0.87526610  0.75102392  0.66145487  1
  O2-  O192  1  0.00036387  0.12596041  0.16774066  1
  O2-  O193  1  -0.00089454  0.12538277  0.66359909  1
  O2-  O194  1  -0.00119728  0.37384914  0.16140600  1
  O2-  O195  1  -0.00090981  0.37447010  0.66635591  1
  O2-  O196  1  0.00066611  0.62399712  0.16486659  1
  O2-  O197  1  -0.00105024  0.62517087  0.66469352  1
  O2-  O198  1  -0.00093573  0.87563913  0.16200388  1
  O2-  O199  1  0.00068985  0.87588900  0.66484852  1
  O2-  O200  1  0.25180818  0.12534170  0.16607635  1
  O2-  O201  1  0.25128501  0.12531480  0.66622722  1
  O2-  O202  1  0.25041904  0.37419334  0.16780426  1
  O2-  O203  1  0.25070472  0.37444355  0.66681514  1
  O2-  O204  1  0.24913476  0.62443291  0.16894908  1
  O2-  O205  1  0.25175393  0.62488848  0.66818429  1
  O2-  O206  1  0.25321526  0.87545334  0.16426845  1
  O2-  O207  1  0.24825522  0.87557966  0.66923191  1
  O2-  O208  1  0.49956017  0.12433937  0.16211468  1
  O2-  O209  1  0.49697009  0.12487107  0.66674354  1
  O2-  O210  1  0.49993249  0.37441659  0.16640464  1
  O2-  O211  1  0.49901408  0.37432627  0.66525715  1
  O2-  O212  1  0.49983419  0.62477732  0.16567973  1
  O2-  O213  1  0.49982287  0.62500802  0.66645693  1
  O2-  O214  1  0.49773132  0.87596233  0.16330700  1
  O2-  O215  1  0.50112997  0.87592385  0.66613274  1
  O2-  O216  1  0.74873415  0.12512972  0.16466193  1
  O2-  O217  1  0.75246304  0.12513784  0.66300412  1
  O2-  O218  1  0.75099163  0.37368666  0.16170128  1
  O2-  O219  1  0.75117787  0.37448833  0.66446405  1
  O2-  O220  1  0.75059432  0.62460748  0.16418040  1
  O2-  O221  1  0.74970199  0.62528085  0.66138285  1
  O2-  O222  1  0.74954018  0.87602731  0.16313816  1
  O2-  O223  1  0.75020318  0.87594336  0.66058127  1
  O2-  O224  1  0.12479534  0.00013699  0.34318092  1
  O2-  O225  1  0.12538906  0.00191057  0.85069802  1
  O2-  O226  1  0.12468478  0.24738144  0.34826261  1
  O2-  O227  1  0.12542102  0.25145973  0.84889949  1
  O2-  O228  1  0.12443670  0.50040175  0.35115009  1
  O2-  O229  1  0.12446395  0.49927595  0.84560581  1
  O2-  O230  1  0.12467833  0.75199914  0.34628448  1
  O2-  O231  1  0.12520059  0.74762872  0.84861311  1
  O2-  O232  1  0.37474753  0.00311033  0.34578681  1
  O2-  O233  1  0.37581911  -0.00022408  0.85290692  1
  O2-  O234  1  0.37477171  0.24806427  0.34832617  1
  O2-  O235  1  0.37600596  0.24859981  0.85202841  1
  O2-  O236  1  0.37519101  0.49935827  0.35058024  1
  O2-  O237  1  0.37533151  0.50077436  0.84661210  1
  O2-  O238  1  0.37470792  0.74844013  0.34866505  1
  O2-  O239  1  0.37523344  0.75106292  0.84728379  1
  O2-  O240  1  0.62501500  -0.00226834  0.34370262  1
  O2-  O241  1  0.62412499  0.00027859  0.85039229  1
  O2-  O242  1  0.62541506  0.24981734  0.34883948  1
  O2-  O243  1  0.62453223  0.24967397  0.85097650  1
  O2-  O244  1  0.62533664  0.50134234  0.34992138  1
  O2-  O245  1  0.62532253  0.50029535  0.84245991  1
  O2-  O246  1  0.62542227  0.75102712  0.34712259  1
  O2-  O247  1  0.62502264  0.75004425  0.84140578  1
  O2-  O248  1  0.87548463  0.00109849  0.34647650  1
  O2-  O249  1  0.87418028  -0.00004017  0.84804961  1
  O2-  O250  1  0.87523334  0.24827440  0.34810987  1
  O2-  O251  1  0.87399953  0.25173363  0.85167556  1
  O2-  O252  1  0.87470215  0.49995859  0.34617487  1
  O2-  O253  1  0.87468797  0.49862903  0.84612396  1
  O2-  O254  1  0.87503010  0.75105586  0.34520308  1
  O2-  O255  1  0.87469181  0.74933913  0.84274535  1
  O2-  O256  1  -0.00099602  0.12505556  0.34825268  1
  O2-  O257  1  0.00025108  0.12591913  0.84895161  1
  O2-  O258  1  -0.00203634  0.37432599  0.34440022  1
  O2-  O259  1  -0.00186705  0.37400747  0.84937313  1
  O2-  O260  1  -0.00208894  0.62529290  0.34540051  1
  O2-  O261  1  -0.00074221  0.62419740  0.84804828  1
  O2-  O262  1  -0.00019228  0.87592906  0.34245612  1
  O2-  O263  1  -0.00199595  0.87547923  0.84761174  1
  O2-  O264  1  0.25043025  0.12456051  0.34843530  1
  O2-  O265  1  0.25286581  0.12524878  0.85185594  1
  O2-  O266  1  0.25145890  0.37419276  0.34876396  1
  O2-  O267  1  0.25017288  0.37483778  0.84993516  1
  O2-  O268  1  0.24997961  0.62537706  0.35155434  1
  O2-  O269  1  0.25036786  0.62452915  0.85101475  1
  O2-  O270  1  0.24773120  0.87561161  0.34629835  1
  O2-  O271  1  0.25309360  0.87542612  0.85294797  1
  O2-  O272  1  0.49674249  0.12474634  0.34781965  1
  O2-  O273  1  0.50021446  0.12469708  0.85127235  1
  O2-  O274  1  0.49812719  0.37422708  0.34840575  1
  O2-  O275  1  0.50085014  0.37439933  0.84770901  1
  O2-  O276  1  0.50026022  0.62539143  0.35055542  1
  O2-  O277  1  0.50049752  0.62536694  0.84469386  1
  O2-  O278  1  0.50119019  0.87491662  0.34733301  1
  O2-  O279  1  0.49908315  0.87552344  0.84813288  1
  O2-  O280  1  0.75405012  0.12480324  0.34836495  1
  O2-  O281  1  0.74645979  0.12536439  0.84719469  1
  O2-  O282  1  0.75229240  0.37413061  0.34536863  1
  O2-  O283  1  0.75076510  0.37430210  0.84667474  1
  O2-  O284  1  0.75163782  0.62528940  0.34684362  1
  O2-  O285  1  0.75004827  0.62466072  0.84115143  1
  O2-  O286  1  0.75134923  0.87576257  0.34480248  1
  O2-  O287  1  0.74958686  0.87577516  0.84170155  1
