# generated using pymatgen
data_BaYFeCuO5
_symmetry_space_group_name_H-M   'P 1'
_cell_length_a   15.65960726
_cell_length_b   15.65960839
_cell_length_c   15.46021555
_cell_angle_alpha   90.00169439
_cell_angle_beta   90.00455312
_cell_angle_gamma   89.98888438
_symmetry_Int_Tables_number   1
_chemical_formula_structural   BaYFeCuO5
_chemical_formula_sum   'Ba32 Y32 Fe32 Cu32 O160'
_cell_volume   3791.20525880
_cell_formula_units_Z   32
loop_
 _symmetry_equiv_pos_site_id
 _symmetry_equiv_pos_as_xyz
  1  'x, y, z'
loop_
 _atom_type_symbol
 _atom_type_oxidation_number
  Ba2+  2.0
  Y3+  3.0
  Fe3+  3.0
  Cu2+  2.0
  O2-  -2.0
loop_
 _atom_site_type_symbol
 _atom_site_label
 _atom_site_symmetry_multiplicity
 _atom_site_fract_x
 _atom_site_fract_y
 _atom_site_fract_z
 _atom_site_occupancy
  Ba2+  Ba0  1  -0.00348214  -0.00538890  0.02266145  1
  Ba2+  Ba1  1  0.00420912  -0.00121740  0.51137352  1
  Ba2+  Ba2  1  0.00088526  0.25800003  0.00542923  1
  Ba2+  Ba3  1  -0.00260148  0.25143101  0.51190754  1
  Ba2+  Ba4  1  0.00247544  0.50172494  0.00670016  1
  Ba2+  Ba5  1  -0.00679336  0.49258528  0.50662582  1
  Ba2+  Ba6  1  -0.00038159  0.74746651  0.02314887  1
  Ba2+  Ba7  1  0.00089309  0.75810293  0.50580368  1
  Ba2+  Ba8  1  0.25634196  -0.00191935  0.01557508  1
  Ba2+  Ba9  1  0.24663177  0.00540952  0.52154324  1
  Ba2+  Ba10  1  0.25456860  0.25617586  0.00624539  1
  Ba2+  Ba11  1  0.25767206  0.24877778  0.51835976  1
  Ba2+  Ba12  1  0.24770535  0.49680400  0.01702125  1
  Ba2+  Ba13  1  0.26318565  0.49844615  0.50586655  1
  Ba2+  Ba14  1  0.24848157  0.74959146  0.02640060  1
  Ba2+  Ba15  1  0.25346384  0.74710206  0.50885742  1
  Ba2+  Ba16  1  0.50045458  0.00019768  0.00586258  1
  Ba2+  Ba17  1  0.50204258  0.01218844  0.51194814  1
  Ba2+  Ba18  1  0.49169092  0.24578178  0.00311992  1
  Ba2+  Ba19  1  0.50029065  0.25186922  0.51897442  1
  Ba2+  Ba20  1  0.48930278  0.49883128  0.01106374  1
  Ba2+  Ba21  1  0.49703917  0.49696578  0.51802559  1
  Ba2+  Ba22  1  0.49811387  0.75701163  0.01718832  1
  Ba2+  Ba23  1  0.49819257  0.73855397  0.51091300  1
  Ba2+  Ba24  1  0.74742815  -0.00428332  0.01246271  1
  Ba2+  Ba25  1  0.74690178  0.00479001  0.50177382  1
  Ba2+  Ba26  1  0.75411752  0.24506587  0.00246888  1
  Ba2+  Ba27  1  0.74383643  0.25418697  0.51242260  1
  Ba2+  Ba28  1  0.76090360  0.50342565  0.00214345  1
  Ba2+  Ba29  1  0.74522036  0.49256805  0.51883492  1
  Ba2+  Ba30  1  0.75489729  0.75441684  0.01289200  1
  Ba2+  Ba31  1  0.74839448  0.74886274  0.50653633  1
  Y3+  Y32  1  -0.00258004  -0.00079398  0.25826288  1
  Y3+  Y33  1  0.00259069  0.00016999  0.75396510  1
  Y3+  Y34  1  -0.00059438  0.25163195  0.25690214  1
  Y3+  Y35  1  0.00080932  0.25282486  0.75803716  1
  Y3+  Y36  1  0.00034503  0.49885962  0.25606483  1
  Y3+  Y37  1  -0.00127542  0.49790364  0.75955946  1
  Y3+  Y38  1  -0.00145825  0.74982182  0.25793960  1
  Y3+  Y39  1  0.00021250  0.74907967  0.75507521  1
  Y3+  Y40  1  0.25187838  0.00056546  0.25322148  1
  Y3+  Y41  1  0.25037873  0.00270003  0.75764992  1
  Y3+  Y42  1  0.25249422  0.25263595  0.25265550  1
  Y3+  Y43  1  0.25270458  0.25105920  0.76154509  1
  Y3+  Y44  1  0.25249307  0.49836493  0.25657910  1
  Y3+  Y45  1  0.25199066  0.49709862  0.75772354  1
  Y3+  Y46  1  0.25145746  0.74783409  0.25887819  1
  Y3+  Y47  1  0.25015253  0.74932743  0.75117038  1
  Y3+  Y48  1  0.50080968  0.00125600  0.25438893  1
  Y3+  Y49  1  0.50157530  0.00337027  0.76041942  1
  Y3+  Y50  1  0.49755058  0.25012894  0.25622793  1
  Y3+  Y51  1  0.49825228  0.24879553  0.76026854  1
  Y3+  Y52  1  0.49479000  0.49915201  0.25754097  1
  Y3+  Y53  1  0.49799490  0.49914396  0.75708030  1
  Y3+  Y54  1  0.49908147  0.75004487  0.25702586  1
  Y3+  Y55  1  0.50127103  0.74923173  0.75647076  1
  Y3+  Y56  1  0.74926358  -0.00022163  0.25756817  1
  Y3+  Y57  1  0.74552732  0.00084768  0.75910170  1
  Y3+  Y58  1  0.74989830  0.24922070  0.26034736  1
  Y3+  Y59  1  0.74868066  0.25022045  0.75687701  1
  Y3+  Y60  1  0.75206272  0.49941244  0.25717709  1
  Y3+  Y61  1  0.75156650  0.49989881  0.75934275  1
  Y3+  Y62  1  0.75046903  0.75141766  0.25572752  1
  Y3+  Y63  1  0.74858951  0.74918208  0.76015389  1
  Fe3+  Fe64  1  0.12608103  0.62613380  0.87522685  1
  Fe3+  Fe65  1  0.87648654  0.12310714  0.87652522  1
  Fe3+  Fe66  1  0.37401066  0.87360086  0.87410258  1
  Fe3+  Fe67  1  0.12539928  0.87385991  0.87607958  1
  Fe3+  Fe68  1  0.12659047  0.12607982  0.37573903  1
  Fe3+  Fe69  1  0.87650054  0.87496857  0.87480071  1
  Fe3+  Fe70  1  0.87488387  0.12582783  0.37933453  1
  Fe3+  Fe71  1  0.12474840  0.12442387  0.87968815  1
  Fe3+  Fe72  1  0.12650216  0.87639767  0.37557172  1
  Fe3+  Fe73  1  0.37552813  0.87648058  0.37967999  1
  Fe3+  Fe74  1  0.62474855  0.37524811  0.88043269  1
  Fe3+  Fe75  1  0.12648846  0.37386207  0.37990252  1
  Fe3+  Fe76  1  0.37474045  0.12579817  0.37557209  1
  Fe3+  Fe77  1  0.87416853  0.62433274  0.37974201  1
  Fe3+  Fe78  1  0.62444163  0.62582048  0.88043455  1
  Fe3+  Fe79  1  0.62424649  0.62285416  0.37600294  1
  Fe3+  Fe80  1  0.62367514  0.87529389  0.37966176  1
  Fe3+  Fe81  1  0.62308327  0.37489526  0.37518224  1
  Fe3+  Fe82  1  0.12515883  0.62372505  0.37956112  1
  Fe3+  Fe83  1  0.37318186  0.62654467  0.87694341  1
  Fe3+  Fe84  1  0.12482752  0.62334099  0.63200757  1
  Fe3+  Fe85  1  0.62522346  0.62412419  0.13423326  1
  Fe3+  Fe86  1  0.62538068  0.12615771  0.13717522  1
  Fe3+  Fe87  1  0.12598097  0.37507922  0.63566673  1
  Fe3+  Fe88  1  0.62497373  0.37500663  0.13298954  1
  Fe3+  Fe89  1  0.12448951  0.12588265  0.13392140  1
  Fe3+  Fe90  1  0.62452040  0.87499027  0.63475434  1
  Fe3+  Fe91  1  0.87470826  0.62473625  0.63463007  1
  Fe3+  Fe92  1  0.87436586  0.12527510  0.63563919  1
  Fe3+  Fe93  1  0.87445432  0.37451866  0.13875598  1
  Fe3+  Fe94  1  0.37606027  0.87587056  0.63353225  1
  Fe3+  Fe95  1  0.87366910  0.87572990  0.63501871  1
  Cu2+  Cu96  1  0.62436835  0.87439691  0.87321703  1
  Cu2+  Cu97  1  0.87431371  0.87522908  0.36775139  1
  Cu2+  Cu98  1  0.62556298  0.12546998  0.86769049  1
  Cu2+  Cu99  1  0.87478892  0.37445098  0.86260001  1
  Cu2+  Cu100  1  0.37532221  0.37358469  0.37153934  1
  Cu2+  Cu101  1  0.12582064  0.37595289  0.87231326  1
  Cu2+  Cu102  1  0.37394656  0.12386722  0.87296144  1
  Cu2+  Cu103  1  0.87694906  0.62704242  0.87223924  1
  Cu2+  Cu104  1  0.37513974  0.37640473  0.87218585  1
  Cu2+  Cu105  1  0.37561105  0.62457804  0.37134166  1
  Cu2+  Cu106  1  0.87388255  0.37456394  0.37436904  1
  Cu2+  Cu107  1  0.62350771  0.12631700  0.37217655  1
  Cu2+  Cu108  1  0.62557434  0.62465272  0.65226547  1
  Cu2+  Cu109  1  0.87462482  0.87514825  0.15650128  1
  Cu2+  Cu110  1  0.87468275  0.12567449  0.15066327  1
  Cu2+  Cu111  1  0.62434718  0.37521811  0.65808589  1
  Cu2+  Cu112  1  0.37521903  0.62501510  0.15036643  1
  Cu2+  Cu113  1  0.87470649  0.37440212  0.64331662  1
  Cu2+  Cu114  1  0.37553661  0.12530814  0.14009385  1
  Cu2+  Cu115  1  0.37499393  0.62449916  0.64221639  1
  Cu2+  Cu116  1  0.12553785  0.87467254  0.64780460  1
  Cu2+  Cu117  1  0.37525956  0.37431582  0.64464332  1
  Cu2+  Cu118  1  0.12472072  0.12687338  0.65199959  1
  Cu2+  Cu119  1  0.37544171  0.12485181  0.65499248  1
  Cu2+  Cu120  1  0.37531976  0.87490062  0.15434353  1
  Cu2+  Cu121  1  0.12495490  0.62441131  0.15615742  1
  Cu2+  Cu122  1  0.12461218  0.37496023  0.14249862  1
  Cu2+  Cu123  1  0.62476793  0.87505011  0.14214753  1
  Cu2+  Cu124  1  0.37566678  0.37461838  0.14210560  1
  Cu2+  Cu125  1  0.87475686  0.62398802  0.14295984  1
  Cu2+  Cu126  1  0.12512657  0.87521090  0.15368348  1
  Cu2+  Cu127  1  0.62546986  0.12555562  0.64287063  1
  O2-  O128  1  0.12286255  0.12363235  0.00612508  1
  O2-  O129  1  0.12627644  0.12560370  0.49571653  1
  O2-  O130  1  0.12406292  0.37613276  0.00748759  1
  O2-  O131  1  0.12646825  0.37337455  0.50739404  1
  O2-  O132  1  0.12577731  0.62782557  -0.00444287  1
  O2-  O133  1  0.12431006  0.62335542  0.50551206  1
  O2-  O134  1  0.12449965  0.87242862  -0.00412345  1
  O2-  O135  1  0.12667273  0.87802375  0.49586023  1
  O2-  O136  1  0.37404474  0.12257290  0.00642554  1
  O2-  O137  1  0.37398625  0.12506219  0.49635418  1
  O2-  O138  1  0.37481617  0.37651710  0.00681135  1
  O2-  O139  1  0.37635642  0.37280053  0.50879752  1
  O2-  O140  1  0.37192738  0.62890656  -0.00297981  1
  O2-  O141  1  0.37600281  0.62464250  0.50633550  1
  O2-  O142  1  0.37255567  0.87211318  -0.00536223  1
  O2-  O143  1  0.37608450  0.87752196  0.50586399  1
  O2-  O144  1  0.62695869  0.12407239  0.01636453  1
  O2-  O145  1  0.62525269  0.12665876  0.50851749  1
  O2-  O146  1  0.62622144  0.37469174  0.00722255  1
  O2-  O147  1  0.62250128  0.37601598  0.49610153  1
  O2-  O148  1  0.62503764  0.62699119  0.00683717  1
  O2-  O149  1  0.62570309  0.62159751  0.49634298  1
  O2-  O150  1  0.62497865  0.87417492  0.00816095  1
  O2-  O151  1  0.62421815  0.87513294  0.50742011  1
  O2-  O152  1  0.87710714  0.12149297  -0.00320556  1
  O2-  O153  1  0.87473050  0.12576094  0.50740357  1
  O2-  O154  1  0.87502404  0.37509838  0.01776989  1
  O2-  O155  1  0.87368224  0.37380406  0.50865666  1
  O2-  O156  1  0.87705131  0.62670039  0.00689541  1
  O2-  O157  1  0.87305734  0.62404604  0.50694239  1
  O2-  O158  1  0.87812320  0.87422509  -0.00482362  1
  O2-  O159  1  0.87284142  0.87571413  0.51470460  1
  O2-  O160  1  0.12466446  0.00126369  0.16128452  1
  O2-  O161  1  0.12535341  0.00104431  0.66292982  1
  O2-  O162  1  0.12386508  0.24720836  0.16323712  1
  O2-  O163  1  0.12454694  0.25188061  0.66605051  1
  O2-  O164  1  0.12500459  0.50095323  0.16830923  1
  O2-  O165  1  0.12446074  0.49978990  0.66222439  1
  O2-  O166  1  0.12447391  0.75018475  0.16841400  1
  O2-  O167  1  0.12403656  0.74749570  0.65683091  1
  O2-  O168  1  0.37520306  -0.00145655  0.16423858  1
  O2-  O169  1  0.37504980  -0.00133264  0.66230523  1
  O2-  O170  1  0.37531364  0.25024048  0.16331833  1
  O2-  O171  1  0.37539529  0.24821979  0.66832695  1
  O2-  O172  1  0.37441369  0.50099153  0.16454286  1
  O2-  O173  1  0.37530887  0.49995020  0.66599740  1
  O2-  O174  1  0.37526385  0.75005643  0.16852007  1
  O2-  O175  1  0.37553525  0.75287845  0.65834080  1
  O2-  O176  1  0.62602488  0.00214055  0.16860111  1
  O2-  O177  1  0.62488865  -0.00349809  0.66430152  1
  O2-  O178  1  0.62576817  0.25149400  0.16466294  1
  O2-  O179  1  0.62510182  0.25214738  0.66811547  1
  O2-  O180  1  0.62564973  0.49983017  0.15929136  1
  O2-  O181  1  0.62565547  0.49917532  0.66771488  1
  O2-  O182  1  0.62469165  0.74668437  0.16651718  1
  O2-  O183  1  0.62516930  0.75182066  0.66131662  1
  O2-  O184  1  0.87438793  -0.00011513  0.16642263  1
  O2-  O185  1  0.87520894  0.00069286  0.66165994  1
  O2-  O186  1  0.87478041  0.25099891  0.16787823  1
  O2-  O187  1  0.87538800  0.24734586  0.66536963  1
  O2-  O188  1  0.87464567  0.49764833  0.16865156  1
  O2-  O189  1  0.87458147  0.50280011  0.66433936  1
  O2-  O190  1  0.87499560  0.75095022  0.16823273  1
  O2-  O191  1  0.87526225  0.74906238  0.65959206  1
  O2-  O192  1  0.00097249  0.12409378  0.16580242  1
  O2-  O193  1  -0.00164772  0.12482285  0.66087465  1
  O2-  O194  1  -0.00191428  0.37489238  0.16970752  1
  O2-  O195  1  0.00304996  0.37505300  0.66299853  1
  O2-  O196  1  0.00098132  0.62490941  0.16962464  1
  O2-  O197  1  -0.00018932  0.62458459  0.65912142  1
  O2-  O198  1  -0.00043872  0.87509197  0.16665864  1
  O2-  O199  1  -0.00064530  0.87554987  0.66048523  1
  O2-  O200  1  0.24746202  0.12458546  0.16085664  1
  O2-  O201  1  0.25006073  0.12528287  0.66474388  1
  O2-  O202  1  0.25035781  0.37534923  0.16552397  1
  O2-  O203  1  0.24755327  0.37428970  0.66461636  1
  O2-  O204  1  0.24998986  0.62557811  0.16640782  1
  O2-  O205  1  0.24677149  0.62500903  0.65909000  1
  O2-  O206  1  0.25035134  0.87433136  0.16476511  1
  O2-  O207  1  0.25157218  0.87502401  0.65871852  1
  O2-  O208  1  0.50182981  0.12510845  0.16514462  1
  O2-  O209  1  0.49934369  0.12502698  0.66699161  1
  O2-  O210  1  0.50312001  0.37578997  0.16230162  1
  O2-  O211  1  0.50142245  0.37511646  0.66803066  1
  O2-  O212  1  0.50140712  0.62478882  0.16102559  1
  O2-  O213  1  0.50156741  0.62483578  0.66668561  1
  O2-  O214  1  0.49862190  0.87459985  0.16686598  1
  O2-  O215  1  0.50027711  0.87467680  0.66225100  1
  O2-  O216  1  0.74966486  0.12542047  0.16851418  1
  O2-  O217  1  0.75264945  0.12490631  0.66525605  1
  O2-  O218  1  0.74853793  0.37492367  0.16639789  1
  O2-  O219  1  0.74794965  0.37522461  0.66735460  1
  O2-  O220  1  0.74730754  0.62497570  0.16449493  1
  O2-  O221  1  0.75178723  0.62532470  0.66588150  1
  O2-  O222  1  0.75122622  0.87474933  0.16732585  1
  O2-  O223  1  0.74892567  0.87412471  0.66592851  1
  O2-  O224  1  0.12490221  0.00062329  0.34308083  1
  O2-  O225  1  0.12489122  0.00028150  0.84668564  1
  O2-  O226  1  0.12520145  0.25073466  0.34566662  1
  O2-  O227  1  0.12403267  0.24781565  0.85189623  1
  O2-  O228  1  0.12398599  0.49954690  0.35273637  1
  O2-  O229  1  0.12472087  0.50179348  0.84555160  1
  O2-  O230  1  0.12490271  0.74907096  0.35214691  1
  O2-  O231  1  0.12547431  0.75050941  0.83852573  1
  O2-  O232  1  0.37516769  -0.00097606  0.34663466  1
  O2-  O233  1  0.37449786  -0.00230595  0.84553794  1
  O2-  O234  1  0.37399527  0.24838814  0.34489949  1
  O2-  O235  1  0.37484019  0.25017069  0.85219510  1
  O2-  O236  1  0.37467318  0.49940294  0.34864008  1
  O2-  O237  1  0.37515961  0.50293489  0.84788759  1
  O2-  O238  1  0.37493695  0.75322850  0.35284600  1
  O2-  O239  1  0.37456914  0.74948108  0.83842355  1
  O2-  O240  1  0.62441174  -0.00238109  0.35230120  1
  O2-  O241  1  0.62481689  0.00149115  0.84835192  1
  O2-  O242  1  0.62466645  0.25146728  0.34582680  1
  O2-  O243  1  0.62627383  0.25168015  0.85288509  1
  O2-  O244  1  0.62476689  0.49990975  0.34100171  1
  O2-  O245  1  0.62597035  0.50063375  0.85297987  1
  O2-  O246  1  0.62526113  0.75084904  0.35080328  1
  O2-  O247  1  0.62492525  0.74678963  0.84577263  1
  O2-  O248  1  0.87507852  0.00228874  0.35123829  1
  O2-  O249  1  0.87579891  -0.00056996  0.84134608  1
  O2-  O250  1  0.87530172  0.24727039  0.35002065  1
  O2-  O251  1  0.87547602  0.24879316  0.84937612  1
  O2-  O252  1  0.87549988  0.50304499  0.35070790  1
  O2-  O253  1  0.87545225  0.49863516  0.84913107  1
  O2-  O254  1  0.87440049  0.74757321  0.35271093  1
  O2-  O255  1  0.87547864  0.75294644  0.84028790  1
  O2-  O256  1  -0.00023521  0.12517609  0.34962679  1
  O2-  O257  1  0.00159796  0.12471979  0.84404495  1
  O2-  O258  1  0.00307454  0.37423681  0.35316137  1
  O2-  O259  1  -0.00150427  0.37491101  0.84706874  1
  O2-  O260  1  -0.00009174  0.62549287  0.35384368  1
  O2-  O261  1  0.00251597  0.62542988  0.84181684  1
  O2-  O262  1  0.00084851  0.87490876  0.35021448  1
  O2-  O263  1  0.00148158  0.87509718  0.84047430  1
  O2-  O264  1  0.25016754  0.12444893  0.34194803  1
  O2-  O265  1  0.24651139  0.12451304  0.84914634  1
  O2-  O266  1  0.24765206  0.37506014  0.34955571  1
  O2-  O267  1  0.25078118  0.37539584  0.84744069  1
  O2-  O268  1  0.24701113  0.62472272  0.35078810  1
  O2-  O269  1  0.24997254  0.62561901  0.83986739  1
  O2-  O270  1  0.25150607  0.87532366  0.34751667  1
  O2-  O271  1  0.24913334  0.87473177  0.84015525  1
  O2-  O272  1  0.49787811  0.12442875  0.34633431  1
  O2-  O273  1  0.50110251  0.12485200  0.85138882  1
  O2-  O274  1  0.50041251  0.37501414  0.34404651  1
  O2-  O275  1  0.50294328  0.37576719  0.85169653  1
  O2-  O276  1  0.50182803  0.62574572  0.34417072  1
  O2-  O277  1  0.50043927  0.62548591  0.85001879  1
  O2-  O278  1  0.49979678  0.87472771  0.35049118  1
  O2-  O279  1  0.49816751  0.87419722  0.84596067  1
  O2-  O280  1  0.75177953  0.12471148  0.35237243  1
  O2-  O281  1  0.75139539  0.12460609  0.84818026  1
  O2-  O282  1  0.74794165  0.37546095  0.34733129  1
  O2-  O283  1  0.74874993  0.37537222  0.85172328  1
  O2-  O284  1  0.75051673  0.62520097  0.34733694  1
  O2-  O285  1  0.74782018  0.62524137  0.85124213  1
  O2-  O286  1  0.74766929  0.87481207  0.35176893  1
  O2-  O287  1  0.75148392  0.87532876  0.84839579  1
