# generated using pymatgen
data_BaYFeCuO5
_symmetry_space_group_name_H-M   'P 1'
_cell_length_a   15.65910979
_cell_length_b   15.65886293
_cell_length_c   15.46271807
_cell_angle_alpha   89.99687591
_cell_angle_beta   89.99829892
_cell_angle_gamma   89.99922780
_symmetry_Int_Tables_number   1
_chemical_formula_structural   BaYFeCuO5
_chemical_formula_sum   'Ba32 Y32 Fe32 Cu32 O160'
_cell_volume   3791.51805284
_cell_formula_units_Z   32
loop_
 _symmetry_equiv_pos_site_id
 _symmetry_equiv_pos_as_xyz
  1  'x, y, z'
loop_
 _atom_type_symbol
 _atom_type_oxidation_number
  Ba2+  2.0
  Y3+  3.0
  Fe3+  3.0
  Cu2+  2.0
  O2-  -2.0
loop_
 _atom_site_type_symbol
 _atom_site_label
 _atom_site_symmetry_multiplicity
 _atom_site_fract_x
 _atom_site_fract_y
 _atom_site_fract_z
 _atom_site_occupancy
  Ba2+  Ba0  1  0.00123801  -0.00827320  0.00663309  1
  Ba2+  Ba1  1  0.00141325  0.00448208  0.51638080  1
  Ba2+  Ba2  1  -0.00511539  0.25587376  0.00751865  1
  Ba2+  Ba3  1  -0.00620141  0.24439386  0.50537610  1
  Ba2+  Ba4  1  -0.00022904  0.49918832  0.00183699  1
  Ba2+  Ba5  1  -0.00380308  0.50338228  0.51239464  1
  Ba2+  Ba6  1  0.00566194  0.75343227  0.00140678  1
  Ba2+  Ba7  1  0.00305168  0.74878904  0.52052468  1
  Ba2+  Ba8  1  0.25627930  -0.00395694  0.01807852  1
  Ba2+  Ba9  1  0.24893893  0.00351574  0.51523559  1
  Ba2+  Ba10  1  0.25984545  0.24737044  0.01278114  1
  Ba2+  Ba11  1  0.25317042  0.24156201  0.50974590  1
  Ba2+  Ba12  1  0.25489248  0.50789279  0.00583104  1
  Ba2+  Ba13  1  0.25162437  0.50543056  0.51624490  1
  Ba2+  Ba14  1  0.25260288  0.74946331  0.01187831  1
  Ba2+  Ba15  1  0.24733352  0.74957255  0.51970941  1
  Ba2+  Ba16  1  0.49631435  0.00101477  0.01191771  1
  Ba2+  Ba17  1  0.49400518  0.00622227  0.51439523  1
  Ba2+  Ba18  1  0.49456614  0.24205708  0.00566601  1
  Ba2+  Ba19  1  0.49917680  0.24974591  0.52184556  1
  Ba2+  Ba20  1  0.48962041  0.50213523  0.01139902  1
  Ba2+  Ba21  1  0.50026827  0.49804268  0.51804219  1
  Ba2+  Ba22  1  0.49257729  0.75375126  0.01703137  1
  Ba2+  Ba23  1  0.49563026  0.74559034  0.51140409  1
  Ba2+  Ba24  1  0.74508097  -0.00288417  0.00089293  1
  Ba2+  Ba25  1  0.75581947  0.00718728  0.51558798  1
  Ba2+  Ba26  1  0.75056295  0.25034852  0.00201836  1
  Ba2+  Ba27  1  0.75360306  0.25098066  0.51740396  1
  Ba2+  Ba28  1  0.75535564  0.49397299  0.00738745  1
  Ba2+  Ba29  1  0.75258224  0.49522556  0.51141030  1
  Ba2+  Ba30  1  0.74943921  0.75841356  0.00692006  1
  Ba2+  Ba31  1  0.75437037  0.74536410  0.51268215  1
  Y3+  Y32  1  0.00132088  0.00208464  0.26083579  1
  Y3+  Y33  1  0.00019087  -0.00017075  0.75395985  1
  Y3+  Y34  1  -0.00141479  0.25020833  0.26095685  1
  Y3+  Y35  1  -0.00153627  0.25025074  0.75556779  1
  Y3+  Y36  1  -0.00031574  0.49786594  0.25963880  1
  Y3+  Y37  1  -0.00021461  0.49996466  0.75655126  1
  Y3+  Y38  1  0.00280228  0.74958442  0.25891899  1
  Y3+  Y39  1  0.00134933  0.75018760  0.75528567  1
  Y3+  Y40  1  0.25091128  0.00214682  0.25995638  1
  Y3+  Y41  1  0.25102736  0.00149363  0.75281177  1
  Y3+  Y42  1  0.25131775  0.24698171  0.25917097  1
  Y3+  Y43  1  0.25183673  0.24726625  0.75535263  1
  Y3+  Y44  1  0.25011907  0.50115183  0.25692652  1
  Y3+  Y45  1  0.25032370  0.50331829  0.75716277  1
  Y3+  Y46  1  0.24951647  0.74968652  0.25696176  1
  Y3+  Y47  1  0.24971755  0.74786048  0.75557550  1
  Y3+  Y48  1  0.49801081  0.00075662  0.25703819  1
  Y3+  Y49  1  0.49837182  0.00407587  0.75598197  1
  Y3+  Y50  1  0.49677031  0.24815839  0.25556676  1
  Y3+  Y51  1  0.49922029  0.24714198  0.75767733  1
  Y3+  Y52  1  0.49834365  0.50094695  0.25512321  1
  Y3+  Y53  1  0.49730433  0.49965274  0.75804772  1
  Y3+  Y54  1  0.49959454  0.74984601  0.25605055  1
  Y3+  Y55  1  0.49670657  0.74926999  0.75620503  1
  Y3+  Y56  1  0.74970933  0.00071434  0.25909098  1
  Y3+  Y57  1  0.75100481  0.00184974  0.75561507  1
  Y3+  Y58  1  0.75349476  0.25147855  0.25897312  1
  Y3+  Y59  1  0.75074839  0.25005037  0.75656320  1
  Y3+  Y60  1  0.75130679  0.49768624  0.25757730  1
  Y3+  Y61  1  0.75239876  0.49656630  0.75757232  1
  Y3+  Y62  1  0.74794459  0.74993472  0.25782544  1
  Y3+  Y63  1  0.75236896  0.75179979  0.75706083  1
  Fe3+  Fe64  1  0.62420412  0.62550046  0.88042410  1
  Fe3+  Fe65  1  0.62305147  0.87530081  0.87430591  1
  Fe3+  Fe66  1  0.62474628  0.12653068  0.37841257  1
  Fe3+  Fe67  1  0.37545918  0.37472836  0.37740629  1
  Fe3+  Fe68  1  0.87589358  0.12414482  0.87916303  1
  Fe3+  Fe69  1  0.12691065  0.87561058  0.87429625  1
  Fe3+  Fe70  1  0.37431620  0.87566753  0.87277079  1
  Fe3+  Fe71  1  0.37409964  0.37451558  0.87569523  1
  Fe3+  Fe72  1  0.12558107  0.37515335  0.38065897  1
  Fe3+  Fe73  1  0.37491293  0.62469561  0.37603571  1
  Fe3+  Fe74  1  0.12614911  0.12475042  0.88045411  1
  Fe3+  Fe75  1  0.62475624  0.87496475  0.38099569  1
  Fe3+  Fe76  1  0.87553704  0.87505109  0.37941313  1
  Fe3+  Fe77  1  0.12635523  0.37473409  0.87952789  1
  Fe3+  Fe78  1  0.12537774  0.87487513  0.37829246  1
  Fe3+  Fe79  1  0.87520848  0.62522642  0.37577565  1
  Fe3+  Fe80  1  0.62367548  0.37459503  0.87933583  1
  Fe3+  Fe81  1  0.87498978  0.62596898  0.87899223  1
  Fe3+  Fe82  1  0.62397054  0.37469065  0.37605647  1
  Fe3+  Fe83  1  0.37470748  0.87504633  0.37781560  1
  Fe3+  Fe84  1  0.62541570  0.62513697  0.13335209  1
  Fe3+  Fe85  1  0.87548606  0.87512046  0.13793858  1
  Fe3+  Fe86  1  0.12596650  0.37483370  0.13507671  1
  Fe3+  Fe87  1  0.87494351  0.12448031  0.13487872  1
  Fe3+  Fe88  1  0.12549840  0.37402304  0.63561602  1
  Fe3+  Fe89  1  0.62454584  0.87557812  0.63430843  1
  Fe3+  Fe90  1  0.62597644  0.62416926  0.63932232  1
  Fe3+  Fe91  1  0.62369569  0.37383720  0.13346793  1
  Fe3+  Fe92  1  0.12404221  0.62524897  0.13699610  1
  Fe3+  Fe93  1  0.62571512  0.12464675  0.13641552  1
  Fe3+  Fe94  1  0.87559059  0.62556337  0.13421989  1
  Fe3+  Fe95  1  0.12430249  0.12450151  0.13447104  1
  Cu2+  Cu96  1  0.62476892  0.62413224  0.36284340  1
  Cu2+  Cu97  1  0.37532395  0.62655712  0.87132367  1
  Cu2+  Cu98  1  0.62481616  0.12467715  0.86418583  1
  Cu2+  Cu99  1  0.87481699  0.37501398  0.37307674  1
  Cu2+  Cu100  1  0.87553481  0.37464077  0.87170661  1
  Cu2+  Cu101  1  0.87563293  0.87547258  0.86164332  1
  Cu2+  Cu102  1  0.37622137  0.12509912  0.37223159  1
  Cu2+  Cu103  1  0.87392771  0.12440216  0.37112880  1
  Cu2+  Cu104  1  0.12528627  0.62473620  0.37432370  1
  Cu2+  Cu105  1  0.37363934  0.12356086  0.87141399  1
  Cu2+  Cu106  1  0.12506499  0.12512802  0.37320335  1
  Cu2+  Cu107  1  0.12506598  0.62528114  0.86384389  1
  Cu2+  Cu108  1  0.37538015  0.87506370  0.64654491  1
  Cu2+  Cu109  1  0.87553213  0.12577257  0.64601040  1
  Cu2+  Cu110  1  0.37410073  0.37484277  0.14929422  1
  Cu2+  Cu111  1  0.37500667  0.12538515  0.64318524  1
  Cu2+  Cu112  1  0.37486283  0.12429974  0.14303083  1
  Cu2+  Cu113  1  0.87614416  0.37472828  0.64286545  1
  Cu2+  Cu114  1  0.37397563  0.62544515  0.14245896  1
  Cu2+  Cu115  1  0.12455411  0.12645035  0.64351460  1
  Cu2+  Cu116  1  0.37454679  0.87517063  0.15480284  1
  Cu2+  Cu117  1  0.62521611  0.87576426  0.15140730  1
  Cu2+  Cu118  1  0.37560938  0.62486267  0.65159186  1
  Cu2+  Cu119  1  0.62551278  0.12552020  0.64992641  1
  Cu2+  Cu120  1  0.87480952  0.87522753  0.64797350  1
  Cu2+  Cu121  1  0.12449783  0.62384446  0.64302219  1
  Cu2+  Cu122  1  0.12536197  0.87550700  0.65005732  1
  Cu2+  Cu123  1  0.12470037  0.87545721  0.15146202  1
  Cu2+  Cu124  1  0.62472795  0.37503381  0.65474813  1
  Cu2+  Cu125  1  0.87443721  0.62462405  0.65537409  1
  Cu2+  Cu126  1  0.87557705  0.37487931  0.14101137  1
  Cu2+  Cu127  1  0.37410162  0.37497479  0.65073625  1
  O2-  O128  1  0.12541238  0.12386526  0.00732779  1
  O2-  O129  1  0.12443609  0.12564608  0.50729541  1
  O2-  O130  1  0.12656233  0.37565489  0.00735455  1
  O2-  O131  1  0.12535507  0.37467100  0.50789400  1
  O2-  O132  1  0.12358645  0.62539829  0.01648776  1
  O2-  O133  1  0.12475750  0.62453809  0.50810015  1
  O2-  O134  1  0.12727403  0.87526321  -0.00485449  1
  O2-  O135  1  0.12472555  0.87496025  0.49864821  1
  O2-  O136  1  0.37399635  0.12273570  0.00745917  1
  O2-  O137  1  0.37629689  0.12575630  0.50756426  1
  O2-  O138  1  0.37394944  0.37501625  -0.00342036  1
  O2-  O139  1  0.37668943  0.37606409  0.49735368  1
  O2-  O140  1  0.37525464  0.62709446  0.00669166  1
  O2-  O141  1  0.37614644  0.62386451  0.49689341  1
  O2-  O142  1  0.37488290  0.87516217  -0.00640553  1
  O2-  O143  1  0.37531153  0.87349814  0.49795106  1
  O2-  O144  1  0.62599705  0.12308657  0.01595142  1
  O2-  O145  1  0.62515194  0.12733356  0.49892878  1
  O2-  O146  1  0.62372400  0.37407917  0.00627189  1
  O2-  O147  1  0.62370855  0.37551294  0.49642023  1
  O2-  O148  1  0.62454870  0.62708638  0.00675940  1
  O2-  O149  1  0.62647392  0.62327728  0.51870301  1
  O2-  O150  1  0.62269507  0.87522002  -0.00484621  1
  O2-  O151  1  0.62543881  0.87405945  0.50677240  1
  O2-  O152  1  0.87531607  0.12329245  0.00772593  1
  O2-  O153  1  0.87405921  0.12500638  0.50772112  1
  O2-  O154  1  0.87513093  0.37480880  0.00725835  1
  O2-  O155  1  0.87507891  0.37550302  0.50829787  1
  O2-  O156  1  0.87559057  0.62670754  0.00734919  1
  O2-  O157  1  0.87400985  0.62514146  0.49659921  1
  O2-  O158  1  0.87465390  0.87547561  0.01700733  1
  O2-  O159  1  0.87483123  0.87385563  0.49949884  1
  O2-  O160  1  0.12390752  0.00131659  0.16172879  1
  O2-  O161  1  0.12435864  -0.00063064  0.66486855  1
  O2-  O162  1  0.12439328  0.24921634  0.16093066  1
  O2-  O163  1  0.12551623  0.25298161  0.66920959  1
  O2-  O164  1  0.12497831  0.49922967  0.16526604  1
  O2-  O165  1  0.12495699  0.49694440  0.66694762  1
  O2-  O166  1  0.12414112  0.75034212  0.16469176  1
  O2-  O167  1  0.12440524  0.75084555  0.66417867  1
  O2-  O168  1  0.37493338  -0.00227260  0.16585439  1
  O2-  O169  1  0.37566227  -0.00075154  0.66327411  1
  O2-  O170  1  0.37461243  0.25069047  0.16397055  1
  O2-  O171  1  0.37505838  0.25102150  0.66713672  1
  O2-  O172  1  0.37386355  0.49915436  0.16291356  1
  O2-  O173  1  0.37539399  0.50020705  0.66574635  1
  O2-  O174  1  0.37532236  0.75232619  0.16399498  1
  O2-  O175  1  0.37572622  0.74966544  0.66262412  1
  O2-  O176  1  0.62611265  0.00049018  0.16758284  1
  O2-  O177  1  0.62540362  -0.00129678  0.66117065  1
  O2-  O178  1  0.62437683  0.25055948  0.16179506  1
  O2-  O179  1  0.62539520  0.25085357  0.66736863  1
  O2-  O180  1  0.62515360  0.50018930  0.15804725  1
  O2-  O181  1  0.62506388  0.50013440  0.67103906  1
  O2-  O182  1  0.62566727  0.74908319  0.16309563  1
  O2-  O183  1  0.62580571  0.75091599  0.66487697  1
  O2-  O184  1  0.87504457  0.00135516  0.16502530  1
  O2-  O185  1  0.87493474  -0.00041821  0.66625296  1
  O2-  O186  1  0.87573834  0.24680186  0.16314335  1
  O2-  O187  1  0.87491091  0.25003932  0.66891557  1
  O2-  O188  1  0.87490212  0.50331601  0.16224965  1
  O2-  O189  1  0.87502004  0.50076462  0.66814024  1
  O2-  O190  1  0.87411757  0.74864223  0.16347009  1
  O2-  O191  1  0.87426085  0.74975620  0.66540218  1
  O2-  O192  1  -0.00011824  0.12466037  0.16276700  1
  O2-  O193  1  0.00018431  0.12571383  0.66934026  1
  O2-  O194  1  0.00368068  0.37479089  0.16566644  1
  O2-  O195  1  0.00297847  0.37517550  0.66709008  1
  O2-  O196  1  -0.00112343  0.62525448  0.16529505  1
  O2-  O197  1  -0.00195404  0.62458589  0.66740693  1
  O2-  O198  1  -0.00132442  0.87523781  0.16591739  1
  O2-  O199  1  0.00018194  0.87485419  0.66528409  1
  O2-  O200  1  0.24676664  0.12473121  0.16446473  1
  O2-  O201  1  0.24987013  0.12534729  0.66443705  1
  O2-  O202  1  0.24807004  0.37392167  0.16431862  1
  O2-  O203  1  0.24895450  0.37542467  0.66259118  1
  O2-  O204  1  0.24747900  0.62561527  0.16564765  1
  O2-  O205  1  0.25180471  0.62454556  0.66406534  1
  O2-  O206  1  0.25027945  0.87522656  0.16332225  1
  O2-  O207  1  0.25042765  0.87526293  0.66159697  1
  O2-  O208  1  0.50167150  0.12405675  0.16465928  1
  O2-  O209  1  0.50129435  0.12590887  0.66537624  1
  O2-  O210  1  0.50087539  0.37580689  0.16019200  1
  O2-  O211  1  0.49920148  0.37543668  0.66521012  1
  O2-  O212  1  0.50295538  0.62539013  0.16224324  1
  O2-  O213  1  0.50080048  0.62459175  0.66618580  1
  O2-  O214  1  0.49915458  0.87495999  0.16427629  1
  O2-  O215  1  0.50200164  0.87424005  0.66025496  1
  O2-  O216  1  0.75142381  0.12491531  0.16485538  1
  O2-  O217  1  0.74924495  0.12546199  0.66803290  1
  O2-  O218  1  0.74644839  0.37504280  0.16295262  1
  O2-  O219  1  0.74928370  0.37521776  0.66748774  1
  O2-  O220  1  0.74982671  0.62529445  0.16040456  1
  O2-  O221  1  0.74954860  0.62478492  0.67109012  1
  O2-  O222  1  0.75178361  0.87472496  0.16772600  1
  O2-  O223  1  0.74776222  0.87501386  0.66442123  1
  O2-  O224  1  0.12501810  -0.00205963  0.34532374  1
  O2-  O225  1  0.12434688  0.00144146  0.84806040  1
  O2-  O226  1  0.12519869  0.25334268  0.34669635  1
  O2-  O227  1  0.12439562  0.24979078  0.85382737  1
  O2-  O228  1  0.12479376  0.49679744  0.34843692  1
  O2-  O229  1  0.12535752  0.49879569  0.85221967  1
  O2-  O230  1  0.12521452  0.75175357  0.34631065  1
  O2-  O231  1  0.12440458  0.75047354  0.84756403  1
  O2-  O232  1  0.37604706  -0.00174603  0.34814080  1
  O2-  O233  1  0.37471475  -0.00121587  0.84475101  1
  O2-  O234  1  0.37493315  0.25150170  0.34628151  1
  O2-  O235  1  0.37484122  0.25081805  0.84968126  1
  O2-  O236  1  0.37541533  0.49977043  0.34399287  1
  O2-  O237  1  0.37459981  0.49863974  0.84887478  1
  O2-  O238  1  0.37613281  0.75001237  0.34534357  1
  O2-  O239  1  0.37520390  0.75196543  0.84489151  1
  O2-  O240  1  0.62524387  -0.00128950  0.35034653  1
  O2-  O241  1  0.62582635  -0.00059432  0.84511698  1
  O2-  O242  1  0.62511950  0.25058260  0.34240726  1
  O2-  O243  1  0.62450769  0.25126498  0.85304128  1
  O2-  O244  1  0.62488783  0.49898595  0.34199746  1
  O2-  O245  1  0.62559570  0.49996424  0.85492300  1
  O2-  O246  1  0.62499004  0.75129289  0.34908992  1
  O2-  O247  1  0.62580496  0.74926217  0.84714293  1
  O2-  O248  1  0.87404491  -0.00268546  0.34633681  1
  O2-  O249  1  0.87522889  0.00189288  0.85051079  1
  O2-  O250  1  0.87484106  0.24989271  0.34718215  1
  O2-  O251  1  0.87577446  0.24691882  0.85234255  1
  O2-  O252  1  0.87457093  0.50143710  0.34539639  1
  O2-  O253  1  0.87462304  0.50274468  0.85213425  1
  O2-  O254  1  0.87381775  0.75087930  0.34384546  1
  O2-  O255  1  0.87477899  0.74868264  0.85041004  1
  O2-  O256  1  -0.00067343  0.12535844  0.34720242  1
  O2-  O257  1  0.00082608  0.12492600  0.85368938  1
  O2-  O258  1  0.00215192  0.37474614  0.35046969  1
  O2-  O259  1  0.00324737  0.37537855  0.85164243  1
  O2-  O260  1  -0.00178766  0.62485357  0.34617291  1
  O2-  O261  1  -0.00176069  0.62489776  0.85240570  1
  O2-  O262  1  -0.00019055  0.87481992  0.34649155  1
  O2-  O263  1  0.00089082  0.87522140  0.84927981  1
  O2-  O264  1  0.25084122  0.12525824  0.34867020  1
  O2-  O265  1  0.24660034  0.12551514  0.84777574  1
  O2-  O266  1  0.24991640  0.37518836  0.34776630  1
  O2-  O267  1  0.24872072  0.37474683  0.84626598  1
  O2-  O268  1  0.25227310  0.62443359  0.34649689  1
  O2-  O269  1  0.24877411  0.62514938  0.84835589  1
  O2-  O270  1  0.25057740  0.87491097  0.34592055  1
  O2-  O271  1  0.24971917  0.87511495  0.84231051  1
  O2-  O272  1  0.50223699  0.12489125  0.34550202  1
  O2-  O273  1  0.50049358  0.12460414  0.84934909  1
  O2-  O274  1  0.49943799  0.37538649  0.34157359  1
  O2-  O275  1  0.50071041  0.37532932  0.84880437  1
  O2-  O276  1  0.49922754  0.62487623  0.34528440  1
  O2-  O277  1  0.50334065  0.62493607  0.84884250  1
  O2-  O278  1  0.50142275  0.87437208  0.34839743  1
  O2-  O279  1  0.49981754  0.87523446  0.84155379  1
  O2-  O280  1  0.74763771  0.12480114  0.34566028  1
  O2-  O281  1  0.75195218  0.12471170  0.85281433  1
  O2-  O282  1  0.74845493  0.37564193  0.34608340  1
  O2-  O283  1  0.74720472  0.37462401  0.85215612  1
  O2-  O284  1  0.75042699  0.62498847  0.34420174  1
  O2-  O285  1  0.74969227  0.62567413  0.85464708  1
  O2-  O286  1  0.74845738  0.87410745  0.34970198  1
  O2-  O287  1  0.74970700  0.87514363  0.84862316  1
