# generated using pymatgen
data_BaYFeCuO5
_symmetry_space_group_name_H-M   'P 1'
_cell_length_a   15.66373492
_cell_length_b   15.66476289
_cell_length_c   15.46944276
_cell_angle_alpha   89.99888497
_cell_angle_beta   89.99513669
_cell_angle_gamma   90.00248530
_symmetry_Int_Tables_number   1
_chemical_formula_structural   BaYFeCuO5
_chemical_formula_sum   'Ba32 Y32 Fe32 Cu32 O160'
_cell_volume   3795.71694188
_cell_formula_units_Z   32
loop_
 _symmetry_equiv_pos_site_id
 _symmetry_equiv_pos_as_xyz
  1  'x, y, z'
loop_
 _atom_type_symbol
 _atom_type_oxidation_number
  Ba2+  2.0
  Y3+  3.0
  Fe3+  3.0
  Cu2+  2.0
  O2-  -2.0
loop_
 _atom_site_type_symbol
 _atom_site_label
 _atom_site_symmetry_multiplicity
 _atom_site_fract_x
 _atom_site_fract_y
 _atom_site_fract_z
 _atom_site_occupancy
  Ba2+  Ba0  1  -0.01104415  0.00070809  0.01012872  1
  Ba2+  Ba1  1  0.00116322  -0.00035322  0.52366639  1
  Ba2+  Ba2  1  -0.00350752  0.24828938  0.00942692  1
  Ba2+  Ba3  1  0.00038309  0.25062827  0.52404027  1
  Ba2+  Ba4  1  0.00436944  0.50474086  0.01144320  1
  Ba2+  Ba5  1  0.00806691  0.49551340  0.51094721  1
  Ba2+  Ba6  1  -0.00542074  0.74547789  0.01360252  1
  Ba2+  Ba7  1  0.00815205  0.75403288  0.51112511  1
  Ba2+  Ba8  1  0.25718793  -0.00799033  0.00684450  1
  Ba2+  Ba9  1  0.24245247  -0.00565054  0.51720617  1
  Ba2+  Ba10  1  0.25326564  0.26196818  0.01129661  1
  Ba2+  Ba11  1  0.23818029  0.25156325  0.51178691  1
  Ba2+  Ba12  1  0.25463331  0.49966226  0.01362350  1
  Ba2+  Ba13  1  0.24183688  0.50404119  0.50238371  1
  Ba2+  Ba14  1  0.25771599  0.74590894  0.00705064  1
  Ba2+  Ba15  1  0.24374817  0.74974601  0.50673594  1
  Ba2+  Ba16  1  0.50511722  -0.01011888  0.01033702  1
  Ba2+  Ba17  1  0.50037568  0.00088398  0.50614627  1
  Ba2+  Ba18  1  0.50391401  0.26002051  0.00995069  1
  Ba2+  Ba19  1  0.50905236  0.25013451  0.50645418  1
  Ba2+  Ba20  1  0.49959447  0.49846323  0.01788251  1
  Ba2+  Ba21  1  0.50269045  0.50402278  0.50030690  1
  Ba2+  Ba22  1  0.50099606  0.75171244  0.01817491  1
  Ba2+  Ba23  1  0.49448658  0.74613858  0.50122731  1
  Ba2+  Ba24  1  0.74847110  -0.00179795  0.01607001  1
  Ba2+  Ba25  1  0.75652552  0.00557752  0.51261406  1
  Ba2+  Ba26  1  0.74541032  0.24645926  0.01102385  1
  Ba2+  Ba27  1  0.75345811  0.24990999  0.51988491  1
  Ba2+  Ba28  1  0.74319026  0.50331797  0.01700833  1
  Ba2+  Ba29  1  0.74821049  0.49394201  0.51272642  1
  Ba2+  Ba30  1  0.74716619  0.75138728  0.02240009  1
  Ba2+  Ba31  1  0.75136221  0.75080318  0.50603949  1
  Y3+  Y32  1  -0.00146285  -0.00007438  0.25371908  1
  Y3+  Y33  1  -0.00124249  -0.00023383  0.75869640  1
  Y3+  Y34  1  0.00060155  0.25083322  0.25328342  1
  Y3+  Y35  1  -0.00103481  0.24981530  0.75920789  1
  Y3+  Y36  1  0.00297057  0.49997606  0.25931359  1
  Y3+  Y37  1  0.00264012  0.50031378  0.75437133  1
  Y3+  Y38  1  0.00130517  0.74982869  0.26058538  1
  Y3+  Y39  1  0.00275442  0.74952553  0.75444388  1
  Y3+  Y40  1  0.25040218  -0.00180764  0.25626986  1
  Y3+  Y41  1  0.25059624  -0.00367517  0.75809356  1
  Y3+  Y42  1  0.24947951  0.25328527  0.25625063  1
  Y3+  Y43  1  0.24974742  0.25203545  0.75793424  1
  Y3+  Y44  1  0.24941514  0.49980679  0.26009456  1
  Y3+  Y45  1  0.24853088  0.50048637  0.75678407  1
  Y3+  Y46  1  0.25015630  0.74902163  0.26083268  1
  Y3+  Y47  1  0.24959671  0.75060551  0.75567788  1
  Y3+  Y48  1  0.50183376  -0.00093997  0.25447636  1
  Y3+  Y49  1  0.49882480  -0.00394458  0.76027023  1
  Y3+  Y50  1  0.50156732  0.25082510  0.25404670  1
  Y3+  Y51  1  0.50058559  0.25336072  0.76073381  1
  Y3+  Y52  1  0.49937450  0.50153770  0.25632521  1
  Y3+  Y53  1  0.50020453  0.49716646  0.75933092  1
  Y3+  Y54  1  0.49928177  0.74884764  0.25681508  1
  Y3+  Y55  1  0.49820137  0.75267034  0.75892169  1
  Y3+  Y56  1  0.74924031  0.00161792  0.25333801  1
  Y3+  Y57  1  0.75150885  0.00008089  0.76034047  1
  Y3+  Y58  1  0.74823217  0.24781389  0.25236688  1
  Y3+  Y59  1  0.75054632  0.25108649  0.76133355  1
  Y3+  Y60  1  0.74813211  0.50144309  0.25640060  1
  Y3+  Y61  1  0.74853877  0.49712686  0.75700911  1
  Y3+  Y62  1  0.74938020  0.74991338  0.25712869  1
  Y3+  Y63  1  0.74941917  0.75158081  0.75587555  1
  Fe3+  Fe64  1  0.12430474  0.87293195  0.88045326  1
  Fe3+  Fe65  1  0.37400781  0.87599425  0.37753937  1
  Fe3+  Fe66  1  0.62486456  0.62595484  0.87650102  1
  Fe3+  Fe67  1  0.87558032  0.12635118  0.37432293  1
  Fe3+  Fe68  1  0.87552688  0.37320196  0.37524864  1
  Fe3+  Fe69  1  0.62673633  0.37392345  0.37479862  1
  Fe3+  Fe70  1  0.12588692  0.12436931  0.88010961  1
  Fe3+  Fe71  1  0.62438595  0.12392169  0.87814880  1
  Fe3+  Fe72  1  0.37568938  0.62417660  0.87659740  1
  Fe3+  Fe73  1  0.87396355  0.87309636  0.87623918  1
  Fe3+  Fe74  1  0.87605124  0.87693180  0.37660728  1
  Fe3+  Fe75  1  0.12494462  0.37650971  0.87754724  1
  Fe3+  Fe76  1  0.87449202  0.62479984  0.87524768  1
  Fe3+  Fe77  1  0.87456160  0.37666443  0.87956255  1
  Fe3+  Fe78  1  0.37568712  0.12539490  0.88004686  1
  Fe3+  Fe79  1  0.37467199  0.37445731  0.37994481  1
  Fe3+  Fe80  1  0.12333222  0.12435325  0.37455327  1
  Fe3+  Fe81  1  0.37440569  0.12547481  0.37955218  1
  Fe3+  Fe82  1  0.87540779  0.62394252  0.37948288  1
  Fe3+  Fe83  1  0.62576982  0.87601331  0.37891292  1
  Fe3+  Fe84  1  0.62470131  0.12487592  0.63954085  1
  Fe3+  Fe85  1  0.12495130  0.87408603  0.13419326  1
  Fe3+  Fe86  1  0.12613553  0.62552886  0.13955497  1
  Fe3+  Fe87  1  0.87489148  0.37665132  0.13398438  1
  Fe3+  Fe88  1  0.12636110  0.12509060  0.13186587  1
  Fe3+  Fe89  1  0.37473609  0.12513400  0.63514087  1
  Fe3+  Fe90  1  0.62485979  0.87532343  0.63414983  1
  Fe3+  Fe91  1  0.37588908  0.12512645  0.13411500  1
  Fe3+  Fe92  1  0.87529961  0.62446777  0.63349319  1
  Fe3+  Fe93  1  0.37508207  0.37536005  0.63372703  1
  Fe3+  Fe94  1  0.37492573  0.62479479  0.63631952  1
  Fe3+  Fe95  1  0.62411371  0.62484567  0.63554176  1
  Cu2+  Cu96  1  0.62587494  0.87341149  0.87176155  1
  Cu2+  Cu97  1  0.12502440  0.62534067  0.86432709  1
  Cu2+  Cu98  1  0.62546086  0.37646560  0.87396075  1
  Cu2+  Cu99  1  0.37438266  0.62465934  0.36551046  1
  Cu2+  Cu100  1  0.12372195  0.62555903  0.37235576  1
  Cu2+  Cu101  1  0.87454553  0.12497975  0.87437668  1
  Cu2+  Cu102  1  0.37472797  0.37636058  0.87209669  1
  Cu2+  Cu103  1  0.37528860  0.87325128  0.87299116  1
  Cu2+  Cu104  1  0.12393306  0.87745898  0.37072436  1
  Cu2+  Cu105  1  0.62595231  0.62526899  0.36557815  1
  Cu2+  Cu106  1  0.62553920  0.12503630  0.36297702  1
  Cu2+  Cu107  1  0.12357640  0.37291437  0.37133960  1
  Cu2+  Cu108  1  0.62512084  0.87449251  0.14488407  1
  Cu2+  Cu109  1  0.87515194  0.37556424  0.65312440  1
  Cu2+  Cu110  1  0.87483869  0.12525115  0.65722670  1
  Cu2+  Cu111  1  0.87455791  0.12566547  0.13921641  1
  Cu2+  Cu112  1  0.12594642  0.37495917  0.64527566  1
  Cu2+  Cu113  1  0.12495068  0.37572097  0.14849289  1
  Cu2+  Cu114  1  0.87575124  0.62454106  0.15452556  1
  Cu2+  Cu115  1  0.12489691  0.87481733  0.64639876  1
  Cu2+  Cu116  1  0.62434038  0.62550950  0.15395677  1
  Cu2+  Cu117  1  0.12541708  0.12471379  0.65706258  1
  Cu2+  Cu118  1  0.37560335  0.87486448  0.64670423  1
  Cu2+  Cu119  1  0.87439977  0.87444259  0.64930826  1
  Cu2+  Cu120  1  0.62409730  0.37458009  0.65165396  1
  Cu2+  Cu121  1  0.87562056  0.87408596  0.15169208  1
  Cu2+  Cu122  1  0.62531432  0.37563120  0.14259683  1
  Cu2+  Cu123  1  0.37523108  0.37566318  0.14509311  1
  Cu2+  Cu124  1  0.12581894  0.62498315  0.64249451  1
  Cu2+  Cu125  1  0.37434855  0.62516713  0.15415295  1
  Cu2+  Cu126  1  0.62346216  0.12460715  0.14622235  1
  Cu2+  Cu127  1  0.37449037  0.87417087  0.14346639  1
  O2-  O128  1  0.12740295  0.12507362  0.00565845  1
  O2-  O129  1  0.12203981  0.12421687  0.49506268  1
  O2-  O130  1  0.12536232  0.37772778  -0.00206434  1
  O2-  O131  1  0.12394213  0.37242345  0.50651415  1
  O2-  O132  1  0.12561092  0.62671163  0.01897377  1
  O2-  O133  1  0.12374069  0.62557104  0.50808933  1
  O2-  O134  1  0.12445168  0.87166947  0.00730295  1
  O2-  O135  1  0.12385403  0.87774076  0.50671200  1
  O2-  O136  1  0.37615870  0.12539891  0.00686039  1
  O2-  O137  1  0.37386012  0.12531490  0.50705998  1
  O2-  O138  1  0.37542484  0.37704993  0.00824338  1
  O2-  O139  1  0.37516403  0.37344629  0.50690911  1
  O2-  O140  1  0.37737112  0.62388887  -0.00253202  1
  O2-  O141  1  0.37495980  0.62406571  0.51588207  1
  O2-  O142  1  0.37537429  0.87308454  0.00795609  1
  O2-  O143  1  0.37435672  0.87807100  0.49813740  1
  O2-  O144  1  0.62266910  0.12328381  -0.00116065  1
  O2-  O145  1  0.62614591  0.12526651  0.51870985  1
  O2-  O146  1  0.62592816  0.37720598  0.00740502  1
  O2-  O147  1  0.62781903  0.37244358  0.49572531  1
  O2-  O148  1  0.62497016  0.62685864  -0.00287484  1
  O2-  O149  1  0.62520513  0.62506269  0.51526844  1
  O2-  O150  1  0.62652002  0.87266474  0.00781059  1
  O2-  O151  1  0.62533477  0.87690830  0.50661735  1
  O2-  O152  1  0.87418496  0.12514539  0.00617695  1
  O2-  O153  1  0.87726720  0.12685878  0.49473021  1
  O2-  O154  1  0.87447943  0.37866167  0.00595098  1
  O2-  O155  1  0.87513938  0.37176647  0.49554640  1
  O2-  O156  1  0.87348662  0.62502049  -0.00467350  1
  O2-  O157  1  0.87526450  0.62348890  0.50615381  1
  O2-  O158  1  0.87318004  0.87146440  -0.00333678  1
  O2-  O159  1  0.87584406  0.87838192  0.49677767  1
  O2-  O160  1  0.12506073  -0.00021078  0.15740419  1
  O2-  O161  1  0.12508235  0.00076533  0.67012344  1
  O2-  O162  1  0.12669413  0.24891771  0.15876943  1
  O2-  O163  1  0.12536562  0.24895956  0.66787910  1
  O2-  O164  1  0.12503888  0.50076671  0.16777553  1
  O2-  O165  1  0.12553553  0.49956009  0.66410753  1
  O2-  O166  1  0.12486628  0.75107856  0.16874568  1
  O2-  O167  1  0.12518436  0.75027882  0.66512495  1
  O2-  O168  1  0.37493332  0.00283950  0.16293237  1
  O2-  O169  1  0.37488142  0.00153192  0.66506619  1
  O2-  O170  1  0.37421868  0.24706355  0.16452607  1
  O2-  O171  1  0.37470461  0.24964173  0.66408369  1
  O2-  O172  1  0.37478952  0.50135090  0.16886152  1
  O2-  O173  1  0.37575068  0.49848224  0.66337100  1
  O2-  O174  1  0.37417904  0.74888356  0.16778009  1
  O2-  O175  1  0.37589452  0.74995886  0.66379329  1
  O2-  O176  1  0.62432680  0.00043158  0.16531139  1
  O2-  O177  1  0.62485056  -0.00084957  0.66547429  1
  O2-  O178  1  0.62447788  0.24908416  0.16209789  1
  O2-  O179  1  0.62471610  0.24957528  0.66784562  1
  O2-  O180  1  0.62435391  0.50213563  0.16638145  1
  O2-  O181  1  0.62473542  0.49961499  0.66314601  1
  O2-  O182  1  0.62522515  0.74873358  0.16947175  1
  O2-  O183  1  0.62549496  0.75123031  0.66138624  1
  O2-  O184  1  0.87521448  -0.00105127  0.16133642  1
  O2-  O185  1  0.87511090  0.00002841  0.66543226  1
  O2-  O186  1  0.87459714  0.25337647  0.15865604  1
  O2-  O187  1  0.87508617  0.25065548  0.66821672  1
  O2-  O188  1  0.87574686  0.49914772  0.16487168  1
  O2-  O189  1  0.87427293  0.50135155  0.66144896  1
  O2-  O190  1  0.87525488  0.74918638  0.16775631  1
  O2-  O191  1  0.87394089  0.74783155  0.65868657  1
  O2-  O192  1  0.00376925  0.12557820  0.15799712  1
  O2-  O193  1  -0.00024985  0.12509048  0.66777178  1
  O2-  O194  1  -0.00133955  0.37542863  0.15948109  1
  O2-  O195  1  -0.00066681  0.37455389  0.66737038  1
  O2-  O196  1  0.00118946  0.62539404  0.16586860  1
  O2-  O197  1  -0.00289468  0.62472412  0.66438404  1
  O2-  O198  1  0.00180532  0.87449000  0.16000143  1
  O2-  O199  1  -0.00176163  0.87508024  0.66739019  1
  O2-  O200  1  0.24996055  0.12448616  0.16276276  1
  O2-  O201  1  0.25189272  0.12474193  0.66473074  1
  O2-  O202  1  0.24891650  0.37547543  0.16701797  1
  O2-  O203  1  0.25348016  0.37384015  0.66473316  1
  O2-  O204  1  0.24961123  0.62481814  0.16723934  1
  O2-  O205  1  0.25263304  0.62516440  0.66816818  1
  O2-  O206  1  0.24647954  0.87574345  0.16353025  1
  O2-  O207  1  0.25105262  0.87566005  0.66753969  1
  O2-  O208  1  0.49793530  0.12501539  0.16722123  1
  O2-  O209  1  0.49843254  0.12498565  0.66380073  1
  O2-  O210  1  0.50023518  0.37502750  0.16794559  1
  O2-  O211  1  0.49758732  0.37340941  0.66397947  1
  O2-  O212  1  0.49892929  0.62564257  0.16593136  1
  O2-  O213  1  0.50027549  0.62500751  0.66587486  1
  O2-  O214  1  0.49964062  0.87457558  0.16803273  1
  O2-  O215  1  0.50252612  0.87597940  0.66399137  1
  O2-  O216  1  0.74829891  0.12449579  0.16250631  1
  O2-  O217  1  0.74963393  0.12529113  0.66577339  1
  O2-  O218  1  0.75250248  0.37675442  0.16194709  1
  O2-  O219  1  0.74990761  0.37444089  0.66469631  1
  O2-  O220  1  0.75057824  0.62518040  0.16529474  1
  O2-  O221  1  0.75024545  0.62430181  0.66178975  1
  O2-  O222  1  0.75187550  0.87446192  0.16689890  1
  O2-  O223  1  0.74796321  0.87546769  0.66070905  1
  O2-  O224  1  0.12549295  0.00288699  0.33901251  1
  O2-  O225  1  0.12565730  -0.00112571  0.85431673  1
  O2-  O226  1  0.12515859  0.24700479  0.34115698  1
  O2-  O227  1  0.12568589  0.24921006  0.85084817  1
  O2-  O228  1  0.12445542  0.49968955  0.35120987  1
  O2-  O229  1  0.12429045  0.49995342  0.84661302  1
  O2-  O230  1  0.12408224  0.75081732  0.35161096  1
  O2-  O231  1  0.12469043  0.75124901  0.84868182  1
  O2-  O232  1  0.37556462  0.00174869  0.34646347  1
  O2-  O233  1  0.37455059  0.00229018  0.85063161  1
  O2-  O234  1  0.37588421  0.24983820  0.34944477  1
  O2-  O235  1  0.37435332  0.24737497  0.84931629  1
  O2-  O236  1  0.37483075  0.49811231  0.35344968  1
  O2-  O237  1  0.37460060  0.50205308  0.84404930  1
  O2-  O238  1  0.37533758  0.75076716  0.35111319  1
  O2-  O239  1  0.37422337  0.74745696  0.84555390  1
  O2-  O240  1  0.62481827  -0.00138601  0.34934871  1
  O2-  O241  1  0.62415788  0.00069970  0.84718502  1
  O2-  O242  1  0.62384626  0.25046274  0.34450108  1
  O2-  O243  1  0.62416050  0.24841735  0.85011380  1
  O2-  O244  1  0.62568529  0.49899049  0.34926537  1
  O2-  O245  1  0.62559077  0.50245946  0.84518434  1
  O2-  O246  1  0.62522409  0.75237472  0.35365908  1
  O2-  O247  1  0.62535909  0.74800934  0.84206995  1
  O2-  O248  1  0.87388901  0.00111625  0.34295730  1
  O2-  O249  1  0.87570248  -0.00260792  0.84856983  1
  O2-  O250  1  0.87488504  0.24956454  0.33918533  1
  O2-  O251  1  0.87571973  0.25338034  0.85258205  1
  O2-  O252  1  0.87444181  0.50010886  0.34884557  1
  O2-  O253  1  0.87557958  0.49944832  0.84448123  1
  O2-  O254  1  0.87488796  0.74960687  0.35224493  1
  O2-  O255  1  0.87582205  0.74920560  0.84063694  1
  O2-  O256  1  -0.00095395  0.12501891  0.33858928  1
  O2-  O257  1  0.00378180  0.12466133  0.85207888  1
  O2-  O258  1  -0.00227785  0.37435406  0.34183673  1
  O2-  O259  1  -0.00075807  0.37550555  0.85036360  1
  O2-  O260  1  -0.00346869  0.62467664  0.34819545  1
  O2-  O261  1  -0.00016307  0.62485731  0.84819564  1
  O2-  O262  1  -0.00257605  0.87642016  0.34230923  1
  O2-  O263  1  0.00110065  0.87426130  0.85027178  1
  O2-  O264  1  0.25164703  0.12551553  0.34703851  1
  O2-  O265  1  0.24991605  0.12447947  0.85011139  1
  O2-  O266  1  0.25271392  0.37346812  0.35093862  1
  O2-  O267  1  0.24794123  0.37489763  0.84694284  1
  O2-  O268  1  0.25002829  0.62520435  0.34999405  1
  O2-  O269  1  0.24966333  0.62487575  0.85051026  1
  O2-  O270  1  0.25184953  0.87620490  0.34596765  1
  O2-  O271  1  0.24704098  0.87481762  0.85196758  1
  O2-  O272  1  0.49852201  0.12484772  0.35353189  1
  O2-  O273  1  0.49851152  0.12480585  0.84646715  1
  O2-  O274  1  0.49910528  0.37488426  0.35132419  1
  O2-  O275  1  0.49974632  0.37502359  0.84799311  1
  O2-  O276  1  0.50035513  0.62472461  0.35110874  1
  O2-  O277  1  0.50025538  0.62500199  0.84454498  1
  O2-  O278  1  0.50095935  0.87586070  0.35124337  1
  O2-  O279  1  0.49979624  0.87463553  0.84796838  1
  O2-  O280  1  0.75042221  0.12562472  0.34579870  1
  O2-  O281  1  0.74793741  0.12492426  0.84756779  1
  O2-  O282  1  0.75042440  0.37440227  0.34270322  1
  O2-  O283  1  0.75290806  0.37570646  0.84899713  1
  O2-  O284  1  0.75255663  0.62547366  0.34992622  1
  O2-  O285  1  0.75037070  0.62500044  0.84207358  1
  O2-  O286  1  0.74942419  0.87507969  0.34978044  1
  O2-  O287  1  0.75191403  0.87405627  0.84310384  1
