# generated using pymatgen
data_BaYFeCuO5
_symmetry_space_group_name_H-M   'P 1'
_cell_length_a   15.67146032
_cell_length_b   15.67254946
_cell_length_c   15.49229106
_cell_angle_alpha   89.99734626
_cell_angle_beta   90.00358529
_cell_angle_gamma   90.00352113
_symmetry_Int_Tables_number   1
_chemical_formula_structural   BaYFeCuO5
_chemical_formula_sum   'Ba32 Y32 Fe32 Cu32 O160'
_cell_volume   3805.08849843
_cell_formula_units_Z   32
loop_
 _symmetry_equiv_pos_site_id
 _symmetry_equiv_pos_as_xyz
  1  'x, y, z'
loop_
 _atom_type_symbol
 _atom_type_oxidation_number
  Ba2+  2.0
  Y3+  3.0
  Fe3+  3.0
  Cu2+  2.0
  O2-  -2.0
loop_
 _atom_site_type_symbol
 _atom_site_label
 _atom_site_symmetry_multiplicity
 _atom_site_fract_x
 _atom_site_fract_y
 _atom_site_fract_z
 _atom_site_occupancy
  Ba2+  Ba0  1  -0.00260575  -0.00338329  0.02041399  1
  Ba2+  Ba1  1  0.00502496  -0.00550930  0.50166111  1
  Ba2+  Ba2  1  -0.00576584  0.24523918  0.02353837  1
  Ba2+  Ba3  1  0.00441876  0.24530047  0.50210519  1
  Ba2+  Ba4  1  -0.00302518  0.50751494  0.01700860  1
  Ba2+  Ba5  1  -0.00260256  0.51086258  0.51151030  1
  Ba2+  Ba6  1  -0.00007471  0.75112110  0.01588154  1
  Ba2+  Ba7  1  -0.00129105  0.74817011  0.51280253  1
  Ba2+  Ba8  1  0.24949684  -0.00167133  0.01760103  1
  Ba2+  Ba9  1  0.25261456  -0.00242563  0.50065065  1
  Ba2+  Ba10  1  0.25532948  0.24604717  0.01114066  1
  Ba2+  Ba11  1  0.25563243  0.24400398  0.49970172  1
  Ba2+  Ba12  1  0.25246395  0.50732073  0.01571032  1
  Ba2+  Ba13  1  0.25074102  0.49993184  0.51665205  1
  Ba2+  Ba14  1  0.24742442  0.74922086  0.01986633  1
  Ba2+  Ba15  1  0.24711339  0.75688996  0.51715162  1
  Ba2+  Ba16  1  0.50393613  0.00229318  0.01162458  1
  Ba2+  Ba17  1  0.49258538  0.00213017  0.50607392  1
  Ba2+  Ba18  1  0.50414884  0.24680309  0.00048547  1
  Ba2+  Ba19  1  0.50146727  0.25243256  0.51402710  1
  Ba2+  Ba20  1  0.50096251  0.50010959  0.00570176  1
  Ba2+  Ba21  1  0.50570202  0.49390836  0.51611023  1
  Ba2+  Ba22  1  0.49994189  0.75115937  0.01878536  1
  Ba2+  Ba23  1  0.49743238  0.75252304  0.51110717  1
  Ba2+  Ba24  1  0.75026943  -0.00035050  0.01746014  1
  Ba2+  Ba25  1  0.74929791  -0.00053695  0.50713915  1
  Ba2+  Ba26  1  0.74702483  0.24598629  0.01250742  1
  Ba2+  Ba27  1  0.73922126  0.25313559  0.51185821  1
  Ba2+  Ba28  1  0.74938818  0.50023898  0.00556708  1
  Ba2+  Ba29  1  0.74581422  0.50425301  0.51281471  1
  Ba2+  Ba30  1  0.75320871  0.75337155  0.01167516  1
  Ba2+  Ba31  1  0.75653717  0.74348378  0.50659631  1
  Y3+  Y32  1  -0.00021175  -0.00151130  0.25586616  1
  Y3+  Y33  1  -0.00059251  -0.00304261  0.75841961  1
  Y3+  Y34  1  -0.00037000  0.24851394  0.25781671  1
  Y3+  Y35  1  -0.00006505  0.25020053  0.75608380  1
  Y3+  Y36  1  -0.00205933  0.50283020  0.25630612  1
  Y3+  Y37  1  0.00063045  0.50447646  0.75697959  1
  Y3+  Y38  1  -0.00271741  0.74959306  0.25597846  1
  Y3+  Y39  1  0.00066674  0.74889240  0.75812436  1
  Y3+  Y40  1  0.25085201  -0.00079296  0.25853074  1
  Y3+  Y41  1  0.25134178  -0.00189782  0.75622539  1
  Y3+  Y42  1  0.25080334  0.24821855  0.25637714  1
  Y3+  Y43  1  0.25205837  0.24987833  0.75848741  1
  Y3+  Y44  1  0.25101480  0.50124347  0.25313354  1
  Y3+  Y45  1  0.24875671  0.50164447  0.75869969  1
  Y3+  Y46  1  0.25084189  0.75119295  0.25511741  1
  Y3+  Y47  1  0.24747967  0.75055181  0.75606610  1
  Y3+  Y48  1  0.49909857  -0.00151267  0.25747579  1
  Y3+  Y49  1  0.50038075  0.00200748  0.75791948  1
  Y3+  Y50  1  0.50103551  0.25032670  0.25750124  1
  Y3+  Y51  1  0.50317039  0.24955899  0.75863111  1
  Y3+  Y52  1  0.49975914  0.49874758  0.25731685  1
  Y3+  Y53  1  0.50356822  0.49866117  0.75653033  1
  Y3+  Y54  1  0.49789246  0.75214825  0.25834494  1
  Y3+  Y55  1  0.50052011  0.75046844  0.75496934  1
  Y3+  Y56  1  0.74993371  -0.00150227  0.25517151  1
  Y3+  Y57  1  0.74903351  -0.00000619  0.76007227  1
  Y3+  Y58  1  0.74821670  0.25016552  0.25729056  1
  Y3+  Y59  1  0.74506218  0.25010901  0.75805828  1
  Y3+  Y60  1  0.75122397  0.50007448  0.26043464  1
  Y3+  Y61  1  0.74735557  0.50139175  0.75544563  1
  Y3+  Y62  1  0.75348280  0.75082355  0.25800548  1
  Y3+  Y63  1  0.75106081  0.74852940  0.75669272  1
  Fe3+  Fe64  1  0.37502017  0.87494830  0.87730996  1
  Fe3+  Fe65  1  0.12459359  0.87340659  0.37381756  1
  Fe3+  Fe66  1  0.87464389  0.62586501  0.87602671  1
  Fe3+  Fe67  1  0.12584941  0.62533441  0.37580691  1
  Fe3+  Fe68  1  0.87525791  0.12445706  0.87583445  1
  Fe3+  Fe69  1  0.37540987  0.37552669  0.37653008  1
  Fe3+  Fe70  1  0.62533646  0.87420457  0.87660782  1
  Fe3+  Fe71  1  0.12466933  0.12481306  0.87896958  1
  Fe3+  Fe72  1  0.37435462  0.62500912  0.37940143  1
  Fe3+  Fe73  1  0.62544825  0.87438724  0.37920183  1
  Fe3+  Fe74  1  0.37503846  0.37548883  0.87710379  1
  Fe3+  Fe75  1  0.12538045  0.37597024  0.37836728  1
  Fe3+  Fe76  1  0.87413634  0.12440426  0.37921567  1
  Fe3+  Fe77  1  0.12467456  0.87477336  0.87746428  1
  Fe3+  Fe78  1  0.12361244  0.37548888  0.88095657  1
  Fe3+  Fe79  1  0.37557843  0.62682854  0.87521294  1
  Fe3+  Fe80  1  0.62420301  0.62481980  0.37795415  1
  Fe3+  Fe81  1  0.87510609  0.37468250  0.87616548  1
  Fe3+  Fe82  1  0.62381071  0.12509997  0.37731236  1
  Fe3+  Fe83  1  0.87455859  0.37535793  0.38043800  1
  Fe3+  Fe84  1  0.87538938  0.37505962  0.63355289  1
  Fe3+  Fe85  1  0.62571029  0.62536259  0.13900659  1
  Fe3+  Fe86  1  0.87512714  0.87529122  0.63708858  1
  Fe3+  Fe87  1  0.37503110  0.12524394  0.63995977  1
  Fe3+  Fe88  1  0.87458656  0.12504616  0.63353267  1
  Fe3+  Fe89  1  0.62510835  0.87543082  0.63405262  1
  Fe3+  Fe90  1  0.62489026  0.37520881  0.13826065  1
  Fe3+  Fe91  1  0.12542816  0.12366980  0.63632357  1
  Fe3+  Fe92  1  0.37666002  0.12513468  0.13929547  1
  Fe3+  Fe93  1  0.37533335  0.62472046  0.63477735  1
  Fe3+  Fe94  1  0.12549868  0.37411371  0.63373944  1
  Fe3+  Fe95  1  0.12484539  0.37497805  0.13531952  1
  Cu2+  Cu96  1  0.87511206  0.87503729  0.87273202  1
  Cu2+  Cu97  1  0.37453612  0.87408636  0.37338970  1
  Cu2+  Cu98  1  0.62581713  0.12361743  0.87310008  1
  Cu2+  Cu99  1  0.87502456  0.87510093  0.36531550  1
  Cu2+  Cu100  1  0.87545453  0.62491313  0.37210025  1
  Cu2+  Cu101  1  0.62471249  0.37538082  0.37268261  1
  Cu2+  Cu102  1  0.12513369  0.12450308  0.36200285  1
  Cu2+  Cu103  1  0.62586448  0.37558594  0.86454559  1
  Cu2+  Cu104  1  0.12533325  0.62557609  0.87414224  1
  Cu2+  Cu105  1  0.37477116  0.12421777  0.86475408  1
  Cu2+  Cu106  1  0.37577826  0.12529254  0.36103194  1
  Cu2+  Cu107  1  0.62456744  0.62619214  0.86308386  1
  Cu2+  Cu108  1  0.62466459  0.62646248  0.64838995  1
  Cu2+  Cu109  1  0.37661912  0.62510822  0.15215555  1
  Cu2+  Cu110  1  0.62535908  0.37477775  0.64363069  1
  Cu2+  Cu111  1  0.12526984  0.12472286  0.15130242  1
  Cu2+  Cu112  1  0.62441529  0.12462997  0.14365354  1
  Cu2+  Cu113  1  0.87489633  0.62520112  0.64277531  1
  Cu2+  Cu114  1  0.37496385  0.87613928  0.64117119  1
  Cu2+  Cu115  1  0.12508821  0.87507880  0.15229954  1
  Cu2+  Cu116  1  0.12446483  0.62556875  0.14168047  1
  Cu2+  Cu117  1  0.87405982  0.12485176  0.15667054  1
  Cu2+  Cu118  1  0.12560729  0.62539820  0.64996060  1
  Cu2+  Cu119  1  0.62516353  0.12370995  0.64925268  1
  Cu2+  Cu120  1  0.87461090  0.87451927  0.14189819  1
  Cu2+  Cu121  1  0.87324403  0.62477395  0.15247848  1
  Cu2+  Cu122  1  0.37581769  0.37462559  0.14744283  1
  Cu2+  Cu123  1  0.12438107  0.87589201  0.65111512  1
  Cu2+  Cu124  1  0.37508986  0.87550734  0.14951035  1
  Cu2+  Cu125  1  0.37452060  0.37457190  0.65207688  1
  Cu2+  Cu126  1  0.62485423  0.87433281  0.15308144  1
  Cu2+  Cu127  1  0.87414835  0.37528695  0.15310908  1
  O2-  O128  1  0.12322918  0.12577949  -0.00119590  1
  O2-  O129  1  0.12643517  0.12483178  0.51630105  1
  O2-  O130  1  0.12320445  0.37448120  0.00656570  1
  O2-  O131  1  0.12603518  0.37486547  0.50578508  1
  O2-  O132  1  0.12486865  0.62462621  0.00737190  1
  O2-  O133  1  0.12727296  0.62519668  0.49591841  1
  O2-  O134  1  0.12557203  0.87574416  -0.00227278  1
  O2-  O135  1  0.12462457  0.87379328  0.49458656  1
  O2-  O136  1  0.37601560  0.12458445  0.01859446  1
  O2-  O137  1  0.37413224  0.12542618  0.51925570  1
  O2-  O138  1  0.37406123  0.37657776  -0.00270913  1
  O2-  O139  1  0.37350676  0.37529361  0.49669831  1
  O2-  O140  1  0.37636863  0.62681565  -0.00445178  1
  O2-  O141  1  0.37404395  0.62400442  0.50578733  1
  O2-  O142  1  0.37477455  0.87371346  -0.00286112  1
  O2-  O143  1  0.37423406  0.87537735  0.50641932  1
  O2-  O144  1  0.62562432  0.12435429  0.00760275  1
  O2-  O145  1  0.62413131  0.12469277  0.49776727  1
  O2-  O146  1  0.62574694  0.37559727  0.01779534  1
  O2-  O147  1  0.62458852  0.37506919  0.50853279  1
  O2-  O148  1  0.62505924  0.62483725  0.01862726  1
  O2-  O149  1  0.62312702  0.62546124  0.49830737  1
  O2-  O150  1  0.62455271  0.87401201  -0.00295137  1
  O2-  O151  1  0.62538353  0.87512237  0.50625283  1
  O2-  O152  1  0.87563329  0.12537236  -0.00389064  1
  O2-  O153  1  0.87497630  0.12471343  0.50662907  1
  O2-  O154  1  0.87628085  0.37397296  -0.00400522  1
  O2-  O155  1  0.87596760  0.37495988  0.50672516  1
  O2-  O156  1  0.87366844  0.62483432  -0.00330081  1
  O2-  O157  1  0.87564971  0.62462045  0.50735750  1
  O2-  O158  1  0.87494691  0.87544834  0.00823497  1
  O2-  O159  1  0.87564276  0.87607388  0.51668854  1
  O2-  O160  1  0.12462490  -0.00081806  0.16505147  1
  O2-  O161  1  0.12396310  0.00095219  0.66555423  1
  O2-  O162  1  0.12428863  0.25217298  0.16608897  1
  O2-  O163  1  0.12487325  0.25035653  0.66525554  1
  O2-  O164  1  0.12458664  0.49713862  0.16405510  1
  O2-  O165  1  0.12457270  0.49771518  0.66285122  1
  O2-  O166  1  0.12545255  0.75163156  0.16348140  1
  O2-  O167  1  0.12555725  0.75085075  0.66197068  1
  O2-  O168  1  0.37495848  0.00014275  0.16727318  1
  O2-  O169  1  0.37524600  0.00186281  0.66721612  1
  O2-  O170  1  0.37439533  0.24962538  0.16698519  1
  O2-  O171  1  0.37450717  0.24979725  0.66822787  1
  O2-  O172  1  0.37494071  0.49978409  0.16404958  1
  O2-  O173  1  0.37475343  0.50088128  0.66100148  1
  O2-  O174  1  0.37547421  0.75081950  0.16507984  1
  O2-  O175  1  0.37417642  0.74752854  0.65938335  1
  O2-  O176  1  0.62496498  -0.00191700  0.16636051  1
  O2-  O177  1  0.62583001  -0.00181047  0.66248690  1
  O2-  O178  1  0.62551425  0.25179017  0.16738824  1
  O2-  O179  1  0.62508128  0.24797594  0.66569788  1
  O2-  O180  1  0.62527041  0.50003406  0.16873156  1
  O2-  O181  1  0.62476953  0.50180131  0.66487739  1
  O2-  O182  1  0.62460542  0.74969980  0.16766911  1
  O2-  O183  1  0.62523489  0.75232274  0.66050439  1
  O2-  O184  1  0.87487990  0.00130882  0.16757623  1
  O2-  O185  1  0.87516774  0.00164003  0.66447963  1
  O2-  O186  1  0.87525097  0.24940992  0.16857142  1
  O2-  O187  1  0.87605392  0.24987110  0.65958917  1
  O2-  O188  1  0.87489938  0.50037859  0.16614891  1
  O2-  O189  1  0.87679103  0.49717458  0.66212631  1
  O2-  O190  1  0.87419701  0.74828750  0.16543273  1
  O2-  O191  1  0.87499028  0.75168087  0.66488746  1
  O2-  O192  1  -0.00044316  0.12576092  0.16668999  1
  O2-  O193  1  -0.00115141  0.12622626  0.66195078  1
  O2-  O194  1  0.00063202  0.37430682  0.16544125  1
  O2-  O195  1  0.00082134  0.37351881  0.66011432  1
  O2-  O196  1  -0.00267809  0.62450974  0.16468486  1
  O2-  O197  1  0.00216103  0.62529170  0.66424023  1
  O2-  O198  1  0.00183926  0.87493294  0.16498526  1
  O2-  O199  1  -0.00064777  0.87528218  0.66567613  1
  O2-  O200  1  0.25096439  0.12512304  0.16605914  1
  O2-  O201  1  0.24931902  0.12567245  0.66957843  1
  O2-  O202  1  0.24851925  0.37480968  0.16163424  1
  O2-  O203  1  0.24753716  0.37525179  0.66481548  1
  O2-  O204  1  0.25233431  0.62452969  0.16352909  1
  O2-  O205  1  0.25122800  0.62356388  0.66238037  1
  O2-  O206  1  0.24918286  0.87530341  0.16325307  1
  O2-  O207  1  0.24834781  0.87594703  0.66338757  1
  O2-  O208  1  0.49895837  0.12458315  0.16886340  1
  O2-  O209  1  0.50001568  0.12540774  0.66680842  1
  O2-  O210  1  0.50080815  0.37561689  0.16674043  1
  O2-  O211  1  0.49893687  0.37444466  0.66583037  1
  O2-  O212  1  0.50088295  0.62539162  0.16820401  1
  O2-  O213  1  0.49830030  0.62531862  0.66168076  1
  O2-  O214  1  0.50025850  0.87453168  0.16679417  1
  O2-  O215  1  0.50268876  0.87505647  0.66159009  1
  O2-  O216  1  0.75044764  0.12480323  0.16745883  1
  O2-  O217  1  0.75194758  0.12534455  0.66100266  1
  O2-  O218  1  0.74968563  0.37511736  0.16917083  1
  O2-  O219  1  0.75339834  0.37467877  0.66310532  1
  O2-  O220  1  0.74935959  0.62473496  0.16903964  1
  O2-  O221  1  0.74865189  0.62472271  0.66413807  1
  O2-  O222  1  0.74851529  0.87500704  0.16772685  1
  O2-  O223  1  0.74936554  0.87576987  0.66425671  1
  O2-  O224  1  0.12457954  -0.00041576  0.34859413  1
  O2-  O225  1  0.12533820  0.00046933  0.84572049  1
  O2-  O226  1  0.12510613  0.25154494  0.35144872  1
  O2-  O227  1  0.12438704  0.25151744  0.84738485  1
  O2-  O228  1  0.12510251  0.49874923  0.34699842  1
  O2-  O229  1  0.12521328  0.49660033  0.84788397  1
  O2-  O230  1  0.12496993  0.74895098  0.34381054  1
  O2-  O231  1  0.12520003  0.75184465  0.84525359  1
  O2-  O232  1  0.37491203  0.00151455  0.35057143  1
  O2-  O233  1  0.37467786  -0.00059446  0.84797256  1
  O2-  O234  1  0.37402201  0.25052664  0.34847286  1
  O2-  O235  1  0.37498568  0.25052599  0.85033826  1
  O2-  O236  1  0.37386125  0.50116760  0.34690677  1
  O2-  O237  1  0.37493976  0.49996237  0.84377202  1
  O2-  O238  1  0.37465748  0.74643031  0.34907786  1
  O2-  O239  1  0.37549906  0.75071718  0.84080365  1
  O2-  O240  1  0.62565579  -0.00098571  0.34970855  1
  O2-  O241  1  0.62488831  -0.00228827  0.84512937  1
  O2-  O242  1  0.62493259  0.24838724  0.34836711  1
  O2-  O243  1  0.62521976  0.25102417  0.85000753  1
  O2-  O244  1  0.62481142  0.50168253  0.34821214  1
  O2-  O245  1  0.62544783  0.50074915  0.84941335  1
  O2-  O246  1  0.62468799  0.75075300  0.34974922  1
  O2-  O247  1  0.62443020  0.75088688  0.84309992  1
  O2-  O248  1  0.87461058  0.00192628  0.35232265  1
  O2-  O249  1  0.87528025  0.00162407  0.84542017  1
  O2-  O250  1  0.87613577  0.24978598  0.35302693  1
  O2-  O251  1  0.87542038  0.25021501  0.84138969  1
  O2-  O252  1  0.87628036  0.49676902  0.34970559  1
  O2-  O253  1  0.87464177  0.49997744  0.84395659  1
  O2-  O254  1  0.87530424  0.75120280  0.34917393  1
  O2-  O255  1  0.87480216  0.74844916  0.84618601  1
  O2-  O256  1  -0.00219517  0.12560019  0.35175882  1
  O2-  O257  1  0.00070444  0.12583072  0.84183029  1
  O2-  O258  1  0.00053233  0.37372443  0.35154163  1
  O2-  O259  1  0.00092189  0.37509344  0.84286427  1
  O2-  O260  1  0.00203429  0.62395274  0.34738553  1
  O2-  O261  1  -0.00167442  0.62416096  0.84669559  1
  O2-  O262  1  -0.00005966  0.87559939  0.34731997  1
  O2-  O263  1  0.00145002  0.87535600  0.84715064  1
  O2-  O264  1  0.25076342  0.12568620  0.34969790  1
  O2-  O265  1  0.24897046  0.12661523  0.84962534  1
  O2-  O266  1  0.24869129  0.37478689  0.34604946  1
  O2-  O267  1  0.24837463  0.37465506  0.84826319  1
  O2-  O268  1  0.25090472  0.62375787  0.34585103  1
  O2-  O269  1  0.25231210  0.62477588  0.84496691  1
  O2-  O270  1  0.24808967  0.87499300  0.34586219  1
  O2-  O271  1  0.25036621  0.87492577  0.84455127  1
  O2-  O272  1  0.50046360  0.12447634  0.34939709  1
  O2-  O273  1  0.49870682  0.12473522  0.85021606  1
  O2-  O274  1  0.49811474  0.37537992  0.34765747  1
  O2-  O275  1  0.50042199  0.37569288  0.84963688  1
  O2-  O276  1  0.49818252  0.62475393  0.34992638  1
  O2-  O277  1  0.49944144  0.62484586  0.84479175  1
  O2-  O278  1  0.50290391  0.87487922  0.35120002  1
  O2-  O279  1  0.49941955  0.87505944  0.84338249  1
  O2-  O280  1  0.75071322  0.12533683  0.35034593  1
  O2-  O281  1  0.75194731  0.12542412  0.84426320  1
  O2-  O282  1  0.75282497  0.37409237  0.35222696  1
  O2-  O283  1  0.75044785  0.37516007  0.84650692  1
  O2-  O284  1  0.74862354  0.62523958  0.35075328  1
  O2-  O285  1  0.74981860  0.62483936  0.84698060  1
  O2-  O286  1  0.74878467  0.87506782  0.35197497  1
  O2-  O287  1  0.74888826  0.87458510  0.84625362  1
