# generated using pymatgen
data_BaYFeCuO5
_symmetry_space_group_name_H-M   'P 1'
_cell_length_a   15.66635004
_cell_length_b   15.66311073
_cell_length_c   15.46825009
_cell_angle_alpha   90.00116363
_cell_angle_beta   89.99731563
_cell_angle_gamma   89.99656086
_symmetry_Int_Tables_number   1
_chemical_formula_structural   BaYFeCuO5
_chemical_formula_sum   'Ba32 Y32 Fe32 Cu32 O160'
_cell_volume   3795.65759431
_cell_formula_units_Z   32
loop_
 _symmetry_equiv_pos_site_id
 _symmetry_equiv_pos_as_xyz
  1  'x, y, z'
loop_
 _atom_type_symbol
 _atom_type_oxidation_number
  Ba2+  2.0
  Y3+  3.0
  Fe3+  3.0
  Cu2+  2.0
  O2-  -2.0
loop_
 _atom_site_type_symbol
 _atom_site_label
 _atom_site_symmetry_multiplicity
 _atom_site_fract_x
 _atom_site_fract_y
 _atom_site_fract_z
 _atom_site_occupancy
  Ba2+  Ba0  1  -0.01127864  -0.00127910  0.00180616  1
  Ba2+  Ba1  1  0.00208018  0.00692782  0.50773578  1
  Ba2+  Ba2  1  -0.00700883  0.25718977  0.00602158  1
  Ba2+  Ba3  1  -0.00859723  0.24684139  0.51205073  1
  Ba2+  Ba4  1  0.00210702  0.49430612  0.01850152  1
  Ba2+  Ba5  1  -0.00845737  0.50227266  0.51128999  1
  Ba2+  Ba6  1  -0.00370659  0.75100450  0.01147042  1
  Ba2+  Ba7  1  0.00123945  0.74374441  0.50815954  1
  Ba2+  Ba8  1  0.25457400  0.00507760  0.00191605  1
  Ba2+  Ba9  1  0.25189394  -0.00110986  0.51306956  1
  Ba2+  Ba10  1  0.25426087  0.25722704  0.01194413  1
  Ba2+  Ba11  1  0.25505450  0.24643620  0.51749384  1
  Ba2+  Ba12  1  0.25112269  0.49884152  0.02729252  1
  Ba2+  Ba13  1  0.25135933  0.49743883  0.50948382  1
  Ba2+  Ba14  1  0.25046972  0.73841066  0.01756052  1
  Ba2+  Ba15  1  0.24764961  0.75783342  0.50487401  1
  Ba2+  Ba16  1  0.50676980  0.00439785  0.01204469  1
  Ba2+  Ba17  1  0.49443185  0.00386039  0.51749253  1
  Ba2+  Ba18  1  0.50195244  0.25241317  0.01697801  1
  Ba2+  Ba19  1  0.49960759  0.25106542  0.51184030  1
  Ba2+  Ba20  1  0.50153657  0.50092367  0.02239476  1
  Ba2+  Ba21  1  0.50291477  0.49273782  0.50579026  1
  Ba2+  Ba22  1  0.50672075  0.74205869  0.01518011  1
  Ba2+  Ba23  1  0.49755031  0.75302534  0.51053584  1
  Ba2+  Ba24  1  0.75018150  -0.00125150  0.01274100  1
  Ba2+  Ba25  1  0.75184058  0.01127649  0.51260758  1
  Ba2+  Ba26  1  0.75032519  0.25303305  0.01215122  1
  Ba2+  Ba27  1  0.75452155  0.25138246  0.50696014  1
  Ba2+  Ba28  1  0.74500550  0.49604022  0.01186699  1
  Ba2+  Ba29  1  0.75536991  0.49770707  0.50698374  1
  Ba2+  Ba30  1  0.74510825  0.75245520  0.01263009  1
  Ba2+  Ba31  1  0.75259229  0.73947314  0.51271601  1
  Y3+  Y32  1  -0.00222038  -0.00063832  0.25805736  1
  Y3+  Y33  1  -0.00356251  0.00166180  0.75924447  1
  Y3+  Y34  1  -0.00337909  0.25194991  0.25877579  1
  Y3+  Y35  1  -0.00432889  0.25013176  0.75692043  1
  Y3+  Y36  1  -0.00263578  0.49825811  0.25953279  1
  Y3+  Y37  1  -0.00381212  0.49980034  0.75486669  1
  Y3+  Y38  1  -0.00157325  0.75035454  0.25775071  1
  Y3+  Y39  1  -0.00220138  0.74826445  0.75806398  1
  Y3+  Y40  1  0.25024261  -0.00246416  0.25866605  1
  Y3+  Y41  1  0.25198794  0.00147311  0.75679824  1
  Y3+  Y42  1  0.25103160  0.25311317  0.25772943  1
  Y3+  Y43  1  0.25164964  0.24894431  0.75584582  1
  Y3+  Y44  1  0.25057091  0.49863106  0.25937004  1
  Y3+  Y45  1  0.25003794  0.49946266  0.75082166  1
  Y3+  Y46  1  0.25033598  0.75062765  0.25904814  1
  Y3+  Y47  1  0.25031482  0.74975705  0.75388927  1
  Y3+  Y48  1  0.50161393  -0.00127934  0.25773166  1
  Y3+  Y49  1  0.49868855  0.00169640  0.75593612  1
  Y3+  Y50  1  0.50193363  0.25345879  0.25924015  1
  Y3+  Y51  1  0.49847850  0.24907767  0.75444490  1
  Y3+  Y52  1  0.50134621  0.49789771  0.25902973  1
  Y3+  Y53  1  0.50208055  0.50086128  0.75358167  1
  Y3+  Y54  1  0.50155200  0.74969382  0.25686549  1
  Y3+  Y55  1  0.50146497  0.74860706  0.75518088  1
  Y3+  Y56  1  0.75071076  0.00008768  0.25691569  1
  Y3+  Y57  1  0.75218067  0.00196932  0.75870772  1
  Y3+  Y58  1  0.75134086  0.25257064  0.25982415  1
  Y3+  Y59  1  0.75349406  0.25030912  0.75655878  1
  Y3+  Y60  1  0.75114120  0.49767335  0.25942955  1
  Y3+  Y61  1  0.75089587  0.50101038  0.75664457  1
  Y3+  Y62  1  0.75051419  0.74956744  0.25615058  1
  Y3+  Y63  1  0.74978302  0.74642487  0.75934861  1
  Fe3+  Fe64  1  0.12448467  0.62483509  0.37679908  1
  Fe3+  Fe65  1  0.12446628  0.12664048  0.87981855  1
  Fe3+  Fe66  1  0.12537915  0.87401193  0.88068576  1
  Fe3+  Fe67  1  0.62419974  0.37554303  0.87546560  1
  Fe3+  Fe68  1  0.37598899  0.87352943  0.87981276  1
  Fe3+  Fe69  1  0.62571608  0.87552922  0.38047834  1
  Fe3+  Fe70  1  0.12570151  0.62292642  0.87599206  1
  Fe3+  Fe71  1  0.37515524  0.12500207  0.37459624  1
  Fe3+  Fe72  1  0.37514457  0.62295668  0.87497111  1
  Fe3+  Fe73  1  0.12546121  0.37663476  0.87441045  1
  Fe3+  Fe74  1  0.12537057  0.12526524  0.37586660  1
  Fe3+  Fe75  1  0.62503067  0.12668920  0.87543574  1
  Fe3+  Fe76  1  0.12426463  0.37378501  0.37998199  1
  Fe3+  Fe77  1  0.37553737  0.62523301  0.37810359  1
  Fe3+  Fe78  1  0.62514237  0.12555913  0.37690980  1
  Fe3+  Fe79  1  0.37562004  0.37663761  0.87458088  1
  Fe3+  Fe80  1  0.87418951  0.62355028  0.88087684  1
  Fe3+  Fe81  1  0.62469468  0.87454900  0.87508755  1
  Fe3+  Fe82  1  0.87470399  0.87499409  0.38118583  1
  Fe3+  Fe83  1  0.62584108  0.62454532  0.37776208  1
  Fe3+  Fe84  1  0.12348321  0.37407813  0.63390537  1
  Fe3+  Fe85  1  0.37590780  0.87445808  0.13406955  1
  Fe3+  Fe86  1  0.37499884  0.62545047  0.63235427  1
  Fe3+  Fe87  1  0.12456664  0.12605728  0.13367092  1
  Fe3+  Fe88  1  0.12488086  0.87579073  0.13444353  1
  Fe3+  Fe89  1  0.87459901  0.12577184  0.13888702  1
  Fe3+  Fe90  1  0.87481660  0.87481019  0.63576577  1
  Fe3+  Fe91  1  0.12351758  0.87578886  0.63984930  1
  Fe3+  Fe92  1  0.62642256  0.37440238  0.63685010  1
  Fe3+  Fe93  1  0.62607074  0.87550846  0.63442168  1
  Fe3+  Fe94  1  0.87452287  0.62420742  0.13672739  1
  Fe3+  Fe95  1  0.37559338  0.12544319  0.13692519  1
  Cu2+  Cu96  1  0.87490324  0.62543225  0.37061746  1
  Cu2+  Cu97  1  0.87500197  0.12460873  0.37120135  1
  Cu2+  Cu98  1  0.87571795  0.37494631  0.37321583  1
  Cu2+  Cu99  1  0.37466419  0.37422843  0.37415749  1
  Cu2+  Cu100  1  0.37621052  0.87583690  0.37305321  1
  Cu2+  Cu101  1  0.87337113  0.87333642  0.87323931  1
  Cu2+  Cu102  1  0.87434307  0.37665193  0.87259887  1
  Cu2+  Cu103  1  0.37573071  0.12605204  0.86627752  1
  Cu2+  Cu104  1  0.62389218  0.62373488  0.87221172  1
  Cu2+  Cu105  1  0.87400689  0.12605908  0.86604846  1
  Cu2+  Cu106  1  0.62596988  0.37475376  0.36687988  1
  Cu2+  Cu107  1  0.12402371  0.87550966  0.36253402  1
  Cu2+  Cu108  1  0.37559160  0.62485116  0.15626556  1
  Cu2+  Cu109  1  0.87436563  0.37510982  0.64345214  1
  Cu2+  Cu110  1  0.62507849  0.62463639  0.64527161  1
  Cu2+  Cu111  1  0.87426690  0.37497802  0.14311614  1
  Cu2+  Cu112  1  0.12391372  0.62485280  0.15420108  1
  Cu2+  Cu113  1  0.62637925  0.62390684  0.14400057  1
  Cu2+  Cu114  1  0.62551624  0.37460351  0.15357143  1
  Cu2+  Cu115  1  0.37592528  0.37505992  0.15527846  1
  Cu2+  Cu116  1  0.12465225  0.62523059  0.64598561  1
  Cu2+  Cu117  1  0.12416881  0.12484623  0.65402756  1
  Cu2+  Cu118  1  0.62558574  0.12541375  0.64979256  1
  Cu2+  Cu119  1  0.12453369  0.37398705  0.15454121  1
  Cu2+  Cu120  1  0.37494637  0.12484965  0.65305750  1
  Cu2+  Cu121  1  0.37553530  0.37514315  0.63942188  1
  Cu2+  Cu122  1  0.62499992  0.87532422  0.15250079  1
  Cu2+  Cu123  1  0.37481369  0.87473479  0.64231839  1
  Cu2+  Cu124  1  0.87484226  0.12466743  0.64397970  1
  Cu2+  Cu125  1  0.87482222  0.87519581  0.14223840  1
  Cu2+  Cu126  1  0.62537636  0.12585292  0.15295838  1
  Cu2+  Cu127  1  0.87471850  0.62539652  0.64438082  1
  O2-  O128  1  0.12467925  0.12712154  0.00692394  1
  O2-  O129  1  0.12742650  0.12425474  0.49602899  1
  O2-  O130  1  0.12792601  0.37725680  -0.00539895  1
  O2-  O131  1  0.12388242  0.37244737  0.50608568  1
  O2-  O132  1  0.12770385  0.62103706  -0.00412657  1
  O2-  O133  1  0.12561520  0.62662487  0.49718539  1
  O2-  O134  1  0.12635496  0.87388920  0.00761690  1
  O2-  O135  1  0.12349123  0.87735814  0.51943530  1
  O2-  O136  1  0.37594197  0.12596130  0.01602934  1
  O2-  O137  1  0.37401395  0.12391284  0.49515259  1
  O2-  O138  1  0.37552962  0.37806751  -0.00495789  1
  O2-  O139  1  0.37415538  0.37382362  0.50607947  1
  O2-  O140  1  0.37454822  0.62213375  -0.00493672  1
  O2-  O141  1  0.37466058  0.62680678  0.50461105  1
  O2-  O142  1  0.37606630  0.87321009  0.00643737  1
  O2-  O143  1  0.37474096  0.87591550  0.50654022  1
  O2-  O144  1  0.62476465  0.12648995  -0.00411566  1
  O2-  O145  1  0.62295491  0.12445103  0.49703976  1
  O2-  O146  1  0.62182253  0.37480166  -0.00370506  1
  O2-  O147  1  0.62698343  0.37386649  0.51565780  1
  O2-  O148  1  0.62458739  0.62366723  0.00806455  1
  O2-  O149  1  0.62447306  0.62555720  0.49815028  1
  O2-  O150  1  0.62335155  0.87514327  -0.00427650  1
  O2-  O151  1  0.62560444  0.87595359  0.50667452  1
  O2-  O152  1  0.87428380  0.12594408  0.01780530  1
  O2-  O153  1  0.87561493  0.12352959  0.50826538  1
  O2-  O154  1  0.87456142  0.37651065  0.00843041  1
  O2-  O155  1  0.87573674  0.37451638  0.50806594  1
  O2-  O156  1  0.87471799  0.62368077  0.00816969  1
  O2-  O157  1  0.87565864  0.62630861  0.50688545  1
  O2-  O158  1  0.87384092  0.87375611  0.00782570  1
  O2-  O159  1  0.87607020  0.87528279  0.50852084  1
  O2-  O160  1  0.12668230  0.00036547  0.16088119  1
  O2-  O161  1  0.12425813  -0.00015719  0.67240648  1
  O2-  O162  1  0.12558990  0.24830761  0.16288641  1
  O2-  O163  1  0.12480055  0.25039775  0.66297558  1
  O2-  O164  1  0.12502384  0.49927406  0.16735088  1
  O2-  O165  1  0.12493558  0.49860036  0.65662630  1
  O2-  O166  1  0.12545241  0.75208741  0.16236567  1
  O2-  O167  1  0.12423244  0.75087656  0.66740417  1
  O2-  O168  1  0.37459563  -0.00157249  0.16166236  1
  O2-  O169  1  0.37461693  0.00099445  0.66799916  1
  O2-  O170  1  0.37525429  0.25001791  0.16415437  1
  O2-  O171  1  0.37442404  0.24872049  0.66406247  1
  O2-  O172  1  0.37488953  0.49969920  0.16759459  1
  O2-  O173  1  0.37443287  0.50317885  0.65761755  1
  O2-  O174  1  0.37518598  0.75163447  0.16378576  1
  O2-  O175  1  0.37476208  0.74717302  0.66409160  1
  O2-  O176  1  0.62515584  -0.00013828  0.16455702  1
  O2-  O177  1  0.62537177  -0.00097952  0.66254083  1
  O2-  O178  1  0.62450669  0.25140311  0.16461821  1
  O2-  O179  1  0.62485405  0.24966266  0.66413060  1
  O2-  O180  1  0.62526160  0.49727857  0.16701614  1
  O2-  O181  1  0.62517693  0.49974160  0.66309348  1
  O2-  O182  1  0.62490933  0.75119228  0.16642320  1
  O2-  O183  1  0.62533054  0.75157626  0.66194246  1
  O2-  O184  1  0.87493831  0.00220127  0.16780910  1
  O2-  O185  1  0.87486672  -0.00329113  0.66615107  1
  O2-  O186  1  0.87516350  0.24860672  0.16772270  1
  O2-  O187  1  0.87535341  0.25001624  0.66572899  1
  O2-  O188  1  0.87560323  0.50200932  0.16574495  1
  O2-  O189  1  0.87475018  0.50060258  0.66440637  1
  O2-  O190  1  0.87567553  0.74744122  0.16482771  1
  O2-  O191  1  0.87483249  0.75287137  0.66539904  1
  O2-  O192  1  0.00157756  0.12443439  0.16530517  1
  O2-  O193  1  0.00049141  0.12411459  0.66879702  1
  O2-  O194  1  0.00097596  0.37469880  0.16640162  1
  O2-  O195  1  0.00202432  0.37488646  0.66502688  1
  O2-  O196  1  -0.00137463  0.62533011  0.16270893  1
  O2-  O197  1  0.00088389  0.62574572  0.66741356  1
  O2-  O198  1  0.00376108  0.87573411  0.16497528  1
  O2-  O199  1  -0.00192645  0.87517689  0.66929616  1
  O2-  O200  1  0.24920301  0.12522365  0.16136761  1
  O2-  O201  1  0.24984481  0.12392681  0.66586438  1
  O2-  O202  1  0.24992099  0.37520143  0.16561785  1
  O2-  O203  1  0.24707812  0.37434587  0.66051989  1
  O2-  O204  1  0.24967515  0.62539625  0.16540760  1
  O2-  O205  1  0.25125220  0.62594681  0.65984827  1
  O2-  O206  1  0.25053692  0.87427142  0.16202847  1
  O2-  O207  1  0.24804309  0.87566658  0.66871529  1
  O2-  O208  1  0.49999196  0.12424653  0.16438259  1
  O2-  O209  1  0.49979711  0.12397131  0.66170820  1
  O2-  O210  1  0.50143589  0.37550577  0.16545790  1
  O2-  O211  1  0.50195067  0.37497694  0.66240129  1
  O2-  O212  1  0.49965430  0.62493611  0.16654711  1
  O2-  O213  1  0.49841146  0.62599091  0.65988117  1
  O2-  O214  1  0.49828637  0.87506123  0.16359454  1
  O2-  O215  1  0.50309612  0.87512818  0.66183649  1
  O2-  O216  1  0.74963221  0.12507182  0.16640028  1
  O2-  O217  1  0.74920510  0.12442635  0.66554728  1
  O2-  O218  1  0.74804759  0.37479286  0.16598174  1
  O2-  O219  1  0.74863118  0.37514013  0.66795302  1
  O2-  O220  1  0.75275648  0.62528262  0.16506821  1
  O2-  O221  1  0.74889292  0.62587637  0.66727019  1
  O2-  O222  1  0.74849668  0.87492335  0.16758246  1
  O2-  O223  1  0.75016135  0.87497955  0.66068011  1
  O2-  O224  1  0.12477425  0.00027335  0.34437509  1
  O2-  O225  1  0.12538979  0.00021897  0.85707193  1
  O2-  O226  1  0.12516789  0.25058037  0.34598899  1
  O2-  O227  1  0.12518274  0.24936462  0.84755420  1
  O2-  O228  1  0.12511922  0.49884256  0.35134797  1
  O2-  O229  1  0.12514417  0.50028301  0.83792590  1
  O2-  O230  1  0.12538764  0.75008556  0.34701516  1
  O2-  O231  1  0.12582974  0.75010785  0.84951821  1
  O2-  O232  1  0.37537073  0.00205009  0.34282339  1
  O2-  O233  1  0.37476376  -0.00213360  0.85289080  1
  O2-  O234  1  0.37447186  0.24774941  0.34539812  1
  O2-  O235  1  0.37402164  0.25147608  0.84711506  1
  O2-  O236  1  0.37489191  0.50310776  0.35177030  1
  O2-  O237  1  0.37435980  0.49988405  0.83783648  1
  O2-  O238  1  0.37480256  0.74719749  0.34843700  1
  O2-  O239  1  0.37437332  0.75086992  0.84695025  1
  O2-  O240  1  0.62526687  -0.00117672  0.34801523  1
  O2-  O241  1  0.62418857  0.00035669  0.84521746  1
  O2-  O242  1  0.62544621  0.24995083  0.34835043  1
  O2-  O243  1  0.62463119  0.25060927  0.84446249  1
  O2-  O244  1  0.62502253  0.50009613  0.35023071  1
  O2-  O245  1  0.62411115  0.49821284  0.84454117  1
  O2-  O246  1  0.62566535  0.75119657  0.34950915  1
  O2-  O247  1  0.62380369  0.75090579  0.84564812  1
  O2-  O248  1  0.87536065  -0.00323488  0.35037086  1
  O2-  O249  1  0.87480688  0.00117787  0.85029464  1
  O2-  O250  1  0.87547834  0.24957589  0.35001685  1
  O2-  O251  1  0.87536070  0.24968549  0.84966214  1
  O2-  O252  1  0.87548118  0.50020971  0.34952880  1
  O2-  O253  1  0.87526583  0.50317029  0.84747125  1
  O2-  O254  1  0.87497455  0.75344840  0.34894992  1
  O2-  O255  1  0.87520283  0.74581364  0.84914787  1
  O2-  O256  1  0.00159481  0.12410828  0.34716342  1
  O2-  O257  1  0.00110408  0.12489021  0.85300396  1
  O2-  O258  1  0.00265833  0.37469710  0.34958150  1
  O2-  O259  1  0.00137154  0.37526477  0.84810205  1
  O2-  O260  1  0.00160076  0.62609213  0.34594923  1
  O2-  O261  1  -0.00038142  0.62527213  0.85062105  1
  O2-  O262  1  -0.00201072  0.87489706  0.34989885  1
  O2-  O263  1  0.00321561  0.87465611  0.85277893  1
  O2-  O264  1  0.24961785  0.12405255  0.34201896  1
  O2-  O265  1  0.24820847  0.12475034  0.85114366  1
  O2-  O266  1  0.24654226  0.37512915  0.34933652  1
  O2-  O267  1  0.25010210  0.37505308  0.84117130  1
  O2-  O268  1  0.25055234  0.62554145  0.34880673  1
  O2-  O269  1  0.25017695  0.62530634  0.84088684  1
  O2-  O270  1  0.24859908  0.87521492  0.34675772  1
  O2-  O271  1  0.25034612  0.87536844  0.85222544  1
  O2-  O272  1  0.50071943  0.12479997  0.34500954  1
  O2-  O273  1  0.50055013  0.12487176  0.84511724  1
  O2-  O274  1  0.50115081  0.37505809  0.35009636  1
  O2-  O275  1  0.49926377  0.37487452  0.84167258  1
  O2-  O276  1  0.50003175  0.62568939  0.34930509  1
  O2-  O277  1  0.49739898  0.62541467  0.84242606  1
  O2-  O278  1  0.50425069  0.87434313  0.34810448  1
  O2-  O279  1  0.49818297  0.87472136  0.84509603  1
  O2-  O280  1  0.74861720  0.12414342  0.34875739  1
  O2-  O281  1  0.74951328  0.12486848  0.84777269  1
  O2-  O282  1  0.75024482  0.37524308  0.34999633  1
  O2-  O283  1  0.74851435  0.37533052  0.84952125  1
  O2-  O284  1  0.74847086  0.62552760  0.34727150  1
  O2-  O285  1  0.75186305  0.62488407  0.85157699  1
  O2-  O286  1  0.74983952  0.87525444  0.35194375  1
  O2-  O287  1  0.74769987  0.87455357  0.84408311  1
