# generated using pymatgen
data_BaYFeCuO5
_symmetry_space_group_name_H-M   'P 1'
_cell_length_a   15.67969984
_cell_length_b   15.68593948
_cell_length_c   15.52409884
_cell_angle_alpha   89.99945902
_cell_angle_beta   90.00024059
_cell_angle_gamma   90.00165689
_symmetry_Int_Tables_number   1
_chemical_formula_structural   BaYFeCuO5
_chemical_formula_sum   'Ba32 Y32 Fe32 Cu32 O160'
_cell_volume   3818.16487968
_cell_formula_units_Z   32
loop_
 _symmetry_equiv_pos_site_id
 _symmetry_equiv_pos_as_xyz
  1  'x, y, z'
loop_
 _atom_type_symbol
 _atom_type_oxidation_number
  Ba2+  2.0
  Y3+  3.0
  Fe3+  3.0
  Cu2+  2.0
  O2-  -2.0
loop_
 _atom_site_type_symbol
 _atom_site_label
 _atom_site_symmetry_multiplicity
 _atom_site_fract_x
 _atom_site_fract_y
 _atom_site_fract_z
 _atom_site_occupancy
  Ba2+  Ba0  1  0.00331438  -0.00093750  0.00159454  1
  Ba2+  Ba1  1  0.00266079  0.00224708  0.51243204  1
  Ba2+  Ba2  1  -0.00201177  0.25259211  0.01132222  1
  Ba2+  Ba3  1  -0.00265491  0.24283955  0.51737050  1
  Ba2+  Ba4  1  0.00310890  0.49319941  0.00710625  1
  Ba2+  Ba5  1  -0.00596144  0.50391429  0.51385245  1
  Ba2+  Ba6  1  0.00792522  0.75471103  -0.00205009  1
  Ba2+  Ba7  1  0.00034523  0.75233880  0.50671923  1
  Ba2+  Ba8  1  0.24327832  -0.00594537  0.00714474  1
  Ba2+  Ba9  1  0.24844673  0.00469847  0.50629026  1
  Ba2+  Ba10  1  0.24623213  0.25556618  0.02433732  1
  Ba2+  Ba11  1  0.25317145  0.24129176  0.50967820  1
  Ba2+  Ba12  1  0.25190160  0.50002345  0.01968793  1
  Ba2+  Ba13  1  0.25443747  0.50377843  0.51195980  1
  Ba2+  Ba14  1  0.24718100  0.75114310  -0.00066551  1
  Ba2+  Ba15  1  0.24817470  0.75198499  0.50631283  1
  Ba2+  Ba16  1  0.49871394  0.00069845  0.00644580  1
  Ba2+  Ba17  1  0.49437817  0.00642176  0.51623288  1
  Ba2+  Ba18  1  0.50413024  0.25601431  0.02309343  1
  Ba2+  Ba19  1  0.50080188  0.24948250  0.51504584  1
  Ba2+  Ba20  1  0.49810807  0.49882071  0.02766867  1
  Ba2+  Ba21  1  0.50393096  0.49620983  0.50930876  1
  Ba2+  Ba22  1  0.49355355  0.74301196  0.01298695  1
  Ba2+  Ba23  1  0.49549227  0.74592072  0.51274960  1
  Ba2+  Ba24  1  0.75499865  0.00595737  0.00180485  1
  Ba2+  Ba25  1  0.75530549  0.00480260  0.52465819  1
  Ba2+  Ba26  1  0.75271359  0.25323532  0.01065543  1
  Ba2+  Ba27  1  0.74801370  0.25117839  0.52149805  1
  Ba2+  Ba28  1  0.74707611  0.49267643  0.01742158  1
  Ba2+  Ba29  1  0.74727782  0.49608042  0.51061601  1
  Ba2+  Ba30  1  0.74939794  0.74829979  0.00702350  1
  Ba2+  Ba31  1  0.75629313  0.74627033  0.51489091  1
  Y3+  Y32  1  0.00484165  0.00034214  0.25708199  1
  Y3+  Y33  1  -0.00034617  0.00069718  0.75928508  1
  Y3+  Y34  1  0.00162296  0.24933721  0.25622613  1
  Y3+  Y35  1  -0.00292669  0.24951246  0.75805922  1
  Y3+  Y36  1  -0.00025220  0.49845857  0.25631358  1
  Y3+  Y37  1  -0.00193508  0.49855443  0.75861866  1
  Y3+  Y38  1  0.00318173  0.75143542  0.25829195  1
  Y3+  Y39  1  0.00033899  0.75196448  0.76042162  1
  Y3+  Y40  1  0.24602032  0.00146876  0.25967449  1
  Y3+  Y41  1  0.25060096  -0.00016372  0.75651187  1
  Y3+  Y42  1  0.24836776  0.24731175  0.26159641  1
  Y3+  Y43  1  0.25155049  0.24821068  0.75077012  1
  Y3+  Y44  1  0.24948105  0.49968825  0.25927728  1
  Y3+  Y45  1  0.25129737  0.50023604  0.75407825  1
  Y3+  Y46  1  0.24708125  0.75098063  0.25812445  1
  Y3+  Y47  1  0.25086463  0.75196589  0.75855585  1
  Y3+  Y48  1  0.49944834  0.00212307  0.25749043  1
  Y3+  Y49  1  0.49701594  0.00084407  0.75637516  1
  Y3+  Y50  1  0.50143125  0.25023718  0.26061604  1
  Y3+  Y51  1  0.49962119  0.25051209  0.75074890  1
  Y3+  Y52  1  0.50313432  0.49957187  0.26092922  1
  Y3+  Y53  1  0.49876160  0.49799708  0.75004877  1
  Y3+  Y54  1  0.50100771  0.74783292  0.25783064  1
  Y3+  Y55  1  0.49641424  0.75092215  0.75696770  1
  Y3+  Y56  1  0.74908147  0.00091602  0.25412245  1
  Y3+  Y57  1  0.75299758  0.00110982  0.76042200  1
  Y3+  Y58  1  0.74833361  0.25221660  0.25456982  1
  Y3+  Y59  1  0.75172628  0.25156468  0.75774956  1
  Y3+  Y60  1  0.74759985  0.49815369  0.25774258  1
  Y3+  Y61  1  0.75186161  0.49645621  0.75575773  1
  Y3+  Y62  1  0.74860281  0.74836157  0.25658557  1
  Y3+  Y63  1  0.75293002  0.75066466  0.75931811  1
  Fe3+  Fe64  1  0.87438818  0.87665488  0.37668149  1
  Fe3+  Fe65  1  0.12628244  0.12753885  0.87659154  1
  Fe3+  Fe66  1  0.87527525  0.62337012  0.88042339  1
  Fe3+  Fe67  1  0.62387976  0.12721262  0.87670102  1
  Fe3+  Fe68  1  0.62350095  0.62269527  0.87686831  1
  Fe3+  Fe69  1  0.62655963  0.12449266  0.37707761  1
  Fe3+  Fe70  1  0.62583047  0.87528046  0.38144562  1
  Fe3+  Fe71  1  0.62288601  0.37592642  0.87417018  1
  Fe3+  Fe72  1  0.37482883  0.62519026  0.37633740  1
  Fe3+  Fe73  1  0.37528476  0.87592876  0.37763849  1
  Fe3+  Fe74  1  0.87415172  0.12487725  0.37532046  1
  Fe3+  Fe75  1  0.37550675  0.37427903  0.87468365  1
  Fe3+  Fe76  1  0.37444505  0.12725078  0.88024454  1
  Fe3+  Fe77  1  0.87490123  0.62478262  0.37457613  1
  Fe3+  Fe78  1  0.62390218  0.87446425  0.87909171  1
  Fe3+  Fe79  1  0.87445396  0.37327725  0.37695881  1
  Fe3+  Fe80  1  0.12751738  0.37469618  0.87333078  1
  Fe3+  Fe81  1  0.37526251  0.37391711  0.37746070  1
  Fe3+  Fe82  1  0.12377801  0.37504302  0.38065583  1
  Fe3+  Fe83  1  0.37531667  0.62229760  0.87464496  1
  Fe3+  Fe84  1  0.12494512  0.62554971  0.13834161  1
  Fe3+  Fe85  1  0.87592322  0.12481136  0.13651121  1
  Fe3+  Fe86  1  0.62583978  0.62561863  0.63768883  1
  Fe3+  Fe87  1  0.87581392  0.62478733  0.13426031  1
  Fe3+  Fe88  1  0.12470295  0.37440620  0.63309102  1
  Fe3+  Fe89  1  0.62513978  0.87526340  0.63614130  1
  Fe3+  Fe90  1  0.37431437  0.12495735  0.13537775  1
  Fe3+  Fe91  1  0.37360008  0.87449996  0.13779343  1
  Fe3+  Fe92  1  0.12419104  0.62592899  0.63890681  1
  Fe3+  Fe93  1  0.12493945  0.87577076  0.63989104  1
  Fe3+  Fe94  1  0.62449747  0.87530024  0.13384992  1
  Fe3+  Fe95  1  0.87623833  0.87462924  0.13539951  1
  Cu2+  Cu96  1  0.87483456  0.87484680  0.86832868  1
  Cu2+  Cu97  1  0.87447889  0.37517170  0.87368248  1
  Cu2+  Cu98  1  0.37548462  0.87581756  0.86557657  1
  Cu2+  Cu99  1  0.62590702  0.37374706  0.37332067  1
  Cu2+  Cu100  1  0.37573901  0.12450011  0.37090224  1
  Cu2+  Cu101  1  0.62590309  0.62572679  0.36546903  1
  Cu2+  Cu102  1  0.12591438  0.62341987  0.86216718  1
  Cu2+  Cu103  1  0.12419660  0.62410571  0.36602379  1
  Cu2+  Cu104  1  0.12582861  0.87618841  0.86966113  1
  Cu2+  Cu105  1  0.12334981  0.12556649  0.37412905  1
  Cu2+  Cu106  1  0.12459017  0.87512469  0.36600794  1
  Cu2+  Cu107  1  0.87531381  0.12619473  0.86458972  1
  Cu2+  Cu108  1  0.37411093  0.37494563  0.64282085  1
  Cu2+  Cu109  1  0.62485649  0.12459267  0.14710085  1
  Cu2+  Cu110  1  0.12505142  0.12489471  0.14881780  1
  Cu2+  Cu111  1  0.12513068  0.87476527  0.14324757  1
  Cu2+  Cu112  1  0.12494086  0.12428723  0.64292565  1
  Cu2+  Cu113  1  0.62469558  0.37486146  0.15538065  1
  Cu2+  Cu114  1  0.37483722  0.37440414  0.15749851  1
  Cu2+  Cu115  1  0.12525931  0.37530345  0.15642672  1
  Cu2+  Cu116  1  0.62554010  0.12403168  0.65339648  1
  Cu2+  Cu117  1  0.87569570  0.37518321  0.14190654  1
  Cu2+  Cu118  1  0.62514573  0.62536722  0.15059789  1
  Cu2+  Cu119  1  0.87589324  0.87506885  0.65447871  1
  Cu2+  Cu120  1  0.37450506  0.12434853  0.64278709  1
  Cu2+  Cu121  1  0.37442165  0.62578452  0.64896685  1
  Cu2+  Cu122  1  0.87599739  0.37485095  0.65020168  1
  Cu2+  Cu123  1  0.37419963  0.87519513  0.64888226  1
  Cu2+  Cu124  1  0.37399286  0.62513387  0.15612902  1
  Cu2+  Cu125  1  0.87559146  0.62530560  0.65625259  1
  Cu2+  Cu126  1  0.62551154  0.37474677  0.64054304  1
  Cu2+  Cu127  1  0.87530255  0.12484263  0.65618916  1
  O2-  O128  1  0.12723218  0.12896185  -0.00335239  1
  O2-  O129  1  0.12327821  0.12417179  0.50750282  1
  O2-  O130  1  0.12887830  0.37538704  -0.00673279  1
  O2-  O131  1  0.12275850  0.37550966  0.50639092  1
  O2-  O132  1  0.12657337  0.62406095  0.01844154  1
  O2-  O133  1  0.12257897  0.62719046  0.51877222  1
  O2-  O134  1  0.12586764  0.87455644  0.00817295  1
  O2-  O135  1  0.12382831  0.87478521  0.51951183  1
  O2-  O136  1  0.37413252  0.12756944  0.00658826  1
  O2-  O137  1  0.37586601  0.12381463  0.50598806  1
  O2-  O138  1  0.37515918  0.37554267  -0.00584634  1
  O2-  O139  1  0.37529528  0.37502648  0.49739524  1
  O2-  O140  1  0.37561415  0.62073663  -0.00544102  1
  O2-  O141  1  0.37491786  0.62634748  0.49651384  1
  O2-  O142  1  0.37505381  0.87403881  0.01749990  1
  O2-  O143  1  0.37651491  0.87533046  0.49770723  1
  O2-  O144  1  0.62262472  0.12716040  -0.00348618  1
  O2-  O145  1  0.62765650  0.12270385  0.49684553  1
  O2-  O146  1  0.62167000  0.37667234  -0.00574364  1
  O2-  O147  1  0.62628300  0.37407075  0.50665475  1
  O2-  O148  1  0.62160845  0.62221754  -0.00343896  1
  O2-  O149  1  0.62764051  0.62816417  0.51750068  1
  O2-  O150  1  0.62339548  0.87412224  0.00656016  1
  O2-  O151  1  0.62682489  0.87555060  0.50741890  1
  O2-  O152  1  0.87657049  0.12548795  0.01610410  1
  O2-  O153  1  0.87287655  0.12450155  0.49521968  1
  O2-  O154  1  0.87491440  0.37599026  0.00684307  1
  O2-  O155  1  0.87493697  0.37412600  0.49676751  1
  O2-  O156  1  0.87560671  0.62393558  0.00736726  1
  O2-  O157  1  0.87464891  0.62577439  0.49470032  1
  O2-  O158  1  0.87478486  0.87438630  0.01523341  1
  O2-  O159  1  0.87313743  0.87639145  0.49633685  1
  O2-  O160  1  0.12563231  0.00093616  0.16494779  1
  O2-  O161  1  0.12444136  -0.00134144  0.66898502  1
  O2-  O162  1  0.12560940  0.25097478  0.16528803  1
  O2-  O163  1  0.12530712  0.25228549  0.65939336  1
  O2-  O164  1  0.12533075  0.50031617  0.16756214  1
  O2-  O165  1  0.12415108  0.49897027  0.66167804  1
  O2-  O166  1  0.12505137  0.74824553  0.16937334  1
  O2-  O167  1  0.12451422  0.75061640  0.67076849  1
  O2-  O168  1  0.37586206  0.00139935  0.16261352  1
  O2-  O169  1  0.37565416  -0.00107085  0.66937148  1
  O2-  O170  1  0.37500128  0.24821520  0.16322437  1
  O2-  O171  1  0.37469650  0.25076464  0.66208355  1
  O2-  O172  1  0.37467040  0.49970206  0.16569068  1
  O2-  O173  1  0.37498721  0.50042617  0.65891177  1
  O2-  O174  1  0.37574242  0.75018543  0.16634014  1
  O2-  O175  1  0.37484860  0.75047404  0.66659945  1
  O2-  O176  1  0.62418265  -0.00254802  0.16249996  1
  O2-  O177  1  0.62518334  -0.00233743  0.66706960  1
  O2-  O178  1  0.62437035  0.25032944  0.16281281  1
  O2-  O179  1  0.62557150  0.24811660  0.66230485  1
  O2-  O180  1  0.62468943  0.49996886  0.16652689  1
  O2-  O181  1  0.62567731  0.50176874  0.66203086  1
  O2-  O182  1  0.62461552  0.75221505  0.16419164  1
  O2-  O183  1  0.62580283  0.75191004  0.66810339  1
  O2-  O184  1  0.87401991  -0.00029622  0.16496756  1
  O2-  O185  1  0.87471384  0.00001066  0.66731002  1
  O2-  O186  1  0.87533914  0.24845591  0.16403182  1
  O2-  O187  1  0.87472873  0.24943521  0.66386722  1
  O2-  O188  1  0.87480521  0.50280774  0.16329128  1
  O2-  O189  1  0.87563079  0.50026879  0.66388075  1
  O2-  O190  1  0.87391672  0.74871167  0.16446611  1
  O2-  O191  1  0.87501830  0.75024637  0.66825893  1
  O2-  O192  1  0.00035167  0.12484738  0.16574911  1
  O2-  O193  1  -0.00145174  0.12507730  0.66663901  1
  O2-  O194  1  0.00159464  0.37542611  0.16535441  1
  O2-  O195  1  0.00127359  0.37495830  0.66441883  1
  O2-  O196  1  -0.00098304  0.62482325  0.16583694  1
  O2-  O197  1  0.00022356  0.62492636  0.67024505  1
  O2-  O198  1  -0.00185260  0.87465630  0.16814264  1
  O2-  O199  1  0.00006580  0.87487899  0.66814594  1
  O2-  O200  1  0.25115522  0.12544753  0.16557308  1
  O2-  O201  1  0.25020504  0.12411459  0.66479745  1
  O2-  O202  1  0.25003930  0.37498310  0.16790834  1
  O2-  O203  1  0.24806923  0.37580843  0.65882318  1
  O2-  O204  1  0.24945171  0.62421474  0.16924954  1
  O2-  O205  1  0.24920656  0.62516782  0.66403549  1
  O2-  O206  1  0.25185237  0.87542770  0.16964277  1
  O2-  O207  1  0.24946880  0.87506498  0.66631021  1
  O2-  O208  1  0.49860827  0.12456294  0.16220271  1
  O2-  O209  1  0.50113086  0.12395580  0.66475653  1
  O2-  O210  1  0.50004284  0.37486196  0.16585627  1
  O2-  O211  1  0.49859057  0.37451268  0.65994551  1
  O2-  O212  1  0.49939756  0.62547356  0.16539217  1
  O2-  O213  1  0.50025228  0.62701918  0.66242164  1
  O2-  O214  1  0.50058559  0.87470917  0.16574634  1
  O2-  O215  1  0.50138552  0.87484193  0.66207770  1
  O2-  O216  1  0.74983541  0.12412280  0.16123702  1
  O2-  O217  1  0.75050431  0.12344640  0.66707541  1
  O2-  O218  1  0.74829662  0.37542785  0.16287229  1
  O2-  O219  1  0.75234610  0.37500959  0.66561573  1
  O2-  O220  1  0.75139623  0.62570553  0.16028839  1
  O2-  O221  1  0.75047746  0.62653359  0.66924016  1
  O2-  O222  1  0.74890034  0.87436560  0.16290804  1
  O2-  O223  1  0.74934582  0.87483634  0.66549740  1
  O2-  O224  1  0.12450073  -0.00095695  0.34868703  1
  O2-  O225  1  0.12568365  0.00315226  0.84989673  1
  O2-  O226  1  0.12437134  0.25336872  0.34922101  1
  O2-  O227  1  0.12574015  0.25006106  0.83995444  1
  O2-  O228  1  0.12421953  0.49783966  0.35039422  1
  O2-  O229  1  0.12604485  0.49886640  0.84274124  1
  O2-  O230  1  0.12443845  0.74945431  0.35166377  1
  O2-  O231  1  0.12521933  0.74867218  0.85230455  1
  O2-  O232  1  0.37553319  -0.00237724  0.34378387  1
  O2-  O233  1  0.37552889  0.00242540  0.85384985  1
  O2-  O234  1  0.37487553  0.25122904  0.34600571  1
  O2-  O235  1  0.37582010  0.24885862  0.84398965  1
  O2-  O236  1  0.37479506  0.50002131  0.34751927  1
  O2-  O237  1  0.37503100  0.49892737  0.83982965  1
  O2-  O238  1  0.37532271  0.75070049  0.34636695  1
  O2-  O239  1  0.37555910  0.74946898  0.85025799  1
  O2-  O240  1  0.62531038  -0.00196273  0.34499484  1
  O2-  O241  1  0.62521569  -0.00066487  0.85185257  1
  O2-  O242  1  0.62571163  0.24761099  0.34557591  1
  O2-  O243  1  0.62386048  0.25039885  0.84338981  1
  O2-  O244  1  0.62578911  0.50140064  0.35131110  1
  O2-  O245  1  0.62478488  0.50015431  0.84055651  1
  O2-  O246  1  0.62571309  0.75237732  0.34899606  1
  O2-  O247  1  0.62454256  0.75031947  0.85061717  1
  O2-  O248  1  0.87419709  -0.00045791  0.34272180  1
  O2-  O249  1  0.87428886  0.00034902  0.85191651  1
  O2-  O250  1  0.87483668  0.24972480  0.34338255  1
  O2-  O251  1  0.87472711  0.24972691  0.84779354  1
  O2-  O252  1  0.87512680  0.49932663  0.34509260  1
  O2-  O253  1  0.87477869  0.50287002  0.84763652  1
  O2-  O254  1  0.87450217  0.75101052  0.34513845  1
  O2-  O255  1  0.87517858  0.74754446  0.85256244  1
  O2-  O256  1  -0.00257430  0.12470807  0.34677118  1
  O2-  O257  1  0.00045334  0.12588797  0.84971702  1
  O2-  O258  1  0.00009577  0.37530355  0.34751211  1
  O2-  O259  1  0.00236894  0.37537277  0.84807161  1
  O2-  O260  1  -0.00102073  0.62516717  0.34668498  1
  O2-  O261  1  -0.00072200  0.62408551  0.85404266  1
  O2-  O262  1  -0.00014955  0.87452727  0.34997031  1
  O2-  O263  1  -0.00035312  0.87556349  0.85067357  1
  O2-  O264  1  0.24943230  0.12476080  0.35021755  1
  O2-  O265  1  0.25221282  0.12574592  0.84625833  1
  O2-  O266  1  0.24856555  0.37511882  0.35116962  1
  O2-  O267  1  0.25165699  0.37426550  0.83906632  1
  O2-  O268  1  0.24996332  0.62515392  0.35074182  1
  O2-  O269  1  0.25100925  0.62488709  0.84559191  1
  O2-  O270  1  0.24939255  0.87465747  0.35165058  1
  O2-  O271  1  0.25128343  0.87527759  0.84887141  1
  O2-  O272  1  0.50267870  0.12376301  0.34522270  1
  O2-  O273  1  0.49829929  0.12383018  0.84723729  1
  O2-  O274  1  0.49902007  0.37504078  0.34864829  1
  O2-  O275  1  0.49938871  0.37495688  0.83949728  1
  O2-  O276  1  0.49975186  0.62584078  0.34875282  1
  O2-  O277  1  0.49967570  0.62541286  0.84170964  1
  O2-  O278  1  0.50223288  0.87476397  0.34830862  1
  O2-  O279  1  0.50203234  0.87569204  0.84707685  1
  O2-  O280  1  0.75013121  0.12387950  0.34056555  1
  O2-  O281  1  0.74938684  0.12505632  0.85030806  1
  O2-  O282  1  0.75187631  0.37524662  0.34503849  1
  O2-  O283  1  0.74724361  0.37513510  0.84779041  1
  O2-  O284  1  0.75111300  0.62565083  0.34349989  1
  O2-  O285  1  0.75039954  0.62621362  0.85166600  1
  O2-  O286  1  0.74836560  0.87464247  0.34446079  1
  O2-  O287  1  0.74747185  0.87426354  0.85083756  1
