# generated using pymatgen
data_BaYFeCuO5
_symmetry_space_group_name_H-M   'P 1'
_cell_length_a   15.66067560
_cell_length_b   15.66007079
_cell_length_c   15.45918175
_cell_angle_alpha   90.00250337
_cell_angle_beta   90.00124816
_cell_angle_gamma   89.99476445
_symmetry_Int_Tables_number   1
_chemical_formula_structural   BaYFeCuO5
_chemical_formula_sum   'Ba32 Y32 Fe32 Cu32 O160'
_cell_volume   3791.32238707
_cell_formula_units_Z   32
loop_
 _symmetry_equiv_pos_site_id
 _symmetry_equiv_pos_as_xyz
  1  'x, y, z'
loop_
 _atom_type_symbol
 _atom_type_oxidation_number
  Ba2+  2.0
  Y3+  3.0
  Fe3+  3.0
  Cu2+  2.0
  O2-  -2.0
loop_
 _atom_site_type_symbol
 _atom_site_label
 _atom_site_symmetry_multiplicity
 _atom_site_fract_x
 _atom_site_fract_y
 _atom_site_fract_z
 _atom_site_occupancy
  Ba2+  Ba0  1  -0.00631735  -0.00559260  0.00726678  1
  Ba2+  Ba1  1  0.00622703  -0.00172409  0.51763859  1
  Ba2+  Ba2  1  -0.00517353  0.25244833  0.01237423  1
  Ba2+  Ba3  1  0.00712806  0.25272449  0.51745314  1
  Ba2+  Ba4  1  0.00581432  0.49468455  0.00591072  1
  Ba2+  Ba5  1  -0.00260322  0.50168594  0.52224947  1
  Ba2+  Ba6  1  0.00364390  0.75809371  0.00218183  1
  Ba2+  Ba7  1  -0.00377560  0.74730428  0.52152852  1
  Ba2+  Ba8  1  0.25063883  -0.00722916  0.00608803  1
  Ba2+  Ba9  1  0.24354950  0.00804116  0.51557314  1
  Ba2+  Ba10  1  0.24739887  0.25168718  0.01035258  1
  Ba2+  Ba11  1  0.24701178  0.24850426  0.52235032  1
  Ba2+  Ba12  1  0.24385695  0.50280293  0.00551815  1
  Ba2+  Ba13  1  0.24482773  0.49446960  0.52298435  1
  Ba2+  Ba14  1  0.24714135  0.75309459  0.00089438  1
  Ba2+  Ba15  1  0.23956786  0.74953683  0.51726158  1
  Ba2+  Ba16  1  0.49966031  0.00439533  0.00801962  1
  Ba2+  Ba17  1  0.50129848  -0.00201078  0.51105821  1
  Ba2+  Ba18  1  0.50301102  0.23935934  0.01174181  1
  Ba2+  Ba19  1  0.49339147  0.25429245  0.51310197  1
  Ba2+  Ba20  1  0.49949651  0.50868903  0.01819316  1
  Ba2+  Ba21  1  0.50781471  0.49928582  0.50430626  1
  Ba2+  Ba22  1  0.49614067  0.74727885  0.01498528  1
  Ba2+  Ba23  1  0.51214743  0.74938495  0.50658534  1
  Ba2+  Ba24  1  0.75592924  0.00510036  0.00677345  1
  Ba2+  Ba25  1  0.74966792  -0.01139824  0.51196282  1
  Ba2+  Ba26  1  0.75374629  0.24080449  0.01114339  1
  Ba2+  Ba27  1  0.75195299  0.26000661  0.50615227  1
  Ba2+  Ba28  1  0.75055953  0.49960268  0.01668808  1
  Ba2+  Ba29  1  0.75256140  0.50691523  0.50567142  1
  Ba2+  Ba30  1  0.75298379  0.75409647  0.01243025  1
  Ba2+  Ba31  1  0.75028525  0.74571788  0.51138785  1
  Y3+  Y32  1  0.00011273  0.00015514  0.25409203  1
  Y3+  Y33  1  -0.00126210  -0.00193113  0.76060850  1
  Y3+  Y34  1  0.00058127  0.24921219  0.25411221  1
  Y3+  Y35  1  0.00044080  0.25009059  0.75982371  1
  Y3+  Y36  1  -0.00083400  0.49912442  0.25409376  1
  Y3+  Y37  1  0.00077508  0.50043390  0.75871960  1
  Y3+  Y38  1  -0.00163482  0.75152185  0.25441448  1
  Y3+  Y39  1  -0.00059217  0.75169625  0.75911866  1
  Y3+  Y40  1  0.24771697  0.00085292  0.25647341  1
  Y3+  Y41  1  0.24760914  -0.00058301  0.75725502  1
  Y3+  Y42  1  0.24771807  0.24849839  0.25492447  1
  Y3+  Y43  1  0.24828122  0.25016039  0.75776426  1
  Y3+  Y44  1  0.24935588  0.49977872  0.25262981  1
  Y3+  Y45  1  0.24685301  0.49873565  0.75995507  1
  Y3+  Y46  1  0.24903169  0.75065096  0.25503300  1
  Y3+  Y47  1  0.24649191  0.75129435  0.75928766  1
  Y3+  Y48  1  0.50179598  0.00059939  0.25864092  1
  Y3+  Y49  1  0.50106308  -0.00039967  0.75709057  1
  Y3+  Y50  1  0.50129447  0.24804857  0.25595229  1
  Y3+  Y51  1  0.49937461  0.24832079  0.75830991  1
  Y3+  Y52  1  0.50216646  0.50252592  0.25906188  1
  Y3+  Y53  1  0.50025021  0.50046269  0.75441205  1
  Y3+  Y54  1  0.50307800  0.74911158  0.26121303  1
  Y3+  Y55  1  0.50212569  0.75119340  0.75380802  1
  Y3+  Y56  1  0.75145980  -0.00033756  0.25548358  1
  Y3+  Y57  1  0.75083873  -0.00135803  0.76052021  1
  Y3+  Y58  1  0.75168345  0.24881733  0.25422415  1
  Y3+  Y59  1  0.75052467  0.24762718  0.76056059  1
  Y3+  Y60  1  0.75003210  0.50204342  0.26036250  1
  Y3+  Y61  1  0.75169231  0.50196072  0.75360008  1
  Y3+  Y62  1  0.75018780  0.74947770  0.26111193  1
  Y3+  Y63  1  0.75113618  0.75140125  0.75380590  1
  Fe3+  Fe64  1  0.87686465  0.37557403  0.37542856  1
  Fe3+  Fe65  1  0.12438271  0.87518985  0.37686086  1
  Fe3+  Fe66  1  0.62546082  0.62515641  0.87717399  1
  Fe3+  Fe67  1  0.87361537  0.37536132  0.87701479  1
  Fe3+  Fe68  1  0.12542634  0.37505427  0.37442904  1
  Fe3+  Fe69  1  0.37549394  0.62591929  0.87457244  1
  Fe3+  Fe70  1  0.87486490  0.62533742  0.87937058  1
  Fe3+  Fe71  1  0.37350729  0.12563461  0.37698516  1
  Fe3+  Fe72  1  0.37396136  0.87484325  0.38140459  1
  Fe3+  Fe73  1  0.37268149  0.62476865  0.38041134  1
  Fe3+  Fe74  1  0.37363787  0.37510248  0.37525242  1
  Fe3+  Fe75  1  0.62435910  0.87459385  0.87981034  1
  Fe3+  Fe76  1  0.37423310  0.12400877  0.87602133  1
  Fe3+  Fe77  1  0.87643665  0.87464711  0.37734662  1
  Fe3+  Fe78  1  0.12357925  0.62395724  0.37676777  1
  Fe3+  Fe79  1  0.87696050  0.12486782  0.38077456  1
  Fe3+  Fe80  1  0.62639379  0.12581592  0.38057705  1
  Fe3+  Fe81  1  0.37606591  0.37550643  0.87963452  1
  Fe3+  Fe82  1  0.12365261  0.12461897  0.87937281  1
  Fe3+  Fe83  1  0.62463614  0.37525448  0.88102344  1
  Fe3+  Fe84  1  0.37554560  0.37500869  0.13355206  1
  Fe3+  Fe85  1  0.62566725  0.12523795  0.63510579  1
  Fe3+  Fe86  1  0.87480740  0.12517259  0.63533176  1
  Fe3+  Fe87  1  0.37414310  0.87494973  0.63496952  1
  Fe3+  Fe88  1  0.62588899  0.37481219  0.63869407  1
  Fe3+  Fe89  1  0.12487692  0.62641394  0.13515210  1
  Fe3+  Fe90  1  0.37535478  0.87492423  0.13953781  1
  Fe3+  Fe91  1  0.62547845  0.37456785  0.13580008  1
  Fe3+  Fe92  1  0.87563614  0.62542991  0.13440402  1
  Fe3+  Fe93  1  0.37479891  0.62466206  0.63398264  1
  Fe3+  Fe94  1  0.12485156  0.12370064  0.13364318  1
  Fe3+  Fe95  1  0.62560856  0.87521946  0.13647103  1
  Cu2+  Cu96  1  0.62500320  0.12443495  0.87232330  1
  Cu2+  Cu97  1  0.12483729  0.37386388  0.87304723  1
  Cu2+  Cu98  1  0.62605334  0.87604046  0.37227995  1
  Cu2+  Cu99  1  0.37622383  0.87461323  0.86096130  1
  Cu2+  Cu100  1  0.87763067  0.62521295  0.37119372  1
  Cu2+  Cu101  1  0.12409066  0.62537017  0.86437316  1
  Cu2+  Cu102  1  0.87536984  0.12490414  0.87087897  1
  Cu2+  Cu103  1  0.62635794  0.62506141  0.37227900  1
  Cu2+  Cu104  1  0.62530103  0.37378028  0.36133531  1
  Cu2+  Cu105  1  0.87337016  0.87423550  0.87209385  1
  Cu2+  Cu106  1  0.12431093  0.12566405  0.37144203  1
  Cu2+  Cu107  1  0.12473320  0.87611539  0.87179106  1
  Cu2+  Cu108  1  0.62602461  0.62595043  0.15182665  1
  Cu2+  Cu109  1  0.87447715  0.37566424  0.14886043  1
  Cu2+  Cu110  1  0.87500795  0.62516379  0.64413454  1
  Cu2+  Cu111  1  0.87516770  0.87579697  0.65150212  1
  Cu2+  Cu112  1  0.12391630  0.37488666  0.65713265  1
  Cu2+  Cu113  1  0.37480603  0.62590999  0.15284350  1
  Cu2+  Cu114  1  0.62580141  0.12327935  0.14323721  1
  Cu2+  Cu115  1  0.37509801  0.37530039  0.65344634  1
  Cu2+  Cu116  1  0.12495136  0.87483168  0.14124875  1
  Cu2+  Cu117  1  0.37504415  0.12463408  0.65180278  1
  Cu2+  Cu118  1  0.62525683  0.62475076  0.64259353  1
  Cu2+  Cu119  1  0.12508125  0.37501545  0.13899511  1
  Cu2+  Cu120  1  0.87480846  0.87456645  0.14219487  1
  Cu2+  Cu121  1  0.12354374  0.12510584  0.64654560  1
  Cu2+  Cu122  1  0.87457540  0.37419965  0.65245707  1
  Cu2+  Cu123  1  0.12439624  0.87517322  0.65373146  1
  Cu2+  Cu124  1  0.62527975  0.87545101  0.64297999  1
  Cu2+  Cu125  1  0.12484805  0.62490672  0.65482611  1
  Cu2+  Cu126  1  0.37467254  0.12406649  0.14966421  1
  Cu2+  Cu127  1  0.87575643  0.12406002  0.14313850  1
  O2-  O128  1  0.12474479  0.12384992  0.00610178  1
  O2-  O129  1  0.12435643  0.12658080  0.50752836  1
  O2-  O130  1  0.12652693  0.37458735  0.00582085  1
  O2-  O131  1  0.12579594  0.37527492  0.49497663  1
  O2-  O132  1  0.12539932  0.62687527  0.01435601  1
  O2-  O133  1  0.12433619  0.62249303  0.49722921  1
  O2-  O134  1  0.12657238  0.87541761  0.00618861  1
  O2-  O135  1  0.12471853  0.87498089  0.49735686  1
  O2-  O136  1  0.37495959  0.12350986  -0.00343988  1
  O2-  O137  1  0.37292787  0.12795854  0.49710445  1
  O2-  O138  1  0.37729139  0.37637329  0.00607878  1
  O2-  O139  1  0.37209680  0.37463145  0.49552704  1
  O2-  O140  1  0.37627700  0.62593237  -0.00494264  1
  O2-  O141  1  0.37292553  0.62324228  0.50663717  1
  O2-  O142  1  0.37707708  0.87392767  0.01868961  1
  O2-  O143  1  0.37287234  0.87478784  0.50766606  1
  O2-  O144  1  0.62462974  0.12342094  0.00767530  1
  O2-  O145  1  0.62569734  0.12724103  0.50778866  1
  O2-  O146  1  0.62433608  0.37536157  0.00751172  1
  O2-  O147  1  0.62451420  0.37369586  0.51787028  1
  O2-  O148  1  0.62409775  0.62545586  -0.00282683  1
  O2-  O149  1  0.62555195  0.62335883  0.50667652  1
  O2-  O150  1  0.62308123  0.87479493  0.00793111  1
  O2-  O151  1  0.62454032  0.87647416  0.50751058  1
  O2-  O152  1  0.87624348  0.12508346  0.00736671  1
  O2-  O153  1  0.87590293  0.12558903  0.50742715  1
  O2-  O154  1  0.87226630  0.37596232  -0.00257785  1
  O2-  O155  1  0.87769267  0.37559896  0.49581350  1
  O2-  O156  1  0.87447671  0.62484785  0.00634436  1
  O2-  O157  1  0.87684484  0.62462091  0.50789945  1
  O2-  O158  1  0.87281187  0.87401772  0.00659165  1
  O2-  O159  1  0.87759149  0.87444549  0.49789946  1
  O2-  O160  1  0.12562740  0.00189444  0.16393195  1
  O2-  O161  1  0.12477863  -0.00088741  0.66645461  1
  O2-  O162  1  0.12554729  0.24725404  0.16070880  1
  O2-  O163  1  0.12473508  0.25133398  0.66788651  1
  O2-  O164  1  0.12581670  0.50204363  0.16204082  1
  O2-  O165  1  0.12502265  0.49924129  0.66614053  1
  O2-  O166  1  0.12513139  0.74863341  0.16646288  1
  O2-  O167  1  0.12499376  0.75031162  0.66428807  1
  O2-  O168  1  0.37590629  -0.00090356  0.16921296  1
  O2-  O169  1  0.37448348  -0.00159981  0.66163995  1
  O2-  O170  1  0.37631787  0.25106534  0.15899949  1
  O2-  O171  1  0.37512347  0.25000012  0.66622660  1
  O2-  O172  1  0.37647398  0.49900509  0.16187492  1
  O2-  O173  1  0.37462028  0.50168489  0.66410306  1
  O2-  O174  1  0.37679939  0.75070884  0.17073291  1
  O2-  O175  1  0.37418818  0.74980022  0.66045105  1
  O2-  O176  1  0.62467325  -0.00312925  0.16748929  1
  O2-  O177  1  0.62483731  0.00350971  0.66404786  1
  O2-  O178  1  0.62486982  0.25216437  0.16329185  1
  O2-  O179  1  0.62465314  0.24827995  0.66781605  1
  O2-  O180  1  0.62439418  0.49895818  0.16254130  1
  O2-  O181  1  0.62472742  0.49809749  0.66815759  1
  O2-  O182  1  0.62443798  0.75145372  0.16421244  1
  O2-  O183  1  0.62490563  0.75038365  0.66517460  1
  O2-  O184  1  0.87492412  -0.00079440  0.16718081  1
  O2-  O185  1  0.87434445  0.00184149  0.66349566  1
  O2-  O186  1  0.87458555  0.25157476  0.16441783  1
  O2-  O187  1  0.87408765  0.24823613  0.66327446  1
  O2-  O188  1  0.87422608  0.50182967  0.16126304  1
  O2-  O189  1  0.87495067  0.49820552  0.66662430  1
  O2-  O190  1  0.87456033  0.74690923  0.16346222  1
  O2-  O191  1  0.87531768  0.75200451  0.66647892  1
  O2-  O192  1  0.00288183  0.12494469  0.16337813  1
  O2-  O193  1  -0.00347607  0.12545167  0.66545949  1
  O2-  O194  1  -0.00129017  0.37508424  0.16106900  1
  O2-  O195  1  -0.00073612  0.37451593  0.66551109  1
  O2-  O196  1  -0.00096772  0.62451445  0.16196934  1
  O2-  O197  1  0.00143207  0.62478785  0.66834764  1
  O2-  O198  1  -0.00020852  0.87507015  0.16183752  1
  O2-  O199  1  0.00010477  0.87549251  0.66596420  1
  O2-  O200  1  0.24869384  0.12445882  0.16072597  1
  O2-  O201  1  0.25052571  0.12555187  0.66665794  1
  O2-  O202  1  0.25368067  0.37505380  0.15994579  1
  O2-  O203  1  0.24983663  0.37487868  0.66667011  1
  O2-  O204  1  0.24983137  0.62566590  0.16495155  1
  O2-  O205  1  0.25114675  0.62480233  0.66313596  1
  O2-  O206  1  0.25177539  0.87473808  0.16628088  1
  O2-  O207  1  0.25103960  0.87489847  0.66429968  1
  O2-  O208  1  0.49880565  0.12420462  0.16700707  1
  O2-  O209  1  0.50166977  0.12547886  0.66170448  1
  O2-  O210  1  0.50030424  0.37510763  0.16268200  1
  O2-  O211  1  0.50070061  0.37403827  0.66774179  1
  O2-  O212  1  0.50030707  0.62533973  0.16602359  1
  O2-  O213  1  0.49696355  0.62503039  0.66180171  1
  O2-  O214  1  0.50169554  0.87462136  0.16842734  1
  O2-  O215  1  0.49653583  0.87538062  0.66391555  1
  O2-  O216  1  0.75072481  0.12462313  0.16828791  1
  O2-  O217  1  0.74993074  0.12543860  0.66341674  1
  O2-  O218  1  0.74801764  0.37550933  0.16354402  1
  O2-  O219  1  0.74949082  0.37373201  0.66697497  1
  O2-  O220  1  0.75179170  0.62475468  0.16380089  1
  O2-  O221  1  0.74994408  0.62523988  0.66598751  1
  O2-  O222  1  0.74752624  0.87437023  0.16400884  1
  O2-  O223  1  0.75119700  0.87586036  0.66675022  1
  O2-  O224  1  0.12544718  -0.00182958  0.34654041  1
  O2-  O225  1  0.12538813  0.00278790  0.84961752  1
  O2-  O226  1  0.12535390  0.25213220  0.34284329  1
  O2-  O227  1  0.12552820  0.24681890  0.85071283  1
  O2-  O228  1  0.12601521  0.49939088  0.34157048  1
  O2-  O229  1  0.12526279  0.50071043  0.85045353  1
  O2-  O230  1  0.12619410  0.75030489  0.34660243  1
  O2-  O231  1  0.12507118  0.74969405  0.84891852  1
  O2-  O232  1  0.37540484  -0.00071413  0.35146865  1
  O2-  O233  1  0.37534216  -0.00018460  0.84604416  1
  O2-  O234  1  0.37558961  0.25014556  0.34161053  1
  O2-  O235  1  0.37539907  0.25108971  0.85022610  1
  O2-  O236  1  0.37497554  0.50122950  0.34569963  1
  O2-  O237  1  0.37589532  0.49932797  0.84758516  1
  O2-  O238  1  0.37421797  0.74975033  0.35422005  1
  O2-  O239  1  0.37564970  0.74958429  0.84419301  1
  O2-  O240  1  0.62533721  0.00432082  0.35094274  1
  O2-  O241  1  0.62384500  -0.00294995  0.84885479  1
  O2-  O242  1  0.62515483  0.24732475  0.34731391  1
  O2-  O243  1  0.62435094  0.25298754  0.85133073  1
  O2-  O244  1  0.62495569  0.49829625  0.34748724  1
  O2-  O245  1  0.62361068  0.49921295  0.84981389  1
  O2-  O246  1  0.62545312  0.75066530  0.34870084  1
  O2-  O247  1  0.62413213  0.75037522  0.84818272  1
  O2-  O248  1  0.87520074  0.00140901  0.34968851  1
  O2-  O249  1  0.87398741  -0.00042767  0.84808489  1
  O2-  O250  1  0.87503529  0.24892723  0.34765863  1
  O2-  O251  1  0.87376447  0.25182375  0.84675479  1
  O2-  O252  1  0.87537479  0.49826152  0.34401174  1
  O2-  O253  1  0.87420814  0.50157327  0.84920910  1
  O2-  O254  1  0.87581509  0.75187104  0.34583557  1
  O2-  O255  1  0.87406410  0.74671492  0.85051921  1
  O2-  O256  1  -0.00281244  0.12535831  0.34690769  1
  O2-  O257  1  0.00198470  0.12502105  0.84932606  1
  O2-  O258  1  0.00073649  0.37459874  0.34212926  1
  O2-  O259  1  -0.00237883  0.37522057  0.84913176  1
  O2-  O260  1  0.00272523  0.62487067  0.34213687  1
  O2-  O261  1  -0.00193644  0.62470368  0.85256956  1
  O2-  O262  1  0.00030565  0.87556702  0.34283411  1
  O2-  O263  1  -0.00104468  0.87510353  0.85018487  1
  O2-  O264  1  0.25144716  0.12507093  0.34337527  1
  O2-  O265  1  0.24901959  0.12463008  0.84925290  1
  O2-  O266  1  0.25026946  0.37510605  0.34007896  1
  O2-  O267  1  0.25364905  0.37536256  0.85152440  1
  O2-  O268  1  0.25043143  0.62489394  0.34643544  1
  O2-  O269  1  0.25056294  0.62512112  0.84730877  1
  O2-  O270  1  0.25117532  0.87510277  0.34735357  1
  O2-  O271  1  0.25197815  0.87477728  0.84893765  1
  O2-  O272  1  0.50083453  0.12553353  0.35048060  1
  O2-  O273  1  0.49778185  0.12477376  0.84542197  1
  O2-  O274  1  0.49923249  0.37511933  0.34687158  1
  O2-  O275  1  0.49994261  0.37496284  0.85057622  1
  O2-  O276  1  0.49651956  0.62478038  0.35145002  1
  O2-  O277  1  0.50078009  0.62507891  0.84260555  1
  O2-  O278  1  0.49672708  0.87498671  0.35188339  1
  O2-  O279  1  0.50189585  0.87468263  0.84764717  1
  O2-  O280  1  0.75129298  0.12604976  0.35282859  1
  O2-  O281  1  0.75008202  0.12466262  0.84786700  1
  O2-  O282  1  0.75084216  0.37404313  0.34801783  1
  O2-  O283  1  0.74783420  0.37583289  0.84868299  1
  O2-  O284  1  0.75143869  0.62471904  0.34893176  1
  O2-  O285  1  0.75023950  0.62439189  0.84845570  1
  O2-  O286  1  0.75260801  0.87616066  0.34697861  1
  O2-  O287  1  0.74611902  0.87438757  0.85064865  1
