# generated using pymatgen
data_BaYFeCuO5
_symmetry_space_group_name_H-M   'P 1'
_cell_length_a   15.66115939
_cell_length_b   15.66012790
_cell_length_c   15.45878723
_cell_angle_alpha   89.99671600
_cell_angle_beta   89.99816588
_cell_angle_gamma   90.00234418
_symmetry_Int_Tables_number   1
_chemical_formula_structural   BaYFeCuO5
_chemical_formula_sum   'Ba32 Y32 Fe32 Cu32 O160'
_cell_volume   3791.35658486
_cell_formula_units_Z   32
loop_
 _symmetry_equiv_pos_site_id
 _symmetry_equiv_pos_as_xyz
  1  'x, y, z'
loop_
 _atom_type_symbol
 _atom_type_oxidation_number
  Ba2+  2.0
  Y3+  3.0
  Fe3+  3.0
  Cu2+  2.0
  O2-  -2.0
loop_
 _atom_site_type_symbol
 _atom_site_label
 _atom_site_symmetry_multiplicity
 _atom_site_fract_x
 _atom_site_fract_y
 _atom_site_fract_z
 _atom_site_occupancy
  Ba2+  Ba0  1  0.00323692  -0.01123056  0.01165537  1
  Ba2+  Ba1  1  -0.00098012  0.00480091  0.50558081  1
  Ba2+  Ba2  1  -0.00565043  0.25768465  0.00650911  1
  Ba2+  Ba3  1  0.00455969  0.24201700  0.50698934  1
  Ba2+  Ba4  1  -0.00583381  0.50352394  0.01824259  1
  Ba2+  Ba5  1  0.00315457  0.49701919  0.51038728  1
  Ba2+  Ba6  1  0.00162538  0.74966360  0.02093091  1
  Ba2+  Ba7  1  -0.00430662  0.75528003  0.51045134  1
  Ba2+  Ba8  1  0.25348875  -0.00524829  0.00144858  1
  Ba2+  Ba9  1  0.24290030  -0.00219456  0.51801131  1
  Ba2+  Ba10  1  0.26177804  0.25058195  0.00662705  1
  Ba2+  Ba11  1  0.23731567  0.24897640  0.50665411  1
  Ba2+  Ba12  1  0.25604208  0.50269111  0.01847490  1
  Ba2+  Ba13  1  0.25047643  0.50082665  0.50592009  1
  Ba2+  Ba14  1  0.24726337  0.75109435  0.01212030  1
  Ba2+  Ba15  1  0.25704300  0.75275098  0.51652356  1
  Ba2+  Ba16  1  0.49327338  -0.00195621  -0.00253561  1
  Ba2+  Ba17  1  0.50508998  -0.00645186  0.52368742  1
  Ba2+  Ba18  1  0.49241709  0.25578622  0.01145601  1
  Ba2+  Ba19  1  0.50439687  0.24457511  0.51202455  1
  Ba2+  Ba20  1  0.50012464  0.50077039  0.01765276  1
  Ba2+  Ba21  1  0.49773052  0.51162948  0.51069010  1
  Ba2+  Ba22  1  0.50206977  0.74669318  0.00037006  1
  Ba2+  Ba23  1  0.49921564  0.74981928  0.52182073  1
  Ba2+  Ba24  1  0.74951865  -0.00916508  0.00662381  1
  Ba2+  Ba25  1  0.75304959  0.00069718  0.51224548  1
  Ba2+  Ba26  1  0.75052420  0.26231117  0.01163398  1
  Ba2+  Ba27  1  0.75375831  0.23831201  0.51221561  1
  Ba2+  Ba28  1  0.74909437  0.50170421  0.01623748  1
  Ba2+  Ba29  1  0.75028244  0.50993570  0.51677741  1
  Ba2+  Ba30  1  0.74799644  0.74462136  0.01125914  1
  Ba2+  Ba31  1  0.74858517  0.75221529  0.51866501  1
  Y3+  Y32  1  -0.00006079  -0.00053958  0.25862473  1
  Y3+  Y33  1  0.00283442  0.00063939  0.75655076  1
  Y3+  Y34  1  0.00073597  0.24942517  0.26087975  1
  Y3+  Y35  1  0.00078430  0.25011818  0.75491176  1
  Y3+  Y36  1  0.00033685  0.49912004  0.25819516  1
  Y3+  Y37  1  -0.00008472  0.49793283  0.75553074  1
  Y3+  Y38  1  -0.00024075  0.75176232  0.25481383  1
  Y3+  Y39  1  0.00166751  0.75124330  0.75687576  1
  Y3+  Y40  1  0.24876521  0.00075804  0.25491349  1
  Y3+  Y41  1  0.24901076  -0.00170918  0.76034819  1
  Y3+  Y42  1  0.24962126  0.24982562  0.25785778  1
  Y3+  Y43  1  0.24933060  0.25008352  0.75818623  1
  Y3+  Y44  1  0.25161911  0.50068683  0.26037187  1
  Y3+  Y45  1  0.25055005  0.49889025  0.75423901  1
  Y3+  Y46  1  0.25041003  0.74848058  0.25676136  1
  Y3+  Y47  1  0.25067278  0.75260407  0.75737380  1
  Y3+  Y48  1  0.49833684  0.00111726  0.25432212  1
  Y3+  Y49  1  0.49906909  -0.00205628  0.76066380  1
  Y3+  Y50  1  0.49770420  0.25085585  0.25411844  1
  Y3+  Y51  1  0.49732086  0.24945402  0.76042441  1
  Y3+  Y52  1  0.49869925  0.50170078  0.25611062  1
  Y3+  Y53  1  0.49915440  0.50286242  0.75740198  1
  Y3+  Y54  1  0.49905954  0.74649795  0.25580667  1
  Y3+  Y55  1  0.50075309  0.74971289  0.75791516  1
  Y3+  Y56  1  0.75316950  -0.00058280  0.25789859  1
  Y3+  Y57  1  0.74900775  0.00051406  0.75716968  1
  Y3+  Y58  1  0.75165327  0.25074137  0.25678528  1
  Y3+  Y59  1  0.75198049  0.24945288  0.75772248  1
  Y3+  Y60  1  0.74963999  0.50027975  0.25332472  1
  Y3+  Y61  1  0.75025195  0.50169894  0.75890391  1
  Y3+  Y62  1  0.75132205  0.74978757  0.25372619  1
  Y3+  Y63  1  0.74701317  0.74840280  0.75926109  1
  Fe3+  Fe64  1  0.87422926  0.37501126  0.37992785  1
  Fe3+  Fe65  1  0.12547667  0.37667883  0.88016814  1
  Fe3+  Fe66  1  0.37620776  0.87530287  0.37804796  1
  Fe3+  Fe67  1  0.62458706  0.12353355  0.37499640  1
  Fe3+  Fe68  1  0.62498282  0.12600245  0.87985582  1
  Fe3+  Fe69  1  0.12553271  0.87484686  0.37680186  1
  Fe3+  Fe70  1  0.87585021  0.62455631  0.87559732  1
  Fe3+  Fe71  1  0.12477091  0.12537630  0.88100241  1
  Fe3+  Fe72  1  0.37387655  0.62430957  0.87557539  1
  Fe3+  Fe73  1  0.37595275  0.37428837  0.38027289  1
  Fe3+  Fe74  1  0.62422418  0.37658462  0.87534472  1
  Fe3+  Fe75  1  0.62545169  0.62661561  0.37574339  1
  Fe3+  Fe76  1  0.62543022  0.37536467  0.38011459  1
  Fe3+  Fe77  1  0.62504836  0.87464004  0.37612112  1
  Fe3+  Fe78  1  0.12472727  0.62447991  0.87644586  1
  Fe3+  Fe79  1  0.12508665  0.62627472  0.37886789  1
  Fe3+  Fe80  1  0.87454329  0.62612394  0.37636182  1
  Fe3+  Fe81  1  0.37457036  0.12324648  0.38099981  1
  Fe3+  Fe82  1  0.87537612  0.12490401  0.88069634  1
  Fe3+  Fe83  1  0.87546704  0.87337538  0.87704987  1
  Fe3+  Fe84  1  0.87502274  0.37461823  0.63445020  1
  Fe3+  Fe85  1  0.87537369  0.87562793  0.63969935  1
  Fe3+  Fe86  1  0.37410177  0.12447768  0.63638156  1
  Fe3+  Fe87  1  0.37528234  0.87419768  0.13690086  1
  Fe3+  Fe88  1  0.12496484  0.62579936  0.63403415  1
  Fe3+  Fe89  1  0.62489939  0.37499282  0.63371632  1
  Fe3+  Fe90  1  0.62455999  0.12515137  0.13283426  1
  Fe3+  Fe91  1  0.12563217  0.37503202  0.13631036  1
  Fe3+  Fe92  1  0.62376651  0.87478688  0.13586923  1
  Fe3+  Fe93  1  0.37492534  0.37433738  0.63382640  1
  Fe3+  Fe94  1  0.12553042  0.12513406  0.13391009  1
  Fe3+  Fe95  1  0.87533265  0.12498308  0.13432098  1
  Cu2+  Cu96  1  0.87457289  0.87455578  0.36310816  1
  Cu2+  Cu97  1  0.37473762  0.87316182  0.86296803  1
  Cu2+  Cu98  1  0.62561856  0.87469797  0.86521075  1
  Cu2+  Cu99  1  0.37464189  0.37711626  0.87027007  1
  Cu2+  Cu100  1  0.62491292  0.62396605  0.87214487  1
  Cu2+  Cu101  1  0.87497935  0.37628996  0.87120797  1
  Cu2+  Cu102  1  0.12491549  0.37522306  0.37299135  1
  Cu2+  Cu103  1  0.12406887  0.87344946  0.87316630  1
  Cu2+  Cu104  1  0.87464528  0.12470174  0.37055786  1
  Cu2+  Cu105  1  0.37423394  0.12525354  0.87228670  1
  Cu2+  Cu106  1  0.12567771  0.12360681  0.36984899  1
  Cu2+  Cu107  1  0.37555718  0.62665866  0.37409073  1
  Cu2+  Cu108  1  0.62435952  0.12551088  0.65528287  1
  Cu2+  Cu109  1  0.62570103  0.87501068  0.65618120  1
  Cu2+  Cu110  1  0.12526578  0.62424618  0.15283205  1
  Cu2+  Cu111  1  0.62433022  0.37479215  0.15238197  1
  Cu2+  Cu112  1  0.12535270  0.12471405  0.64643279  1
  Cu2+  Cu113  1  0.37462255  0.62555441  0.15083400  1
  Cu2+  Cu114  1  0.87618354  0.62537050  0.65061426  1
  Cu2+  Cu115  1  0.87576993  0.37473420  0.14413494  1
  Cu2+  Cu116  1  0.37398060  0.62515591  0.64276180  1
  Cu2+  Cu117  1  0.87457212  0.87549830  0.14999499  1
  Cu2+  Cu118  1  0.62497229  0.62445653  0.65296120  1
  Cu2+  Cu119  1  0.12537778  0.37450618  0.64081225  1
  Cu2+  Cu120  1  0.12624236  0.87519107  0.14280130  1
  Cu2+  Cu121  1  0.37441011  0.12434812  0.14110437  1
  Cu2+  Cu122  1  0.87589073  0.12409135  0.64447335  1
  Cu2+  Cu123  1  0.62435570  0.62521130  0.14058747  1
  Cu2+  Cu124  1  0.37494652  0.87596140  0.65359939  1
  Cu2+  Cu125  1  0.37399479  0.37562254  0.14586420  1
  Cu2+  Cu126  1  0.87535503  0.62516836  0.15209244  1
  Cu2+  Cu127  1  0.12465373  0.87508515  0.65007265  1
  O2-  O128  1  0.12500416  0.12590145  0.00746083  1
  O2-  O129  1  0.12540857  0.12288401  0.50716572  1
  O2-  O130  1  0.12567794  0.37702805  0.00762022  1
  O2-  O131  1  0.12387494  0.37543712  0.50692520  1
  O2-  O132  1  0.12425711  0.62311194  -0.00358961  1
  O2-  O133  1  0.12477086  0.62716324  0.50567430  1
  O2-  O134  1  0.12518126  0.87307138  0.00730912  1
  O2-  O135  1  0.12501087  0.87439199  0.49735582  1
  O2-  O136  1  0.37568921  0.12497787  0.00629836  1
  O2-  O137  1  0.37544147  0.12315782  0.50761896  1
  O2-  O138  1  0.37471514  0.37744108  0.00702453  1
  O2-  O139  1  0.37599557  0.37302720  0.50698221  1
  O2-  O140  1  0.37373929  0.62445069  -0.00367438  1
  O2-  O141  1  0.37494685  0.62671890  0.50744424  1
  O2-  O142  1  0.37570041  0.87302652  0.01605008  1
  O2-  O143  1  0.37696424  0.87692055  0.49847325  1
  O2-  O144  1  0.62498137  0.12653993  0.00617652  1
  O2-  O145  1  0.62438789  0.12229945  0.49555469  1
  O2-  O146  1  0.62402135  0.37658058  -0.00360609  1
  O2-  O147  1  0.62587666  0.37457611  0.50607201  1
  O2-  O148  1  0.62482811  0.62333934  0.00672903  1
  O2-  O149  1  0.62617763  0.62792499  0.49637311  1
  O2-  O150  1  0.62379096  0.87466647  0.01542341  1
  O2-  O151  1  0.62537859  0.87514194  0.49657329  1
  O2-  O152  1  0.87504855  0.12551417  0.00733961  1
  O2-  O153  1  0.87466273  0.12369428  0.50820542  1
  O2-  O154  1  0.87501055  0.37676683  0.00728990  1
  O2-  O155  1  0.87389787  0.37403473  0.50686114  1
  O2-  O156  1  0.87648294  0.62472060  -0.00383492  1
  O2-  O157  1  0.87317945  0.62765335  0.49640555  1
  O2-  O158  1  0.87523100  0.87212619  -0.00215479  1
  O2-  O159  1  0.87416957  0.87660325  0.51854437  1
  O2-  O160  1  0.12421078  0.00297105  0.16252624  1
  O2-  O161  1  0.12532302  -0.00115722  0.66902515  1
  O2-  O162  1  0.12546290  0.24993872  0.16332679  1
  O2-  O163  1  0.12555568  0.24984222  0.66865334  1
  O2-  O164  1  0.12445220  0.49864266  0.16603683  1
  O2-  O165  1  0.12448315  0.50250650  0.66095560  1
  O2-  O166  1  0.12550108  0.74828352  0.16429898  1
  O2-  O167  1  0.12517375  0.74897859  0.66174256  1
  O2-  O168  1  0.37545309  -0.00179387  0.16577472  1
  O2-  O169  1  0.37575549  0.00149820  0.66596128  1
  O2-  O170  1  0.37400419  0.25028244  0.16761612  1
  O2-  O171  1  0.37544261  0.24952360  0.66325795  1
  O2-  O172  1  0.37458359  0.50167113  0.16801177  1
  O2-  O173  1  0.37564465  0.49677014  0.66025101  1
  O2-  O174  1  0.37426799  0.74985605  0.16519921  1
  O2-  O175  1  0.37442107  0.75205645  0.66385484  1
  O2-  O176  1  0.62453745  0.00149814  0.16180484  1
  O2-  O177  1  0.62450501  0.00084493  0.66829081  1
  O2-  O178  1  0.62576454  0.24859927  0.16430040  1
  O2-  O179  1  0.62581986  0.25230728  0.66324873  1
  O2-  O180  1  0.62430056  0.49849455  0.16678292  1
  O2-  O181  1  0.62425888  0.49792180  0.65966370  1
  O2-  O182  1  0.62567975  0.75180028  0.16399891  1
  O2-  O183  1  0.62564587  0.74915551  0.66501834  1
  O2-  O184  1  0.87568582  0.00271714  0.16235591  1
  O2-  O185  1  0.87500563  -0.00177874  0.67150028  1
  O2-  O186  1  0.87461389  0.24651406  0.16541567  1
  O2-  O187  1  0.87390378  0.25265066  0.66565974  1
  O2-  O188  1  0.87618203  0.50086878  0.16735844  1
  O2-  O189  1  0.87570442  0.49872706  0.65953796  1
  O2-  O190  1  0.87476188  0.74994114  0.16239975  1
  O2-  O191  1  0.87485254  0.75045767  0.66479971  1
  O2-  O192  1  0.00029287  0.12623232  0.16181002  1
  O2-  O193  1  0.00092589  0.12558300  0.66865782  1
  O2-  O194  1  0.00345485  0.37427388  0.16525341  1
  O2-  O195  1  -0.00303927  0.37428402  0.66420806  1
  O2-  O196  1  -0.00013794  0.62494938  0.16589567  1
  O2-  O197  1  0.00202018  0.62540436  0.66036542  1
  O2-  O198  1  -0.00108666  0.87497324  0.16468122  1
  O2-  O199  1  0.00001508  0.87497219  0.66536771  1
  O2-  O200  1  0.24694147  0.12537244  0.16558032  1
  O2-  O201  1  0.25290479  0.12463397  0.66538577  1
  O2-  O202  1  0.24685642  0.37583760  0.16689306  1
  O2-  O203  1  0.25345570  0.37416214  0.66400561  1
  O2-  O204  1  0.24998831  0.62382924  0.16674695  1
  O2-  O205  1  0.24697183  0.62464009  0.66195395  1
  O2-  O206  1  0.25195076  0.87500630  0.16668273  1
  O2-  O207  1  0.24939579  0.87617373  0.66461500  1
  O2-  O208  1  0.50279896  0.12653720  0.16420685  1
  O2-  O209  1  0.49807382  0.12590245  0.66368587  1
  O2-  O210  1  0.50023679  0.37457805  0.16757111  1
  O2-  O211  1  0.50010487  0.37317109  0.65944381  1
  O2-  O212  1  0.49829324  0.62433451  0.16478966  1
  O2-  O213  1  0.50067888  0.62526408  0.66445787  1
  O2-  O214  1  0.49986100  0.87484427  0.16805007  1
  O2-  O215  1  0.50112278  0.87538367  0.66529533  1
  O2-  O216  1  0.74997427  0.12499833  0.16046640  1
  O2-  O217  1  0.74830537  0.12501844  0.66743252  1
  O2-  O218  1  0.74907007  0.37481004  0.16579398  1
  O2-  O219  1  0.74987661  0.37579870  0.66073188  1
  O2-  O220  1  0.75158916  0.62390325  0.16239679  1
  O2-  O221  1  0.75024381  0.62374775  0.66416943  1
  O2-  O222  1  0.74909907  0.87675011  0.16442129  1
  O2-  O223  1  0.75010963  0.87552042  0.66673565  1
  O2-  O224  1  0.12537023  -0.00231161  0.34476191  1
  O2-  O225  1  0.12486341  0.00245273  0.85361496  1
  O2-  O226  1  0.12489651  0.24954523  0.34759148  1
  O2-  O227  1  0.12428399  0.25035114  0.85339047  1
  O2-  O228  1  0.12526469  0.50310544  0.35114403  1
  O2-  O229  1  0.12511158  0.49898351  0.84388551  1
  O2-  O230  1  0.12410899  0.74954603  0.34693500  1
  O2-  O231  1  0.12452071  0.74775059  0.84489933  1
  O2-  O232  1  0.37502289  0.00119016  0.34656222  1
  O2-  O233  1  0.37458799  -0.00222983  0.85070350  1
  O2-  O234  1  0.37675896  0.24915031  0.35236637  1
  O2-  O235  1  0.37471781  0.25084009  0.84713853  1
  O2-  O236  1  0.37539692  0.49732464  0.35274107  1
  O2-  O237  1  0.37371743  0.50204504  0.84198676  1
  O2-  O238  1  0.37569469  0.75248548  0.34639874  1
  O2-  O239  1  0.37484864  0.74890481  0.84692317  1
  O2-  O240  1  0.62546101  -0.00014849  0.34180031  1
  O2-  O241  1  0.62573894  0.00191235  0.85349028  1
  O2-  O242  1  0.62420135  0.25123984  0.34882342  1
  O2-  O243  1  0.62490140  0.24880950  0.84722728  1
  O2-  O244  1  0.62565927  0.49881117  0.35042780  1
  O2-  O245  1  0.62518850  0.49878839  0.84225917  1
  O2-  O246  1  0.62547005  0.75042005  0.34326176  1
  O2-  O247  1  0.62478218  0.75079013  0.84992780  1
  O2-  O248  1  0.87458541  -0.00116879  0.34687032  1
  O2-  O249  1  0.87417963  0.00172861  0.85345139  1
  O2-  O250  1  0.87452224  0.25283387  0.34957646  1
  O2-  O251  1  0.87546764  0.24680355  0.85045938  1
  O2-  O252  1  0.87424391  0.49912747  0.35033648  1
  O2-  O253  1  0.87555681  0.50166559  0.84231127  1
  O2-  O254  1  0.87542189  0.74912963  0.34569170  1
  O2-  O255  1  0.87558507  0.74935745  0.84476375  1
  O2-  O256  1  -0.00001494  0.12465694  0.34674860  1
  O2-  O257  1  0.00011224  0.12543614  0.85224610  1
  O2-  O258  1  -0.00340532  0.37540608  0.34948861  1
  O2-  O259  1  0.00345996  0.37483344  0.84884845  1
  O2-  O260  1  0.00068196  0.62442726  0.34944494  1
  O2-  O261  1  0.00049062  0.62385225  0.84194735  1
  O2-  O262  1  0.00001933  0.87520463  0.34861576  1
  O2-  O263  1  -0.00240624  0.87586421  0.84607434  1
  O2-  O264  1  0.25370864  0.12562591  0.34927000  1
  O2-  O265  1  0.24645735  0.12580240  0.84948758  1
  O2-  O266  1  0.25374849  0.37381484  0.35095501  1
  O2-  O267  1  0.24643195  0.37464614  0.84786817  1
  O2-  O268  1  0.24746303  0.62542216  0.35105186  1
  O2-  O269  1  0.24913585  0.62469411  0.84304325  1
  O2-  O270  1  0.25050900  0.87506072  0.34696325  1
  O2-  O271  1  0.25050008  0.87450086  0.84919241  1
  O2-  O272  1  0.49855971  0.12508620  0.34683848  1
  O2-  O273  1  0.50271391  0.12474609  0.84907573  1
  O2-  O274  1  0.50078226  0.37445265  0.35204439  1
  O2-  O275  1  0.50133202  0.37493423  0.84287051  1
  O2-  O276  1  0.50261149  0.62422975  0.34682062  1
  O2-  O277  1  0.49822685  0.62484298  0.84754157  1
  O2-  O278  1  0.50046334  0.87656428  0.34564759  1
  O2-  O279  1  0.50019474  0.87523148  0.85033558  1
  O2-  O280  1  0.74778813  0.12590785  0.34399706  1
  O2-  O281  1  0.75011626  0.12578665  0.85183840  1
  O2-  O282  1  0.74939639  0.37427629  0.34992068  1
  O2-  O283  1  0.74829299  0.37391045  0.84418631  1
  O2-  O284  1  0.74982593  0.62461073  0.34345106  1
  O2-  O285  1  0.75167629  0.62489290  0.84782627  1
  O2-  O286  1  0.74979701  0.87529372  0.34660043  1
  O2-  O287  1  0.75138049  0.87531927  0.84831099  1
