# generated using pymatgen
data_BaYFeCuO5
_symmetry_space_group_name_H-M   'P 1'
_cell_length_a   15.67963317
_cell_length_b   15.67609202
_cell_length_c   15.51519077
_cell_angle_alpha   90.00094199
_cell_angle_beta   90.00362246
_cell_angle_gamma   89.99989293
_symmetry_Int_Tables_number   1
_chemical_formula_structural   BaYFeCuO5
_chemical_formula_sum   'Ba32 Y32 Fe32 Cu32 O160'
_cell_volume   3813.56208491
_cell_formula_units_Z   32
loop_
 _symmetry_equiv_pos_site_id
 _symmetry_equiv_pos_as_xyz
  1  'x, y, z'
loop_
 _atom_type_symbol
 _atom_type_oxidation_number
  Ba2+  2.0
  Y3+  3.0
  Fe3+  3.0
  Cu2+  2.0
  O2-  -2.0
loop_
 _atom_site_type_symbol
 _atom_site_label
 _atom_site_symmetry_multiplicity
 _atom_site_fract_x
 _atom_site_fract_y
 _atom_site_fract_z
 _atom_site_occupancy
  Ba2+  Ba0  1  0.00140647  -0.00076614  0.00642610  1
  Ba2+  Ba1  1  -0.00233781  0.00056286  0.51395561  1
  Ba2+  Ba2  1  -0.00395321  0.24579009  0.01312775  1
  Ba2+  Ba3  1  -0.00487536  0.24327742  0.49667672  1
  Ba2+  Ba4  1  -0.00194654  0.50607222  0.01664772  1
  Ba2+  Ba5  1  -0.00291354  0.50586773  0.51318225  1
  Ba2+  Ba6  1  0.00308144  0.74783731  0.00995648  1
  Ba2+  Ba7  1  0.00007161  0.75088285  0.52808852  1
  Ba2+  Ba8  1  0.24985961  -0.00013754  0.00606074  1
  Ba2+  Ba9  1  0.24692088  0.00634494  0.50614751  1
  Ba2+  Ba10  1  0.25666217  0.24860704  0.00725613  1
  Ba2+  Ba11  1  0.25763546  0.24667533  0.50274068  1
  Ba2+  Ba12  1  0.25493027  0.50390955  0.01199269  1
  Ba2+  Ba13  1  0.25525383  0.50202715  0.51830812  1
  Ba2+  Ba14  1  0.24744970  0.74728982  0.01064052  1
  Ba2+  Ba15  1  0.24417040  0.74631223  0.52317246  1
  Ba2+  Ba16  1  0.49632711  -0.00366335  0.01276140  1
  Ba2+  Ba17  1  0.50129341  0.00740914  0.50576787  1
  Ba2+  Ba18  1  0.49505206  0.25646091  0.01760276  1
  Ba2+  Ba19  1  0.49513088  0.25043440  0.50722492  1
  Ba2+  Ba20  1  0.49776437  0.49722858  0.01159385  1
  Ba2+  Ba21  1  0.49417469  0.49347366  0.51538836  1
  Ba2+  Ba22  1  0.49971805  0.74936733  0.00572177  1
  Ba2+  Ba23  1  0.49993119  0.75015086  0.51572320  1
  Ba2+  Ba24  1  0.75274095  -0.00374710  0.01207100  1
  Ba2+  Ba25  1  0.75407113  0.00202035  0.51291280  1
  Ba2+  Ba26  1  0.75288737  0.25502322  0.02300636  1
  Ba2+  Ba27  1  0.75197120  0.24636130  0.50029542  1
  Ba2+  Ba28  1  0.74898134  0.49972276  0.01849721  1
  Ba2+  Ba29  1  0.75422589  0.49562714  0.51028380  1
  Ba2+  Ba30  1  0.74959906  0.74917402  0.00534111  1
  Ba2+  Ba31  1  0.75571906  0.75475859  0.52222005  1
  Y3+  Y32  1  -0.00010823  0.00196591  0.25816552  1
  Y3+  Y33  1  -0.00103314  -0.00023903  0.75771441  1
  Y3+  Y34  1  -0.00231502  0.24863953  0.25903905  1
  Y3+  Y35  1  0.00048816  0.24823042  0.75830640  1
  Y3+  Y36  1  -0.00046887  0.50032538  0.25551953  1
  Y3+  Y37  1  0.00208342  0.50205395  0.75870763  1
  Y3+  Y38  1  0.00213795  0.74873458  0.25063210  1
  Y3+  Y39  1  0.00055142  0.74996417  0.76109664  1
  Y3+  Y40  1  0.25004180  0.00197426  0.25946524  1
  Y3+  Y41  1  0.24998728  0.00137902  0.75633488  1
  Y3+  Y42  1  0.25334830  0.24978015  0.26013875  1
  Y3+  Y43  1  0.25270829  0.25097815  0.75736447  1
  Y3+  Y44  1  0.25149705  0.49932902  0.25559669  1
  Y3+  Y45  1  0.25167908  0.49942641  0.75968206  1
  Y3+  Y46  1  0.24816442  0.74822495  0.25282234  1
  Y3+  Y47  1  0.24862272  0.74848503  0.75961705  1
  Y3+  Y48  1  0.49929948  0.00234261  0.25911165  1
  Y3+  Y49  1  0.49955225  0.00062723  0.75445939  1
  Y3+  Y50  1  0.49662504  0.25050868  0.26003313  1
  Y3+  Y51  1  0.49755361  0.25253012  0.75452269  1
  Y3+  Y52  1  0.49722079  0.49695301  0.25650002  1
  Y3+  Y53  1  0.49830712  0.49707644  0.75609008  1
  Y3+  Y54  1  0.49986880  0.75023475  0.25669656  1
  Y3+  Y55  1  0.50046528  0.75035658  0.75622236  1
  Y3+  Y56  1  0.75035540  0.00177894  0.25833026  1
  Y3+  Y57  1  0.75189682  -0.00068241  0.75554446  1
  Y3+  Y58  1  0.75192010  0.24920844  0.25971273  1
  Y3+  Y59  1  0.74953997  0.24968452  0.75399092  1
  Y3+  Y60  1  0.75153854  0.49816425  0.25756031  1
  Y3+  Y61  1  0.74844398  0.49972989  0.75513422  1
  Y3+  Y62  1  0.74968194  0.75060581  0.25414547  1
  Y3+  Y63  1  0.75071546  0.75167666  0.75782258  1
  Fe3+  Fe64  1  0.37665048  0.12485859  0.87642762  1
  Fe3+  Fe65  1  0.62463477  0.87602323  0.87563873  1
  Fe3+  Fe66  1  0.12461471  0.62567826  0.37593399  1
  Fe3+  Fe67  1  0.87367863  0.12527489  0.87766846  1
  Fe3+  Fe68  1  0.37441668  0.62568846  0.37720864  1
  Fe3+  Fe69  1  0.37349654  0.87369166  0.38059471  1
  Fe3+  Fe70  1  0.87460661  0.37520037  0.87726388  1
  Fe3+  Fe71  1  0.12395219  0.87362357  0.37728929  1
  Fe3+  Fe72  1  0.87641585  0.87343022  0.37508351  1
  Fe3+  Fe73  1  0.37631792  0.62507622  0.87506503  1
  Fe3+  Fe74  1  0.87551578  0.62714051  0.37561040  1
  Fe3+  Fe75  1  0.12527633  0.37452044  0.88139957  1
  Fe3+  Fe76  1  0.87378179  0.62420634  0.87587993  1
  Fe3+  Fe77  1  0.12560524  0.87555729  0.87613585  1
  Fe3+  Fe78  1  0.62538932  0.62491556  0.38055114  1
  Fe3+  Fe79  1  0.62501995  0.12643584  0.88086377  1
  Fe3+  Fe80  1  0.62458665  0.37519259  0.37736352  1
  Fe3+  Fe81  1  0.62534831  0.37479147  0.87669086  1
  Fe3+  Fe82  1  0.62586868  0.87454970  0.37823021  1
  Fe3+  Fe83  1  0.12512115  0.37586619  0.38036494  1
  Fe3+  Fe84  1  0.87553687  0.87500447  0.13542767  1
  Fe3+  Fe85  1  0.62505682  0.12603806  0.63727645  1
  Fe3+  Fe86  1  0.62426875  0.12535559  0.13556977  1
  Fe3+  Fe87  1  0.37413384  0.87604985  0.63496211  1
  Fe3+  Fe88  1  0.12484629  0.12630496  0.63874582  1
  Fe3+  Fe89  1  0.87620453  0.37383202  0.63647569  1
  Fe3+  Fe90  1  0.62391178  0.62475002  0.13842196  1
  Fe3+  Fe91  1  0.12575978  0.12508442  0.13903139  1
  Fe3+  Fe92  1  0.62518161  0.62411321  0.63451381  1
  Fe3+  Fe93  1  0.12532345  0.37397147  0.13602947  1
  Fe3+  Fe94  1  0.37423997  0.87508316  0.13868368  1
  Fe3+  Fe95  1  0.12478264  0.37441937  0.63492184  1
  Cu2+  Cu96  1  0.12535101  0.12580801  0.86453880  1
  Cu2+  Cu97  1  0.62480914  0.62410618  0.85981208  1
  Cu2+  Cu98  1  0.87596224  0.37601684  0.36353847  1
  Cu2+  Cu99  1  0.62504968  0.12505657  0.36258000  1
  Cu2+  Cu100  1  0.37401945  0.37653363  0.37232142  1
  Cu2+  Cu101  1  0.37523299  0.87534667  0.86013370  1
  Cu2+  Cu102  1  0.37540744  0.12411022  0.37307032  1
  Cu2+  Cu103  1  0.12474973  0.12499939  0.36368186  1
  Cu2+  Cu104  1  0.12530006  0.62366445  0.87362646  1
  Cu2+  Cu105  1  0.37551497  0.37485321  0.87233335  1
  Cu2+  Cu106  1  0.87461868  0.12286656  0.37181121  1
  Cu2+  Cu107  1  0.87494497  0.87523293  0.86584855  1
  Cu2+  Cu108  1  0.12559741  0.62391102  0.13952485  1
  Cu2+  Cu109  1  0.62512445  0.37426843  0.64607589  1
  Cu2+  Cu110  1  0.87597365  0.37483922  0.15326242  1
  Cu2+  Cu111  1  0.37454016  0.12511946  0.64271008  1
  Cu2+  Cu112  1  0.12504253  0.62404494  0.65535126  1
  Cu2+  Cu113  1  0.87484251  0.12400811  0.15177842  1
  Cu2+  Cu114  1  0.87464826  0.62440156  0.65416656  1
  Cu2+  Cu115  1  0.12538883  0.87565000  0.65341230  1
  Cu2+  Cu116  1  0.62466388  0.37433735  0.15440666  1
  Cu2+  Cu117  1  0.87591715  0.87527674  0.65553360  1
  Cu2+  Cu118  1  0.37356702  0.37427755  0.64251944  1
  Cu2+  Cu119  1  0.37358151  0.37482874  0.14274511  1
  Cu2+  Cu120  1  0.87384188  0.62545640  0.15050394  1
  Cu2+  Cu121  1  0.87570713  0.12608275  0.64294143  1
  Cu2+  Cu122  1  0.62487879  0.87586575  0.64865560  1
  Cu2+  Cu123  1  0.37476750  0.12463773  0.15340263  1
  Cu2+  Cu124  1  0.62437082  0.87566489  0.15131569  1
  Cu2+  Cu125  1  0.37551431  0.62556472  0.65249341  1
  Cu2+  Cu126  1  0.12549851  0.87618785  0.14974498  1
  Cu2+  Cu127  1  0.37588505  0.62525880  0.15135631  1
  O2-  O128  1  0.12571351  0.12548817  0.01904814  1
  O2-  O129  1  0.12368646  0.12592010  0.51870771  1
  O2-  O130  1  0.12476334  0.37407521  0.00858760  1
  O2-  O131  1  0.12421873  0.37593167  0.50803435  1
  O2-  O132  1  0.12512759  0.62355486  0.00629996  1
  O2-  O133  1  0.12349234  0.62685597  0.49559692  1
  O2-  O134  1  0.12662536  0.87600741  -0.00346935  1
  O2-  O135  1  0.12288407  0.87160002  0.49670903  1
  O2-  O136  1  0.37725227  0.12411618  -0.00328242  1
  O2-  O137  1  0.37517603  0.12338794  0.50700667  1
  O2-  O138  1  0.37480781  0.37506150  0.00780224  1
  O2-  O139  1  0.37296686  0.37622425  0.50739460  1
  O2-  O140  1  0.37770865  0.62588865  -0.00426826  1
  O2-  O141  1  0.37353519  0.62705496  0.49714894  1
  O2-  O142  1  0.37488389  0.87550463  0.01832079  1
  O2-  O143  1  0.37337779  0.87385378  0.50662593  1
  O2-  O144  1  0.62482141  0.12616628  0.00663862  1
  O2-  O145  1  0.62608909  0.12505824  0.51664440  1
  O2-  O146  1  0.62622843  0.37529482  -0.00338587  1
  O2-  O147  1  0.62544096  0.37574908  0.49753695  1
  O2-  O148  1  0.62422382  0.62504458  0.01833151  1
  O2-  O149  1  0.62615653  0.62522199  0.50597818  1
  O2-  O150  1  0.62389329  0.87500694  -0.00427881  1
  O2-  O151  1  0.62699341  0.87373834  0.49773000  1
  O2-  O152  1  0.87244919  0.12555280  -0.00226150  1
  O2-  O153  1  0.87518987  0.12379171  0.50737019  1
  O2-  O154  1  0.87374739  0.37588788  -0.00296196  1
  O2-  O155  1  0.87787249  0.37422645  0.51623247  1
  O2-  O156  1  0.87212982  0.62341082  -0.00400881  1
  O2-  O157  1  0.87629886  0.62817111  0.49550278  1
  O2-  O158  1  0.87467722  0.87581911  0.01475621  1
  O2-  O159  1  0.87714427  0.87251288  0.49503396  1
  O2-  O160  1  0.12564208  0.00113340  0.16861236  1
  O2-  O161  1  0.12519023  0.00053211  0.66583468  1
  O2-  O162  1  0.12424842  0.25062962  0.16877990  1
  O2-  O163  1  0.12472336  0.25184048  0.66829296  1
  O2-  O164  1  0.12464943  0.49670759  0.16461851  1
  O2-  O165  1  0.12480561  0.49876701  0.66301230  1
  O2-  O166  1  0.12567766  0.75121104  0.15928882  1
  O2-  O167  1  0.12514123  0.74948418  0.66548929  1
  O2-  O168  1  0.37486024  -0.00031831  0.16864628  1
  O2-  O169  1  0.37457721  -0.00235792  0.66358766  1
  O2-  O170  1  0.37487751  0.24831709  0.16726741  1
  O2-  O171  1  0.37442656  0.24984396  0.66552513  1
  O2-  O172  1  0.37462674  0.50144733  0.16417142  1
  O2-  O173  1  0.37458113  0.50148150  0.66434447  1
  O2-  O174  1  0.37613693  0.75039534  0.16562218  1
  O2-  O175  1  0.37530743  0.75167669  0.66246184  1
  O2-  O176  1  0.62464063  0.00210208  0.16244417  1
  O2-  O177  1  0.62524469  0.00068518  0.66748457  1
  O2-  O178  1  0.62470199  0.24883402  0.16338108  1
  O2-  O179  1  0.62478073  0.24989079  0.66748427  1
  O2-  O180  1  0.62545530  0.49913254  0.16688727  1
  O2-  O181  1  0.62506398  0.50098505  0.66043675  1
  O2-  O182  1  0.62379044  0.74991958  0.16643242  1
  O2-  O183  1  0.62506436  0.74883496  0.66202472  1
  O2-  O184  1  0.87448675  -0.00131992  0.16629233  1
  O2-  O185  1  0.87539609  -0.00110018  0.66519006  1
  O2-  O186  1  0.87538966  0.24924359  0.16591707  1
  O2-  O187  1  0.87608103  0.25213869  0.66852576  1
  O2-  O188  1  0.87462289  0.50041588  0.16473626  1
  O2-  O189  1  0.87523920  0.49922251  0.66301089  1
  O2-  O190  1  0.87416195  0.75080236  0.16105235  1
  O2-  O191  1  0.87491908  0.74967741  0.66558971  1
  O2-  O192  1  -0.00002647  0.12521819  0.16531253  1
  O2-  O193  1  0.00187675  0.12498257  0.66977049  1
  O2-  O194  1  0.00130239  0.37439586  0.16341767  1
  O2-  O195  1  0.00170622  0.37607309  0.66789411  1
  O2-  O196  1  -0.00193548  0.62452175  0.16098855  1
  O2-  O197  1  -0.00044550  0.62449319  0.66612411  1
  O2-  O198  1  0.00034507  0.87509865  0.16097083  1
  O2-  O199  1  0.00068887  0.87487938  0.66641012  1
  O2-  O200  1  0.25010537  0.12552401  0.16801549  1
  O2-  O201  1  0.24834919  0.12561354  0.66748667  1
  O2-  O202  1  0.24717878  0.37409658  0.16571702  1
  O2-  O203  1  0.24650852  0.37574850  0.66692333  1
  O2-  O204  1  0.25199101  0.62494596  0.16284938  1
  O2-  O205  1  0.25033810  0.62490080  0.66519948  1
  O2-  O206  1  0.25024483  0.87515928  0.16798720  1
  O2-  O207  1  0.25110921  0.87444258  0.66286957  1
  O2-  O208  1  0.50085726  0.12463588  0.16324555  1
  O2-  O209  1  0.50125001  0.12483933  0.66533988  1
  O2-  O210  1  0.49998104  0.37494577  0.16560867  1
  O2-  O211  1  0.50046695  0.37501388  0.66328872  1
  O2-  O212  1  0.50053721  0.62443034  0.16953839  1
  O2-  O213  1  0.50190869  0.62527358  0.66010545  1
  O2-  O214  1  0.49937897  0.87606292  0.16900775  1
  O2-  O215  1  0.49797853  0.87518593  0.66118571  1
  O2-  O216  1  0.74847465  0.12514145  0.16288538  1
  O2-  O217  1  0.74876871  0.12506879  0.66656389  1
  O2-  O218  1  0.75096154  0.37459171  0.16505009  1
  O2-  O219  1  0.75099869  0.37513966  0.66306641  1
  O2-  O220  1  0.74874664  0.62474119  0.16764664  1
  O2-  O221  1  0.74846708  0.62491456  0.66129630  1
  O2-  O222  1  0.74982343  0.87504455  0.16335018  1
  O2-  O223  1  0.75084772  0.87517010  0.66359691  1
  O2-  O224  1  0.12510907  -0.00047028  0.35059152  1
  O2-  O225  1  0.12535754  0.00062159  0.84824021  1
  O2-  O226  1  0.12445887  0.25115608  0.35342106  1
  O2-  O227  1  0.12503957  0.25147285  0.85106039  1
  O2-  O228  1  0.12425587  0.49975989  0.34775631  1
  O2-  O229  1  0.12498843  0.49603690  0.84767471  1
  O2-  O230  1  0.12518506  0.74943370  0.33997539  1
  O2-  O231  1  0.12535563  0.75141188  0.84840604  1
  O2-  O232  1  0.37565459  -0.00402130  0.35152899  1
  O2-  O233  1  0.37573657  0.00068727  0.84583475  1
  O2-  O234  1  0.37468849  0.25034219  0.35094767  1
  O2-  O235  1  0.37541975  0.24818656  0.84718311  1
  O2-  O236  1  0.37490804  0.50271259  0.34608391  1
  O2-  O237  1  0.37580109  0.50094007  0.84678941  1
  O2-  O238  1  0.37452941  0.75090940  0.34630253  1
  O2-  O239  1  0.37614812  0.75027246  0.84579640  1
  O2-  O240  1  0.62423407  -0.00110496  0.34650245  1
  O2-  O241  1  0.62497536  0.00219751  0.84961175  1
  O2-  O242  1  0.62575205  0.25042282  0.34777380  1
  O2-  O243  1  0.62540353  0.24884568  0.84827195  1
  O2-  O244  1  0.62518021  0.50164008  0.34880160  1
  O2-  O245  1  0.62500729  0.49910971  0.84371004  1
  O2-  O246  1  0.62531965  0.74865375  0.34741852  1
  O2-  O247  1  0.62471483  0.75036254  0.84651133  1
  O2-  O248  1  0.87472114  -0.00298115  0.34693141  1
  O2-  O249  1  0.87454807  0.00128267  0.84810226  1
  O2-  O250  1  0.87486281  0.25067978  0.35059794  1
  O2-  O251  1  0.87475387  0.25000377  0.84676503  1
  O2-  O252  1  0.87545102  0.50182304  0.34795552  1
  O2-  O253  1  0.87470094  0.49912388  0.84295939  1
  O2-  O254  1  0.87477619  0.74989019  0.33938319  1
  O2-  O255  1  0.87399458  0.74942881  0.84866685  1
  O2-  O256  1  0.00086129  0.12494415  0.34753737  1
  O2-  O257  1  -0.00067037  0.12560996  0.85121712  1
  O2-  O258  1  0.00208635  0.37489328  0.34833096  1
  O2-  O259  1  0.00038671  0.37426710  0.84989299  1
  O2-  O260  1  0.00033149  0.62488053  0.34193922  1
  O2-  O261  1  -0.00205165  0.62448130  0.84873921  1
  O2-  O262  1  0.00044826  0.87452917  0.34113247  1
  O2-  O263  1  0.00073782  0.87559316  0.84931563  1
  O2-  O264  1  0.24879826  0.12463458  0.35063126  1
  O2-  O265  1  0.25085851  0.12501027  0.84915787  1
  O2-  O266  1  0.24673652  0.37551122  0.34907596  1
  O2-  O267  1  0.24801699  0.37431804  0.85158636  1
  O2-  O268  1  0.24931781  0.62492575  0.34399070  1
  O2-  O269  1  0.25219776  0.62476625  0.84801165  1
  O2-  O270  1  0.25028448  0.87492515  0.34958575  1
  O2-  O271  1  0.25007310  0.87584522  0.84584284  1
  O2-  O272  1  0.50129266  0.12478576  0.34737529  1
  O2-  O273  1  0.50208425  0.12469148  0.84665924  1
  O2-  O274  1  0.50096244  0.37527738  0.34808468  1
  O2-  O275  1  0.50176966  0.37472999  0.84614321  1
  O2-  O276  1  0.50128871  0.62648905  0.35108550  1
  O2-  O277  1  0.50002249  0.62546769  0.84330945  1
  O2-  O278  1  0.49903044  0.87347801  0.35177236  1
  O2-  O279  1  0.50074384  0.87544140  0.84416395  1
  O2-  O280  1  0.74883858  0.12452382  0.34679200  1
  O2-  O281  1  0.74837368  0.12502025  0.84736077  1
  O2-  O282  1  0.74994644  0.37539839  0.34877504  1
  O2-  O283  1  0.75018659  0.37493711  0.84317985  1
  O2-  O284  1  0.74896459  0.62486462  0.34886449  1
  O2-  O285  1  0.74995158  0.62500907  0.84407791  1
  O2-  O286  1  0.75014085  0.87449729  0.34441043  1
  O2-  O287  1  0.74885990  0.87528978  0.84673269  1
