# generated using pymatgen
data_BaYFeCuO5
_symmetry_space_group_name_H-M   'P 1'
_cell_length_a   15.67357437
_cell_length_b   15.67110593
_cell_length_c   15.49110919
_cell_angle_alpha   89.99922602
_cell_angle_beta   89.99972349
_cell_angle_gamma   89.99339436
_symmetry_Int_Tables_number   1
_chemical_formula_structural   BaYFeCuO5
_chemical_formula_sum   'Ba32 Y32 Fe32 Cu32 O160'
_cell_volume   3804.96098215
_cell_formula_units_Z   32
loop_
 _symmetry_equiv_pos_site_id
 _symmetry_equiv_pos_as_xyz
  1  'x, y, z'
loop_
 _atom_type_symbol
 _atom_type_oxidation_number
  Ba2+  2.0
  Y3+  3.0
  Fe3+  3.0
  Cu2+  2.0
  O2-  -2.0
loop_
 _atom_site_type_symbol
 _atom_site_label
 _atom_site_symmetry_multiplicity
 _atom_site_fract_x
 _atom_site_fract_y
 _atom_site_fract_z
 _atom_site_occupancy
  Ba2+  Ba0  1  -0.00260031  -0.00078119  0.00712103  1
  Ba2+  Ba1  1  0.01267118  0.00225918  0.51085488  1
  Ba2+  Ba2  1  -0.00709890  0.24625096  0.01438468  1
  Ba2+  Ba3  1  0.00599572  0.25516763  0.51187982  1
  Ba2+  Ba4  1  -0.01199159  0.50228573  0.01242109  1
  Ba2+  Ba5  1  -0.00361745  0.49925984  0.50605771  1
  Ba2+  Ba6  1  -0.00889676  0.75166152  0.00633402  1
  Ba2+  Ba7  1  0.00347866  0.74253397  0.50530300  1
  Ba2+  Ba8  1  0.24556052  0.00406048  0.00117047  1
  Ba2+  Ba9  1  0.24964321  0.00151519  0.52269439  1
  Ba2+  Ba10  1  0.25510103  0.24614599  0.00106707  1
  Ba2+  Ba11  1  0.24852412  0.24916888  0.52186562  1
  Ba2+  Ba12  1  0.25850832  0.49912885  0.01651779  1
  Ba2+  Ba13  1  0.25214234  0.50148886  0.51132799  1
  Ba2+  Ba14  1  0.24847280  0.75140998  0.01578029  1
  Ba2+  Ba15  1  0.25255255  0.74782513  0.51211509  1
  Ba2+  Ba16  1  0.50777112  0.00646040  -0.00219047  1
  Ba2+  Ba17  1  0.49237496  -0.00374716  0.52375428  1
  Ba2+  Ba18  1  0.50793410  0.25121599  0.00585652  1
  Ba2+  Ba19  1  0.49320796  0.25415407  0.52301194  1
  Ba2+  Ba20  1  0.50457984  0.49662341  0.02040036  1
  Ba2+  Ba21  1  0.49299184  0.49805360  0.51571482  1
  Ba2+  Ba22  1  0.50634766  0.74542463  0.01310598  1
  Ba2+  Ba23  1  0.49241033  0.75115572  0.51706808  1
  Ba2+  Ba24  1  0.74865296  0.00195356  -0.00020965  1
  Ba2+  Ba25  1  0.74488535  -0.00405126  0.51152136  1
  Ba2+  Ba26  1  0.74611121  0.25084624  0.01782591  1
  Ba2+  Ba27  1  0.75249712  0.26025493  0.51118784  1
  Ba2+  Ba28  1  0.74879366  0.49985083  0.01958081  1
  Ba2+  Ba29  1  0.75831213  0.49705752  0.51047107  1
  Ba2+  Ba30  1  0.75266207  0.74811902  -0.00137856  1
  Ba2+  Ba31  1  0.75239469  0.74581484  0.51072411  1
  Y3+  Y32  1  0.00191174  0.00104318  0.25901925  1
  Y3+  Y33  1  0.00256878  0.00099716  0.75630936  1
  Y3+  Y34  1  -0.00151663  0.25008202  0.26114093  1
  Y3+  Y35  1  0.00165108  0.25098506  0.75466113  1
  Y3+  Y36  1  -0.00454815  0.50107524  0.25975562  1
  Y3+  Y37  1  -0.00329848  0.49968208  0.75517756  1
  Y3+  Y38  1  -0.00068761  0.74766482  0.25773671  1
  Y3+  Y39  1  -0.00248008  0.74802814  0.75764006  1
  Y3+  Y40  1  0.24795651  0.00096185  0.25658376  1
  Y3+  Y41  1  0.24920056  0.00269432  0.75812870  1
  Y3+  Y42  1  0.24960309  0.24947650  0.25620775  1
  Y3+  Y43  1  0.24924996  0.24824493  0.75787803  1
  Y3+  Y44  1  0.25264781  0.50202696  0.25702987  1
  Y3+  Y45  1  0.25063066  0.49920444  0.75609292  1
  Y3+  Y46  1  0.25074672  0.74724994  0.25761383  1
  Y3+  Y47  1  0.25043385  0.75017737  0.75603494  1
  Y3+  Y48  1  0.50100777  0.00171009  0.25476953  1
  Y3+  Y49  1  0.50104980  0.00073541  0.76012562  1
  Y3+  Y50  1  0.50195424  0.25113719  0.25155660  1
  Y3+  Y51  1  0.50142779  0.25039618  0.76127907  1
  Y3+  Y52  1  0.49949442  0.50040992  0.25526310  1
  Y3+  Y53  1  0.50094421  0.49805462  0.75563058  1
  Y3+  Y54  1  0.49835382  0.74661383  0.25751297  1
  Y3+  Y55  1  0.50069291  0.75055295  0.75568993  1
  Y3+  Y56  1  0.74934142  0.00285241  0.25799361  1
  Y3+  Y57  1  0.74806111  -0.00183409  0.75742128  1
  Y3+  Y58  1  0.75012544  0.25202482  0.25658230  1
  Y3+  Y59  1  0.74779040  0.25377040  0.75731439  1
  Y3+  Y60  1  0.75191070  0.49947765  0.25896995  1
  Y3+  Y61  1  0.75168402  0.49903256  0.75516295  1
  Y3+  Y62  1  0.75119032  0.74576874  0.25873100  1
  Y3+  Y63  1  0.75155460  0.74892387  0.75604441  1
  Fe3+  Fe64  1  0.12694775  0.87425070  0.37644116  1
  Fe3+  Fe65  1  0.62338810  0.37488886  0.37790255  1
  Fe3+  Fe66  1  0.12633912  0.37580463  0.37529519  1
  Fe3+  Fe67  1  0.87370092  0.37503703  0.87643000  1
  Fe3+  Fe68  1  0.37569093  0.62499265  0.87774943  1
  Fe3+  Fe69  1  0.12395147  0.37532685  0.88070763  1
  Fe3+  Fe70  1  0.62305247  0.87471342  0.37931528  1
  Fe3+  Fe71  1  0.37483042  0.12542254  0.37739589  1
  Fe3+  Fe72  1  0.87443973  0.12618739  0.87329584  1
  Fe3+  Fe73  1  0.12458094  0.62383706  0.88095067  1
  Fe3+  Fe74  1  0.87536633  0.87536018  0.38139582  1
  Fe3+  Fe75  1  0.62273199  0.12605135  0.38173912  1
  Fe3+  Fe76  1  0.37502087  0.37375948  0.37410631  1
  Fe3+  Fe77  1  0.37578212  0.87470194  0.87922395  1
  Fe3+  Fe78  1  0.62356671  0.62395163  0.38033449  1
  Fe3+  Fe79  1  0.37617455  0.37559046  0.87664506  1
  Fe3+  Fe80  1  0.62539235  0.62314281  0.87484111  1
  Fe3+  Fe81  1  0.37485538  0.87597885  0.37446577  1
  Fe3+  Fe82  1  0.87527040  0.12507622  0.38170634  1
  Fe3+  Fe83  1  0.12418186  0.87409120  0.87674661  1
  Fe3+  Fe84  1  0.12431055  0.37490567  0.13379914  1
  Fe3+  Fe85  1  0.12402217  0.12520293  0.13679311  1
  Fe3+  Fe86  1  0.62497852  0.62406753  0.63440821  1
  Fe3+  Fe87  1  0.12352503  0.62488731  0.13520934  1
  Fe3+  Fe88  1  0.87400780  0.87575442  0.14091393  1
  Fe3+  Fe89  1  0.12463700  0.62424572  0.63915434  1
  Fe3+  Fe90  1  0.87518600  0.12537440  0.63395441  1
  Fe3+  Fe91  1  0.62488497  0.12590376  0.63560819  1
  Fe3+  Fe92  1  0.37514804  0.87649907  0.13279894  1
  Fe3+  Fe93  1  0.37588988  0.12487701  0.13443536  1
  Fe3+  Fe94  1  0.62644926  0.87473122  0.13778482  1
  Fe3+  Fe95  1  0.87681216  0.87519295  0.63494336  1
  Cu2+  Cu96  1  0.87521986  0.87545036  0.85828314  1
  Cu2+  Cu97  1  0.87434410  0.62525510  0.37407115  1
  Cu2+  Cu98  1  0.12698216  0.12582848  0.37385090  1
  Cu2+  Cu99  1  0.62594625  0.37672498  0.87191369  1
  Cu2+  Cu100  1  0.37581431  0.62456922  0.37284886  1
  Cu2+  Cu101  1  0.87431117  0.62363957  0.87177716  1
  Cu2+  Cu102  1  0.37561322  0.12511697  0.86454527  1
  Cu2+  Cu103  1  0.62532445  0.87335392  0.86194481  1
  Cu2+  Cu104  1  0.87482954  0.37422786  0.37214775  1
  Cu2+  Cu105  1  0.12337244  0.12610670  0.86478036  1
  Cu2+  Cu106  1  0.62741115  0.12642234  0.86935312  1
  Cu2+  Cu107  1  0.12562545  0.62413100  0.36123879  1
  Cu2+  Cu108  1  0.12534487  0.37623119  0.65255609  1
  Cu2+  Cu109  1  0.37557646  0.12539365  0.65639020  1
  Cu2+  Cu110  1  0.62520447  0.87438222  0.64987554  1
  Cu2+  Cu111  1  0.62576241  0.37522565  0.14333832  1
  Cu2+  Cu112  1  0.87576470  0.37462236  0.15320518  1
  Cu2+  Cu113  1  0.37424796  0.37458118  0.65556315  1
  Cu2+  Cu114  1  0.87559723  0.62482362  0.64152888  1
  Cu2+  Cu115  1  0.12432451  0.87508753  0.14892197  1
  Cu2+  Cu116  1  0.37403647  0.87531319  0.65800954  1
  Cu2+  Cu117  1  0.12481343  0.87385436  0.65269983  1
  Cu2+  Cu118  1  0.62478905  0.37543847  0.64716454  1
  Cu2+  Cu119  1  0.87416034  0.62609701  0.14346412  1
  Cu2+  Cu120  1  0.62582891  0.62560235  0.15390875  1
  Cu2+  Cu121  1  0.37518689  0.62569280  0.14730706  1
  Cu2+  Cu122  1  0.37455256  0.37372903  0.14764085  1
  Cu2+  Cu123  1  0.12494867  0.12571175  0.64337158  1
  Cu2+  Cu124  1  0.62609396  0.12421666  0.14216411  1
  Cu2+  Cu125  1  0.87498713  0.12452229  0.15543762  1
  Cu2+  Cu126  1  0.37446621  0.62475422  0.64291492  1
  Cu2+  Cu127  1  0.87596569  0.37449886  0.64177121  1
  O2-  O128  1  0.12240862  0.12529874  0.01642567  1
  O2-  O129  1  0.12750815  0.12578280  0.50821189  1
  O2-  O130  1  0.12329437  0.37390257  0.00670748  1
  O2-  O131  1  0.12841574  0.37662543  0.49583378  1
  O2-  O132  1  0.12405535  0.62541204  0.00738601  1
  O2-  O133  1  0.12619492  0.62378691  0.51852534  1
  O2-  O134  1  0.12283790  0.87485491  -0.00308925  1
  O2-  O135  1  0.12964103  0.87413082  0.49647397  1
  O2-  O136  1  0.37577125  0.12316583  0.01416811  1
  O2-  O137  1  0.37448331  0.12513333  0.49740641  1
  O2-  O138  1  0.37599632  0.37581212  -0.00314131  1
  O2-  O139  1  0.37303492  0.37322574  0.49431257  1
  O2-  O140  1  0.37630400  0.62589067  -0.00229418  1
  O2-  O141  1  0.37464483  0.62504629  0.50731998  1
  O2-  O142  1  0.37618487  0.87510136  0.00584105  1
  O2-  O143  1  0.37315086  0.87645241  0.49463609  1
  O2-  O144  1  0.62788086  0.12462438  0.00661312  1
  O2-  O145  1  0.62142707  0.12574296  0.50724563  1
  O2-  O146  1  0.62633072  0.37634848  0.00750911  1
  O2-  O147  1  0.62087312  0.37363322  0.49789992  1
  O2-  O148  1  0.62578903  0.62421200  -0.00466129  1
  O2-  O149  1  0.62291479  0.62452516  0.50673923  1
  O2-  O150  1  0.62854958  0.87422221  0.01776736  1
  O2-  O151  1  0.61929301  0.87621067  0.49918516  1
  O2-  O152  1  0.87384122  0.12494030  -0.00618235  1
  O2-  O153  1  0.87598581  0.12450360  0.50752666  1
  O2-  O154  1  0.87377779  0.37398382  -0.00311955  1
  O2-  O155  1  0.87686582  0.37395540  0.50659315  1
  O2-  O156  1  0.87356401  0.62555469  0.00755631  1
  O2-  O157  1  0.87570491  0.62630434  0.50748566  1
  O2-  O158  1  0.87252561  0.87629180  0.02047633  1
  O2-  O159  1  0.87704502  0.87528118  0.50799249  1
  O2-  O160  1  0.12444893  0.00107725  0.16613786  1
  O2-  O161  1  0.12570011  -0.00160715  0.66544860  1
  O2-  O162  1  0.12385462  0.25099434  0.16435799  1
  O2-  O163  1  0.12533363  0.25226323  0.66546471  1
  O2-  O164  1  0.12533497  0.49989255  0.15868691  1
  O2-  O165  1  0.12555253  0.50030600  0.66932819  1
  O2-  O166  1  0.12481102  0.74828253  0.16302290  1
  O2-  O167  1  0.12474073  0.74927836  0.66780915  1
  O2-  O168  1  0.37463390  -0.00066178  0.16445646  1
  O2-  O169  1  0.37483986  -0.00013281  0.66724873  1
  O2-  O170  1  0.37453673  0.24871979  0.16289504  1
  O2-  O171  1  0.37483254  0.25042761  0.66554286  1
  O2-  O172  1  0.37457168  0.49979352  0.16225685  1
  O2-  O173  1  0.37397234  0.49798721  0.66391468  1
  O2-  O174  1  0.37496007  0.75265197  0.16300464  1
  O2-  O175  1  0.37473463  0.75157937  0.66642750  1
  O2-  O176  1  0.62603369  -0.00216977  0.16934942  1
  O2-  O177  1  0.62470454  0.00172871  0.66370886  1
  O2-  O178  1  0.62589918  0.25008253  0.16489370  1
  O2-  O179  1  0.62468688  0.24868933  0.66356555  1
  O2-  O180  1  0.62547291  0.50179115  0.16587242  1
  O2-  O181  1  0.62436891  0.50095211  0.66058274  1
  O2-  O182  1  0.62448566  0.75060806  0.16870113  1
  O2-  O183  1  0.62481550  0.74829842  0.66246402  1
  O2-  O184  1  0.87498130  -0.00040298  0.17125093  1
  O2-  O185  1  0.87468684  0.00028071  0.66139264  1
  O2-  O186  1  0.87585252  0.24939469  0.16528792  1
  O2-  O187  1  0.87476426  0.24693440  0.66169435  1
  O2-  O188  1  0.87466348  0.49914377  0.16550924  1
  O2-  O189  1  0.87555568  0.49955480  0.66337767  1
  O2-  O190  1  0.87535375  0.75186445  0.16992618  1
  O2-  O191  1  0.87569073  0.75293803  0.66417220  1
  O2-  O192  1  0.00037963  0.12483968  0.16855460  1
  O2-  O193  1  -0.00243798  0.12454755  0.66288925  1
  O2-  O194  1  0.00157446  0.37527422  0.16402253  1
  O2-  O195  1  0.00164230  0.37494043  0.66636137  1
  O2-  O196  1  0.00225961  0.62477537  0.16518118  1
  O2-  O197  1  0.00133761  0.62496076  0.66891471  1
  O2-  O198  1  -0.00044982  0.87561986  0.16867289  1
  O2-  O199  1  -0.00109209  0.87600261  0.66315006  1
  O2-  O200  1  0.24955126  0.12496136  0.16370472  1
  O2-  O201  1  0.25137804  0.12520441  0.66779745  1
  O2-  O202  1  0.24777826  0.37476945  0.15897664  1
  O2-  O203  1  0.25030982  0.37468605  0.66801770  1
  O2-  O204  1  0.24809521  0.62530597  0.16111767  1
  O2-  O205  1  0.24839510  0.62520869  0.66951442  1
  O2-  O206  1  0.25120403  0.87537785  0.15699384  1
  O2-  O207  1  0.24961248  0.87487493  0.66815078  1
  O2-  O208  1  0.49853846  0.12425008  0.16535838  1
  O2-  O209  1  0.50162042  0.12466640  0.66431053  1
  O2-  O210  1  0.49852595  0.37524674  0.16263710  1
  O2-  O211  1  0.49893968  0.37486461  0.66391987  1
  O2-  O212  1  0.50022449  0.62544370  0.16346935  1
  O2-  O213  1  0.50231381  0.62516094  0.66252440  1
  O2-  O214  1  0.49901630  0.87523452  0.16181194  1
  O2-  O215  1  0.49923134  0.87528213  0.66592161  1
  O2-  O216  1  0.75181005  0.12524598  0.17138471  1
  O2-  O217  1  0.74949963  0.12403425  0.65702243  1
  O2-  O218  1  0.75233208  0.37481339  0.16804594  1
  O2-  O219  1  0.74905282  0.37485701  0.66221678  1
  O2-  O220  1  0.74919769  0.62509904  0.16994805  1
  O2-  O221  1  0.74765463  0.62517815  0.66049306  1
  O2-  O222  1  0.74996884  0.87475796  0.17625621  1
  O2-  O223  1  0.75237237  0.87540909  0.66057695  1
  O2-  O224  1  0.12529704  -0.00208185  0.34755425  1
  O2-  O225  1  0.12439731  -0.00041717  0.84890905  1
  O2-  O226  1  0.12540581  0.25228798  0.34547551  1
  O2-  O227  1  0.12492048  0.25221201  0.85002055  1
  O2-  O228  1  0.12533232  0.49986131  0.34295354  1
  O2-  O229  1  0.12532900  0.49974709  0.85250791  1
  O2-  O230  1  0.12538048  0.74975095  0.34665858  1
  O2-  O231  1  0.12519329  0.74831624  0.84980705  1
  O2-  O232  1  0.37563022  0.00049129  0.34322120  1
  O2-  O233  1  0.37548615  -0.00151953  0.85198331  1
  O2-  O234  1  0.37531262  0.24964207  0.34235150  1
  O2-  O235  1  0.37461628  0.25054004  0.84896724  1
  O2-  O236  1  0.37546652  0.49782177  0.34594162  1
  O2-  O237  1  0.37456058  0.50055183  0.84504551  1
  O2-  O238  1  0.37499162  0.75179529  0.34642728  1
  O2-  O239  1  0.37481018  0.75090028  0.84866272  1
  O2-  O240  1  0.62438975  0.00156553  0.35019363  1
  O2-  O241  1  0.62612110  -0.00188183  0.84861935  1
  O2-  O242  1  0.62514060  0.24844669  0.34728781  1
  O2-  O243  1  0.62567860  0.25110804  0.84750903  1
  O2-  O244  1  0.62396371  0.50021700  0.34909109  1
  O2-  O245  1  0.62468461  0.50186368  0.84223911  1
  O2-  O246  1  0.62502803  0.74950885  0.35064358  1
  O2-  O247  1  0.62527419  0.74878192  0.84612668  1
  O2-  O248  1  0.87484473  0.00001145  0.35333780  1
  O2-  O249  1  0.87512118  0.00028830  0.84502389  1
  O2-  O250  1  0.87405273  0.24640560  0.34956786  1
  O2-  O251  1  0.87543678  0.25120305  0.84239837  1
  O2-  O252  1  0.87476832  0.50005614  0.34977583  1
  O2-  O253  1  0.87572664  0.49782777  0.84543963  1
  O2-  O254  1  0.87433840  0.75346410  0.35190254  1
  O2-  O255  1  0.87494865  0.75124526  0.84858261  1
  O2-  O256  1  -0.00227769  0.12463586  0.35235230  1
  O2-  O257  1  -0.00127784  0.12534611  0.84478775  1
  O2-  O258  1  0.00137335  0.37527542  0.34754698  1
  O2-  O259  1  0.00109703  0.37505017  0.84897349  1
  O2-  O260  1  0.00074132  0.62543926  0.34916491  1
  O2-  O261  1  0.00263445  0.62503120  0.85166583  1
  O2-  O262  1  -0.00066276  0.87473056  0.35128917  1
  O2-  O263  1  0.00056446  0.87472373  0.84614571  1
  O2-  O264  1  0.25239610  0.12499602  0.34317823  1
  O2-  O265  1  0.24899879  0.12492133  0.85257460  1
  O2-  O266  1  0.25075902  0.37556466  0.34010162  1
  O2-  O267  1  0.24866680  0.37499547  0.85160975  1
  O2-  O268  1  0.24953461  0.62477469  0.34545455  1
  O2-  O269  1  0.24928672  0.62501859  0.85120797  1
  O2-  O270  1  0.25066465  0.87455173  0.33923393  1
  O2-  O271  1  0.25109631  0.87521023  0.85158635  1
  O2-  O272  1  0.50114961  0.12502059  0.34614833  1
  O2-  O273  1  0.50068882  0.12474230  0.84842697  1
  O2-  O274  1  0.50009115  0.37410770  0.34304481  1
  O2-  O275  1  0.49881930  0.37523014  0.84690966  1
  O2-  O276  1  0.50287239  0.62523433  0.34734478  1
  O2-  O277  1  0.49920081  0.62588909  0.84382493  1
  O2-  O278  1  0.50002787  0.87523188  0.34181321  1
  O2-  O279  1  0.49835455  0.87480609  0.85067304  1
  O2-  O280  1  0.74863105  0.12363592  0.35620806  1
  O2-  O281  1  0.75229263  0.12440498  0.83971968  1
  O2-  O282  1  0.74747244  0.37451337  0.35081558  1
  O2-  O283  1  0.75149123  0.37561606  0.84420733  1
  O2-  O284  1  0.74634617  0.62494953  0.35315344  1
  O2-  O285  1  0.74891087  0.62568202  0.84321014  1
  O2-  O286  1  0.75020683  0.87664764  0.35763458  1
  O2-  O287  1  0.75060851  0.87442241  0.84587025  1
