# generated using pymatgen
data_BaYFeCuO5
_symmetry_space_group_name_H-M   'P 1'
_cell_length_a   15.67355877
_cell_length_b   15.66994120
_cell_length_c   15.49229862
_cell_angle_alpha   89.99112659
_cell_angle_beta   89.99631469
_cell_angle_gamma   89.99666543
_symmetry_Int_Tables_number   1
_chemical_formula_structural   BaYFeCuO5
_chemical_formula_sum   'Ba32 Y32 Fe32 Cu32 O160'
_cell_volume   3804.96648903
_cell_formula_units_Z   32
loop_
 _symmetry_equiv_pos_site_id
 _symmetry_equiv_pos_as_xyz
  1  'x, y, z'
loop_
 _atom_type_symbol
 _atom_type_oxidation_number
  Ba2+  2.0
  Y3+  3.0
  Fe3+  3.0
  Cu2+  2.0
  O2-  -2.0
loop_
 _atom_site_type_symbol
 _atom_site_label
 _atom_site_symmetry_multiplicity
 _atom_site_fract_x
 _atom_site_fract_y
 _atom_site_fract_z
 _atom_site_occupancy
  Ba2+  Ba0  1  -0.00641502  -0.00114891  0.00816773  1
  Ba2+  Ba1  1  0.00211462  0.00614841  0.51814312  1
  Ba2+  Ba2  1  -0.00773553  0.25372225  0.01013461  1
  Ba2+  Ba3  1  0.00180902  0.24417016  0.51824020  1
  Ba2+  Ba4  1  0.00220354  0.49508014  0.01734143  1
  Ba2+  Ba5  1  0.00544168  0.50413333  0.51523199  1
  Ba2+  Ba6  1  0.00467853  0.75272197  0.01177169  1
  Ba2+  Ba7  1  0.00469467  0.74502526  0.51550940  1
  Ba2+  Ba8  1  0.24940110  -0.01044777  -0.00414714  1
  Ba2+  Ba9  1  0.25305271  -0.00204943  0.51167504  1
  Ba2+  Ba10  1  0.24899505  0.25977423  0.01555161  1
  Ba2+  Ba11  1  0.24958098  0.24980503  0.51727217  1
  Ba2+  Ba12  1  0.25076202  0.50239309  0.02726248  1
  Ba2+  Ba13  1  0.24415787  0.49766410  0.51329967  1
  Ba2+  Ba14  1  0.25189721  0.74786204  0.00752917  1
  Ba2+  Ba15  1  0.24669307  0.75429670  0.51192470  1
  Ba2+  Ba16  1  0.50066317  -0.01043532  -0.00401288  1
  Ba2+  Ba17  1  0.50013619  -0.00388033  0.50701903  1
  Ba2+  Ba18  1  0.50044134  0.25986987  0.01569578  1
  Ba2+  Ba19  1  0.50081542  0.24913355  0.51802541  1
  Ba2+  Ba20  1  0.50100099  0.50413085  0.02219614  1
  Ba2+  Ba21  1  0.50337119  0.49493163  0.51115373  1
  Ba2+  Ba22  1  0.50127747  0.74559746  0.00103947  1
  Ba2+  Ba23  1  0.50305320  0.75887029  0.50327850  1
  Ba2+  Ba24  1  0.75667158  -0.00173163  0.00870449  1
  Ba2+  Ba25  1  0.74509033  0.00446906  0.51294258  1
  Ba2+  Ba26  1  0.75774778  0.25427883  0.01058604  1
  Ba2+  Ba27  1  0.74773171  0.24373199  0.51859131  1
  Ba2+  Ba28  1  0.74534428  0.49730365  0.01245992  1
  Ba2+  Ba29  1  0.74687604  0.50278250  0.51153343  1
  Ba2+  Ba30  1  0.74226875  0.74991373  0.00572769  1
  Ba2+  Ba31  1  0.74376507  0.75070099  0.50581106  1
  Y3+  Y32  1  -0.00398277  0.00261355  0.25671250  1
  Y3+  Y33  1  -0.00079904  0.00133902  0.75842408  1
  Y3+  Y34  1  -0.00373039  0.24948975  0.25398066  1
  Y3+  Y35  1  -0.00288566  0.24868504  0.75964548  1
  Y3+  Y36  1  0.00085286  0.49990862  0.25674161  1
  Y3+  Y37  1  -0.00066219  0.50012100  0.75517815  1
  Y3+  Y38  1  0.00054209  0.74925977  0.25884805  1
  Y3+  Y39  1  0.00158518  0.74880559  0.75470728  1
  Y3+  Y40  1  0.25239323  -0.00046663  0.26083295  1
  Y3+  Y41  1  0.24943794  -0.00381300  0.75570081  1
  Y3+  Y42  1  0.25048021  0.25091002  0.25550156  1
  Y3+  Y43  1  0.24873864  0.25096514  0.75599379  1
  Y3+  Y44  1  0.24864764  0.50215860  0.25945218  1
  Y3+  Y45  1  0.24851249  0.49989799  0.75034919  1
  Y3+  Y46  1  0.25012970  0.74850268  0.26220990  1
  Y3+  Y47  1  0.24956154  0.75195074  0.75445176  1
  Y3+  Y48  1  0.49948534  -0.00216319  0.26290087  1
  Y3+  Y49  1  0.50127809  -0.00416344  0.75465251  1
  Y3+  Y50  1  0.49952155  0.25074006  0.25528316  1
  Y3+  Y51  1  0.50117512  0.25115702  0.75656576  1
  Y3+  Y52  1  0.50162811  0.50221135  0.25662270  1
  Y3+  Y53  1  0.50153827  0.49990130  0.75587351  1
  Y3+  Y54  1  0.50191115  0.74960504  0.26132999  1
  Y3+  Y55  1  0.50112241  0.75215846  0.75683037  1
  Y3+  Y56  1  0.75220794  0.00126692  0.25895847  1
  Y3+  Y57  1  0.75016733  0.00098386  0.75705010  1
  Y3+  Y58  1  0.75357908  0.24932587  0.25410056  1
  Y3+  Y59  1  0.75302412  0.24878672  0.75999956  1
  Y3+  Y60  1  0.74894906  0.50024556  0.25446027  1
  Y3+  Y61  1  0.75054180  0.50009128  0.75930364  1
  Y3+  Y62  1  0.74788689  0.75050238  0.25872351  1
  Y3+  Y63  1  0.74746143  0.74905530  0.75728512  1
  Fe3+  Fe64  1  0.37497664  0.12532780  0.88040551  1
  Fe3+  Fe65  1  0.12533801  0.37672643  0.87508776  1
  Fe3+  Fe66  1  0.62502763  0.12501695  0.88029970  1
  Fe3+  Fe67  1  0.37508633  0.37426448  0.37656910  1
  Fe3+  Fe68  1  0.12516285  0.12498997  0.87995160  1
  Fe3+  Fe69  1  0.87480289  0.62432101  0.37750341  1
  Fe3+  Fe70  1  0.87487722  0.37407205  0.38023120  1
  Fe3+  Fe71  1  0.12346818  0.87624103  0.37807123  1
  Fe3+  Fe72  1  0.87526812  0.87633655  0.38087328  1
  Fe3+  Fe73  1  0.87534745  0.62424012  0.87955489  1
  Fe3+  Fe74  1  0.87514405  0.87301097  0.87523125  1
  Fe3+  Fe75  1  0.37408740  0.37732719  0.87528707  1
  Fe3+  Fe76  1  0.37551961  0.62458252  0.38070515  1
  Fe3+  Fe77  1  0.12506166  0.12590225  0.37493834  1
  Fe3+  Fe78  1  0.62479724  0.12659777  0.37483091  1
  Fe3+  Fe79  1  0.37436525  0.62330695  0.87408825  1
  Fe3+  Fe80  1  0.62619711  0.37384043  0.37537379  1
  Fe3+  Fe81  1  0.62482124  0.37570685  0.87584966  1
  Fe3+  Fe82  1  0.12371715  0.37361895  0.37572070  1
  Fe3+  Fe83  1  0.12601481  0.62409655  0.87556459  1
  Fe3+  Fe84  1  0.37525760  0.12317278  0.13315004  1
  Fe3+  Fe85  1  0.87445327  0.87439258  0.63517177  1
  Fe3+  Fe86  1  0.12551085  0.87569345  0.13888796  1
  Fe3+  Fe87  1  0.62469547  0.62498079  0.63788192  1
  Fe3+  Fe88  1  0.87460191  0.37521616  0.63499494  1
  Fe3+  Fe89  1  0.87481476  0.62672871  0.13464166  1
  Fe3+  Fe90  1  0.62473181  0.87554850  0.13971586  1
  Fe3+  Fe91  1  0.12561219  0.12433007  0.13286395  1
  Fe3+  Fe92  1  0.37556794  0.87376716  0.14033869  1
  Fe3+  Fe93  1  0.37579292  0.62520670  0.63321836  1
  Fe3+  Fe94  1  0.37547081  0.12403783  0.64007761  1
  Fe3+  Fe95  1  0.62459027  0.12421376  0.13337216  1
  Cu2+  Cu96  1  0.62539770  0.62399526  0.36501777  1
  Cu2+  Cu97  1  0.87507523  0.12616272  0.37419122  1
  Cu2+  Cu98  1  0.87564878  0.37666537  0.87171982  1
  Cu2+  Cu99  1  0.87484121  0.12454664  0.87347208  1
  Cu2+  Cu100  1  0.62657097  0.87644750  0.37305934  1
  Cu2+  Cu101  1  0.62602749  0.87491882  0.86182658  1
  Cu2+  Cu102  1  0.37436676  0.87506665  0.37512074  1
  Cu2+  Cu103  1  0.12389995  0.87380681  0.86160323  1
  Cu2+  Cu104  1  0.37492287  0.87380164  0.86011550  1
  Cu2+  Cu105  1  0.37500381  0.12658345  0.36377661  1
  Cu2+  Cu106  1  0.12425722  0.62464921  0.37344014  1
  Cu2+  Cu107  1  0.62421563  0.62369819  0.87249149  1
  Cu2+  Cu108  1  0.12342334  0.37379365  0.65022173  1
  Cu2+  Cu109  1  0.12552506  0.62514182  0.64145635  1
  Cu2+  Cu110  1  0.62539421  0.37464800  0.15143771  1
  Cu2+  Cu111  1  0.37555414  0.87410361  0.64174114  1
  Cu2+  Cu112  1  0.62512280  0.62699700  0.14267693  1
  Cu2+  Cu113  1  0.37526226  0.37499533  0.64767603  1
  Cu2+  Cu114  1  0.62440464  0.12494023  0.65625077  1
  Cu2+  Cu115  1  0.62586306  0.87482337  0.64302971  1
  Cu2+  Cu116  1  0.87464655  0.12454825  0.14030134  1
  Cu2+  Cu117  1  0.37509307  0.62698494  0.15634432  1
  Cu2+  Cu118  1  0.12481628  0.62646808  0.15243547  1
  Cu2+  Cu119  1  0.87451837  0.12433450  0.64296367  1
  Cu2+  Cu120  1  0.12480032  0.37482719  0.15220339  1
  Cu2+  Cu121  1  0.12558375  0.12466077  0.65650897  1
  Cu2+  Cu122  1  0.37507413  0.37613907  0.15334258  1
  Cu2+  Cu123  1  0.62644342  0.37473225  0.65187701  1
  Cu2+  Cu124  1  0.87468217  0.87397249  0.15255595  1
  Cu2+  Cu125  1  0.12389204  0.87562630  0.65055978  1
  Cu2+  Cu126  1  0.87401508  0.62521693  0.64903101  1
  Cu2+  Cu127  1  0.87489652  0.37695273  0.14245745  1
  O2-  O128  1  0.12602689  0.12420450  0.00631467  1
  O2-  O129  1  0.12651137  0.12650339  0.49507114  1
  O2-  O130  1  0.12720309  0.37844963  -0.00471717  1
  O2-  O131  1  0.12369852  0.37116034  0.49582176  1
  O2-  O132  1  0.12729156  0.62413453  -0.00436393  1
  O2-  O133  1  0.12518223  0.62461676  0.50635958  1
  O2-  O134  1  0.12681031  0.87316149  0.01833387  1
  O2-  O135  1  0.12256465  0.87800569  0.49831056  1
  O2-  O136  1  0.37458629  0.12363768  0.00697956  1
  O2-  O137  1  0.37528272  0.12570471  0.51956003  1
  O2-  O138  1  0.37373348  0.37914059  -0.00479505  1
  O2-  O139  1  0.37553992  0.37214208  0.49656252  1
  O2-  O140  1  0.37336106  0.62270225  -0.00565445  1
  O2-  O141  1  0.37620739  0.62451233  0.50695305  1
  O2-  O142  1  0.37532668  0.87341452  0.02019497  1
  O2-  O143  1  0.37433111  0.87601891  0.50872400  1
  O2-  O144  1  0.62450139  0.12386223  0.00664463  1
  O2-  O145  1  0.62324697  0.12769689  0.49535091  1
  O2-  O146  1  0.62324413  0.37660293  -0.00382555  1
  O2-  O147  1  0.62602701  0.37211215  0.49534278  1
  O2-  O148  1  0.62366969  0.62510113  0.00800467  1
  O2-  O149  1  0.62488080  0.62461601  0.51716883  1
  O2-  O150  1  0.62354336  0.87394856  0.01925767  1
  O2-  O151  1  0.62681164  0.87662212  0.50805360  1
  O2-  O152  1  0.87525147  0.12393436  0.00696821  1
  O2-  O153  1  0.87489403  0.12585944  0.50831894  1
  O2-  O154  1  0.87545038  0.37780734  0.00678455  1
  O2-  O155  1  0.87478304  0.37399106  0.50628897  1
  O2-  O156  1  0.87580404  0.62580242  0.00641414  1
  O2-  O157  1  0.87495712  0.62331500  0.49763270  1
  O2-  O158  1  0.87574294  0.87189448  -0.00427403  1
  O2-  O159  1  0.87559078  0.87612986  0.50730315  1
  O2-  O160  1  0.12557261  0.00130899  0.16431201  1
  O2-  O161  1  0.12475891  0.00024741  0.66791574  1
  O2-  O162  1  0.12632556  0.24822264  0.15789432  1
  O2-  O163  1  0.12450505  0.24963633  0.66714264  1
  O2-  O164  1  0.12471190  0.50079829  0.16476235  1
  O2-  O165  1  0.12425033  0.49805777  0.65963668  1
  O2-  O166  1  0.12511079  0.75139236  0.16885955  1
  O2-  O167  1  0.12471523  0.75112424  0.66397825  1
  O2-  O168  1  0.37540184  0.00067531  0.16802917  1
  O2-  O169  1  0.37488072  0.00091072  0.66969861  1
  O2-  O170  1  0.37446627  0.24843881  0.15835525  1
  O2-  O171  1  0.37522811  0.24990050  0.66837247  1
  O2-  O172  1  0.37530256  0.50154814  0.16624526  1
  O2-  O173  1  0.37509313  0.50060739  0.65734235  1
  O2-  O174  1  0.37429032  0.75098601  0.17125822  1
  O2-  O175  1  0.37541950  0.74673642  0.66404254  1
  O2-  O176  1  0.62392975  0.00124898  0.16620771  1
  O2-  O177  1  0.62560436  0.00114567  0.66746750  1
  O2-  O178  1  0.62465823  0.24849411  0.15801106  1
  O2-  O179  1  0.62505715  0.25038411  0.66649117  1
  O2-  O180  1  0.62474201  0.49901286  0.16461464  1
  O2-  O181  1  0.62569900  0.49983206  0.66297049  1
  O2-  O182  1  0.62547707  0.75295558  0.17083367  1
  O2-  O183  1  0.62503074  0.74766539  0.66760578  1
  O2-  O184  1  0.87501017  -0.00170447  0.16558890  1
  O2-  O185  1  0.87508448  -0.00273874  0.66522156  1
  O2-  O186  1  0.87481068  0.25069221  0.16329440  1
  O2-  O187  1  0.87498729  0.25228853  0.66550320  1
  O2-  O188  1  0.87586384  0.50420026  0.16458365  1
  O2-  O189  1  0.87466048  0.49857853  0.66173929  1
  O2-  O190  1  0.87537697  0.74852714  0.16702963  1
  O2-  O191  1  0.87524007  0.75104565  0.66252669  1
  O2-  O192  1  0.00296692  0.12495704  0.16188293  1
  O2-  O193  1  0.00174368  0.12465582  0.66684772  1
  O2-  O194  1  0.00148258  0.37535620  0.16502332  1
  O2-  O195  1  -0.00231235  0.37471993  0.66229634  1
  O2-  O196  1  -0.00093197  0.62640542  0.16077747  1
  O2-  O197  1  -0.00109819  0.62473233  0.66482259  1
  O2-  O198  1  0.00033388  0.87523856  0.16486675  1
  O2-  O199  1  -0.00176887  0.87494733  0.66231803  1
  O2-  O200  1  0.25097102  0.12503713  0.16143987  1
  O2-  O201  1  0.25053945  0.12525302  0.66912581  1
  O2-  O202  1  0.24995871  0.37584980  0.16444856  1
  O2-  O203  1  0.24873074  0.37365071  0.66053128  1
  O2-  O204  1  0.24966737  0.62577165  0.16718392  1
  O2-  O205  1  0.25281417  0.62450016  0.66003369  1
  O2-  O206  1  0.25044953  0.87530298  0.17015119  1
  O2-  O207  1  0.24796375  0.87532839  0.66440080  1
  O2-  O208  1  0.49922613  0.12619647  0.16094310  1
  O2-  O209  1  0.49974188  0.12549078  0.67025082  1
  O2-  O210  1  0.49982295  0.37503093  0.16342077  1
  O2-  O211  1  0.50134895  0.37433011  0.66283634  1
  O2-  O212  1  0.49900456  0.62625504  0.16771688  1
  O2-  O213  1  0.49916582  0.62339134  0.66524181  1
  O2-  O214  1  0.49968535  0.87518349  0.17204895  1
  O2-  O215  1  0.50120807  0.87505127  0.66583092  1
  O2-  O216  1  0.74689105  0.12437280  0.16273987  1
  O2-  O217  1  0.74802848  0.12512227  0.66706542  1
  O2-  O218  1  0.74896792  0.37586769  0.16531522  1
  O2-  O219  1  0.75208057  0.37474023  0.66324407  1
  O2-  O220  1  0.75251001  0.62584742  0.16289149  1
  O2-  O221  1  0.74892958  0.62423430  0.66871334  1
  O2-  O222  1  0.74970355  0.87598044  0.16732131  1
  O2-  O223  1  0.75262662  0.87445513  0.66402079  1
  O2-  O224  1  0.12487131  0.00069815  0.34398256  1
  O2-  O225  1  0.12509669  0.00066539  0.85285183  1
  O2-  O226  1  0.12493082  0.25036982  0.33954194  1
  O2-  O227  1  0.12624947  0.24905344  0.85044919  1
  O2-  O228  1  0.12435491  0.49732871  0.34772386  1
  O2-  O229  1  0.12505513  0.50065995  0.84015797  1
  O2-  O230  1  0.12363009  0.75220581  0.35034834  1
  O2-  O231  1  0.12514428  0.74876899  0.84678553  1
  O2-  O232  1  0.37465929  0.00179703  0.35079698  1
  O2-  O233  1  0.37508116  0.00052841  0.85336537  1
  O2-  O234  1  0.37503612  0.25162594  0.34164016  1
  O2-  O235  1  0.37409366  0.24933065  0.85064471  1
  O2-  O236  1  0.37533608  0.50030379  0.34966023  1
  O2-  O237  1  0.37447073  0.49941119  0.83776870  1
  O2-  O238  1  0.37577385  0.74719665  0.35345342  1
  O2-  O239  1  0.37458460  0.74971272  0.84733790  1
  O2-  O240  1  0.62533498  0.00271777  0.34709654  1
  O2-  O241  1  0.62451941  0.00118809  0.85167303  1
  O2-  O242  1  0.62478353  0.25077140  0.33924515  1
  O2-  O243  1  0.62421123  0.24880530  0.84956445  1
  O2-  O244  1  0.62614075  0.49852641  0.34763916  1
  O2-  O245  1  0.62460948  0.49802483  0.84379763  1
  O2-  O246  1  0.62574570  0.74869931  0.35303501  1
  O2-  O247  1  0.62514078  0.75108515  0.85008785  1
  O2-  O248  1  0.87497738  -0.00148548  0.34957759  1
  O2-  O249  1  0.87513864  -0.00226220  0.84849241  1
  O2-  O250  1  0.87525031  0.25299678  0.34665698  1
  O2-  O251  1  0.87525865  0.25011970  0.84987244  1
  O2-  O252  1  0.87422541  0.49798065  0.34778002  1
  O2-  O253  1  0.87569546  0.50332402  0.84590031  1
  O2-  O254  1  0.87513611  0.75133689  0.35088757  1
  O2-  O255  1  0.87499792  0.74752520  0.84585878  1
  O2-  O256  1  0.00165270  0.12577084  0.34488287  1
  O2-  O257  1  0.00314434  0.12487306  0.85078103  1
  O2-  O258  1  -0.00184019  0.37485566  0.34703619  1
  O2-  O259  1  0.00262963  0.37499262  0.84504904  1
  O2-  O260  1  -0.00280781  0.62441132  0.34383750  1
  O2-  O261  1  -0.00027883  0.62519191  0.84812997  1
  O2-  O262  1  -0.00163414  0.87596337  0.34665987  1
  O2-  O263  1  -0.00098815  0.87380444  0.84525834  1
  O2-  O264  1  0.24953361  0.12592538  0.34447944  1
  O2-  O265  1  0.25040067  0.12382271  0.85256681  1
  O2-  O266  1  0.24985185  0.37465454  0.34632331  1
  O2-  O267  1  0.24979934  0.37504679  0.84152013  1
  O2-  O268  1  0.25285455  0.62448937  0.35127562  1
  O2-  O269  1  0.24989895  0.62519337  0.84070541  1
  O2-  O270  1  0.24772228  0.87572446  0.35002694  1
  O2-  O271  1  0.24930615  0.87468554  0.84931566  1
  O2-  O272  1  0.50014675  0.12614305  0.34457924  1
  O2-  O273  1  0.49940281  0.12476726  0.85379190  1
  O2-  O274  1  0.50036778  0.37510658  0.34579205  1
  O2-  O275  1  0.49905861  0.37420586  0.84442299  1
  O2-  O276  1  0.49931086  0.62375309  0.35181194  1
  O2-  O277  1  0.49800069  0.62506748  0.84621161  1
  O2-  O278  1  0.50058917  0.87597344  0.35305631  1
  O2-  O279  1  0.50084119  0.87462150  0.85010607  1
  O2-  O280  1  0.74853871  0.12643164  0.34591661  1
  O2-  O281  1  0.74701182  0.12479231  0.85080856  1
  O2-  O282  1  0.75152449  0.37466209  0.34740207  1
  O2-  O283  1  0.74835793  0.37493613  0.84666339  1
  O2-  O284  1  0.75086311  0.62491715  0.34619574  1
  O2-  O285  1  0.75215517  0.62475189  0.85248873  1
  O2-  O286  1  0.75319389  0.87509529  0.35043284  1
  O2-  O287  1  0.75078045  0.87416442  0.84673539  1
