# generated using pymatgen
data_BaYFeCuO5
_symmetry_space_group_name_H-M   'P 1'
_cell_length_a   15.68872348
_cell_length_b   15.68114228
_cell_length_c   15.53638392
_cell_angle_alpha   90.00159556
_cell_angle_beta   89.99374812
_cell_angle_gamma   90.00389550
_symmetry_Int_Tables_number   1
_chemical_formula_structural   BaYFeCuO5
_chemical_formula_sum   'Ba32 Y32 Fe32 Cu32 O160'
_cell_volume   3822.21616222
_cell_formula_units_Z   32
loop_
 _symmetry_equiv_pos_site_id
 _symmetry_equiv_pos_as_xyz
  1  'x, y, z'
loop_
 _atom_type_symbol
 _atom_type_oxidation_number
  Ba2+  2.0
  Y3+  3.0
  Fe3+  3.0
  Cu2+  2.0
  O2-  -2.0
loop_
 _atom_site_type_symbol
 _atom_site_label
 _atom_site_symmetry_multiplicity
 _atom_site_fract_x
 _atom_site_fract_y
 _atom_site_fract_z
 _atom_site_occupancy
  Ba2+  Ba0  1  0.00001321  0.00030891  0.01897406  1
  Ba2+  Ba1  1  0.00249944  -0.00591995  0.51062608  1
  Ba2+  Ba2  1  -0.00495332  0.24388734  0.01111462  1
  Ba2+  Ba3  1  0.00291858  0.25630202  0.50095876  1
  Ba2+  Ba4  1  -0.00904888  0.49894940  0.00649244  1
  Ba2+  Ba5  1  -0.00345990  0.50361479  0.50100236  1
  Ba2+  Ba6  1  -0.00512441  0.75660785  0.01206255  1
  Ba2+  Ba7  1  -0.00304446  0.74516457  0.51334291  1
  Ba2+  Ba8  1  0.25129649  0.00197606  0.02680001  1
  Ba2+  Ba9  1  0.24691571  -0.00514991  0.50953380  1
  Ba2+  Ba10  1  0.25494288  0.24292658  0.02371585  1
  Ba2+  Ba11  1  0.24981455  0.25834687  0.50582973  1
  Ba2+  Ba12  1  0.25508167  0.49444422  0.01121580  1
  Ba2+  Ba13  1  0.25295096  0.50027345  0.51451989  1
  Ba2+  Ba14  1  0.25084906  0.76112917  0.01563615  1
  Ba2+  Ba15  1  0.25060016  0.74751963  0.51915106  1
  Ba2+  Ba16  1  0.50426576  0.00170213  0.01650418  1
  Ba2+  Ba17  1  0.50542243  -0.00268332  0.51639614  1
  Ba2+  Ba18  1  0.50179128  0.24613226  0.02367702  1
  Ba2+  Ba19  1  0.50396415  0.25440542  0.50242511  1
  Ba2+  Ba20  1  0.50550363  0.49440698  0.02212774  1
  Ba2+  Ba21  1  0.49919237  0.49882071  0.50086700  1
  Ba2+  Ba22  1  0.50658277  0.75828733  0.01382583  1
  Ba2+  Ba23  1  0.49997179  0.74927904  0.51908930  1
  Ba2+  Ba24  1  0.74431668  0.00151574  0.00427862  1
  Ba2+  Ba25  1  0.74499942  -0.00398605  0.51795396  1
  Ba2+  Ba26  1  0.74577585  0.24681791  0.01273669  1
  Ba2+  Ba27  1  0.74403054  0.25244057  0.49776555  1
  Ba2+  Ba28  1  0.74815913  0.49815348  0.01826628  1
  Ba2+  Ba29  1  0.75121524  0.50276223  0.49189941  1
  Ba2+  Ba30  1  0.74722681  0.75470796  0.01140219  1
  Ba2+  Ba31  1  0.75260858  0.74695963  0.51346906  1
  Y3+  Y32  1  0.00100977  -0.00190981  0.25867646  1
  Y3+  Y33  1  -0.00135061  0.00123897  0.75472841  1
  Y3+  Y34  1  -0.00078043  0.25154246  0.25830440  1
  Y3+  Y35  1  -0.00023807  0.24794734  0.75656920  1
  Y3+  Y36  1  -0.00328175  0.49972039  0.25867962  1
  Y3+  Y37  1  -0.00282588  0.50295933  0.75786759  1
  Y3+  Y38  1  -0.00114172  0.75109989  0.25839454  1
  Y3+  Y39  1  -0.00341924  0.74750709  0.75652133  1
  Y3+  Y40  1  0.24975389  -0.00082819  0.25845687  1
  Y3+  Y41  1  0.25027323  0.00110558  0.75178093  1
  Y3+  Y42  1  0.25247347  0.25100979  0.26030705  1
  Y3+  Y43  1  0.25076495  0.24992249  0.75203396  1
  Y3+  Y44  1  0.25211723  0.49715473  0.25785100  1
  Y3+  Y45  1  0.25219983  0.49976187  0.75673160  1
  Y3+  Y46  1  0.24938095  0.75267802  0.25527609  1
  Y3+  Y47  1  0.25112275  0.74876500  0.75693046  1
  Y3+  Y48  1  0.50285763  0.00101882  0.25621379  1
  Y3+  Y49  1  0.50449909  0.00041069  0.75684872  1
  Y3+  Y50  1  0.50193721  0.25002539  0.26099216  1
  Y3+  Y51  1  0.50138458  0.24776759  0.75302561  1
  Y3+  Y52  1  0.50224808  0.49824367  0.25878333  1
  Y3+  Y53  1  0.49862869  0.49891092  0.75530328  1
  Y3+  Y54  1  0.50353116  0.75114543  0.25348568  1
  Y3+  Y55  1  0.50125701  0.75226589  0.75819557  1
  Y3+  Y56  1  0.74658204  -0.00035514  0.25651232  1
  Y3+  Y57  1  0.74627298  0.00069059  0.75843508  1
  Y3+  Y58  1  0.74702539  0.25057956  0.25895657  1
  Y3+  Y59  1  0.74781897  0.24586012  0.75786640  1
  Y3+  Y60  1  0.74903097  0.50042910  0.25855097  1
  Y3+  Y61  1  0.75162695  0.50241261  0.75948531  1
  Y3+  Y62  1  0.74885126  0.74959382  0.25643425  1
  Y3+  Y63  1  0.75088380  0.75096941  0.75849007  1
  Fe3+  Fe64  1  0.37516915  0.12478942  0.87426925  1
  Fe3+  Fe65  1  0.62486039  0.62456269  0.87949046  1
  Fe3+  Fe66  1  0.87353460  0.37339269  0.87849032  1
  Fe3+  Fe67  1  0.37589960  0.12395628  0.37929636  1
  Fe3+  Fe68  1  0.12542860  0.87673440  0.87552062  1
  Fe3+  Fe69  1  0.62475362  0.87378019  0.37677173  1
  Fe3+  Fe70  1  0.87500016  0.87672146  0.87537850  1
  Fe3+  Fe71  1  0.12647118  0.12419085  0.87568106  1
  Fe3+  Fe72  1  0.12514584  0.62550087  0.88147409  1
  Fe3+  Fe73  1  0.62381288  0.37390817  0.87728031  1
  Fe3+  Fe74  1  0.37610590  0.37225972  0.87718892  1
  Fe3+  Fe75  1  0.37484121  0.87776025  0.87543849  1
  Fe3+  Fe76  1  0.37563605  0.87374580  0.37618809  1
  Fe3+  Fe77  1  0.87450268  0.87446557  0.37719445  1
  Fe3+  Fe78  1  0.12557264  0.37326933  0.88142582  1
  Fe3+  Fe79  1  0.37556629  0.62671206  0.37328318  1
  Fe3+  Fe80  1  0.12505835  0.12504490  0.37798157  1
  Fe3+  Fe81  1  0.37647534  0.62531668  0.88081417  1
  Fe3+  Fe82  1  0.12622105  0.62525196  0.37423485  1
  Fe3+  Fe83  1  0.87415779  0.12405643  0.38064043  1
  Fe3+  Fe84  1  0.37602161  0.62593403  0.13352156  1
  Fe3+  Fe85  1  0.62647475  0.37604149  0.63699468  1
  Fe3+  Fe86  1  0.12483392  0.62509280  0.13312864  1
  Fe3+  Fe87  1  0.12322040  0.37667928  0.63964979  1
  Fe3+  Fe88  1  0.62560123  0.62349821  0.63808772  1
  Fe3+  Fe89  1  0.87491828  0.12561576  0.63369115  1
  Fe3+  Fe90  1  0.37503033  0.12516218  0.63147553  1
  Fe3+  Fe91  1  0.87334219  0.37555649  0.63736725  1
  Fe3+  Fe92  1  0.87373890  0.12430550  0.14108767  1
  Fe3+  Fe93  1  0.12407537  0.87321356  0.63782702  1
  Fe3+  Fe94  1  0.12403411  0.37448623  0.13536760  1
  Fe3+  Fe95  1  0.87451963  0.62575449  0.13809848  1
  Cu2+  Cu96  1  0.87463142  0.62661986  0.37082481  1
  Cu2+  Cu97  1  0.62495682  0.12296093  0.37463849  1
  Cu2+  Cu98  1  0.62318108  0.12600186  0.87255543  1
  Cu2+  Cu99  1  0.12527429  0.87361525  0.36320825  1
  Cu2+  Cu100  1  0.87493294  0.12445290  0.86137821  1
  Cu2+  Cu101  1  0.87436127  0.62561936  0.86814647  1
  Cu2+  Cu102  1  0.62445503  0.87541123  0.87090719  1
  Cu2+  Cu103  1  0.62434711  0.62662592  0.36254977  1
  Cu2+  Cu104  1  0.12512336  0.37643638  0.35961265  1
  Cu2+  Cu105  1  0.37540603  0.37584751  0.37310106  1
  Cu2+  Cu106  1  0.87457856  0.37465274  0.36242406  1
  Cu2+  Cu107  1  0.62515408  0.37586356  0.36240885  1
  Cu2+  Cu108  1  0.37512799  0.87530378  0.65079694  1
  Cu2+  Cu109  1  0.62522726  0.62508857  0.14890291  1
  Cu2+  Cu110  1  0.62551752  0.37430278  0.15567629  1
  Cu2+  Cu111  1  0.62572427  0.12515964  0.14544817  1
  Cu2+  Cu112  1  0.37545443  0.37475803  0.15360276  1
  Cu2+  Cu113  1  0.12463077  0.62384422  0.65545314  1
  Cu2+  Cu114  1  0.12422340  0.87489709  0.15319576  1
  Cu2+  Cu115  1  0.87405934  0.87585108  0.15290489  1
  Cu2+  Cu116  1  0.37622170  0.87566694  0.15235619  1
  Cu2+  Cu117  1  0.87477699  0.87495362  0.65152497  1
  Cu2+  Cu118  1  0.87345023  0.62373905  0.64249045  1
  Cu2+  Cu119  1  0.12447457  0.12560011  0.15672496  1
  Cu2+  Cu120  1  0.37635623  0.37500105  0.63990584  1
  Cu2+  Cu121  1  0.62554179  0.87366445  0.65286737  1
  Cu2+  Cu122  1  0.12435346  0.12586593  0.64416425  1
  Cu2+  Cu123  1  0.37626561  0.62480639  0.65420544  1
  Cu2+  Cu124  1  0.37575628  0.12479273  0.15830946  1
  Cu2+  Cu125  1  0.87450793  0.37437512  0.15366287  1
  Cu2+  Cu126  1  0.62565004  0.12568154  0.63930381  1
  Cu2+  Cu127  1  0.62642704  0.87628437  0.14187798  1
  O2-  O128  1  0.12719084  0.12376901  -0.00477386  1
  O2-  O129  1  0.12415278  0.12546738  0.49762432  1
  O2-  O130  1  0.12601292  0.37116456  0.00720579  1
  O2-  O131  1  0.12310638  0.37954020  0.51956461  1
  O2-  O132  1  0.12455292  0.62644493  0.00706926  1
  O2-  O133  1  0.12770238  0.62411497  0.49402170  1
  O2-  O134  1  0.12591375  0.87897403  -0.00476769  1
  O2-  O135  1  0.12463140  0.87094807  0.51733082  1
  O2-  O136  1  0.37421516  0.12427359  -0.00589801  1
  O2-  O137  1  0.37459535  0.12480313  0.50482420  1
  O2-  O138  1  0.37536143  0.37108906  -0.00319989  1
  O2-  O139  1  0.37467896  0.37653983  0.50601454  1
  O2-  O140  1  0.37614471  0.62513460  0.00579925  1
  O2-  O141  1  0.37411399  0.62691787  0.49311470  1
  O2-  O142  1  0.37343954  0.87946370  -0.00486878  1
  O2-  O143  1  0.37476405  0.87095795  0.49557947  1
  O2-  O144  1  0.62397705  0.12646775  0.00772395  1
  O2-  O145  1  0.62570860  0.12376510  0.50702464  1
  O2-  O146  1  0.62326778  0.37310232  -0.00260968  1
  O2-  O147  1  0.62696204  0.37828790  0.51682663  1
  O2-  O148  1  0.62392704  0.62375908  -0.00036491  1
  O2-  O149  1  0.62476275  0.62366637  0.51804082  1
  O2-  O150  1  0.62555877  0.87645119  0.00658072  1
  O2-  O151  1  0.62422965  0.87234084  0.49677826  1
  O2-  O152  1  0.87453465  0.12413999  0.02074102  1
  O2-  O153  1  0.87550110  0.12555767  0.50699951  1
  O2-  O154  1  0.87433571  0.37249525  -0.00152035  1
  O2-  O155  1  0.87529886  0.37639662  0.51791964  1
  O2-  O156  1  0.87545576  0.62497921  0.01776342  1
  O2-  O157  1  0.87436018  0.62480286  0.50678739  1
  O2-  O158  1  0.87631302  0.87833305  -0.00447235  1
  O2-  O159  1  0.87542080  0.87271582  0.49680481  1
  O2-  O160  1  0.12511211  0.00009617  0.16678359  1
  O2-  O161  1  0.12481257  -0.00063033  0.65996570  1
  O2-  O162  1  0.12438638  0.25188338  0.16544763  1
  O2-  O163  1  0.12383425  0.25133998  0.66547315  1
  O2-  O164  1  0.12648194  0.50009132  0.15766352  1
  O2-  O165  1  0.12508417  0.50008320  0.67482928  1
  O2-  O166  1  0.12470174  0.74843162  0.15941060  1
  O2-  O167  1  0.12527002  0.74851088  0.66829737  1
  O2-  O168  1  0.37421263  0.00001694  0.16750118  1
  O2-  O169  1  0.37303878  0.00135647  0.65674198  1
  O2-  O170  1  0.37482568  0.24980281  0.16808469  1
  O2-  O171  1  0.37449239  0.24699369  0.66025424  1
  O2-  O172  1  0.37396730  0.50193070  0.16063523  1
  O2-  O173  1  0.37465299  0.50101858  0.66883447  1
  O2-  O174  1  0.37527634  0.74920026  0.15769976  1
  O2-  O175  1  0.37507245  0.74994490  0.66699960  1
  O2-  O176  1  0.62544822  0.00082023  0.16612822  1
  O2-  O177  1  0.62566508  -0.00209392  0.66324170  1
  O2-  O178  1  0.62466581  0.25074954  0.16882252  1
  O2-  O179  1  0.62558745  0.25178243  0.66448072  1
  O2-  O180  1  0.62521023  0.49926988  0.16446666  1
  O2-  O181  1  0.62518777  0.49988178  0.67143679  1
  O2-  O182  1  0.62522488  0.74964450  0.16201062  1
  O2-  O183  1  0.62425109  0.74939284  0.66708756  1
  O2-  O184  1  0.87586225  -0.00009207  0.16992135  1
  O2-  O185  1  0.87617224  0.00125813  0.65880997  1
  O2-  O186  1  0.87618212  0.24971358  0.16989892  1
  O2-  O187  1  0.87567655  0.24915654  0.66508493  1
  O2-  O188  1  0.87477334  0.50023754  0.16516252  1
  O2-  O189  1  0.87469307  0.49821243  0.67086774  1
  O2-  O190  1  0.87570824  0.75057017  0.16317143  1
  O2-  O191  1  0.87506145  0.75083246  0.66560342  1
  O2-  O192  1  -0.00042738  0.12482628  0.16785049  1
  O2-  O193  1  -0.00187598  0.12526724  0.66371298  1
  O2-  O194  1  0.00197625  0.37571623  0.16412908  1
  O2-  O195  1  -0.00119942  0.37570144  0.67241893  1
  O2-  O196  1  0.00150253  0.62448197  0.16511787  1
  O2-  O197  1  0.00004004  0.62431103  0.66712267  1
  O2-  O198  1  -0.00020238  0.87558559  0.16491677  1
  O2-  O199  1  0.00039417  0.87395039  0.66555039  1
  O2-  O200  1  0.24982837  0.12570585  0.16605393  1
  O2-  O201  1  0.25093927  0.12573746  0.65887323  1
  O2-  O202  1  0.24834198  0.37414339  0.16269949  1
  O2-  O203  1  0.24825081  0.37594660  0.66607983  1
  O2-  O204  1  0.25008414  0.62610912  0.15710860  1
  O2-  O205  1  0.25149178  0.62431882  0.66621334  1
  O2-  O206  1  0.25019375  0.87502524  0.16340848  1
  O2-  O207  1  0.24910129  0.87325773  0.66397958  1
  O2-  O208  1  0.49937321  0.12515374  0.16723381  1
  O2-  O209  1  0.49742064  0.12385355  0.66069512  1
  O2-  O210  1  0.49992938  0.37507520  0.16559201  1
  O2-  O211  1  0.50241193  0.37557919  0.66389290  1
  O2-  O212  1  0.49839960  0.62480873  0.16148800  1
  O2-  O213  1  0.50073123  0.62516304  0.66641490  1
  O2-  O214  1  0.49968408  0.87599582  0.16358312  1
  O2-  O215  1  0.49963752  0.87489082  0.66354557  1
  O2-  O216  1  0.75122756  0.12596696  0.17044141  1
  O2-  O217  1  0.75315882  0.12427842  0.66547111  1
  O2-  O218  1  0.74980283  0.37416430  0.16580463  1
  O2-  O219  1  0.75005743  0.37453140  0.67081521  1
  O2-  O220  1  0.75054423  0.62488103  0.16637457  1
  O2-  O221  1  0.74780691  0.62580483  0.66935078  1
  O2-  O222  1  0.75098825  0.87519016  0.16628286  1
  O2-  O223  1  0.75058029  0.87451863  0.66509642  1
  O2-  O224  1  0.12483869  0.00050768  0.35027167  1
  O2-  O225  1  0.12522520  0.00012140  0.83963615  1
  O2-  O226  1  0.12538631  0.25056487  0.34971250  1
  O2-  O227  1  0.12538407  0.25095828  0.84678120  1
  O2-  O228  1  0.12507421  0.50068497  0.34115344  1
  O2-  O229  1  0.12565240  0.49969353  0.85885617  1
  O2-  O230  1  0.12568889  0.74884703  0.34182158  1
  O2-  O231  1  0.12593416  0.74898606  0.85058205  1
  O2-  O232  1  0.37428463  0.00004856  0.35010473  1
  O2-  O233  1  0.37435628  0.00070013  0.83822127  1
  O2-  O234  1  0.37432727  0.24718160  0.35214137  1
  O2-  O235  1  0.37379004  0.24991757  0.84027162  1
  O2-  O236  1  0.37564419  0.50256913  0.34388891  1
  O2-  O237  1  0.37420209  0.50051214  0.85154680  1
  O2-  O238  1  0.37450787  0.75052600  0.33842418  1
  O2-  O239  1  0.37407013  0.74904308  0.85043806  1
  O2-  O240  1  0.62455133  -0.00293585  0.34704613  1
  O2-  O241  1  0.62453204  0.00041453  0.84748458  1
  O2-  O242  1  0.62536609  0.25087805  0.35263356  1
  O2-  O243  1  0.62446218  0.25176148  0.84441165  1
  O2-  O244  1  0.62437857  0.50102503  0.34927742  1
  O2-  O245  1  0.62414560  0.49969383  0.84853724  1
  O2-  O246  1  0.62511069  0.75117242  0.34369423  1
  O2-  O247  1  0.62434087  0.74802502  0.84901990  1
  O2-  O248  1  0.87665036  0.00059692  0.35092190  1
  O2-  O249  1  0.87549187  0.00031890  0.84238954  1
  O2-  O250  1  0.87544292  0.24876799  0.35335409  1
  O2-  O251  1  0.87584023  0.24978434  0.84647636  1
  O2-  O252  1  0.87537368  0.49890040  0.34837097  1
  O2-  O253  1  0.87581209  0.49918314  0.85146252  1
  O2-  O254  1  0.87507305  0.75207235  0.34419024  1
  O2-  O255  1  0.87560208  0.75080620  0.84865332  1
  O2-  O256  1  -0.00094354  0.12630268  0.34975294  1
  O2-  O257  1  0.00144415  0.12528389  0.84638384  1
  O2-  O258  1  0.00004950  0.37531211  0.34834526  1
  O2-  O259  1  0.00163144  0.37477506  0.85288522  1
  O2-  O260  1  0.00169278  0.62479077  0.34684169  1
  O2-  O261  1  0.00206780  0.62474010  0.85171686  1
  O2-  O262  1  0.00001805  0.87451102  0.34800516  1
  O2-  O263  1  0.00073280  0.87485365  0.84479448  1
  O2-  O264  1  0.25088024  0.12473481  0.34912240  1
  O2-  O265  1  0.24989040  0.12536688  0.83910562  1
  O2-  O266  1  0.24908050  0.37591665  0.34640818  1
  O2-  O267  1  0.24912055  0.37556266  0.84814456  1
  O2-  O268  1  0.25054113  0.62483829  0.33872248  1
  O2-  O269  1  0.25057148  0.62426247  0.85131176  1
  O2-  O270  1  0.25054320  0.87485641  0.34636260  1
  O2-  O271  1  0.24988190  0.87484359  0.84244380  1
  O2-  O272  1  0.49772573  0.12472697  0.35042035  1
  O2-  O273  1  0.49760518  0.12541587  0.84233872  1
  O2-  O274  1  0.50183846  0.37535200  0.34966868  1
  O2-  O275  1  0.49894586  0.37486332  0.84283230  1
  O2-  O276  1  0.49971102  0.62603989  0.34462121  1
  O2-  O277  1  0.49815095  0.62493632  0.84763765  1
  O2-  O278  1  0.49991781  0.87427922  0.34434071  1
  O2-  O279  1  0.49789355  0.87504489  0.84594033  1
  O2-  O280  1  0.75285371  0.12472765  0.35203691  1
  O2-  O281  1  0.75083623  0.12486103  0.84979920  1
  O2-  O282  1  0.74947468  0.37577821  0.35018842  1
  O2-  O283  1  0.74963167  0.37468924  0.84845341  1
  O2-  O284  1  0.74832502  0.62488477  0.34936617  1
  O2-  O285  1  0.74927208  0.62491875  0.85007092  1
  O2-  O286  1  0.74985194  0.87515943  0.34666400  1
  O2-  O287  1  0.75130352  0.87558395  0.84788142  1
