# generated using pymatgen
data_BaYFeCuO5
_symmetry_space_group_name_H-M   'P 1'
_cell_length_a   15.66079884
_cell_length_b   15.66687423
_cell_length_c   15.47064914
_cell_angle_alpha   89.99637183
_cell_angle_beta   90.00330798
_cell_angle_gamma   89.99972913
_symmetry_Int_Tables_number   1
_chemical_formula_structural   BaYFeCuO5
_chemical_formula_sum   'Ba32 Y32 Fe32 Cu32 O160'
_cell_volume   3795.81295408
_cell_formula_units_Z   32
loop_
 _symmetry_equiv_pos_site_id
 _symmetry_equiv_pos_as_xyz
  1  'x, y, z'
loop_
 _atom_type_symbol
 _atom_type_oxidation_number
  Ba2+  2.0
  Y3+  3.0
  Fe3+  3.0
  Cu2+  2.0
  O2-  -2.0
loop_
 _atom_site_type_symbol
 _atom_site_label
 _atom_site_symmetry_multiplicity
 _atom_site_fract_x
 _atom_site_fract_y
 _atom_site_fract_z
 _atom_site_occupancy
  Ba2+  Ba0  1  -0.00500505  -0.00180191  0.00801493  1
  Ba2+  Ba1  1  -0.01191928  -0.00261310  0.51178073  1
  Ba2+  Ba2  1  -0.00399108  0.25076363  0.00762198  1
  Ba2+  Ba3  1  0.00297868  0.25368302  0.51105372  1
  Ba2+  Ba4  1  0.00557048  0.49700319  0.00006194  1
  Ba2+  Ba5  1  0.00877874  0.50369714  0.51034768  1
  Ba2+  Ba6  1  0.00532623  0.75399298  -0.00035442  1
  Ba2+  Ba7  1  -0.00501114  0.74536054  0.51233485  1
  Ba2+  Ba8  1  0.25368044  -0.00425829  0.01531000  1
  Ba2+  Ba9  1  0.26324116  -0.00012105  0.50685240  1
  Ba2+  Ba10  1  0.25263360  0.25342382  0.01418196  1
  Ba2+  Ba11  1  0.25587044  0.25543483  0.51143197  1
  Ba2+  Ba12  1  0.24500751  0.49712673  0.00001869  1
  Ba2+  Ba13  1  0.24917527  0.50280606  0.51102729  1
  Ba2+  Ba14  1  0.24516115  0.75368878  -0.00103920  1
  Ba2+  Ba15  1  0.25656886  0.74363093  0.50663564  1
  Ba2+  Ba16  1  0.49558152  -0.00437061  0.01332658  1
  Ba2+  Ba17  1  0.50010527  -0.00313380  0.51054698  1
  Ba2+  Ba18  1  0.49096303  0.24907991  0.01628721  1
  Ba2+  Ba19  1  0.49898510  0.24793263  0.52006171  1
  Ba2+  Ba20  1  0.49850172  0.50118830  0.01493303  1
  Ba2+  Ba21  1  0.49779882  0.50239882  0.52031959  1
  Ba2+  Ba22  1  0.50262101  0.75401355  0.01283215  1
  Ba2+  Ba23  1  0.49861534  0.75243584  0.51057363  1
  Ba2+  Ba24  1  0.75621597  -0.00180911  0.00748577  1
  Ba2+  Ba25  1  0.74641493  -0.00511684  0.51578648  1
  Ba2+  Ba26  1  0.75994722  0.24655398  0.01053573  1
  Ba2+  Ba27  1  0.74433202  0.24552793  0.52313958  1
  Ba2+  Ba28  1  0.75084193  0.50103501  0.01449386  1
  Ba2+  Ba29  1  0.74476757  0.50440579  0.52221732  1
  Ba2+  Ba30  1  0.74676902  0.75429470  0.01188227  1
  Ba2+  Ba31  1  0.74751507  0.75486065  0.51522933  1
  Y3+  Y32  1  -0.00312108  -0.00062622  0.25885072  1
  Y3+  Y33  1  -0.00254954  0.00028692  0.75727490  1
  Y3+  Y34  1  -0.00040838  0.25049524  0.25808959  1
  Y3+  Y35  1  0.00037626  0.24902047  0.75724841  1
  Y3+  Y36  1  0.00205259  0.49986762  0.26152320  1
  Y3+  Y37  1  0.00426941  0.50085439  0.75358902  1
  Y3+  Y38  1  -0.00066055  0.75067243  0.26270422  1
  Y3+  Y39  1  0.00088792  0.74928316  0.75390089  1
  Y3+  Y40  1  0.25433462  -0.00009124  0.26227205  1
  Y3+  Y41  1  0.25151973  -0.00070479  0.75403391  1
  Y3+  Y42  1  0.25116815  0.25028982  0.26131714  1
  Y3+  Y43  1  0.24981001  0.25120953  0.75360804  1
  Y3+  Y44  1  0.24895698  0.50095103  0.26327530  1
  Y3+  Y45  1  0.24800951  0.50042494  0.75218120  1
  Y3+  Y46  1  0.25204573  0.74902152  0.26399197  1
  Y3+  Y47  1  0.24976897  0.74878246  0.75262781  1
  Y3+  Y48  1  0.49768017  -0.00177228  0.26187920  1
  Y3+  Y49  1  0.50056677  -0.00176619  0.75255378  1
  Y3+  Y50  1  0.49690410  0.24885245  0.25628908  1
  Y3+  Y51  1  0.49938467  0.24891834  0.75432717  1
  Y3+  Y52  1  0.49867029  0.50200223  0.25551253  1
  Y3+  Y53  1  0.49887574  0.50107983  0.75477096  1
  Y3+  Y54  1  0.49928862  0.75139987  0.26143044  1
  Y3+  Y55  1  0.50013922  0.75141843  0.75257236  1
  Y3+  Y56  1  0.75202787  -0.00232451  0.25859649  1
  Y3+  Y57  1  0.75003395  -0.00084452  0.75597769  1
  Y3+  Y58  1  0.75287595  0.24936738  0.25262315  1
  Y3+  Y59  1  0.75026410  0.24661281  0.75890551  1
  Y3+  Y60  1  0.75037616  0.50053180  0.25327144  1
  Y3+  Y61  1  0.74904983  0.50140951  0.75682635  1
  Y3+  Y62  1  0.74973938  0.75285329  0.25962247  1
  Y3+  Y63  1  0.74885751  0.75210571  0.75392002  1
  Fe3+  Fe64  1  0.62509140  0.62441170  0.37575090  1
  Fe3+  Fe65  1  0.62434422  0.37442745  0.87860755  1
  Fe3+  Fe66  1  0.37437057  0.62540926  0.87843186  1
  Fe3+  Fe67  1  0.12514120  0.12476590  0.38115750  1
  Fe3+  Fe68  1  0.87311269  0.12594308  0.37807329  1
  Fe3+  Fe69  1  0.87468294  0.87412265  0.87463702  1
  Fe3+  Fe70  1  0.37444953  0.12448544  0.87573741  1
  Fe3+  Fe71  1  0.12455756  0.87541757  0.38253856  1
  Fe3+  Fe72  1  0.37723058  0.37590640  0.37671911  1
  Fe3+  Fe73  1  0.62563265  0.37457771  0.37515711  1
  Fe3+  Fe74  1  0.37534772  0.87465311  0.87444508  1
  Fe3+  Fe75  1  0.12591973  0.12420380  0.87976056  1
  Fe3+  Fe76  1  0.87559285  0.62535599  0.87801352  1
  Fe3+  Fe77  1  0.37464753  0.37514891  0.87497808  1
  Fe3+  Fe78  1  0.62540053  0.12572489  0.37504959  1
  Fe3+  Fe79  1  0.62437676  0.62600829  0.87705589  1
  Fe3+  Fe80  1  0.62388143  0.12356070  0.87987565  1
  Fe3+  Fe81  1  0.87530080  0.37563005  0.87474831  1
  Fe3+  Fe82  1  0.87294722  0.62417234  0.37772202  1
  Fe3+  Fe83  1  0.87301620  0.37557726  0.38044982  1
  Fe3+  Fe84  1  0.12532363  0.87434111  0.14172619  1
  Fe3+  Fe85  1  0.62481515  0.87577366  0.13985056  1
  Fe3+  Fe86  1  0.87712576  0.62628653  0.13379839  1
  Fe3+  Fe87  1  0.62469544  0.37446918  0.13277000  1
  Fe3+  Fe88  1  0.12510632  0.12414662  0.63460696  1
  Fe3+  Fe89  1  0.62468324  0.12384766  0.13368316  1
  Fe3+  Fe90  1  0.87484092  0.37549933  0.63549566  1
  Fe3+  Fe91  1  0.12537071  0.12418630  0.13697214  1
  Fe3+  Fe92  1  0.37298590  0.62614563  0.13489179  1
  Fe3+  Fe93  1  0.12503232  0.87531301  0.63457815  1
  Fe3+  Fe94  1  0.12530878  0.37567396  0.14065434  1
  Fe3+  Fe95  1  0.12526511  0.62605112  0.13950030  1
  Cu2+  Cu96  1  0.37688386  0.62359126  0.37207087  1
  Cu2+  Cu97  1  0.37597671  0.87420956  0.37383244  1
  Cu2+  Cu98  1  0.12510050  0.37439122  0.37545831  1
  Cu2+  Cu99  1  0.12558476  0.87636884  0.85894900  1
  Cu2+  Cu100  1  0.87533825  0.12452504  0.87177758  1
  Cu2+  Cu101  1  0.12496301  0.62554045  0.37488804  1
  Cu2+  Cu102  1  0.12534650  0.62537267  0.86101468  1
  Cu2+  Cu103  1  0.87396994  0.87468093  0.37462099  1
  Cu2+  Cu104  1  0.37691459  0.12657486  0.37367548  1
  Cu2+  Cu105  1  0.12550504  0.37349198  0.85941628  1
  Cu2+  Cu106  1  0.62430058  0.87515165  0.86265401  1
  Cu2+  Cu107  1  0.62543166  0.87538556  0.37186811  1
  Cu2+  Cu108  1  0.87615457  0.87357251  0.15223060  1
  Cu2+  Cu109  1  0.12544513  0.62608907  0.64207471  1
  Cu2+  Cu110  1  0.62447178  0.87501271  0.64237241  1
  Cu2+  Cu111  1  0.62495806  0.62603698  0.14815414  1
  Cu2+  Cu112  1  0.37483241  0.12460082  0.64125028  1
  Cu2+  Cu113  1  0.87695048  0.37646635  0.15036760  1
  Cu2+  Cu114  1  0.12518795  0.37439926  0.64112211  1
  Cu2+  Cu115  1  0.37460080  0.87440494  0.64239494  1
  Cu2+  Cu116  1  0.62460378  0.62572659  0.65187264  1
  Cu2+  Cu117  1  0.87500933  0.87463142  0.64322345  1
  Cu2+  Cu118  1  0.87663312  0.12399581  0.14104658  1
  Cu2+  Cu119  1  0.62520996  0.37474591  0.65325598  1
  Cu2+  Cu120  1  0.37430065  0.12430015  0.15241683  1
  Cu2+  Cu121  1  0.37515629  0.62530102  0.64277284  1
  Cu2+  Cu122  1  0.37529889  0.37547487  0.65061112  1
  Cu2+  Cu123  1  0.87456125  0.62453910  0.65094736  1
  Cu2+  Cu124  1  0.62473904  0.12411838  0.65372355  1
  Cu2+  Cu125  1  0.37413169  0.87340628  0.15548642  1
  Cu2+  Cu126  1  0.37338945  0.37684617  0.15141761  1
  Cu2+  Cu127  1  0.87500508  0.12532248  0.64970315  1
  O2-  O128  1  0.12632990  0.12426701  0.00834771  1
  O2-  O129  1  0.12456549  0.12465793  0.50768120  1
  O2-  O130  1  0.12487876  0.37515342  0.01997281  1
  O2-  O131  1  0.12466473  0.37360538  0.50792867  1
  O2-  O132  1  0.12531821  0.62567215  0.01920200  1
  O2-  O133  1  0.12476523  0.62621007  0.50832666  1
  O2-  O134  1  0.12543531  0.87513489  0.02117855  1
  O2-  O135  1  0.12429674  0.87609890  0.50861364  1
  O2-  O136  1  0.37280631  0.12414853  -0.00392558  1
  O2-  O137  1  0.37701952  0.12723019  0.50702597  1
  O2-  O138  1  0.37407658  0.37539252  -0.00454224  1
  O2-  O139  1  0.37934399  0.37589348  0.49734016  1
  O2-  O140  1  0.37241965  0.62645915  0.00604908  1
  O2-  O141  1  0.37732479  0.62281119  0.50737917  1
  O2-  O142  1  0.37414372  0.87428640  -0.00470911  1
  O2-  O143  1  0.37590700  0.87419015  0.50732880  1
  O2-  O144  1  0.62364534  0.12364654  0.00649020  1
  O2-  O145  1  0.62574434  0.12729154  0.49531510  1
  O2-  O146  1  0.62465481  0.37462351  0.00431620  1
  O2-  O147  1  0.62640695  0.37418330  0.49450806  1
  O2-  O148  1  0.62449867  0.62525191  -0.00286948  1
  O2-  O149  1  0.62556837  0.62267638  0.49589428  1
  O2-  O150  1  0.62454349  0.87589834  0.01871509  1
  O2-  O151  1  0.62472450  0.87523665  0.50793735  1
  O2-  O152  1  0.87743347  0.12449942  0.00675148  1
  O2-  O153  1  0.87148434  0.12734409  0.49809707  1
  O2-  O154  1  0.87605070  0.37661224  -0.00452598  1
  O2-  O155  1  0.87171305  0.37569292  0.50645029  1
  O2-  O156  1  0.87774111  0.62579096  0.00527535  1
  O2-  O157  1  0.87101907  0.62234845  0.49783340  1
  O2-  O158  1  0.87606737  0.87306419  -0.00399481  1
  O2-  O159  1  0.87364246  0.87434085  0.50812957  1
  O2-  O160  1  0.12546430  0.00071000  0.16782724  1
  O2-  O161  1  0.12428844  0.00024931  0.66421011  1
  O2-  O162  1  0.12552143  0.24883309  0.16570619  1
  O2-  O163  1  0.12415449  0.24686186  0.66443087  1
  O2-  O164  1  0.12486287  0.50097681  0.16939002  1
  O2-  O165  1  0.12501105  0.50014240  0.66416987  1
  O2-  O166  1  0.12505224  0.74976115  0.17184910  1
  O2-  O167  1  0.12425787  0.75287692  0.66466585  1
  O2-  O168  1  0.37421728  -0.00111074  0.16601114  1
  O2-  O169  1  0.37471584  -0.00047818  0.66414824  1
  O2-  O170  1  0.37389104  0.25090049  0.16166840  1
  O2-  O171  1  0.37518116  0.25136786  0.66458304  1
  O2-  O172  1  0.37434747  0.50275378  0.16077073  1
  O2-  O173  1  0.37556586  0.49883233  0.66674887  1
  O2-  O174  1  0.37465758  0.74777117  0.16585628  1
  O2-  O175  1  0.37477919  0.75014636  0.66575806  1
  O2-  O176  1  0.62439268  0.00132391  0.16579657  1
  O2-  O177  1  0.62548654  0.00107522  0.66638398  1
  O2-  O178  1  0.62457472  0.24980360  0.15705715  1
  O2-  O179  1  0.62536406  0.24938230  0.66665758  1
  O2-  O180  1  0.62551195  0.49822546  0.15825842  1
  O2-  O181  1  0.62529090  0.50023541  0.66566946  1
  O2-  O182  1  0.62514288  0.75125981  0.16646850  1
  O2-  O183  1  0.62513613  0.74886082  0.66481836  1
  O2-  O184  1  0.87621767  -0.00232610  0.16538701  1
  O2-  O185  1  0.87487835  0.00175110  0.66555632  1
  O2-  O186  1  0.87674118  0.25203696  0.16377180  1
  O2-  O187  1  0.87448675  0.25157807  0.66349171  1
  O2-  O188  1  0.87565655  0.50248942  0.16160967  1
  O2-  O189  1  0.87374509  0.49843020  0.66441955  1
  O2-  O190  1  0.87547567  0.74793023  0.16447687  1
  O2-  O191  1  0.87517628  0.74803247  0.66587348  1
  O2-  O192  1  0.00357155  0.12480097  0.16715778  1
  O2-  O193  1  0.00154823  0.12481530  0.66400877  1
  O2-  O194  1  0.00181787  0.37529437  0.17125887  1
  O2-  O195  1  -0.00310303  0.37478834  0.66317711  1
  O2-  O196  1  -0.00010952  0.62542494  0.16815355  1
  O2-  O197  1  -0.00135215  0.62451470  0.66569366  1
  O2-  O198  1  0.00089591  0.87461467  0.17050965  1
  O2-  O199  1  0.00220776  0.87577826  0.66399378  1
  O2-  O200  1  0.24879288  0.12456345  0.16633989  1
  O2-  O201  1  0.24714368  0.12474797  0.66357445  1
  O2-  O202  1  0.24890826  0.37497315  0.16922408  1
  O2-  O203  1  0.25125886  0.37468124  0.66403732  1
  O2-  O204  1  0.25028595  0.62549563  0.16917973  1
  O2-  O205  1  0.25030872  0.62512236  0.66639557  1
  O2-  O206  1  0.24970646  0.87508402  0.17069788  1
  O2-  O207  1  0.24700567  0.87559985  0.66392823  1
  O2-  O208  1  0.50051488  0.12560817  0.15928380  1
  O2-  O209  1  0.50101509  0.12525507  0.66603003  1
  O2-  O210  1  0.50071606  0.37543770  0.15787528  1
  O2-  O211  1  0.50093131  0.37491369  0.66549145  1
  O2-  O212  1  0.49806654  0.62488314  0.15898841  1
  O2-  O213  1  0.50142804  0.62447086  0.66670734  1
  O2-  O214  1  0.49928232  0.87485612  0.16522325  1
  O2-  O215  1  0.49978868  0.87492127  0.66485105  1
  O2-  O216  1  0.74747230  0.12565968  0.15883588  1
  O2-  O217  1  0.74960356  0.12551765  0.66703831  1
  O2-  O218  1  0.74897363  0.37476426  0.15872481  1
  O2-  O219  1  0.75123783  0.37478778  0.66514823  1
  O2-  O220  1  0.75209181  0.62456635  0.15731063  1
  O2-  O221  1  0.74917323  0.62439918  0.66654137  1
  O2-  O222  1  0.75050225  0.87504740  0.16436829  1
  O2-  O223  1  0.75014155  0.87505104  0.66574353  1
  O2-  O224  1  0.12433429  0.00067345  0.35161041  1
  O2-  O225  1  0.12544241  0.00202903  0.84870087  1
  O2-  O226  1  0.12410648  0.24658013  0.34909153  1
  O2-  O227  1  0.12517623  0.24741983  0.84923524  1
  O2-  O228  1  0.12435683  0.49998346  0.35069974  1
  O2-  O229  1  0.12471355  0.49937949  0.84932010  1
  O2-  O230  1  0.12463070  0.75300676  0.35283250  1
  O2-  O231  1  0.12526333  0.75103408  0.84979492  1
  O2-  O232  1  0.37575197  0.00044346  0.35114338  1
  O2-  O233  1  0.37502178  0.00005232  0.84511202  1
  O2-  O234  1  0.37590595  0.25245014  0.34519373  1
  O2-  O235  1  0.37468694  0.24988861  0.84599653  1
  O2-  O236  1  0.37642086  0.49815674  0.34345313  1
  O2-  O237  1  0.37454875  0.50120208  0.84961120  1
  O2-  O238  1  0.37558506  0.74910659  0.34990561  1
  O2-  O239  1  0.37410735  0.74856453  0.84822447  1
  O2-  O240  1  0.62571927  0.00190304  0.34729613  1
  O2-  O241  1  0.62407314  0.00104749  0.85092950  1
  O2-  O242  1  0.62607964  0.25084862  0.33857476  1
  O2-  O243  1  0.62495536  0.24992027  0.85133520  1
  O2-  O244  1  0.62598487  0.49897421  0.33988107  1
  O2-  O245  1  0.62478064  0.49902434  0.84906433  1
  O2-  O246  1  0.62575880  0.74851496  0.34842463  1
  O2-  O247  1  0.62494100  0.74957071  0.84793696  1
  O2-  O248  1  0.87487139  0.00253298  0.34851165  1
  O2-  O249  1  0.87518872  -0.00229545  0.84809114  1
  O2-  O250  1  0.87452154  0.25147467  0.34639733  1
  O2-  O251  1  0.87490278  0.25198141  0.84668316  1
  O2-  O252  1  0.87382287  0.49831797  0.34496551  1
  O2-  O253  1  0.87559356  0.50154206  0.84756649  1
  O2-  O254  1  0.87434369  0.74781785  0.34789645  1
  O2-  O255  1  0.87567879  0.74836927  0.84821181  1
  O2-  O256  1  -0.00039024  0.12547449  0.35068117  1
  O2-  O257  1  0.00294969  0.12513049  0.84925850  1
  O2-  O258  1  -0.00405546  0.37457051  0.35404589  1
  O2-  O259  1  0.00039678  0.37469263  0.84664981  1
  O2-  O260  1  -0.00282038  0.62428502  0.34971874  1
  O2-  O261  1  -0.00051889  0.62508203  0.85048506  1
  O2-  O262  1  0.00210482  0.87589345  0.35296830  1
  O2-  O263  1  0.00015404  0.87483299  0.84724449  1
  O2-  O264  1  0.24769572  0.12491646  0.35178633  1
  O2-  O265  1  0.24967863  0.12489573  0.84624333  1
  O2-  O266  1  0.25197147  0.37449398  0.35094130  1
  O2-  O267  1  0.25030597  0.37467507  0.84735135  1
  O2-  O268  1  0.25056720  0.62465935  0.35197574  1
  O2-  O269  1  0.25090059  0.62494220  0.85087855  1
  O2-  O270  1  0.24741128  0.87602519  0.35340289  1
  O2-  O271  1  0.25075344  0.87524265  0.84651370  1
  O2-  O272  1  0.50251207  0.12612549  0.34230823  1
  O2-  O273  1  0.50024554  0.12568081  0.84891606  1
  O2-  O274  1  0.50152239  0.37504196  0.33991140  1
  O2-  O275  1  0.50077719  0.37494153  0.84835702  1
  O2-  O276  1  0.50265309  0.62408752  0.34249438  1
  O2-  O277  1  0.49840900  0.62457761  0.84956808  1
  O2-  O278  1  0.50064995  0.87491251  0.34838841  1
  O2-  O279  1  0.49921876  0.87447221  0.84732150  1
  O2-  O280  1  0.75048690  0.12630747  0.34013552  1
  O2-  O281  1  0.74683376  0.12512622  0.85178987  1
  O2-  O282  1  0.75138369  0.37484506  0.34176187  1
  O2-  O283  1  0.74826657  0.37542457  0.84840063  1
  O2-  O284  1  0.74965438  0.62385793  0.33965948  1
  O2-  O285  1  0.75115386  0.62434595  0.85003266  1
  O2-  O286  1  0.74996009  0.87534405  0.34731563  1
  O2-  O287  1  0.74980525  0.87454025  0.84869436  1
