# generated using pymatgen
data_BaYFeCuO5
_symmetry_space_group_name_H-M   'P 1'
_cell_length_a   15.67413478
_cell_length_b   15.67552712
_cell_length_c   15.50489767
_cell_angle_alpha   90.00191525
_cell_angle_beta   90.00465902
_cell_angle_gamma   90.00523393
_symmetry_Int_Tables_number   1
_chemical_formula_structural   BaYFeCuO5
_chemical_formula_sum   'Ba32 Y32 Fe32 Cu32 O160'
_cell_volume   3809.55836363
_cell_formula_units_Z   32
loop_
 _symmetry_equiv_pos_site_id
 _symmetry_equiv_pos_as_xyz
  1  'x, y, z'
loop_
 _atom_type_symbol
 _atom_type_oxidation_number
  Ba2+  2.0
  Y3+  3.0
  Fe3+  3.0
  Cu2+  2.0
  O2-  -2.0
loop_
 _atom_site_type_symbol
 _atom_site_label
 _atom_site_symmetry_multiplicity
 _atom_site_fract_x
 _atom_site_fract_y
 _atom_site_fract_z
 _atom_site_occupancy
  Ba2+  Ba0  1  0.00281053  -0.00413143  0.01180408  1
  Ba2+  Ba1  1  0.00791020  0.00098069  0.50823196  1
  Ba2+  Ba2  1  0.00485950  0.24481981  0.02247687  1
  Ba2+  Ba3  1  -0.00484340  0.24521550  0.49991881  1
  Ba2+  Ba4  1  0.00225785  0.50815512  0.01878545  1
  Ba2+  Ba5  1  0.00358203  0.50272612  0.50270565  1
  Ba2+  Ba6  1  0.00042523  0.75148779  0.00505295  1
  Ba2+  Ba7  1  0.01221018  0.75076899  0.50718504  1
  Ba2+  Ba8  1  0.24772126  -0.00266948  0.02048605  1
  Ba2+  Ba9  1  0.25123612  -0.00106007  0.51628028  1
  Ba2+  Ba10  1  0.24566212  0.24488914  0.02227430  1
  Ba2+  Ba11  1  0.25654193  0.24285316  0.50606232  1
  Ba2+  Ba12  1  0.24561859  0.50500726  0.02234604  1
  Ba2+  Ba13  1  0.25160857  0.50777824  0.50661111  1
  Ba2+  Ba14  1  0.24805563  0.75271647  0.02116396  1
  Ba2+  Ba15  1  0.24711414  0.75148775  0.51536668  1
  Ba2+  Ba16  1  0.50101668  -0.00335351  0.02046720  1
  Ba2+  Ba17  1  0.49634419  0.00233318  0.51227289  1
  Ba2+  Ba18  1  0.50320392  0.24477210  0.02140436  1
  Ba2+  Ba19  1  0.49836950  0.24579715  0.49996114  1
  Ba2+  Ba20  1  0.50362724  0.50514529  0.01091850  1
  Ba2+  Ba21  1  0.49589751  0.49544232  0.51182326  1
  Ba2+  Ba22  1  0.50183293  0.75417191  0.00998293  1
  Ba2+  Ba23  1  0.49369918  0.75509735  0.52250190  1
  Ba2+  Ba24  1  0.74786915  -0.00388952  0.01217072  1
  Ba2+  Ba25  1  0.74544496  0.00562017  0.50033983  1
  Ba2+  Ba26  1  0.74643803  0.24501538  0.02138495  1
  Ba2+  Ba27  1  0.74913451  0.24832919  0.49444717  1
  Ba2+  Ba28  1  0.75083368  0.50820906  0.00617797  1
  Ba2+  Ba29  1  0.74900225  0.49061823  0.50714063  1
  Ba2+  Ba30  1  0.75083497  0.75138241  -0.00480735  1
  Ba2+  Ba31  1  0.74522545  0.75544286  0.51269296  1
  Y3+  Y32  1  0.00167770  -0.00107045  0.25763043  1
  Y3+  Y33  1  0.00308247  -0.00276178  0.75770351  1
  Y3+  Y34  1  -0.00111313  0.24888096  0.25778454  1
  Y3+  Y35  1  0.00127897  0.24884097  0.75640261  1
  Y3+  Y36  1  0.00045548  0.50254123  0.25862931  1
  Y3+  Y37  1  0.00004875  0.50244128  0.75746226  1
  Y3+  Y38  1  0.00372102  0.74979984  0.25839082  1
  Y3+  Y39  1  0.00224596  0.75140951  0.75775710  1
  Y3+  Y40  1  0.25000807  -0.00157810  0.25761113  1
  Y3+  Y41  1  0.24895572  -0.00107038  0.75394132  1
  Y3+  Y42  1  0.25193454  0.24845700  0.25850169  1
  Y3+  Y43  1  0.25037361  0.24732059  0.75412683  1
  Y3+  Y44  1  0.24921205  0.50200623  0.25893236  1
  Y3+  Y45  1  0.24950871  0.50164046  0.75314121  1
  Y3+  Y46  1  0.24737332  0.75110951  0.25846807  1
  Y3+  Y47  1  0.24811248  0.75196084  0.75368432  1
  Y3+  Y48  1  0.49889550  0.00128988  0.25626549  1
  Y3+  Y49  1  0.49912578  -0.00158694  0.75619648  1
  Y3+  Y50  1  0.49883377  0.24705496  0.25794131  1
  Y3+  Y51  1  0.49908067  0.24925020  0.75495557  1
  Y3+  Y52  1  0.49883470  0.49944623  0.25549973  1
  Y3+  Y53  1  0.49999911  0.50016021  0.75724309  1
  Y3+  Y54  1  0.49813674  0.75210742  0.25258551  1
  Y3+  Y55  1  0.50054221  0.75195423  0.75927075  1
  Y3+  Y56  1  0.74910996  0.00171829  0.25582099  1
  Y3+  Y57  1  0.74867117  -0.00304389  0.75935105  1
  Y3+  Y58  1  0.75033290  0.24784967  0.25701726  1
  Y3+  Y59  1  0.74923439  0.25094708  0.75821834  1
  Y3+  Y60  1  0.75136569  0.49955432  0.25597500  1
  Y3+  Y61  1  0.75052934  0.50134788  0.75977023  1
  Y3+  Y62  1  0.75029450  0.75079019  0.25644133  1
  Y3+  Y63  1  0.74955736  0.75115765  0.76076894  1
  Fe3+  Fe64  1  0.62396877  0.12446079  0.87751827  1
  Fe3+  Fe65  1  0.12591788  0.37459705  0.37827132  1
  Fe3+  Fe66  1  0.87562570  0.87562928  0.38121678  1
  Fe3+  Fe67  1  0.62435891  0.37402772  0.87924359  1
  Fe3+  Fe68  1  0.37450571  0.87516920  0.37573733  1
  Fe3+  Fe69  1  0.12589345  0.12427975  0.87539901  1
  Fe3+  Fe70  1  0.62313016  0.87506132  0.37717110  1
  Fe3+  Fe71  1  0.12641646  0.62568261  0.87474846  1
  Fe3+  Fe72  1  0.87535710  0.12471931  0.87960549  1
  Fe3+  Fe73  1  0.37355362  0.37439541  0.88124821  1
  Fe3+  Fe74  1  0.62364094  0.62579963  0.38080608  1
  Fe3+  Fe75  1  0.87382659  0.62611757  0.38142604  1
  Fe3+  Fe76  1  0.37364799  0.62527940  0.87702041  1
  Fe3+  Fe77  1  0.37329717  0.87577256  0.87637822  1
  Fe3+  Fe78  1  0.37625397  0.62655208  0.37597365  1
  Fe3+  Fe79  1  0.12609112  0.12406797  0.37550735  1
  Fe3+  Fe80  1  0.62373845  0.37505402  0.37393934  1
  Fe3+  Fe81  1  0.37460696  0.12480035  0.87840031  1
  Fe3+  Fe82  1  0.12581102  0.37500602  0.87788302  1
  Fe3+  Fe83  1  0.87675155  0.37426511  0.88249143  1
  Fe3+  Fe84  1  0.87532309  0.37579226  0.13653536  1
  Fe3+  Fe85  1  0.62561352  0.12566841  0.63744265  1
  Fe3+  Fe86  1  0.12468425  0.37388536  0.63236470  1
  Fe3+  Fe87  1  0.62606291  0.62630848  0.13899772  1
  Fe3+  Fe88  1  0.87462875  0.37410978  0.63709791  1
  Fe3+  Fe89  1  0.87488859  0.87579384  0.63522198  1
  Fe3+  Fe90  1  0.87510733  0.87373027  0.14042874  1
  Fe3+  Fe91  1  0.37482939  0.37551657  0.13546429  1
  Fe3+  Fe92  1  0.37521805  0.37402569  0.63633427  1
  Fe3+  Fe93  1  0.62484727  0.62438658  0.63544820  1
  Fe3+  Fe94  1  0.87499446  0.62541821  0.63478429  1
  Fe3+  Fe95  1  0.87437929  0.12444771  0.63766464  1
  Cu2+  Cu96  1  0.12601357  0.62564679  0.37249321  1
  Cu2+  Cu97  1  0.37474561  0.37531742  0.36256584  1
  Cu2+  Cu98  1  0.62405986  0.62495229  0.86062548  1
  Cu2+  Cu99  1  0.87562390  0.12342518  0.36166289  1
  Cu2+  Cu100  1  0.87533316  0.37536831  0.36218174  1
  Cu2+  Cu101  1  0.87602956  0.87595234  0.86172765  1
  Cu2+  Cu102  1  0.62438065  0.12410345  0.36039944  1
  Cu2+  Cu103  1  0.87675216  0.62517329  0.87326211  1
  Cu2+  Cu104  1  0.37451147  0.12325374  0.37090268  1
  Cu2+  Cu105  1  0.12682250  0.87519075  0.87265353  1
  Cu2+  Cu106  1  0.62341960  0.87622173  0.87337761  1
  Cu2+  Cu107  1  0.12589283  0.87536543  0.37253487  1
  Cu2+  Cu108  1  0.37498281  0.62568044  0.14900264  1
  Cu2+  Cu109  1  0.62493868  0.12430107  0.15402826  1
  Cu2+  Cu110  1  0.12497418  0.62591081  0.15575760  1
  Cu2+  Cu111  1  0.62614989  0.87420947  0.14261206  1
  Cu2+  Cu112  1  0.87498509  0.62720025  0.14367632  1
  Cu2+  Cu113  1  0.62518218  0.37561540  0.14951316  1
  Cu2+  Cu114  1  0.37446234  0.12419450  0.14978815  1
  Cu2+  Cu115  1  0.12420569  0.87538947  0.64126599  1
  Cu2+  Cu116  1  0.12424956  0.12583460  0.64736812  1
  Cu2+  Cu117  1  0.62559154  0.87554602  0.65003067  1
  Cu2+  Cu118  1  0.37487424  0.87524728  0.65190295  1
  Cu2+  Cu119  1  0.12505337  0.12400858  0.15617315  1
  Cu2+  Cu120  1  0.87562205  0.12357536  0.15034247  1
  Cu2+  Cu121  1  0.37450335  0.87495198  0.15023721  1
  Cu2+  Cu122  1  0.62553053  0.37455969  0.65085724  1
  Cu2+  Cu123  1  0.12402337  0.87466837  0.14325698  1
  Cu2+  Cu124  1  0.12496781  0.37519443  0.15440136  1
  Cu2+  Cu125  1  0.37543032  0.62484813  0.65030778  1
  Cu2+  Cu126  1  0.12435559  0.62424746  0.64084656  1
  Cu2+  Cu127  1  0.37556241  0.12513994  0.64082088  1
  O2-  O128  1  0.12531091  0.12521731  -0.00438579  1
  O2-  O129  1  0.12558502  0.12621128  0.49621120  1
  O2-  O130  1  0.12542431  0.37512638  -0.00266741  1
  O2-  O131  1  0.12530894  0.37367929  0.50549119  1
  O2-  O132  1  0.12642882  0.62462918  -0.00485734  1
  O2-  O133  1  0.12538410  0.62335569  0.50666612  1
  O2-  O134  1  0.12500135  0.87487703  0.00775384  1
  O2-  O135  1  0.12561362  0.87614966  0.50776115  1
  O2-  O136  1  0.37397519  0.12539024  -0.00170690  1
  O2-  O137  1  0.37591809  0.12433009  0.50643730  1
  O2-  O138  1  0.37341241  0.37488500  0.00687046  1
  O2-  O139  1  0.37598664  0.37398952  0.51585116  1
  O2-  O140  1  0.37314780  0.62413764  -0.00339053  1
  O2-  O141  1  0.37781367  0.62594933  0.49614154  1
  O2-  O142  1  0.37353713  0.87567528  -0.00326431  1
  O2-  O143  1  0.37572254  0.87466119  0.49576855  1
  O2-  O144  1  0.62427576  0.12476833  -0.00234139  1
  O2-  O145  1  0.62628387  0.12652399  0.51709715  1
  O2-  O146  1  0.62440761  0.37420544  -0.00116638  1
  O2-  O147  1  0.62384308  0.37460300  0.49458776  1
  O2-  O148  1  0.62658170  0.62585893  0.01824280  1
  O2-  O149  1  0.62369762  0.62513934  0.50693534  1
  O2-  O150  1  0.62570641  0.87473856  0.00728994  1
  O2-  O151  1  0.62261001  0.87510756  0.49735043  1
  O2-  O152  1  0.87631498  0.12584046  -0.00062580  1
  O2-  O153  1  0.87236667  0.12599092  0.51786385  1
  O2-  O154  1  0.87712243  0.37484047  0.00807077  1
  O2-  O155  1  0.87353107  0.37323688  0.51711766  1
  O2-  O156  1  0.87562939  0.62561366  0.00777321  1
  O2-  O157  1  0.87349298  0.62444600  0.50815923  1
  O2-  O158  1  0.87494897  0.87385852  0.01978756  1
  O2-  O159  1  0.87455547  0.87653612  0.50850026  1
  O2-  O160  1  0.12474776  0.00078110  0.16568576  1
  O2-  O161  1  0.12388930  0.00174666  0.66345194  1
  O2-  O162  1  0.12492573  0.24929355  0.16485393  1
  O2-  O163  1  0.12452293  0.25197306  0.66285251  1
  O2-  O164  1  0.12463082  0.50092749  0.16690931  1
  O2-  O165  1  0.12401105  0.49624452  0.66141693  1
  O2-  O166  1  0.12485789  0.74904424  0.16722187  1
  O2-  O167  1  0.12484088  0.74944230  0.66366178  1
  O2-  O168  1  0.37460633  -0.00081690  0.16339917  1
  O2-  O169  1  0.37551547  -0.00185288  0.66303047  1
  O2-  O170  1  0.37477979  0.25175491  0.16388798  1
  O2-  O171  1  0.37486998  0.25187986  0.66802031  1
  O2-  O172  1  0.37458290  0.49838523  0.16349857  1
  O2-  O173  1  0.37574236  0.49853796  0.66606267  1
  O2-  O174  1  0.37515021  0.75081340  0.16237610  1
  O2-  O175  1  0.37518098  0.75085439  0.66300255  1
  O2-  O176  1  0.62537518  0.00064860  0.16513379  1
  O2-  O177  1  0.62544271  0.00023964  0.66430137  1
  O2-  O178  1  0.62500713  0.24995475  0.16375790  1
  O2-  O179  1  0.62629521  0.24996702  0.66715006  1
  O2-  O180  1  0.62524625  0.50089593  0.16793654  1
  O2-  O181  1  0.62535733  0.50125782  0.66195396  1
  O2-  O182  1  0.62489852  0.74871522  0.17022917  1
  O2-  O183  1  0.62572139  0.74847792  0.66250097  1
  O2-  O184  1  0.87508045  -0.00062905  0.16787095  1
  O2-  O185  1  0.87492474  -0.00086190  0.66549471  1
  O2-  O186  1  0.87565135  0.25107394  0.16302611  1
  O2-  O187  1  0.87449618  0.24988610  0.67005153  1
  O2-  O188  1  0.87558689  0.49795312  0.16541898  1
  O2-  O189  1  0.87464603  0.50094936  0.66555565  1
  O2-  O190  1  0.87551067  0.75153602  0.17375871  1
  O2-  O191  1  0.87337619  0.74981577  0.66077082  1
  O2-  O192  1  0.00088931  0.12514850  0.16661779  1
  O2-  O193  1  -0.00112866  0.12588017  0.66444452  1
  O2-  O194  1  -0.00109969  0.37518394  0.16623421  1
  O2-  O195  1  0.00031149  0.37464036  0.66485587  1
  O2-  O196  1  0.00154963  0.62465444  0.16887387  1
  O2-  O197  1  -0.00362469  0.62480142  0.66331159  1
  O2-  O198  1  -0.00135182  0.87504578  0.17046070  1
  O2-  O199  1  -0.00348975  0.87447730  0.66505640  1
  O2-  O200  1  0.24970516  0.12546050  0.16377791  1
  O2-  O201  1  0.24855679  0.12566353  0.66143152  1
  O2-  O202  1  0.25110285  0.37527454  0.16373727  1
  O2-  O203  1  0.24858684  0.37480066  0.66302105  1
  O2-  O204  1  0.24994308  0.62443576  0.16408377  1
  O2-  O205  1  0.25150900  0.62350243  0.66065190  1
  O2-  O206  1  0.25111026  0.87472850  0.16413364  1
  O2-  O207  1  0.25148866  0.87558118  0.66150869  1
  O2-  O208  1  0.49962913  0.12519014  0.16352178  1
  O2-  O209  1  0.50239059  0.12556685  0.66567556  1
  O2-  O210  1  0.49810602  0.37572008  0.16080573  1
  O2-  O211  1  0.50012805  0.37542781  0.66689388  1
  O2-  O212  1  0.50019799  0.62441841  0.16443607  1
  O2-  O213  1  0.50192310  0.62445342  0.66324166  1
  O2-  O214  1  0.49819909  0.87486665  0.16108660  1
  O2-  O215  1  0.49920535  0.87439339  0.66407259  1
  O2-  O216  1  0.74982893  0.12537635  0.16520691  1
  O2-  O217  1  0.75004243  0.12473599  0.67075038  1
  O2-  O218  1  0.75227931  0.37487169  0.16367527  1
  O2-  O219  1  0.75104727  0.37647514  0.66917056  1
  O2-  O220  1  0.74856720  0.62468928  0.17227356  1
  O2-  O221  1  0.74994696  0.62436892  0.66303063  1
  O2-  O222  1  0.75180138  0.87509994  0.17130028  1
  O2-  O223  1  0.75216363  0.87456172  0.66541516  1
  O2-  O224  1  0.12438156  0.00109407  0.34758064  1
  O2-  O225  1  0.12518631  0.00168063  0.84594255  1
  O2-  O226  1  0.12463913  0.25103921  0.34808982  1
  O2-  O227  1  0.12512623  0.25020085  0.84341133  1
  O2-  O228  1  0.12464851  0.49748649  0.35113942  1
  O2-  O229  1  0.12533740  0.49941338  0.84228327  1
  O2-  O230  1  0.12532244  0.75011123  0.35055468  1
  O2-  O231  1  0.12504180  0.74896672  0.84587351  1
  O2-  O232  1  0.37539400  -0.00221933  0.34575159  1
  O2-  O233  1  0.37469671  0.00105562  0.84426317  1
  O2-  O234  1  0.37507625  0.25079731  0.34865819  1
  O2-  O235  1  0.37477791  0.25128585  0.84850356  1
  O2-  O236  1  0.37600121  0.50106260  0.34704346  1
  O2-  O237  1  0.37483916  0.49830925  0.84786282  1
  O2-  O238  1  0.37585465  0.75033685  0.34369792  1
  O2-  O239  1  0.37533759  0.74960667  0.84509451  1
  O2-  O240  1  0.62535438  -0.00051360  0.34822347  1
  O2-  O241  1  0.62503668  0.00245414  0.84546844  1
  O2-  O242  1  0.62513665  0.24945335  0.34777582  1
  O2-  O243  1  0.62452217  0.25025434  0.84584019  1
  O2-  O244  1  0.62523565  0.50191693  0.34976234  1
  O2-  O245  1  0.62517519  0.49847737  0.84620447  1
  O2-  O246  1  0.62588828  0.74894266  0.35058557  1
  O2-  O247  1  0.62484204  0.74892915  0.84773824  1
  O2-  O248  1  0.87469574  -0.00237030  0.35158348  1
  O2-  O249  1  0.87499784  0.00039208  0.84786679  1
  O2-  O250  1  0.87502859  0.24935398  0.34841580  1
  O2-  O251  1  0.87554335  0.25129714  0.84921101  1
  O2-  O252  1  0.87421772  0.50269170  0.35057091  1
  O2-  O253  1  0.87502325  0.49577403  0.84875502  1
  O2-  O254  1  0.87287074  0.75027077  0.35594532  1
  O2-  O255  1  0.87528687  0.75282385  0.84611477  1
  O2-  O256  1  0.00059015  0.12566822  0.34933879  1
  O2-  O257  1  -0.00002747  0.12523915  0.84480057  1
  O2-  O258  1  0.00133211  0.37495593  0.35163180  1
  O2-  O259  1  -0.00020587  0.37485914  0.84688427  1
  O2-  O260  1  -0.00354091  0.62519996  0.35297887  1
  O2-  O261  1  0.00278310  0.62466176  0.84484412  1
  O2-  O262  1  -0.00246315  0.87420592  0.35333265  1
  O2-  O263  1  -0.00068487  0.87517114  0.84886765  1
  O2-  O264  1  0.24865726  0.12562385  0.34585560  1
  O2-  O265  1  0.25045331  0.12606380  0.84300337  1
  O2-  O266  1  0.24842983  0.37506941  0.34849918  1
  O2-  O267  1  0.25100592  0.37481620  0.84538901  1
  O2-  O268  1  0.25257660  0.62431032  0.34716607  1
  O2-  O269  1  0.25018582  0.62406925  0.84093314  1
  O2-  O270  1  0.25124984  0.87474867  0.34626969  1
  O2-  O271  1  0.25199166  0.87510760  0.84262032  1
  O2-  O272  1  0.50032255  0.12503925  0.34743621  1
  O2-  O273  1  0.49915645  0.12611175  0.84522113  1
  O2-  O274  1  0.50062486  0.37503820  0.34360415  1
  O2-  O275  1  0.49820209  0.37570115  0.84969747  1
  O2-  O276  1  0.50182081  0.62485407  0.34582923  1
  O2-  O277  1  0.49876126  0.62377375  0.84679598  1
  O2-  O278  1  0.50038432  0.87478585  0.34234041  1
  O2-  O279  1  0.49717910  0.87500475  0.84637356  1
  O2-  O280  1  0.75079938  0.12509162  0.34978085  1
  O2-  O281  1  0.75026728  0.12582629  0.84876768  1
  O2-  O282  1  0.74935528  0.37505076  0.34710062  1
  O2-  O283  1  0.75124352  0.37500040  0.85148330  1
  O2-  O284  1  0.74905077  0.62456405  0.35483827  1
  O2-  O285  1  0.74875053  0.62510521  0.84799832  1
  O2-  O286  1  0.75042947  0.87510037  0.35297282  1
  O2-  O287  1  0.75171469  0.87465316  0.84974404  1
