# generated using pymatgen
data_BaYFeCuO5
_symmetry_space_group_name_H-M   'P 1'
_cell_length_a   15.67141581
_cell_length_b   15.67402425
_cell_length_c   15.48962416
_cell_angle_alpha   89.99504663
_cell_angle_beta   89.99486107
_cell_angle_gamma   89.99768131
_symmetry_Int_Tables_number   1
_chemical_formula_structural   BaYFeCuO5
_chemical_formula_sum   'Ba32 Y32 Fe32 Cu32 O160'
_cell_volume   3804.78065536
_cell_formula_units_Z   32
loop_
 _symmetry_equiv_pos_site_id
 _symmetry_equiv_pos_as_xyz
  1  'x, y, z'
loop_
 _atom_type_symbol
 _atom_type_oxidation_number
  Ba2+  2.0
  Y3+  3.0
  Fe3+  3.0
  Cu2+  2.0
  O2-  -2.0
loop_
 _atom_site_type_symbol
 _atom_site_label
 _atom_site_symmetry_multiplicity
 _atom_site_fract_x
 _atom_site_fract_y
 _atom_site_fract_z
 _atom_site_occupancy
  Ba2+  Ba0  1  0.00121010  0.00067780  0.02886029  1
  Ba2+  Ba1  1  0.00172862  0.00397140  0.50933434  1
  Ba2+  Ba2  1  -0.00622482  0.24536678  0.01846922  1
  Ba2+  Ba3  1  0.00293753  0.24681367  0.51037982  1
  Ba2+  Ba4  1  -0.00979552  0.49715395  0.00127216  1
  Ba2+  Ba5  1  -0.00238759  0.49301015  0.51767706  1
  Ba2+  Ba6  1  -0.00239377  0.75728181  0.01265628  1
  Ba2+  Ba7  1  -0.00296282  0.75621819  0.51649771  1
  Ba2+  Ba8  1  0.25032204  -0.00200731  0.01408572  1
  Ba2+  Ba9  1  0.24138126  0.00463840  0.50320455  1
  Ba2+  Ba10  1  0.25279451  0.24301572  0.01216928  1
  Ba2+  Ba11  1  0.24361476  0.24994708  0.50620100  1
  Ba2+  Ba12  1  0.25797593  0.49968853  0.01720788  1
  Ba2+  Ba13  1  0.25214450  0.49284104  0.51733916  1
  Ba2+  Ba14  1  0.25396297  0.75921037  0.01745358  1
  Ba2+  Ba15  1  0.24826905  0.75143826  0.51137285  1
  Ba2+  Ba16  1  0.49226769  0.00198151  0.00461028  1
  Ba2+  Ba17  1  0.50302354  -0.00188467  0.50214379  1
  Ba2+  Ba18  1  0.50075360  0.24763951  0.00673124  1
  Ba2+  Ba19  1  0.49593271  0.25595946  0.51308369  1
  Ba2+  Ba20  1  0.49661809  0.49521221  0.01134679  1
  Ba2+  Ba21  1  0.49983460  0.49978991  0.52029302  1
  Ba2+  Ba22  1  0.48930096  0.75344449  0.01164354  1
  Ba2+  Ba23  1  0.50720436  0.74691106  0.50511058  1
  Ba2+  Ba24  1  0.75534627  0.00598748  0.02389753  1
  Ba2+  Ba25  1  0.75551030  -0.00350064  0.51112242  1
  Ba2+  Ba26  1  0.75370423  0.25044731  0.01158937  1
  Ba2+  Ba27  1  0.75673103  0.25249216  0.51666742  1
  Ba2+  Ba28  1  0.75475228  0.49237340  -0.00184292  1
  Ba2+  Ba29  1  0.75006808  0.50020568  0.51985500  1
  Ba2+  Ba30  1  0.75870575  0.75120083  0.00557547  1
  Ba2+  Ba31  1  0.74821514  0.75154766  0.51215636  1
  Y3+  Y32  1  0.00132854  0.00207958  0.26363920  1
  Y3+  Y33  1  0.00124601  0.00088952  0.74766352  1
  Y3+  Y34  1  0.00036950  0.24886333  0.26109672  1
  Y3+  Y35  1  -0.00053395  0.24972916  0.75262615  1
  Y3+  Y36  1  0.00020948  0.49754693  0.25645025  1
  Y3+  Y37  1  -0.00230218  0.49792333  0.75768531  1
  Y3+  Y38  1  0.00139703  0.75224007  0.25856661  1
  Y3+  Y39  1  -0.00090381  0.75065849  0.75499925  1
  Y3+  Y40  1  0.24736743  0.00029138  0.26098370  1
  Y3+  Y41  1  0.24950769  -0.00060052  0.75526353  1
  Y3+  Y42  1  0.24800512  0.24869173  0.26119292  1
  Y3+  Y43  1  0.24791215  0.24932207  0.75382087  1
  Y3+  Y44  1  0.24990077  0.49895555  0.25718038  1
  Y3+  Y45  1  0.24953380  0.49867912  0.75526035  1
  Y3+  Y46  1  0.25029966  0.75256188  0.25771367  1
  Y3+  Y47  1  0.25024714  0.75197402  0.75615801  1
  Y3+  Y48  1  0.50086492  0.00000896  0.25912592  1
  Y3+  Y49  1  0.49897405  -0.00175218  0.75699382  1
  Y3+  Y50  1  0.49947901  0.24853189  0.25782942  1
  Y3+  Y51  1  0.50053972  0.25095008  0.75803505  1
  Y3+  Y52  1  0.49924076  0.50077253  0.25511454  1
  Y3+  Y53  1  0.50044265  0.49801744  0.75910528  1
  Y3+  Y54  1  0.50009664  0.75145669  0.25764090  1
  Y3+  Y55  1  0.49890004  0.75179665  0.75726786  1
  Y3+  Y56  1  0.75045748  0.00182798  0.26162523  1
  Y3+  Y57  1  0.75065685  -0.00012944  0.75098908  1
  Y3+  Y58  1  0.75253597  0.24885957  0.25609570  1
  Y3+  Y59  1  0.75216976  0.25178733  0.75775300  1
  Y3+  Y60  1  0.75033256  0.49935041  0.25492094  1
  Y3+  Y61  1  0.75278507  0.49734074  0.76091494  1
  Y3+  Y62  1  0.74783647  0.75089630  0.25883615  1
  Y3+  Y63  1  0.75160030  0.75074448  0.75612502  1
  Fe3+  Fe64  1  0.87459281  0.37557788  0.37627331  1
  Fe3+  Fe65  1  0.12407503  0.12384046  0.87655954  1
  Fe3+  Fe66  1  0.87499056  0.87459062  0.37570348  1
  Fe3+  Fe67  1  0.87637291  0.87851978  0.87406130  1
  Fe3+  Fe68  1  0.37529919  0.37527662  0.37540095  1
  Fe3+  Fe69  1  0.12474781  0.62559422  0.88005589  1
  Fe3+  Fe70  1  0.62582292  0.87609923  0.88030600  1
  Fe3+  Fe71  1  0.37369068  0.62557088  0.87609712  1
  Fe3+  Fe72  1  0.62497414  0.62536916  0.88101212  1
  Fe3+  Fe73  1  0.87446287  0.62427464  0.37830338  1
  Fe3+  Fe74  1  0.12418208  0.62381459  0.37992872  1
  Fe3+  Fe75  1  0.37480363  0.87550274  0.37949127  1
  Fe3+  Fe76  1  0.12409027  0.87661714  0.87503840  1
  Fe3+  Fe77  1  0.37357397  0.37320514  0.87619342  1
  Fe3+  Fe78  1  0.62540792  0.37649617  0.37738345  1
  Fe3+  Fe79  1  0.12474705  0.37360439  0.88040600  1
  Fe3+  Fe80  1  0.87677996  0.12293912  0.87330423  1
  Fe3+  Fe81  1  0.62634718  0.12413453  0.87628558  1
  Fe3+  Fe82  1  0.37523742  0.62397200  0.37718719  1
  Fe3+  Fe83  1  0.62563131  0.12705546  0.38028635  1
  Fe3+  Fe84  1  0.37496077  0.12498651  0.63582413  1
  Fe3+  Fe85  1  0.37494676  0.12432941  0.14217289  1
  Fe3+  Fe86  1  0.62486126  0.62542591  0.13326614  1
  Fe3+  Fe87  1  0.62519317  0.87626299  0.13474243  1
  Fe3+  Fe88  1  0.62531061  0.62480089  0.64240136  1
  Fe3+  Fe89  1  0.87506921  0.62520820  0.13695422  1
  Fe3+  Fe90  1  0.12458547  0.62439881  0.63546344  1
  Fe3+  Fe91  1  0.62465148  0.12556755  0.63448922  1
  Fe3+  Fe92  1  0.62497951  0.37383541  0.13615047  1
  Fe3+  Fe93  1  0.12487966  0.37410023  0.13431531  1
  Fe3+  Fe94  1  0.37545863  0.87486914  0.63394612  1
  Fe3+  Fe95  1  0.12487068  0.62551449  0.13379304  1
  Cu2+  Cu96  1  0.12450463  0.12609951  0.37042290  1
  Cu2+  Cu97  1  0.87679434  0.37183974  0.87116057  1
  Cu2+  Cu98  1  0.62566648  0.87482220  0.37346045  1
  Cu2+  Cu99  1  0.87588920  0.62628332  0.86297959  1
  Cu2+  Cu100  1  0.62507706  0.62353311  0.36103344  1
  Cu2+  Cu101  1  0.37553076  0.12554629  0.36944499  1
  Cu2+  Cu102  1  0.87439652  0.12624471  0.37385358  1
  Cu2+  Cu103  1  0.12454108  0.37656832  0.37279563  1
  Cu2+  Cu104  1  0.37398808  0.12477228  0.85982273  1
  Cu2+  Cu105  1  0.62492387  0.37391346  0.86644460  1
  Cu2+  Cu106  1  0.37374312  0.87562464  0.87124708  1
  Cu2+  Cu107  1  0.12447186  0.87378713  0.37443543  1
  Cu2+  Cu108  1  0.12523337  0.12520788  0.15431927  1
  Cu2+  Cu109  1  0.37461567  0.37334945  0.15165179  1
  Cu2+  Cu110  1  0.62411521  0.87467549  0.64088972  1
  Cu2+  Cu111  1  0.12454898  0.37457439  0.64215459  1
  Cu2+  Cu112  1  0.37479195  0.62583868  0.15125145  1
  Cu2+  Cu113  1  0.37489449  0.37415536  0.65340919  1
  Cu2+  Cu114  1  0.12473325  0.87551487  0.15522549  1
  Cu2+  Cu115  1  0.87566623  0.12471468  0.15810739  1
  Cu2+  Cu116  1  0.62498481  0.12479219  0.15150187  1
  Cu2+  Cu117  1  0.12570934  0.12526272  0.64212673  1
  Cu2+  Cu118  1  0.12588943  0.87500152  0.63904220  1
  Cu2+  Cu119  1  0.87434435  0.87481546  0.15565354  1
  Cu2+  Cu120  1  0.87498321  0.12540532  0.63837420  1
  Cu2+  Cu121  1  0.87504710  0.37493228  0.65247426  1
  Cu2+  Cu122  1  0.37553318  0.87722017  0.14827448  1
  Cu2+  Cu123  1  0.87485335  0.87465381  0.64893541  1
  Cu2+  Cu124  1  0.87494856  0.62469584  0.65055859  1
  Cu2+  Cu125  1  0.87534542  0.37532392  0.14196500  1
  Cu2+  Cu126  1  0.37510526  0.62497653  0.64952338  1
  Cu2+  Cu127  1  0.62549678  0.37469896  0.65343599  1
  O2-  O128  1  0.12338280  0.12303786  -0.00334568  1
  O2-  O129  1  0.12507506  0.12668466  0.50671606  1
  O2-  O130  1  0.12543593  0.37335505  0.00657634  1
  O2-  O131  1  0.12479264  0.37703175  0.50679463  1
  O2-  O132  1  0.12510952  0.62650646  0.00648541  1
  O2-  O133  1  0.12447991  0.62306344  0.50681338  1
  O2-  O134  1  0.12356879  0.87702808  -0.00459326  1
  O2-  O135  1  0.12532552  0.87214520  0.50633142  1
  O2-  O136  1  0.37492779  0.12408397  0.02112541  1
  O2-  O137  1  0.37651202  0.12586549  0.51597839  1
  O2-  O138  1  0.37352721  0.37269211  -0.00335076  1
  O2-  O139  1  0.37678424  0.37774774  0.49579045  1
  O2-  O140  1  0.37242903  0.62633409  -0.00359427  1
  O2-  O141  1  0.37616685  0.62251894  0.49683710  1
  O2-  O142  1  0.37430503  0.87686178  0.00700017  1
  O2-  O143  1  0.37602170  0.87415581  0.50699915  1
  O2-  O144  1  0.62673664  0.12379134  -0.00356741  1
  O2-  O145  1  0.62465010  0.12711268  0.50727447  1
  O2-  O146  1  0.62435943  0.37306861  0.01548720  1
  O2-  O147  1  0.62494776  0.37808035  0.49729637  1
  O2-  O148  1  0.62507041  0.62571881  0.00760412  1
  O2-  O149  1  0.62524652  0.62373401  0.52150995  1
  O2-  O150  1  0.62576918  0.87725399  0.00708566  1
  O2-  O151  1  0.62455892  0.87304607  0.50704851  1
  O2-  O152  1  0.87690304  0.12165427  -0.00631695  1
  O2-  O153  1  0.87343383  0.12637085  0.50612866  1
  O2-  O154  1  0.87601601  0.37278513  0.00659040  1
  O2-  O155  1  0.87311212  0.37761541  0.49671120  1
  O2-  O156  1  0.87575945  0.62609468  0.01645621  1
  O2-  O157  1  0.87386045  0.62391350  0.49798568  1
  O2-  O158  1  0.87649893  0.87975042  -0.00576398  1
  O2-  O159  1  0.87348264  0.87204697  0.49643657  1
  O2-  O160  1  0.12471483  -0.00018724  0.16781904  1
  O2-  O161  1  0.12599483  -0.00001740  0.66020097  1
  O2-  O162  1  0.12535584  0.25148084  0.16375436  1
  O2-  O163  1  0.12510542  0.24973465  0.66560639  1
  O2-  O164  1  0.12592783  0.50045855  0.16003749  1
  O2-  O165  1  0.12474482  0.50276830  0.66790528  1
  O2-  O166  1  0.12566893  0.74896700  0.16258821  1
  O2-  O167  1  0.12531997  0.74656551  0.66429286  1
  O2-  O168  1  0.37516316  0.00147417  0.17245401  1
  O2-  O169  1  0.37600849  -0.00100613  0.66316667  1
  O2-  O170  1  0.37451005  0.24875160  0.16849260  1
  O2-  O171  1  0.37600021  0.24963337  0.66516456  1
  O2-  O172  1  0.37456160  0.49955642  0.15986307  1
  O2-  O173  1  0.37478818  0.49889275  0.66563226  1
  O2-  O174  1  0.37489198  0.75086823  0.16585184  1
  O2-  O175  1  0.37515004  0.75132876  0.66225525  1
  O2-  O176  1  0.62622094  -0.00138408  0.16653431  1
  O2-  O177  1  0.62405024  0.00272641  0.66117738  1
  O2-  O178  1  0.62473405  0.24992487  0.16682520  1
  O2-  O179  1  0.62422349  0.24935417  0.66202752  1
  O2-  O180  1  0.62381443  0.50152177  0.16114876  1
  O2-  O181  1  0.62532679  0.49988403  0.67080314  1
  O2-  O182  1  0.62426272  0.75026984  0.16168374  1
  O2-  O183  1  0.62488740  0.74811729  0.67116410  1
  O2-  O184  1  0.87449703  -0.00034858  0.16787044  1
  O2-  O185  1  0.87415280  -0.00221226  0.65782078  1
  O2-  O186  1  0.87545851  0.24858302  0.16493220  1
  O2-  O187  1  0.87481437  0.25176392  0.66396928  1
  O2-  O188  1  0.87555285  0.50256855  0.16493262  1
  O2-  O189  1  0.87486843  0.49898792  0.66761969  1
  O2-  O190  1  0.87495764  0.74936951  0.16415408  1
  O2-  O191  1  0.87458764  0.75098013  0.66506315  1
  O2-  O192  1  0.00056390  0.12486424  0.16664830  1
  O2-  O193  1  0.00019410  0.12520281  0.66027906  1
  O2-  O194  1  0.00337150  0.37567265  0.16317509  1
  O2-  O195  1  -0.00150493  0.37606550  0.66504494  1
  O2-  O196  1  0.00192475  0.62574612  0.16522269  1
  O2-  O197  1  0.00061348  0.62471292  0.66262380  1
  O2-  O198  1  -0.00047769  0.87392193  0.16463630  1
  O2-  O199  1  -0.00157057  0.87356102  0.66013965  1
  O2-  O200  1  0.24971411  0.12454889  0.16762236  1
  O2-  O201  1  0.25209423  0.12503865  0.66645874  1
  O2-  O202  1  0.24804583  0.37539222  0.16258519  1
  O2-  O203  1  0.25092920  0.37548336  0.66511658  1
  O2-  O204  1  0.24818910  0.62553064  0.16370126  1
  O2-  O205  1  0.24903628  0.62420670  0.66128151  1
  O2-  O206  1  0.24882446  0.87550368  0.16761900  1
  O2-  O207  1  0.25358761  0.87394744  0.66311488  1
  O2-  O208  1  0.49976593  0.12433240  0.16899998  1
  O2-  O209  1  0.50090490  0.12542816  0.66674453  1
  O2-  O210  1  0.50021045  0.37464389  0.16406080  1
  O2-  O211  1  0.49985044  0.37572712  0.66592915  1
  O2-  O212  1  0.50115118  0.62600490  0.16134114  1
  O2-  O213  1  0.49994091  0.62411716  0.66935406  1
  O2-  O214  1  0.50369882  0.87564095  0.16576197  1
  O2-  O215  1  0.49658377  0.87432969  0.66739066  1
  O2-  O216  1  0.75076186  0.12487860  0.16449901  1
  O2-  O217  1  0.74700786  0.12545579  0.66196121  1
  O2-  O218  1  0.74826852  0.37531942  0.16435024  1
  O2-  O219  1  0.75071066  0.37552675  0.66598055  1
  O2-  O220  1  0.74824542  0.62591841  0.16412912  1
  O2-  O221  1  0.75035929  0.62440965  0.66951729  1
  O2-  O222  1  0.74804651  0.87422099  0.16179796  1
  O2-  O223  1  0.75157583  0.87421095  0.66489133  1
  O2-  O224  1  0.12495981  0.00092028  0.35216849  1
  O2-  O225  1  0.12524598  0.00011973  0.84070787  1
  O2-  O226  1  0.12502599  0.25030688  0.34862696  1
  O2-  O227  1  0.12596227  0.25037842  0.84854785  1
  O2-  O228  1  0.12538552  0.50372215  0.34365558  1
  O2-  O229  1  0.12484416  0.50003233  0.85359244  1
  O2-  O230  1  0.12553781  0.74547819  0.34717664  1
  O2-  O231  1  0.12463933  0.74912024  0.84776998  1
  O2-  O232  1  0.37588591  -0.00095603  0.35481168  1
  O2-  O233  1  0.37531532  0.00139301  0.84556355  1
  O2-  O234  1  0.37561492  0.25072020  0.34955308  1
  O2-  O235  1  0.37429897  0.24996457  0.84730216  1
  O2-  O236  1  0.37515064  0.50031043  0.34164085  1
  O2-  O237  1  0.37409924  0.49986793  0.84774364  1
  O2-  O238  1  0.37523498  0.75050763  0.34931322  1
  O2-  O239  1  0.37474031  0.74804319  0.84460414  1
  O2-  O240  1  0.62451299  0.00353398  0.35168794  1
  O2-  O241  1  0.62466829  -0.00138121  0.84426592  1
  O2-  O242  1  0.62437566  0.25055017  0.34927593  1
  O2-  O243  1  0.62475163  0.24846745  0.84591996  1
  O2-  O244  1  0.62461152  0.49914910  0.34241845  1
  O2-  O245  1  0.62516834  0.50145561  0.85447406  1
  O2-  O246  1  0.62429760  0.74789055  0.34671525  1
  O2-  O247  1  0.62542789  0.75051089  0.85435252  1
  O2-  O248  1  0.87443163  -0.00076522  0.35107001  1
  O2-  O249  1  0.87494122  0.00004142  0.83671680  1
  O2-  O250  1  0.87461864  0.25238906  0.34757766  1
  O2-  O251  1  0.87545134  0.24657020  0.84554158  1
  O2-  O252  1  0.87450405  0.50046421  0.34311151  1
  O2-  O253  1  0.87617732  0.50063900  0.85234960  1
  O2-  O254  1  0.87456144  0.74875560  0.34435969  1
  O2-  O255  1  0.87532041  0.75211760  0.84838930  1
  O2-  O256  1  0.00034770  0.12601236  0.35035907  1
  O2-  O257  1  0.00093299  0.12455010  0.84042428  1
  O2-  O258  1  -0.00215939  0.37659267  0.34577707  1
  O2-  O259  1  0.00391035  0.37501878  0.84828095  1
  O2-  O260  1  0.00019566  0.62429562  0.34791058  1
  O2-  O261  1  0.00247653  0.62506455  0.84810674  1
  O2-  O262  1  -0.00173538  0.87377891  0.34738203  1
  O2-  O263  1  0.00043424  0.87463877  0.84100199  1
  O2-  O264  1  0.25053678  0.12547737  0.35061367  1
  O2-  O265  1  0.24920323  0.12455058  0.84825046  1
  O2-  O266  1  0.25202543  0.37575414  0.34590148  1
  O2-  O267  1  0.24804646  0.37534201  0.84712898  1
  O2-  O268  1  0.24981490  0.62487339  0.34808613  1
  O2-  O269  1  0.24788798  0.62485110  0.84481770  1
  O2-  O270  1  0.25284178  0.87437188  0.35137206  1
  O2-  O271  1  0.24737188  0.87450781  0.84461815  1
  O2-  O272  1  0.50220420  0.12544068  0.35147486  1
  O2-  O273  1  0.49996085  0.12448850  0.84979503  1
  O2-  O274  1  0.50021494  0.37563619  0.34433761  1
  O2-  O275  1  0.49844137  0.37457423  0.84920701  1
  O2-  O276  1  0.49939588  0.62535407  0.34531742  1
  O2-  O277  1  0.50091532  0.62505232  0.85116166  1
  O2-  O278  1  0.49709237  0.87462481  0.34977969  1
  O2-  O279  1  0.50316651  0.87505206  0.85108528  1
  O2-  O280  1  0.74681461  0.12624497  0.34828388  1
  O2-  O281  1  0.75054145  0.12398982  0.84300453  1
  O2-  O282  1  0.74976138  0.37586588  0.34374279  1
  O2-  O283  1  0.74987933  0.37423242  0.85044863  1
  O2-  O284  1  0.75017761  0.62477839  0.34618697  1
  O2-  O285  1  0.74863925  0.62560773  0.85347462  1
  O2-  O286  1  0.75161358  0.87448635  0.34483795  1
  O2-  O287  1  0.74910061  0.87494815  0.84789643  1
