# generated using pymatgen
data_BaYFeCuO5
_symmetry_space_group_name_H-M   'P 1'
_cell_length_a   15.66069105
_cell_length_b   15.65865163
_cell_length_c   15.46081062
_cell_angle_alpha   90.00310127
_cell_angle_beta   90.00246358
_cell_angle_gamma   90.00321768
_symmetry_Int_Tables_number   1
_chemical_formula_structural   BaYFeCuO5
_chemical_formula_sum   'Ba32 Y32 Fe32 Cu32 O160'
_cell_volume   3791.38199105
_cell_formula_units_Z   32
loop_
 _symmetry_equiv_pos_site_id
 _symmetry_equiv_pos_as_xyz
  1  'x, y, z'
loop_
 _atom_type_symbol
 _atom_type_oxidation_number
  Ba2+  2.0
  Y3+  3.0
  Fe3+  3.0
  Cu2+  2.0
  O2-  -2.0
loop_
 _atom_site_type_symbol
 _atom_site_label
 _atom_site_symmetry_multiplicity
 _atom_site_fract_x
 _atom_site_fract_y
 _atom_site_fract_z
 _atom_site_occupancy
  Ba2+  Ba0  1  0.00037804  -0.00053517  0.01860675  1
  Ba2+  Ba1  1  -0.00117002  -0.01216601  0.51084527  1
  Ba2+  Ba2  1  0.00440189  0.24498183  0.01346629  1
  Ba2+  Ba3  1  -0.00129847  0.26110309  0.50243950  1
  Ba2+  Ba4  1  -0.00048210  0.49984585  0.00629526  1
  Ba2+  Ba5  1  0.00113029  0.50329103  0.50626217  1
  Ba2+  Ba6  1  -0.00408792  0.75525306  0.01198645  1
  Ba2+  Ba7  1  0.00104504  0.74825411  0.51681299  1
  Ba2+  Ba8  1  0.24762027  -0.00588639  0.01731579  1
  Ba2+  Ba9  1  0.25597977  -0.00340855  0.51648696  1
  Ba2+  Ba10  1  0.24579974  0.25355851  0.02294404  1
  Ba2+  Ba11  1  0.25710378  0.25190673  0.50678080  1
  Ba2+  Ba12  1  0.25462288  0.49587767  0.01203908  1
  Ba2+  Ba13  1  0.24727125  0.50405926  0.51070125  1
  Ba2+  Ba14  1  0.25672886  0.75587435  0.00558274  1
  Ba2+  Ba15  1  0.24775875  0.74792135  0.52199814  1
  Ba2+  Ba16  1  0.50036006  -0.01195613  0.00633610  1
  Ba2+  Ba17  1  0.49625061  0.00711265  0.51088029  1
  Ba2+  Ba18  1  0.50020032  0.25914495  0.01921203  1
  Ba2+  Ba19  1  0.49624193  0.24244670  0.51090230  1
  Ba2+  Ba20  1  0.50126527  0.50103240  0.01713486  1
  Ba2+  Ba21  1  0.49736884  0.50609788  0.51597573  1
  Ba2+  Ba22  1  0.50106928  0.75381789  0.00596394  1
  Ba2+  Ba23  1  0.49768879  0.74490676  0.51749250  1
  Ba2+  Ba24  1  0.75141700  -0.00759299  0.00692321  1
  Ba2+  Ba25  1  0.74926709  -0.00132442  0.50694426  1
  Ba2+  Ba26  1  0.75090764  0.24901523  0.00577554  1
  Ba2+  Ba27  1  0.74897237  0.25059741  0.50691183  1
  Ba2+  Ba28  1  0.74481639  0.50458452  0.01313789  1
  Ba2+  Ba29  1  0.75397862  0.50479598  0.51216265  1
  Ba2+  Ba30  1  0.74583327  0.75306753  0.01226075  1
  Ba2+  Ba31  1  0.75395581  0.74594635  0.51204706  1
  Y3+  Y32  1  0.00008020  -0.00280389  0.25896049  1
  Y3+  Y33  1  -0.00169582  -0.00158020  0.75465646  1
  Y3+  Y34  1  0.00124761  0.25243116  0.25987724  1
  Y3+  Y35  1  -0.00226632  0.25014333  0.75642320  1
  Y3+  Y36  1  0.00166423  0.49950783  0.26069607  1
  Y3+  Y37  1  -0.00160838  0.50192938  0.75459835  1
  Y3+  Y38  1  -0.00027023  0.75139977  0.25927063  1
  Y3+  Y39  1  -0.00087966  0.74871155  0.75449311  1
  Y3+  Y40  1  0.25089919  -0.00037182  0.25654732  1
  Y3+  Y41  1  0.25332126  -0.00202249  0.75651314  1
  Y3+  Y42  1  0.24925486  0.25079274  0.25940452  1
  Y3+  Y43  1  0.25244992  0.24905041  0.75361559  1
  Y3+  Y44  1  0.24769224  0.49949040  0.25809279  1
  Y3+  Y45  1  0.25167783  0.50258219  0.75548788  1
  Y3+  Y46  1  0.24973168  0.75088952  0.25451706  1
  Y3+  Y47  1  0.25199426  0.74979531  0.75806614  1
  Y3+  Y48  1  0.50027731  -0.00048904  0.25842233  1
  Y3+  Y49  1  0.49934382  -0.00129829  0.75657454  1
  Y3+  Y50  1  0.50015572  0.24858230  0.26134561  1
  Y3+  Y51  1  0.49922311  0.24762005  0.75263864  1
  Y3+  Y52  1  0.50244551  0.50117168  0.25739588  1
  Y3+  Y53  1  0.49836060  0.50282158  0.75507355  1
  Y3+  Y54  1  0.50252182  0.75095057  0.25447506  1
  Y3+  Y55  1  0.49835179  0.75051001  0.75982006  1
  Y3+  Y56  1  0.74855644  -0.00271082  0.26047305  1
  Y3+  Y57  1  0.74898379  -0.00051017  0.75596198  1
  Y3+  Y58  1  0.74927465  0.25031082  0.26179452  1
  Y3+  Y59  1  0.75044423  0.24896720  0.75401809  1
  Y3+  Y60  1  0.74821974  0.50116678  0.26071059  1
  Y3+  Y61  1  0.75162631  0.50190925  0.75447962  1
  Y3+  Y62  1  0.74776215  0.75148809  0.25887165  1
  Y3+  Y63  1  0.75037075  0.74913951  0.75648339  1
  Fe3+  Fe64  1  0.87463878  0.37494749  0.87930579  1
  Fe3+  Fe65  1  0.12530607  0.12452740  0.87566921  1
  Fe3+  Fe66  1  0.37555645  0.37437153  0.87513165  1
  Fe3+  Fe67  1  0.12589782  0.12410022  0.38025025  1
  Fe3+  Fe68  1  0.62414446  0.37626874  0.38021465  1
  Fe3+  Fe69  1  0.87584175  0.12430537  0.38017159  1
  Fe3+  Fe70  1  0.87543103  0.62612614  0.37544414  1
  Fe3+  Fe71  1  0.12453024  0.87562675  0.87487533  1
  Fe3+  Fe72  1  0.37436201  0.62654518  0.37544448  1
  Fe3+  Fe73  1  0.62450926  0.37514306  0.87466565  1
  Fe3+  Fe74  1  0.62467540  0.12479806  0.87986795  1
  Fe3+  Fe75  1  0.12569056  0.37416495  0.87624173  1
  Fe3+  Fe76  1  0.12515185  0.62516511  0.87940701  1
  Fe3+  Fe77  1  0.12656659  0.87345992  0.37680410  1
  Fe3+  Fe78  1  0.62500531  0.62501384  0.87525430  1
  Fe3+  Fe79  1  0.37502609  0.87388325  0.37721329  1
  Fe3+  Fe80  1  0.87503088  0.87474151  0.87436616  1
  Fe3+  Fe81  1  0.62363721  0.87385363  0.38099039  1
  Fe3+  Fe82  1  0.37547535  0.37650428  0.37677677  1
  Fe3+  Fe83  1  0.37480294  0.12539617  0.88127127  1
  Fe3+  Fe84  1  0.12484089  0.12456401  0.63301998  1
  Fe3+  Fe85  1  0.62559774  0.12453090  0.13587660  1
  Fe3+  Fe86  1  0.12541398  0.37533730  0.63719256  1
  Fe3+  Fe87  1  0.87546679  0.12486746  0.63451287  1
  Fe3+  Fe88  1  0.87448671  0.62569565  0.13719891  1
  Fe3+  Fe89  1  0.87436884  0.12437249  0.14020795  1
  Fe3+  Fe90  1  0.62436212  0.37542374  0.63470177  1
  Fe3+  Fe91  1  0.37556609  0.62523950  0.13620237  1
  Fe3+  Fe92  1  0.37533845  0.12503932  0.13553128  1
  Fe3+  Fe93  1  0.62443097  0.87440518  0.63615156  1
  Fe3+  Fe94  1  0.12469058  0.62566006  0.13390976  1
  Fe3+  Fe95  1  0.87432388  0.37520854  0.13662132  1
  Cu2+  Cu96  1  0.37411643  0.12400320  0.37039632  1
  Cu2+  Cu97  1  0.62560434  0.87487389  0.86842609  1
  Cu2+  Cu98  1  0.62388451  0.62586873  0.37440989  1
  Cu2+  Cu99  1  0.62450864  0.12435273  0.37468947  1
  Cu2+  Cu100  1  0.37490232  0.87566622  0.87149682  1
  Cu2+  Cu101  1  0.12603558  0.62656517  0.37157817  1
  Cu2+  Cu102  1  0.87516806  0.12455591  0.86360935  1
  Cu2+  Cu103  1  0.87498785  0.62505632  0.86687935  1
  Cu2+  Cu104  1  0.87438843  0.37652969  0.37358885  1
  Cu2+  Cu105  1  0.87484156  0.87388941  0.37409653  1
  Cu2+  Cu106  1  0.12600679  0.37560160  0.36590452  1
  Cu2+  Cu107  1  0.37515274  0.62417356  0.86762596  1
  Cu2+  Cu108  1  0.12482870  0.62466540  0.64302111  1
  Cu2+  Cu109  1  0.37499173  0.37560448  0.64717441  1
  Cu2+  Cu110  1  0.62524384  0.12406812  0.64118693  1
  Cu2+  Cu111  1  0.37585396  0.87503102  0.14259607  1
  Cu2+  Cu112  1  0.37581128  0.87412427  0.65021156  1
  Cu2+  Cu113  1  0.12470798  0.87405880  0.15089478  1
  Cu2+  Cu114  1  0.87433205  0.87492960  0.15480872  1
  Cu2+  Cu115  1  0.87524298  0.62502812  0.65139689  1
  Cu2+  Cu116  1  0.62494531  0.87606220  0.14317368  1
  Cu2+  Cu117  1  0.12538899  0.87495527  0.65139850  1
  Cu2+  Cu118  1  0.62654648  0.37413955  0.15418866  1
  Cu2+  Cu119  1  0.12461775  0.12468849  0.15534327  1
  Cu2+  Cu120  1  0.37451550  0.62551609  0.65239529  1
  Cu2+  Cu121  1  0.87522059  0.37513031  0.64049772  1
  Cu2+  Cu122  1  0.37438112  0.12419249  0.64298918  1
  Cu2+  Cu123  1  0.37541161  0.37524966  0.15481341  1
  Cu2+  Cu124  1  0.87387525  0.87447594  0.64063137  1
  Cu2+  Cu125  1  0.62524111  0.62557432  0.64100249  1
  Cu2+  Cu126  1  0.12359111  0.37629294  0.15228836  1
  Cu2+  Cu127  1  0.62552589  0.62553849  0.15155933  1
  O2-  O128  1  0.12527650  0.12486051  -0.00383840  1
  O2-  O129  1  0.12538452  0.12450408  0.50648297  1
  O2-  O130  1  0.12495006  0.37309350  -0.00336590  1
  O2-  O131  1  0.12559369  0.37626824  0.51637176  1
  O2-  O132  1  0.12478270  0.62460336  0.00671427  1
  O2-  O133  1  0.12566304  0.62582381  0.50734236  1
  O2-  O134  1  0.12260115  0.87706204  -0.00470094  1
  O2-  O135  1  0.12765875  0.87307266  0.49705057  1
  O2-  O136  1  0.37467071  0.12687654  0.00721912  1
  O2-  O137  1  0.37288770  0.12446982  0.50676481  1
  O2-  O138  1  0.37532969  0.37356863  -0.00441482  1
  O2-  O139  1  0.37576110  0.37686162  0.49697675  1
  O2-  O140  1  0.37541734  0.62347539  0.01523893  1
  O2-  O141  1  0.37309242  0.62633513  0.49632700  1
  O2-  O142  1  0.37462229  0.87616006  0.00653675  1
  O2-  O143  1  0.37456492  0.87294553  0.49736652  1
  O2-  O144  1  0.62539417  0.12575338  0.00815245  1
  O2-  O145  1  0.62512658  0.12482308  0.50777318  1
  O2-  O146  1  0.62532910  0.37503664  -0.00512341  1
  O2-  O147  1  0.62386766  0.37570426  0.50685546  1
  O2-  O148  1  0.62488642  0.62414917  -0.00361677  1
  O2-  O149  1  0.62419125  0.62519322  0.50723880  1
  O2-  O150  1  0.62638652  0.87519948  0.00750550  1
  O2-  O151  1  0.62313612  0.87431904  0.50805605  1
  O2-  O152  1  0.87484382  0.12518655  0.01968343  1
  O2-  O153  1  0.87641507  0.12528253  0.50750789  1
  O2-  O154  1  0.87437460  0.37389359  0.00773680  1
  O2-  O155  1  0.87468861  0.37607978  0.50727783  1
  O2-  O156  1  0.87483729  0.62446211  0.01644940  1
  O2-  O157  1  0.87682223  0.62539486  0.49701811  1
  O2-  O158  1  0.87620986  0.87650073  -0.00456950  1
  O2-  O159  1  0.87451896  0.87380218  0.50717707  1
  O2-  O160  1  0.12412264  -0.00087137  0.16549687  1
  O2-  O161  1  0.12449336  0.00105404  0.65954258  1
  O2-  O162  1  0.12400885  0.25102710  0.16686570  1
  O2-  O163  1  0.12510790  0.24838652  0.66269197  1
  O2-  O164  1  0.12371494  0.50223706  0.16284428  1
  O2-  O165  1  0.12518356  0.49849838  0.66843568  1
  O2-  O166  1  0.12495065  0.74819208  0.15994764  1
  O2-  O167  1  0.12507599  0.75128891  0.66680805  1
  O2-  O168  1  0.37521504  0.00348939  0.16374690  1
  O2-  O169  1  0.37531340  -0.00192650  0.66612284  1
  O2-  O170  1  0.37449885  0.24897588  0.16440355  1
  O2-  O171  1  0.37496359  0.25079236  0.66377167  1
  O2-  O172  1  0.37592215  0.50020115  0.16435183  1
  O2-  O173  1  0.37457160  0.50081337  0.66342530  1
  O2-  O174  1  0.37506892  0.74808178  0.16348430  1
  O2-  O175  1  0.37468781  0.74990729  0.66608491  1
  O2-  O176  1  0.62489219  0.00399554  0.16663036  1
  O2-  O177  1  0.62465282  -0.00311901  0.66528211  1
  O2-  O178  1  0.62638637  0.24762251  0.16532875  1
  O2-  O179  1  0.62474052  0.25251402  0.66369737  1
  O2-  O180  1  0.62583657  0.49914083  0.16449733  1
  O2-  O181  1  0.62492397  0.49799427  0.66257733  1
  O2-  O182  1  0.62576416  0.74964905  0.16505502  1
  O2-  O183  1  0.62494970  0.75213192  0.66374503  1
  O2-  O184  1  0.87528200  -0.00014589  0.16867509  1
  O2-  O185  1  0.87526315  0.00265998  0.66191082  1
  O2-  O186  1  0.87488322  0.25100698  0.16778206  1
  O2-  O187  1  0.87524427  0.24671838  0.66529437  1
  O2-  O188  1  0.87456614  0.49908456  0.16309321  1
  O2-  O189  1  0.87510942  0.50188333  0.66612355  1
  O2-  O190  1  0.87426345  0.75028774  0.16345668  1
  O2-  O191  1  0.87503505  0.74810744  0.66420267  1
  O2-  O192  1  -0.00063487  0.12527755  0.16851659  1
  O2-  O193  1  0.00051103  0.12495590  0.66261574  1
  O2-  O194  1  -0.00284552  0.37481771  0.16416686  1
  O2-  O195  1  0.00194691  0.37434381  0.66835936  1
  O2-  O196  1  0.00068800  0.62561587  0.16395929  1
  O2-  O197  1  -0.00181835  0.62467952  0.66611418  1
  O2-  O198  1  -0.00009554  0.87502585  0.16516857  1
  O2-  O199  1  0.00072047  0.87467421  0.66248494  1
  O2-  O200  1  0.25072814  0.12560739  0.16263236  1
  O2-  O201  1  0.24693205  0.12407594  0.66400460  1
  O2-  O202  1  0.24914402  0.37530067  0.16325845  1
  O2-  O203  1  0.24992708  0.37460795  0.66493724  1
  O2-  O204  1  0.24856515  0.62390184  0.16197484  1
  O2-  O205  1  0.25128099  0.62543985  0.66718403  1
  O2-  O206  1  0.24898297  0.87593266  0.16168642  1
  O2-  O207  1  0.25059810  0.87512969  0.66465548  1
  O2-  O208  1  0.50022429  0.12689122  0.16253295  1
  O2-  O209  1  0.49937554  0.12424623  0.66668603  1
  O2-  O210  1  0.50147219  0.37368525  0.16383954  1
  O2-  O211  1  0.50070395  0.37492363  0.66110299  1
  O2-  O212  1  0.50085541  0.62432087  0.16425893  1
  O2-  O213  1  0.49810351  0.62519686  0.66415968  1
  O2-  O214  1  0.50001773  0.87601526  0.16651300  1
  O2-  O215  1  0.50116879  0.87453556  0.66429646  1
  O2-  O216  1  0.74926704  0.12518055  0.16854249  1
  O2-  O217  1  0.75295720  0.12501036  0.66526183  1
  O2-  O218  1  0.75219568  0.37434994  0.16606674  1
  O2-  O219  1  0.74727725  0.37448465  0.66403227  1
  O2-  O220  1  0.75008298  0.62461280  0.16675789  1
  O2-  O221  1  0.75216623  0.62472701  0.66382531  1
  O2-  O222  1  0.75068814  0.87631605  0.16862457  1
  O2-  O223  1  0.74721613  0.87518678  0.66363621  1
  O2-  O224  1  0.12556453  0.00050767  0.34917566  1
  O2-  O225  1  0.12479391  0.00044196  0.84163374  1
  O2-  O226  1  0.12447886  0.24831249  0.35250684  1
  O2-  O227  1  0.12480199  0.24985574  0.84273873  1
  O2-  O228  1  0.12548297  0.49951288  0.34782733  1
  O2-  O229  1  0.12462465  0.50024267  0.85073002  1
  O2-  O230  1  0.12568297  0.75212171  0.34217114  1
  O2-  O231  1  0.12477694  0.74892600  0.85021006  1
  O2-  O232  1  0.37468654  -0.00244678  0.34617104  1
  O2-  O233  1  0.37543533  0.00398419  0.84962828  1
  O2-  O234  1  0.37499300  0.25183716  0.34802680  1
  O2-  O235  1  0.37534424  0.24838319  0.84555264  1
  O2-  O236  1  0.37449645  0.50038545  0.34494000  1
  O2-  O237  1  0.37504798  0.49829538  0.84675915  1
  O2-  O238  1  0.37498556  0.75078765  0.34259900  1
  O2-  O239  1  0.37486712  0.74900720  0.85085157  1
  O2-  O240  1  0.62469319  -0.00341590  0.35040171  1
  O2-  O241  1  0.62520677  0.00320192  0.84939334  1
  O2-  O242  1  0.62457764  0.25278884  0.35025826  1
  O2-  O243  1  0.62576483  0.24873318  0.84688544  1
  O2-  O244  1  0.62470142  0.49796879  0.34910502  1
  O2-  O245  1  0.62536597  0.49942218  0.84364175  1
  O2-  O246  1  0.62399205  0.75296965  0.34864864  1
  O2-  O247  1  0.62527510  0.74842804  0.84652637  1
  O2-  O248  1  0.87519973  0.00231964  0.35204694  1
  O2-  O249  1  0.87477617  -0.00051711  0.84439739  1
  O2-  O250  1  0.87584019  0.24730628  0.35143941  1
  O2-  O251  1  0.87433048  0.25158543  0.84981172  1
  O2-  O252  1  0.87498793  0.50241893  0.34534118  1
  O2-  O253  1  0.87539236  0.49763520  0.85086171  1
  O2-  O254  1  0.87502524  0.74864100  0.34521796  1
  O2-  O255  1  0.87538906  0.75044412  0.84733173  1
  O2-  O256  1  0.00101381  0.12487584  0.35213816  1
  O2-  O257  1  0.00052288  0.12564599  0.84589427  1
  O2-  O258  1  0.00164460  0.37543019  0.34878806  1
  O2-  O259  1  -0.00101752  0.37407463  0.85049387  1
  O2-  O260  1  -0.00064477  0.62494638  0.34634562  1
  O2-  O261  1  0.00189136  0.62409030  0.85062173  1
  O2-  O262  1  0.00213412  0.87552009  0.34858412  1
  O2-  O263  1  0.00016235  0.87506657  0.84327376  1
  O2-  O264  1  0.24699529  0.12541233  0.34727132  1
  O2-  O265  1  0.25138172  0.12556024  0.84695028  1
  O2-  O266  1  0.25082922  0.37476133  0.34736959  1
  O2-  O267  1  0.25026060  0.37427024  0.84520455  1
  O2-  O268  1  0.25191917  0.62520602  0.34326670  1
  O2-  O269  1  0.24811509  0.62435518  0.85126065  1
  O2-  O270  1  0.25056136  0.87528618  0.34298193  1
  O2-  O271  1  0.24803029  0.87542143  0.84748150  1
  O2-  O272  1  0.49932168  0.12462186  0.34725721  1
  O2-  O273  1  0.49989448  0.12585970  0.85164698  1
  O2-  O274  1  0.50093351  0.37524244  0.34739568  1
  O2-  O275  1  0.50020837  0.37373973  0.84282398  1
  O2-  O276  1  0.49754914  0.62488109  0.34633365  1
  O2-  O277  1  0.50050505  0.62436134  0.84722491  1
  O2-  O278  1  0.50046398  0.87534415  0.34846045  1
  O2-  O279  1  0.50053011  0.87558780  0.84850476  1
  O2-  O280  1  0.75288570  0.12541291  0.35212388  1
  O2-  O281  1  0.74865115  0.12575725  0.85105512  1
  O2-  O282  1  0.74675160  0.37457811  0.35025355  1
  O2-  O283  1  0.75092489  0.37403657  0.84759532  1
  O2-  O284  1  0.75095978  0.62536368  0.34933116  1
  O2-  O285  1  0.74967851  0.62398983  0.84685761  1
  O2-  O286  1  0.74690940  0.87518803  0.35282610  1
  O2-  O287  1  0.75142871  0.87557090  0.84597895  1
