# generated using pymatgen
data_BaYFeCuO5
_symmetry_space_group_name_H-M   'P 1'
_cell_length_a   15.65394875
_cell_length_b   15.65789421
_cell_length_c   15.44991651
_cell_angle_alpha   89.99885298
_cell_angle_beta   89.99808641
_cell_angle_gamma   89.99663889
_symmetry_Int_Tables_number   1
_chemical_formula_structural   BaYFeCuO5
_chemical_formula_sum   'Ba32 Y32 Fe32 Cu32 O160'
_cell_volume   3786.89617092
_cell_formula_units_Z   32
loop_
 _symmetry_equiv_pos_site_id
 _symmetry_equiv_pos_as_xyz
  1  'x, y, z'
loop_
 _atom_type_symbol
 _atom_type_oxidation_number
  Ba2+  2.0
  Y3+  3.0
  Fe3+  3.0
  Cu2+  2.0
  O2-  -2.0
loop_
 _atom_site_type_symbol
 _atom_site_label
 _atom_site_symmetry_multiplicity
 _atom_site_fract_x
 _atom_site_fract_y
 _atom_site_fract_z
 _atom_site_occupancy
  Ba2+  Ba0  1  0.00212498  -0.00901734  0.01077599  1
  Ba2+  Ba1  1  -0.00289290  -0.00807913  0.51678803  1
  Ba2+  Ba2  1  -0.00364279  0.25248342  0.01100796  1
  Ba2+  Ba3  1  -0.00571507  0.25396290  0.51089256  1
  Ba2+  Ba4  1  -0.00802717  0.50293134  0.00648837  1
  Ba2+  Ba5  1  0.00123767  0.50547801  0.51203338  1
  Ba2+  Ba6  1  -0.00232491  0.75416057  0.00722034  1
  Ba2+  Ba7  1  0.00292799  0.74925214  0.51663807  1
  Ba2+  Ba8  1  0.24311309  -0.00018752  0.00750554  1
  Ba2+  Ba9  1  0.24706233  -0.01278737  0.51121261  1
  Ba2+  Ba10  1  0.25006002  0.24116716  0.00651856  1
  Ba2+  Ba11  1  0.24447998  0.25499195  0.51135943  1
  Ba2+  Ba12  1  0.24527330  0.50406860  0.01228266  1
  Ba2+  Ba13  1  0.24627373  0.51162614  0.51036068  1
  Ba2+  Ba14  1  0.24000638  0.75283090  0.01229579  1
  Ba2+  Ba15  1  0.24669275  0.74711220  0.51146833  1
  Ba2+  Ba16  1  0.50680513  0.00053694  0.00687938  1
  Ba2+  Ba17  1  0.50125022  -0.01144696  0.51761222  1
  Ba2+  Ba18  1  0.50527754  0.24590729  0.01310041  1
  Ba2+  Ba19  1  0.50589927  0.25527166  0.51093455  1
  Ba2+  Ba20  1  0.51171431  0.50179284  0.01250889  1
  Ba2+  Ba21  1  0.50417960  0.51113093  0.51011135  1
  Ba2+  Ba22  1  0.51158695  0.74995074  0.00713865  1
  Ba2+  Ba23  1  0.50031049  0.74545175  0.51725450  1
  Ba2+  Ba24  1  0.74791425  -0.00935741  0.01006978  1
  Ba2+  Ba25  1  0.75544154  -0.00547806  0.52269115  1
  Ba2+  Ba26  1  0.74826740  0.25669953  0.01713215  1
  Ba2+  Ba27  1  0.75492499  0.25486725  0.51066979  1
  Ba2+  Ba28  1  0.75091462  0.50195807  0.00679850  1
  Ba2+  Ba29  1  0.74815831  0.50512159  0.51198105  1
  Ba2+  Ba30  1  0.74962463  0.75098878  0.00193867  1
  Ba2+  Ba31  1  0.74946935  0.74808275  0.52280051  1
  Y3+  Y32  1  0.00125437  -0.00398266  0.25430644  1
  Y3+  Y33  1  -0.00091142  -0.00460649  0.75881822  1
  Y3+  Y34  1  -0.00218870  0.25083591  0.25542467  1
  Y3+  Y35  1  -0.00198609  0.25155740  0.75762223  1
  Y3+  Y36  1  -0.00131304  0.50146534  0.25736098  1
  Y3+  Y37  1  -0.00146651  0.50189912  0.75770981  1
  Y3+  Y38  1  0.00273889  0.75120245  0.25657346  1
  Y3+  Y39  1  -0.00065482  0.75114151  0.75836313  1
  Y3+  Y40  1  0.24660147  -0.00308369  0.25723272  1
  Y3+  Y41  1  0.24918195  -0.00354936  0.75798842  1
  Y3+  Y42  1  0.24894719  0.24917839  0.25738998  1
  Y3+  Y43  1  0.24975864  0.25011796  0.75663813  1
  Y3+  Y44  1  0.24938668  0.50475655  0.26062008  1
  Y3+  Y45  1  0.24902514  0.50266372  0.75382332  1
  Y3+  Y46  1  0.24596432  0.74930827  0.26048685  1
  Y3+  Y47  1  0.24860622  0.75056228  0.75489100  1
  Y3+  Y48  1  0.50245251  -0.00203196  0.25495697  1
  Y3+  Y49  1  0.50003770  -0.00314497  0.75938883  1
  Y3+  Y50  1  0.50233390  0.25011174  0.25773536  1
  Y3+  Y51  1  0.49978667  0.25027533  0.75593767  1
  Y3+  Y52  1  0.50256706  0.50438073  0.25955069  1
  Y3+  Y53  1  0.50238369  0.50376399  0.75527903  1
  Y3+  Y54  1  0.50294370  0.74733279  0.25739155  1
  Y3+  Y55  1  0.50242213  0.74876272  0.75779922  1
  Y3+  Y56  1  0.74983758  -0.00295050  0.25139171  1
  Y3+  Y57  1  0.75147431  -0.00439717  0.76023037  1
  Y3+  Y58  1  0.75112421  0.25227541  0.25529545  1
  Y3+  Y59  1  0.75215875  0.25195804  0.75720844  1
  Y3+  Y60  1  0.74952193  0.50102302  0.25562327  1
  Y3+  Y61  1  0.74986688  0.50321854  0.75953426  1
  Y3+  Y62  1  0.74839046  0.74961771  0.25274020  1
  Y3+  Y63  1  0.74978225  0.74900627  0.76161755  1
  Fe3+  Fe64  1  0.12357365  0.12394527  0.37989750  1
  Fe3+  Fe65  1  0.12485639  0.37527751  0.87903906  1
  Fe3+  Fe66  1  0.62635626  0.37628598  0.37676964  1
  Fe3+  Fe67  1  0.62595314  0.12545742  0.87479674  1
  Fe3+  Fe68  1  0.62697051  0.87374850  0.37722471  1
  Fe3+  Fe69  1  0.12362084  0.37590209  0.37665131  1
  Fe3+  Fe70  1  0.37513839  0.37651237  0.37942951  1
  Fe3+  Fe71  1  0.87448844  0.12466976  0.87908918  1
  Fe3+  Fe72  1  0.87438890  0.87379019  0.37530992  1
  Fe3+  Fe73  1  0.37458917  0.87426507  0.88017746  1
  Fe3+  Fe74  1  0.37578030  0.87332266  0.37578331  1
  Fe3+  Fe75  1  0.37536276  0.12362603  0.38140281  1
  Fe3+  Fe76  1  0.87454095  0.12340181  0.37598166  1
  Fe3+  Fe77  1  0.12383909  0.12445437  0.87523220  1
  Fe3+  Fe78  1  0.62654055  0.12315489  0.37976882  1
  Fe3+  Fe79  1  0.37494110  0.62484522  0.88059113  1
  Fe3+  Fe80  1  0.37544764  0.37549118  0.87991411  1
  Fe3+  Fe81  1  0.87430835  0.62627189  0.37737115  1
  Fe3+  Fe82  1  0.12458660  0.62546938  0.87686079  1
  Fe3+  Fe83  1  0.62500958  0.37492644  0.87471335  1
  Fe3+  Fe84  1  0.37470103  0.12400942  0.63380760  1
  Fe3+  Fe85  1  0.87464455  0.37735672  0.63949296  1
  Fe3+  Fe86  1  0.12350535  0.12456661  0.63500347  1
  Fe3+  Fe87  1  0.37519406  0.87415797  0.13415949  1
  Fe3+  Fe88  1  0.37528736  0.37711476  0.63450127  1
  Fe3+  Fe89  1  0.87492995  0.12374027  0.13372997  1
  Fe3+  Fe90  1  0.62650011  0.12479194  0.63474611  1
  Fe3+  Fe91  1  0.37500369  0.62571043  0.13451198  1
  Fe3+  Fe92  1  0.12511394  0.37546232  0.13492360  1
  Fe3+  Fe93  1  0.37546292  0.37546148  0.13491663  1
  Fe3+  Fe94  1  0.87519773  0.62617416  0.13762830  1
  Fe3+  Fe95  1  0.37502049  0.12371458  0.13852989  1
  Cu2+  Cu96  1  0.37546871  0.62688853  0.37286314  1
  Cu2+  Cu97  1  0.87554378  0.62524423  0.86474131  1
  Cu2+  Cu98  1  0.62459490  0.87471304  0.87118900  1
  Cu2+  Cu99  1  0.37514715  0.12488784  0.86247962  1
  Cu2+  Cu100  1  0.87443689  0.37511073  0.87429744  1
  Cu2+  Cu101  1  0.87538819  0.87461510  0.87309950  1
  Cu2+  Cu102  1  0.12524435  0.87435167  0.87084836  1
  Cu2+  Cu103  1  0.12359689  0.87478761  0.37291391  1
  Cu2+  Cu104  1  0.12313378  0.62578881  0.37139442  1
  Cu2+  Cu105  1  0.87483383  0.37581857  0.36244760  1
  Cu2+  Cu106  1  0.62693394  0.62661020  0.37145690  1
  Cu2+  Cu107  1  0.62508946  0.62465381  0.87245699  1
  Cu2+  Cu108  1  0.62417486  0.87393353  0.14083046  1
  Cu2+  Cu109  1  0.12468734  0.87439072  0.64331555  1
  Cu2+  Cu110  1  0.12564699  0.87428975  0.14286769  1
  Cu2+  Cu111  1  0.62418977  0.37566473  0.15273077  1
  Cu2+  Cu112  1  0.62597274  0.62554610  0.64475024  1
  Cu2+  Cu113  1  0.62546949  0.87491840  0.65426278  1
  Cu2+  Cu114  1  0.12407856  0.62557901  0.64486149  1
  Cu2+  Cu115  1  0.12464399  0.37546101  0.65034434  1
  Cu2+  Cu116  1  0.87480306  0.87366139  0.65562890  1
  Cu2+  Cu117  1  0.12449392  0.12529011  0.15139966  1
  Cu2+  Cu118  1  0.37497156  0.62606401  0.64409074  1
  Cu2+  Cu119  1  0.62561799  0.12492668  0.15148879  1
  Cu2+  Cu120  1  0.87498272  0.87356509  0.14074182  1
  Cu2+  Cu121  1  0.87497769  0.37649401  0.14118663  1
  Cu2+  Cu122  1  0.87516960  0.12483319  0.65190987  1
  Cu2+  Cu123  1  0.62519065  0.37561597  0.64953555  1
  Cu2+  Cu124  1  0.62577306  0.62510484  0.14210845  1
  Cu2+  Cu125  1  0.87500686  0.62546420  0.65299284  1
  Cu2+  Cu126  1  0.37520154  0.87440270  0.65369819  1
  Cu2+  Cu127  1  0.12463672  0.62444611  0.14965504  1
  O2-  O128  1  0.12482131  0.12629204  -0.00417615  1
  O2-  O129  1  0.12365670  0.12467750  0.50644646  1
  O2-  O130  1  0.12638389  0.37382230  0.00643001  1
  O2-  O131  1  0.12382304  0.37460718  0.49745010  1
  O2-  O132  1  0.12555284  0.62375105  -0.00243438  1
  O2-  O133  1  0.12344151  0.62554611  0.50791044  1
  O2-  O134  1  0.12623511  0.87543535  0.00738864  1
  O2-  O135  1  0.12363805  0.87528449  0.50839564  1
  O2-  O136  1  0.37546084  0.12547839  0.01798333  1
  O2-  O137  1  0.37498853  0.12386507  0.50709158  1
  O2-  O138  1  0.37580113  0.37360229  0.00718619  1
  O2-  O139  1  0.37452092  0.37630987  0.50661704  1
  O2-  O140  1  0.37479207  0.62327416  0.00716627  1
  O2-  O141  1  0.37511878  0.62588082  0.50714615  1
  O2-  O142  1  0.37474290  0.87707490  0.00730251  1
  O2-  O143  1  0.37643101  0.87351941  0.49668304  1
  O2-  O144  1  0.62567179  0.12720069  -0.00470920  1
  O2-  O145  1  0.62647437  0.12320245  0.50573158  1
  O2-  O146  1  0.62296939  0.37202051  -0.00434948  1
  O2-  O147  1  0.62599855  0.37514552  0.49747315  1
  O2-  O148  1  0.62569016  0.62371368  0.00677865  1
  O2-  O149  1  0.62665378  0.62681135  0.50885936  1
  O2-  O150  1  0.62338981  0.87589100  0.00586527  1
  O2-  O151  1  0.62722721  0.87532718  0.49747940  1
  O2-  O152  1  0.87439329  0.12512237  0.00564784  1
  O2-  O153  1  0.87434664  0.12395398  0.49618673  1
  O2-  O154  1  0.87496351  0.37434966  0.00746221  1
  O2-  O155  1  0.87551942  0.37613988  0.51831447  1
  O2-  O156  1  0.87475707  0.62533316  0.01637627  1
  O2-  O157  1  0.87462728  0.62620459  0.49823714  1
  O2-  O158  1  0.87533759  0.87515678  0.00629088  1
  O2-  O159  1  0.87350530  0.87460360  0.49580528  1
  O2-  O160  1  0.12630171  0.00138529  0.16564640  1
  O2-  O161  1  0.12540199  0.00308227  0.66369850  1
  O2-  O162  1  0.12602575  0.25193742  0.16487922  1
  O2-  O163  1  0.12552086  0.24810928  0.66244382  1
  O2-  O164  1  0.12757279  0.49773461  0.16284404  1
  O2-  O165  1  0.12559500  0.49914131  0.66659234  1
  O2-  O166  1  0.12614619  0.74813100  0.16494069  1
  O2-  O167  1  0.12496882  0.75017397  0.66646053  1
  O2-  O168  1  0.37473130  -0.00079480  0.16614409  1
  O2-  O169  1  0.37493876  0.00200426  0.66385157  1
  O2-  O170  1  0.37538527  0.25100711  0.16810366  1
  O2-  O171  1  0.37482222  0.24971729  0.66109866  1
  O2-  O172  1  0.37363380  0.49971107  0.16134632  1
  O2-  O173  1  0.37489545  0.49759300  0.66674728  1
  O2-  O174  1  0.37485518  0.74933055  0.15701028  1
  O2-  O175  1  0.37558882  0.75147027  0.66987028  1
  O2-  O176  1  0.62399803  0.00099335  0.16389196  1
  O2-  O177  1  0.62465788  0.00190216  0.66335006  1
  O2-  O178  1  0.62375990  0.25025379  0.16626847  1
  O2-  O179  1  0.62407812  0.24803144  0.65960012  1
  O2-  O180  1  0.62384798  0.49905993  0.16523709  1
  O2-  O181  1  0.62445637  0.49915058  0.66610101  1
  O2-  O182  1  0.62348477  0.74937708  0.16362958  1
  O2-  O183  1  0.62489784  0.75177998  0.66800160  1
  O2-  O184  1  0.87507533  0.00173691  0.16051227  1
  O2-  O185  1  0.87488028  -0.00044135  0.66512341  1
  O2-  O186  1  0.87518997  0.24730911  0.16333074  1
  O2-  O187  1  0.87526547  0.25115852  0.66613452  1
  O2-  O188  1  0.87545654  0.50224946  0.16658286  1
  O2-  O189  1  0.87503024  0.50036005  0.66791961  1
  O2-  O190  1  0.87600162  0.74848168  0.16528033  1
  O2-  O191  1  0.87495113  0.74977230  0.66631376  1
  O2-  O192  1  -0.00134038  0.12546967  0.16191055  1
  O2-  O193  1  0.00100529  0.12590828  0.66311886  1
  O2-  O194  1  0.00327636  0.37465087  0.16188280  1
  O2-  O195  1  -0.00076812  0.37479649  0.66858133  1
  O2-  O196  1  0.00049271  0.62391501  0.16476867  1
  O2-  O197  1  -0.00133151  0.62456667  0.66670519  1
  O2-  O198  1  0.00101206  0.87520486  0.16388281  1
  O2-  O199  1  -0.00171460  0.87536729  0.66638096  1
  O2-  O200  1  0.25067796  0.12597525  0.16886553  1
  O2-  O201  1  0.25040149  0.12632227  0.66076215  1
  O2-  O202  1  0.25097358  0.37352471  0.16230597  1
  O2-  O203  1  0.25197251  0.37393182  0.66528037  1
  O2-  O204  1  0.25174085  0.62438804  0.16444476  1
  O2-  O205  1  0.24995460  0.62498071  0.66637845  1
  O2-  O206  1  0.25318104  0.87499019  0.16485326  1
  O2-  O207  1  0.25125360  0.87562728  0.66672180  1
  O2-  O208  1  0.49948849  0.12565195  0.16864303  1
  O2-  O209  1  0.49948676  0.12565398  0.65944349  1
  O2-  O210  1  0.49751209  0.37474805  0.16462713  1
  O2-  O211  1  0.49839473  0.37390683  0.66217831  1
  O2-  O212  1  0.49684752  0.62373303  0.16470972  1
  O2-  O213  1  0.50018831  0.62527198  0.66608073  1
  O2-  O214  1  0.49658670  0.87555611  0.16346984  1
  O2-  O215  1  0.50019455  0.87604287  0.66523400  1
  O2-  O216  1  0.75127703  0.12562768  0.16169146  1
  O2-  O217  1  0.74888797  0.12569062  0.66226065  1
  O2-  O218  1  0.74823085  0.37437229  0.16316847  1
  O2-  O219  1  0.75022821  0.37457408  0.66555608  1
  O2-  O220  1  0.75129987  0.62471166  0.16518818  1
  O2-  O221  1  0.75128094  0.62500844  0.66726009  1
  O2-  O222  1  0.74930240  0.87496574  0.16174770  1
  O2-  O223  1  0.75037141  0.87569212  0.66593812  1
  O2-  O224  1  0.12501805  0.00321509  0.34945285  1
  O2-  O225  1  0.12562050  0.00123939  0.84641965  1
  O2-  O226  1  0.12589290  0.24851554  0.34857140  1
  O2-  O227  1  0.12573898  0.25118119  0.84624774  1
  O2-  O228  1  0.12534000  0.49833547  0.34623622  1
  O2-  O229  1  0.12641302  0.49886919  0.84974864  1
  O2-  O230  1  0.12460110  0.75044421  0.34880117  1
  O2-  O231  1  0.12600586  0.74802463  0.84868077  1
  O2-  O232  1  0.37549093  0.00157136  0.34822778  1
  O2-  O233  1  0.37475938  -0.00172023  0.84928437  1
  O2-  O234  1  0.37493966  0.24951161  0.35293681  1
  O2-  O235  1  0.37445044  0.25256791  0.84688191  1
  O2-  O236  1  0.37504951  0.49689738  0.34690797  1
  O2-  O237  1  0.37371371  0.49927450  0.85204278  1
  O2-  O238  1  0.37530690  0.75261214  0.34033598  1
  O2-  O239  1  0.37426353  0.74920324  0.85499147  1
  O2-  O240  1  0.62462391  0.00099367  0.34637273  1
  O2-  O241  1  0.62415769  0.00190872  0.84640917  1
  O2-  O242  1  0.62456385  0.24819724  0.35049080  1
  O2-  O243  1  0.62403239  0.25005655  0.84098902  1
  O2-  O244  1  0.62447705  0.49930144  0.34846734  1
  O2-  O245  1  0.62390137  0.49846792  0.84862412  1
  O2-  O246  1  0.62558023  0.75189470  0.34532188  1
  O2-  O247  1  0.62428268  0.74913181  0.85160111  1
  O2-  O248  1  0.87483900  -0.00004676  0.34157454  1
  O2-  O249  1  0.87526331  0.00286643  0.84934787  1
  O2-  O250  1  0.87484117  0.24937297  0.34704132  1
  O2-  O251  1  0.87549573  0.24703173  0.84864983  1
  O2-  O252  1  0.87527268  0.50008595  0.34847514  1
  O2-  O253  1  0.87542341  0.50171481  0.85097380  1
  O2-  O254  1  0.87457287  0.75052026  0.34414410  1
  O2-  O255  1  0.87552631  0.74821247  0.85072160  1
  O2-  O256  1  0.00078171  0.12609808  0.34659771  1
  O2-  O257  1  -0.00108655  0.12575887  0.84733593  1
  O2-  O258  1  0.00046107  0.37337448  0.34512091  1
  O2-  O259  1  0.00315044  0.37451373  0.85210845  1
  O2-  O260  1  -0.00238164  0.62447325  0.34638672  1
  O2-  O261  1  0.00051182  0.62403768  0.84976962  1
  O2-  O262  1  -0.00190986  0.87610073  0.34621924  1
  O2-  O263  1  0.00079270  0.87506317  0.84986018  1
  O2-  O264  1  0.25032871  0.12596017  0.35293875  1
  O2-  O265  1  0.24922696  0.12621716  0.84544639  1
  O2-  O266  1  0.25109161  0.37374988  0.34705897  1
  O2-  O267  1  0.25023616  0.37386411  0.85138102  1
  O2-  O268  1  0.24916034  0.62508586  0.34923826  1
  O2-  O269  1  0.25133884  0.62368518  0.84887416  1
  O2-  O270  1  0.25093510  0.87626000  0.34816215  1
  O2-  O271  1  0.25259023  0.87543891  0.85045440  1
  O2-  O272  1  0.50037082  0.12585004  0.35265090  1
  O2-  O273  1  0.50050069  0.12584548  0.84404129  1
  O2-  O274  1  0.49921018  0.37370005  0.34883364  1
  O2-  O275  1  0.49812207  0.37454382  0.84619576  1
  O2-  O276  1  0.50128409  0.62535065  0.34875124  1
  O2-  O277  1  0.49606700  0.62397619  0.84941038  1
  O2-  O278  1  0.50138362  0.87609395  0.34472346  1
  O2-  O279  1  0.49652191  0.87518467  0.84987517  1
  O2-  O280  1  0.74855996  0.12534712  0.34569145  1
  O2-  O281  1  0.75105826  0.12542701  0.84600725  1
  O2-  O282  1  0.74943982  0.37396315  0.34649083  1
  O2-  O283  1  0.74816519  0.37431515  0.84728727  1
  O2-  O284  1  0.75175824  0.62432517  0.34579136  1
  O2-  O285  1  0.75195289  0.62459591  0.85109132  1
  O2-  O286  1  0.74991980  0.87643422  0.34202056  1
  O2-  O287  1  0.74991434  0.87524022  0.85023799  1
