# generated using pymatgen
data_BaYFeCuO5
_symmetry_space_group_name_H-M   'P 1'
_cell_length_a   15.68026030
_cell_length_b   15.68367798
_cell_length_c   15.52393939
_cell_angle_alpha   89.99680856
_cell_angle_beta   89.99406894
_cell_angle_gamma   89.99354368
_symmetry_Int_Tables_number   1
_chemical_formula_structural   BaYFeCuO5
_chemical_formula_sum   'Ba32 Y32 Fe32 Cu32 O160'
_cell_volume   3817.71159720
_cell_formula_units_Z   32
loop_
 _symmetry_equiv_pos_site_id
 _symmetry_equiv_pos_as_xyz
  1  'x, y, z'
loop_
 _atom_type_symbol
 _atom_type_oxidation_number
  Ba2+  2.0
  Y3+  3.0
  Fe3+  3.0
  Cu2+  2.0
  O2-  -2.0
loop_
 _atom_site_type_symbol
 _atom_site_label
 _atom_site_symmetry_multiplicity
 _atom_site_fract_x
 _atom_site_fract_y
 _atom_site_fract_z
 _atom_site_occupancy
  Ba2+  Ba0  1  0.00123772  0.00072249  0.00686593  1
  Ba2+  Ba1  1  -0.00468671  0.00283596  0.51393663  1
  Ba2+  Ba2  1  0.00870207  0.25203726  0.00646125  1
  Ba2+  Ba3  1  -0.00580333  0.24937385  0.51719286  1
  Ba2+  Ba4  1  0.00532647  0.49581306  0.00062858  1
  Ba2+  Ba5  1  -0.00174432  0.49979953  0.51757412  1
  Ba2+  Ba6  1  -0.00251520  0.75143108  0.00292345  1
  Ba2+  Ba7  1  -0.00009143  0.74879942  0.51358779  1
  Ba2+  Ba8  1  0.25220359  0.00664109  0.01738095  1
  Ba2+  Ba9  1  0.24379637  0.00322100  0.50004559  1
  Ba2+  Ba10  1  0.24865003  0.24990036  0.00055397  1
  Ba2+  Ba11  1  0.24272341  0.24667212  0.51338136  1
  Ba2+  Ba12  1  0.25156871  0.49827737  -0.00862023  1
  Ba2+  Ba13  1  0.24155912  0.50521646  0.50747325  1
  Ba2+  Ba14  1  0.25689520  0.74455899  0.01511011  1
  Ba2+  Ba15  1  0.24187951  0.74526490  0.49767085  1
  Ba2+  Ba16  1  0.49493255  -0.00546491  0.02319501  1
  Ba2+  Ba17  1  0.50612631  0.00256045  0.51103050  1
  Ba2+  Ba18  1  0.49401024  0.25655270  0.01205709  1
  Ba2+  Ba19  1  0.50628305  0.24586880  0.51172631  1
  Ba2+  Ba20  1  0.49932437  0.50170710  0.02266334  1
  Ba2+  Ba21  1  0.50709415  0.50576071  0.50622316  1
  Ba2+  Ba22  1  0.50008926  0.74827074  0.02903324  1
  Ba2+  Ba23  1  0.50760722  0.74576288  0.50565406  1
  Ba2+  Ba24  1  0.75097846  -0.01046540  0.01049012  1
  Ba2+  Ba25  1  0.75382292  0.00183664  0.52335088  1
  Ba2+  Ba26  1  0.74884491  0.25978284  0.01738731  1
  Ba2+  Ba27  1  0.75660183  0.24950175  0.51532149  1
  Ba2+  Ba28  1  0.74366120  0.49773713  0.02279199  1
  Ba2+  Ba29  1  0.75239717  0.49938628  0.51517285  1
  Ba2+  Ba30  1  0.74576976  0.75390378  0.01597652  1
  Ba2+  Ba31  1  0.75132599  0.74960641  0.52182598  1
  Y3+  Y32  1  -0.00051401  0.00088559  0.25440015  1
  Y3+  Y33  1  -0.00140362  0.00126811  0.76129170  1
  Y3+  Y34  1  -0.00269576  0.24995979  0.25748071  1
  Y3+  Y35  1  0.00116825  0.24942773  0.75691176  1
  Y3+  Y36  1  -0.00197518  0.49843610  0.26019574  1
  Y3+  Y37  1  0.00163465  0.50006433  0.75474330  1
  Y3+  Y38  1  0.00032164  0.75065713  0.25675259  1
  Y3+  Y39  1  -0.00079775  0.74923384  0.75920972  1
  Y3+  Y40  1  0.24943247  0.00188480  0.25633451  1
  Y3+  Y41  1  0.24791838  0.00147523  0.75958343  1
  Y3+  Y42  1  0.24962880  0.24678172  0.25761655  1
  Y3+  Y43  1  0.24694702  0.25045934  0.75902480  1
  Y3+  Y44  1  0.24966889  0.50285686  0.26382578  1
  Y3+  Y45  1  0.24680643  0.50010940  0.75423846  1
  Y3+  Y46  1  0.24935045  0.74826167  0.26123979  1
  Y3+  Y47  1  0.24807498  0.74776409  0.75710612  1
  Y3+  Y48  1  0.49734028  0.00015914  0.25875054  1
  Y3+  Y49  1  0.50219226  -0.00006161  0.75392965  1
  Y3+  Y50  1  0.49836645  0.24915616  0.25860937  1
  Y3+  Y51  1  0.50131130  0.25125324  0.75501117  1
  Y3+  Y52  1  0.50107939  0.50285904  0.26301530  1
  Y3+  Y53  1  0.50209847  0.49981668  0.75151012  1
  Y3+  Y54  1  0.50002909  0.74755729  0.26170447  1
  Y3+  Y55  1  0.50305537  0.74919743  0.75056040  1
  Y3+  Y56  1  0.75293937  -0.00088404  0.25343146  1
  Y3+  Y57  1  0.75197515  -0.00116080  0.75857969  1
  Y3+  Y58  1  0.75344420  0.25185275  0.25908924  1
  Y3+  Y59  1  0.75107085  0.25057349  0.75321171  1
  Y3+  Y60  1  0.75008715  0.49890439  0.26025203  1
  Y3+  Y61  1  0.75017315  0.50007051  0.75148409  1
  Y3+  Y62  1  0.74972466  0.75011446  0.25469133  1
  Y3+  Y63  1  0.75119290  0.75056649  0.75708778  1
  Fe3+  Fe64  1  0.62747229  0.12391773  0.37400180  1
  Fe3+  Fe65  1  0.62427730  0.62453661  0.87574514  1
  Fe3+  Fe66  1  0.12281803  0.37420076  0.37972258  1
  Fe3+  Fe67  1  0.37708654  0.12466945  0.87621808  1
  Fe3+  Fe68  1  0.62422004  0.37646250  0.87429866  1
  Fe3+  Fe69  1  0.87379177  0.37573491  0.87626640  1
  Fe3+  Fe70  1  0.62455145  0.12531559  0.88042228  1
  Fe3+  Fe71  1  0.62272233  0.87385464  0.87525810  1
  Fe3+  Fe72  1  0.37817789  0.62502162  0.87373685  1
  Fe3+  Fe73  1  0.87455723  0.62566482  0.37649436  1
  Fe3+  Fe74  1  0.62625198  0.37416697  0.37775197  1
  Fe3+  Fe75  1  0.12707373  0.87434439  0.88120612  1
  Fe3+  Fe76  1  0.12205302  0.12525510  0.37494028  1
  Fe3+  Fe77  1  0.87509114  0.87574238  0.37542805  1
  Fe3+  Fe78  1  0.87363670  0.12645257  0.88031743  1
  Fe3+  Fe79  1  0.87327219  0.62370891  0.87942767  1
  Fe3+  Fe80  1  0.37665237  0.87357002  0.87537826  1
  Fe3+  Fe81  1  0.37440472  0.87541399  0.37974334  1
  Fe3+  Fe82  1  0.37434709  0.37422439  0.38247556  1
  Fe3+  Fe83  1  0.62783621  0.87575539  0.37611717  1
  Fe3+  Fe84  1  0.12560982  0.62281520  0.13766211  1
  Fe3+  Fe85  1  0.87537274  0.12619715  0.13289364  1
  Fe3+  Fe86  1  0.37257303  0.37655186  0.14214535  1
  Fe3+  Fe87  1  0.37408969  0.62571968  0.63360619  1
  Fe3+  Fe88  1  0.87561777  0.62374043  0.13384152  1
  Fe3+  Fe89  1  0.37399774  0.87492028  0.63186583  1
  Fe3+  Fe90  1  0.12656025  0.37595585  0.14010547  1
  Fe3+  Fe91  1  0.37403865  0.12424393  0.63585923  1
  Fe3+  Fe92  1  0.12504307  0.87581195  0.63946271  1
  Fe3+  Fe93  1  0.12595430  0.87428760  0.13581911  1
  Fe3+  Fe94  1  0.37451903  0.37493546  0.63380165  1
  Fe3+  Fe95  1  0.62448084  0.12544526  0.13334881  1
  Cu2+  Cu96  1  0.87524053  0.37449325  0.37390225  1
  Cu2+  Cu97  1  0.12471319  0.37522473  0.85905525  1
  Cu2+  Cu98  1  0.37487522  0.12525620  0.36726653  1
  Cu2+  Cu99  1  0.37610743  0.37587823  0.85706520  1
  Cu2+  Cu100  1  0.12333758  0.87589925  0.36132876  1
  Cu2+  Cu101  1  0.12525210  0.12440440  0.87487449  1
  Cu2+  Cu102  1  0.62846490  0.62622860  0.37235281  1
  Cu2+  Cu103  1  0.37474949  0.62500700  0.37066944  1
  Cu2+  Cu104  1  0.12514126  0.62550492  0.86498939  1
  Cu2+  Cu105  1  0.12096706  0.62489960  0.37240399  1
  Cu2+  Cu106  1  0.87426415  0.12416599  0.37039929  1
  Cu2+  Cu107  1  0.87440107  0.87425803  0.87408067  1
  Cu2+  Cu108  1  0.12475846  0.12395619  0.65514378  1
  Cu2+  Cu109  1  0.87637117  0.87510056  0.65617256  1
  Cu2+  Cu110  1  0.62404730  0.87567292  0.15415061  1
  Cu2+  Cu111  1  0.37408740  0.62373275  0.15888727  1
  Cu2+  Cu112  1  0.87648689  0.87411717  0.13903765  1
  Cu2+  Cu113  1  0.62584741  0.87544179  0.64771142  1
  Cu2+  Cu114  1  0.12519343  0.37424747  0.64961479  1
  Cu2+  Cu115  1  0.87596995  0.37505805  0.64295178  1
  Cu2+  Cu116  1  0.62579256  0.12486529  0.65370081  1
  Cu2+  Cu117  1  0.12486086  0.12640007  0.14134099  1
  Cu2+  Cu118  1  0.62627349  0.62514143  0.63985018  1
  Cu2+  Cu119  1  0.37359863  0.87400485  0.15789868  1
  Cu2+  Cu120  1  0.12455490  0.62642005  0.64343784  1
  Cu2+  Cu121  1  0.87589428  0.62560364  0.65273809  1
  Cu2+  Cu122  1  0.87595955  0.37595254  0.14926062  1
  Cu2+  Cu123  1  0.87575659  0.12469932  0.64594603  1
  Cu2+  Cu124  1  0.37507006  0.12620896  0.15238665  1
  Cu2+  Cu125  1  0.62512999  0.62475154  0.15544286  1
  Cu2+  Cu126  1  0.62517714  0.37437281  0.64460841  1
  Cu2+  Cu127  1  0.62352147  0.37433639  0.15658290  1
  O2-  O128  1  0.12678576  0.12575861  0.00704439  1
  O2-  O129  1  0.12149161  0.12422313  0.49534578  1
  O2-  O130  1  0.12989075  0.37745793  0.01972387  1
  O2-  O131  1  0.12201041  0.37251698  0.49983378  1
  O2-  O132  1  0.12884703  0.62191139  0.01804437  1
  O2-  O133  1  0.12154996  0.62628920  0.50827925  1
  O2-  O134  1  0.12948586  0.87315671  0.00835450  1
  O2-  O135  1  0.12401630  0.87642841  0.51960447  1
  O2-  O136  1  0.37823748  0.12458647  -0.00371085  1
  O2-  O137  1  0.37385195  0.12407744  0.51591031  1
  O2-  O138  1  0.37297124  0.37770141  0.02195531  1
  O2-  O139  1  0.37463576  0.37302356  0.50820426  1
  O2-  O140  1  0.37924465  0.62471935  -0.00624824  1
  O2-  O141  1  0.37300486  0.62635304  0.51398497  1
  O2-  O142  1  0.37786623  0.87222033  -0.00544045  1
  O2-  O143  1  0.37303558  0.87605163  0.50642455  1
  O2-  O144  1  0.62184488  0.12548169  0.00555346  1
  O2-  O145  1  0.62837960  0.12333083  0.49399598  1
  O2-  O146  1  0.62171333  0.37748415  -0.00590134  1
  O2-  O147  1  0.62620467  0.37225437  0.49774834  1
  O2-  O148  1  0.62145577  0.62427325  -0.00464405  1
  O2-  O149  1  0.62846113  0.62611794  0.50566207  1
  O2-  O150  1  0.61947919  0.87309710  -0.00499111  1
  O2-  O151  1  0.62951772  0.87767934  0.49597682  1
  O2-  O152  1  0.87398339  0.12789551  0.00625615  1
  O2-  O153  1  0.87468941  0.12334114  0.50700558  1
  O2-  O154  1  0.87221573  0.37738335  -0.00380545  1
  O2-  O155  1  0.87545121  0.37485985  0.50776721  1
  O2-  O156  1  0.87364460  0.62230249  0.00600434  1
  O2-  O157  1  0.87489894  0.62717446  0.49669495  1
  O2-  O158  1  0.87484412  0.87315277  0.00627716  1
  O2-  O159  1  0.87449309  0.87569999  0.49517996  1
  O2-  O160  1  0.12609650  -0.00202698  0.16061094  1
  O2-  O161  1  0.12451526  -0.00047582  0.67089819  1
  O2-  O162  1  0.12542962  0.25207358  0.16597694  1
  O2-  O163  1  0.12571141  0.24836689  0.66534398  1
  O2-  O164  1  0.12517121  0.50011571  0.17326065  1
  O2-  O165  1  0.12481350  0.49941243  0.66309827  1
  O2-  O166  1  0.12596483  0.74952808  0.16486880  1
  O2-  O167  1  0.12481838  0.75258495  0.66969750  1
  O2-  O168  1  0.37434180  0.00029866  0.16407054  1
  O2-  O169  1  0.37609741  -0.00129345  0.66416391  1
  O2-  O170  1  0.37517753  0.25108417  0.16751325  1
  O2-  O171  1  0.37488206  0.25030134  0.66495907  1
  O2-  O172  1  0.37584340  0.49980390  0.17361718  1
  O2-  O173  1  0.37495659  0.49882186  0.66079810  1
  O2-  O174  1  0.37443103  0.74851364  0.16687441  1
  O2-  O175  1  0.37492288  0.75181119  0.66190314  1
  O2-  O176  1  0.62423373  0.00197596  0.15949080  1
  O2-  O177  1  0.62545444  0.00000065  0.66602691  1
  O2-  O178  1  0.62408980  0.24813212  0.16094779  1
  O2-  O179  1  0.62517519  0.24931146  0.66555944  1
  O2-  O180  1  0.62375852  0.49940945  0.16711690  1
  O2-  O181  1  0.62530103  0.49895613  0.66070083  1
  O2-  O182  1  0.62409541  0.75060714  0.16457367  1
  O2-  O183  1  0.62609934  0.75164165  0.66239416  1
  O2-  O184  1  0.87508607  0.00287832  0.15995311  1
  O2-  O185  1  0.87582388  -0.00084494  0.66943499  1
  O2-  O186  1  0.87400518  0.24952307  0.16396832  1
  O2-  O187  1  0.87534708  0.24951950  0.66623102  1
  O2-  O188  1  0.87434416  0.50167799  0.16523568  1
  O2-  O189  1  0.87610801  0.50145730  0.66382482  1
  O2-  O190  1  0.87518918  0.74610820  0.16113353  1
  O2-  O191  1  0.87591804  0.75039110  0.66640162  1
  O2-  O192  1  -0.00304320  0.12601833  0.16007674  1
  O2-  O193  1  0.00155187  0.12436754  0.66981193  1
  O2-  O194  1  0.00101744  0.37563716  0.16377288  1
  O2-  O195  1  0.00188287  0.37431767  0.66811461  1
  O2-  O196  1  -0.00037704  0.62433893  0.16158768  1
  O2-  O197  1  -0.00096291  0.62599708  0.66998701  1
  O2-  O198  1  0.00361044  0.87454327  0.16133059  1
  O2-  O199  1  0.00051874  0.87542242  0.67170478  1
  O2-  O200  1  0.25137050  0.12518645  0.16695598  1
  O2-  O201  1  0.25035288  0.12399272  0.66604381  1
  O2-  O202  1  0.24990715  0.37545330  0.17688105  1
  O2-  O203  1  0.25147923  0.37422720  0.66355728  1
  O2-  O204  1  0.24912231  0.62521159  0.17141197  1
  O2-  O205  1  0.25188576  0.62532793  0.66732643  1
  O2-  O206  1  0.24864342  0.87418118  0.16786022  1
  O2-  O207  1  0.25145794  0.87616443  0.66756885  1
  O2-  O208  1  0.50135162  0.12476609  0.16483749  1
  O2-  O209  1  0.49979570  0.12502999  0.66212285  1
  O2-  O210  1  0.49866538  0.37482995  0.16942230  1
  O2-  O211  1  0.49828418  0.37365586  0.65940947  1
  O2-  O212  1  0.49997271  0.62476733  0.16853533  1
  O2-  O213  1  0.49832468  0.62541109  0.65934299  1
  O2-  O214  1  0.49846330  0.87535621  0.16955377  1
  O2-  O215  1  0.49861765  0.87557891  0.65587887  1
  O2-  O216  1  0.74965745  0.12538625  0.15605350  1
  O2-  O217  1  0.74905005  0.12426790  0.66865685  1
  O2-  O218  1  0.74903574  0.37507610  0.16139962  1
  O2-  O219  1  0.74922351  0.37469499  0.66342985  1
  O2-  O220  1  0.75078221  0.62453013  0.15850951  1
  O2-  O221  1  0.75195716  0.62555024  0.66556771  1
  O2-  O222  1  0.74887209  0.87511104  0.15840124  1
  O2-  O223  1  0.75150889  0.87576968  0.66569961  1
  O2-  O224  1  0.12505703  0.00090809  0.34387571  1
  O2-  O225  1  0.12655297  -0.00362416  0.85257639  1
  O2-  O226  1  0.12523587  0.24994575  0.34517510  1
  O2-  O227  1  0.12526324  0.25123527  0.84961736  1
  O2-  O228  1  0.12403675  0.49796482  0.35176735  1
  O2-  O229  1  0.12571889  0.50007896  0.84758997  1
  O2-  O230  1  0.12378261  0.75157391  0.34794995  1
  O2-  O231  1  0.12561027  0.75178648  0.85175653  1
  O2-  O232  1  0.37403902  -0.00194302  0.34896317  1
  O2-  O233  1  0.37600710  -0.00074992  0.84419483  1
  O2-  O234  1  0.37507260  0.25192393  0.34973282  1
  O2-  O235  1  0.37651002  0.25033857  0.84867765  1
  O2-  O236  1  0.37506743  0.49802960  0.35541240  1
  O2-  O237  1  0.37472935  0.50054158  0.84283221  1
  O2-  O238  1  0.37415212  0.75221080  0.35140176  1
  O2-  O239  1  0.37577050  0.74964924  0.84068617  1
  O2-  O240  1  0.62463669  -0.00069157  0.34058783  1
  O2-  O241  1  0.62455853  0.00137035  0.84909746  1
  O2-  O242  1  0.62446917  0.24950848  0.34329220  1
  O2-  O243  1  0.62409129  0.24905550  0.84877006  1
  O2-  O244  1  0.62551385  0.49839387  0.35036464  1
  O2-  O245  1  0.62527261  0.50044520  0.84102377  1
  O2-  O246  1  0.62528885  0.75288001  0.34669906  1
  O2-  O247  1  0.62474523  0.74918449  0.84276879  1
  O2-  O248  1  0.87539999  -0.00169662  0.34183598  1
  O2-  O249  1  0.87359083  0.00315523  0.85284933  1
  O2-  O250  1  0.87436483  0.24924778  0.34822052  1
  O2-  O251  1  0.87440147  0.24978348  0.84811985  1
  O2-  O252  1  0.87452854  0.50114368  0.34797333  1
  O2-  O253  1  0.87498334  0.50086582  0.84589288  1
  O2-  O254  1  0.87562715  0.75134113  0.34223507  1
  O2-  O255  1  0.87511979  0.74618447  0.85033899  1
  O2-  O256  1  0.00095535  0.12461596  0.34173046  1
  O2-  O257  1  -0.00328083  0.12510917  0.85349473  1
  O2-  O258  1  0.00109598  0.37394416  0.34540052  1
  O2-  O259  1  -0.00078781  0.37544843  0.85128526  1
  O2-  O260  1  -0.00299220  0.62567340  0.34210922  1
  O2-  O261  1  -0.00121740  0.62442523  0.85493824  1
  O2-  O262  1  -0.00046889  0.87578727  0.34326458  1
  O2-  O263  1  0.00322858  0.87490573  0.85568517  1
  O2-  O264  1  0.24875240  0.12434958  0.34983118  1
  O2-  O265  1  0.25323111  0.12550288  0.84762237  1
  O2-  O266  1  0.25037651  0.37498456  0.35593881  1
  O2-  O267  1  0.25000272  0.37501546  0.84832157  1
  O2-  O268  1  0.24905991  0.62555772  0.35384375  1
  O2-  O269  1  0.25100114  0.62494302  0.84874367  1
  O2-  O270  1  0.25013068  0.87539021  0.35336560  1
  O2-  O271  1  0.25064199  0.87404519  0.84791478  1
  O2-  O272  1  0.50094364  0.12446944  0.34856224  1
  O2-  O273  1  0.50186130  0.12512345  0.84335567  1
  O2-  O274  1  0.49892278  0.37445286  0.35173834  1
  O2-  O275  1  0.50147030  0.37526475  0.84099876  1
  O2-  O276  1  0.49998146  0.62567008  0.35289166  1
  O2-  O277  1  0.50116542  0.62436301  0.83766699  1
  O2-  O278  1  0.49902217  0.87574342  0.35337674  1
  O2-  O279  1  0.50025659  0.87500862  0.83647560  1
  O2-  O280  1  0.74832058  0.12431531  0.33814261  1
  O2-  O281  1  0.74875603  0.12575641  0.85228211  1
  O2-  O282  1  0.74861777  0.37416528  0.34513481  1
  O2-  O283  1  0.74937297  0.37461242  0.84399002  1
  O2-  O284  1  0.75291726  0.62596381  0.34058282  1
  O2-  O285  1  0.75008072  0.62471366  0.84797713  1
  O2-  O286  1  0.75082630  0.87554348  0.33934827  1
  O2-  O287  1  0.74694038  0.87494229  0.84860214  1
