# generated using pymatgen
data_BaYFeCuO5
_symmetry_space_group_name_H-M   'P 1'
_cell_length_a   15.67280027
_cell_length_b   15.67221600
_cell_length_c   15.48962139
_cell_angle_alpha   89.99415669
_cell_angle_beta   90.00468273
_cell_angle_gamma   90.00560173
_symmetry_Int_Tables_number   1
_chemical_formula_structural   BaYFeCuO5
_chemical_formula_sum   'Ba32 Y32 Fe32 Cu32 O160'
_cell_volume   3804.67710158
_cell_formula_units_Z   32
loop_
 _symmetry_equiv_pos_site_id
 _symmetry_equiv_pos_as_xyz
  1  'x, y, z'
loop_
 _atom_type_symbol
 _atom_type_oxidation_number
  Ba2+  2.0
  Y3+  3.0
  Fe3+  3.0
  Cu2+  2.0
  O2-  -2.0
loop_
 _atom_site_type_symbol
 _atom_site_label
 _atom_site_symmetry_multiplicity
 _atom_site_fract_x
 _atom_site_fract_y
 _atom_site_fract_z
 _atom_site_occupancy
  Ba2+  Ba0  1  0.00110515  0.00175335  0.02774532  1
  Ba2+  Ba1  1  -0.00607738  0.00598580  0.50957960  1
  Ba2+  Ba2  1  0.00109154  0.25305008  0.01619897  1
  Ba2+  Ba3  1  -0.00334451  0.25674674  0.51705020  1
  Ba2+  Ba4  1  0.00657370  0.49323870  0.00615665  1
  Ba2+  Ba5  1  0.00203879  0.48980302  0.51152072  1
  Ba2+  Ba6  1  0.00796738  0.75243391  0.01924656  1
  Ba2+  Ba7  1  -0.00102221  0.74843671  0.50634100  1
  Ba2+  Ba8  1  0.25165060  -0.00276980  0.01350711  1
  Ba2+  Ba9  1  0.25575634  -0.00335134  0.51105599  1
  Ba2+  Ba10  1  0.24615052  0.25186606  0.01295798  1
  Ba2+  Ba11  1  0.25086803  0.26219704  0.50727851  1
  Ba2+  Ba12  1  0.24492825  0.50042718  0.00704468  1
  Ba2+  Ba13  1  0.25614162  0.49292866  0.50178948  1
  Ba2+  Ba14  1  0.25114406  0.74977883  0.00596139  1
  Ba2+  Ba15  1  0.26113104  0.74729562  0.50631873  1
  Ba2+  Ba16  1  0.49893013  -0.00349441  -0.00250681  1
  Ba2+  Ba17  1  0.50529883  -0.00393863  0.51381892  1
  Ba2+  Ba18  1  0.49917340  0.24832082  0.00607955  1
  Ba2+  Ba19  1  0.50289105  0.25732873  0.50703262  1
  Ba2+  Ba20  1  0.49912056  0.49956678  0.01746822  1
  Ba2+  Ba21  1  0.49865619  0.49730733  0.51237488  1
  Ba2+  Ba22  1  0.49780416  0.75593007  0.00717059  1
  Ba2+  Ba23  1  0.50180566  0.74833343  0.52020909  1
  Ba2+  Ba24  1  0.74770686  -0.00114855  0.01126703  1
  Ba2+  Ba25  1  0.74483143  0.00585040  0.51057338  1
  Ba2+  Ba26  1  0.75409585  0.25073539  0.01084786  1
  Ba2+  Ba27  1  0.74989684  0.25172795  0.51934026  1
  Ba2+  Ba28  1  0.74914127  0.49311171  0.01443402  1
  Ba2+  Ba29  1  0.74356476  0.49522858  0.52401391  1
  Ba2+  Ba30  1  0.74337914  0.75640057  0.01427837  1
  Ba2+  Ba31  1  0.73893067  0.74886475  0.51861526  1
  Y3+  Y32  1  -0.00060815  0.00120514  0.25843289  1
  Y3+  Y33  1  -0.00131296  0.00229597  0.75244416  1
  Y3+  Y34  1  0.00118097  0.25288034  0.25496721  1
  Y3+  Y35  1  -0.00022171  0.25444371  0.75854900  1
  Y3+  Y36  1  0.00271566  0.49748210  0.25352454  1
  Y3+  Y37  1  0.00219056  0.49634121  0.76105318  1
  Y3+  Y38  1  0.00102610  0.74860761  0.25677544  1
  Y3+  Y39  1  0.00127845  0.74674854  0.75699033  1
  Y3+  Y40  1  0.25094284  -0.00024277  0.25752087  1
  Y3+  Y41  1  0.25405481  -0.00053179  0.75827251  1
  Y3+  Y42  1  0.24961732  0.25508204  0.25888367  1
  Y3+  Y43  1  0.24940286  0.25374673  0.75690338  1
  Y3+  Y44  1  0.25010928  0.49727064  0.25723893  1
  Y3+  Y45  1  0.24826322  0.49876443  0.75954957  1
  Y3+  Y46  1  0.25140430  0.74890168  0.25434889  1
  Y3+  Y47  1  0.25256095  0.74817324  0.76148822  1
  Y3+  Y48  1  0.50098093  -0.00101218  0.25487243  1
  Y3+  Y49  1  0.49986601  -0.00167164  0.76164365  1
  Y3+  Y50  1  0.49953923  0.25248373  0.25764769  1
  Y3+  Y51  1  0.49849089  0.24969750  0.75780037  1
  Y3+  Y52  1  0.49825791  0.49869471  0.25701306  1
  Y3+  Y53  1  0.49846281  0.49964331  0.75760812  1
  Y3+  Y54  1  0.50026040  0.75004994  0.25216959  1
  Y3+  Y55  1  0.49875884  0.75217097  0.76232688  1
  Y3+  Y56  1  0.74948793  0.00027782  0.25416043  1
  Y3+  Y57  1  0.74702185  0.00079775  0.75978112  1
  Y3+  Y58  1  0.75066809  0.25048499  0.25239755  1
  Y3+  Y59  1  0.75173347  0.25039714  0.76047701  1
  Y3+  Y60  1  0.74871638  0.49920097  0.25064379  1
  Y3+  Y61  1  0.75063526  0.49768806  0.76084358  1
  Y3+  Y62  1  0.74754237  0.75068542  0.25184634  1
  Y3+  Y63  1  0.74647648  0.75061746  0.75971590  1
  Fe3+  Fe64  1  0.87358562  0.37620951  0.37461664  1
  Fe3+  Fe65  1  0.87694856  0.87520871  0.87570170  1
  Fe3+  Fe66  1  0.62417036  0.62415866  0.87881200  1
  Fe3+  Fe67  1  0.12532473  0.87484600  0.37996274  1
  Fe3+  Fe68  1  0.12532192  0.12662608  0.38051958  1
  Fe3+  Fe69  1  0.12343296  0.87675777  0.87333705  1
  Fe3+  Fe70  1  0.62710353  0.37503073  0.37376861  1
  Fe3+  Fe71  1  0.12486660  0.12441827  0.87500282  1
  Fe3+  Fe72  1  0.37438053  0.37519601  0.87819137  1
  Fe3+  Fe73  1  0.12596236  0.62386806  0.38006712  1
  Fe3+  Fe74  1  0.37692584  0.12537423  0.38108087  1
  Fe3+  Fe75  1  0.87563157  0.62529240  0.88012037  1
  Fe3+  Fe76  1  0.62441940  0.62442194  0.37479720  1
  Fe3+  Fe77  1  0.37739218  0.87397820  0.37644623  1
  Fe3+  Fe78  1  0.62510692  0.87473300  0.37509313  1
  Fe3+  Fe79  1  0.87273481  0.62354396  0.37949650  1
  Fe3+  Fe80  1  0.87338609  0.12707236  0.37591260  1
  Fe3+  Fe81  1  0.62439633  0.37409980  0.87728765  1
  Fe3+  Fe82  1  0.87286254  0.87402294  0.37898070  1
  Fe3+  Fe83  1  0.87671850  0.12412928  0.87679611  1
  Fe3+  Fe84  1  0.37440155  0.62447228  0.13749803  1
  Fe3+  Fe85  1  0.87435001  0.62385078  0.63473457  1
  Fe3+  Fe86  1  0.37531313  0.12560478  0.63515888  1
  Fe3+  Fe87  1  0.87574335  0.62491136  0.13378354  1
  Fe3+  Fe88  1  0.62395913  0.12539095  0.13689784  1
  Fe3+  Fe89  1  0.12564316  0.87398792  0.63256215  1
  Fe3+  Fe90  1  0.37468731  0.12561921  0.13903143  1
  Fe3+  Fe91  1  0.62436907  0.12602597  0.64055293  1
  Fe3+  Fe92  1  0.87323805  0.87487753  0.63319239  1
  Fe3+  Fe93  1  0.37522345  0.62394332  0.64042484  1
  Fe3+  Fe94  1  0.12530074  0.12611233  0.63304670  1
  Fe3+  Fe95  1  0.12603328  0.62389993  0.63415139  1
  Cu2+  Cu96  1  0.87532725  0.37464882  0.87412046  1
  Cu2+  Cu97  1  0.12372576  0.37519948  0.37204545  1
  Cu2+  Cu98  1  0.62570568  0.87522918  0.87225026  1
  Cu2+  Cu99  1  0.62494963  0.12573829  0.86627002  1
  Cu2+  Cu100  1  0.37371324  0.12600409  0.86385145  1
  Cu2+  Cu101  1  0.37342709  0.87510827  0.87268591  1
  Cu2+  Cu102  1  0.62543160  0.12545683  0.36270519  1
  Cu2+  Cu103  1  0.12543739  0.37363194  0.87138042  1
  Cu2+  Cu104  1  0.37516663  0.62367439  0.86841689  1
  Cu2+  Cu105  1  0.37632818  0.62522260  0.36270657  1
  Cu2+  Cu106  1  0.12460062  0.62524779  0.87346657  1
  Cu2+  Cu107  1  0.37659530  0.37529916  0.37162712  1
  Cu2+  Cu108  1  0.12600708  0.62433437  0.14263488  1
  Cu2+  Cu109  1  0.12579597  0.87528494  0.15742399  1
  Cu2+  Cu110  1  0.37479874  0.37452907  0.14868712  1
  Cu2+  Cu111  1  0.37496169  0.87588577  0.14214536  1
  Cu2+  Cu112  1  0.12604058  0.12555293  0.15633057  1
  Cu2+  Cu113  1  0.87533725  0.87481594  0.15251675  1
  Cu2+  Cu114  1  0.62423365  0.62486148  0.14463032  1
  Cu2+  Cu115  1  0.87582740  0.37525779  0.14007466  1
  Cu2+  Cu116  1  0.62475327  0.87562059  0.65533561  1
  Cu2+  Cu117  1  0.37524824  0.87474131  0.65303775  1
  Cu2+  Cu118  1  0.62427987  0.37430262  0.65655826  1
  Cu2+  Cu119  1  0.62401602  0.37378931  0.14745729  1
  Cu2+  Cu120  1  0.87457702  0.37595151  0.65516949  1
  Cu2+  Cu121  1  0.62352344  0.87665903  0.14131958  1
  Cu2+  Cu122  1  0.62445226  0.62423776  0.65600940  1
  Cu2+  Cu123  1  0.87551026  0.12523433  0.15046396  1
  Cu2+  Cu124  1  0.12620681  0.37528266  0.14327779  1
  Cu2+  Cu125  1  0.37502018  0.37517833  0.64383209  1
  Cu2+  Cu126  1  0.87453568  0.12565294  0.65047682  1
  Cu2+  Cu127  1  0.12592017  0.37608656  0.64272904  1
  O2-  O128  1  0.12450125  0.12191543  -0.00515984  1
  O2-  O129  1  0.12434508  0.12642989  0.50628968  1
  O2-  O130  1  0.12607424  0.37314440  0.00775045  1
  O2-  O131  1  0.12384168  0.37553228  0.50746511  1
  O2-  O132  1  0.12426580  0.62645681  0.00769223  1
  O2-  O133  1  0.12591006  0.62444504  0.50759358  1
  O2-  O134  1  0.12199333  0.87853258  -0.00671468  1
  O2-  O135  1  0.12613771  0.87332739  0.50566855  1
  O2-  O136  1  0.37360280  0.12454003  0.01873197  1
  O2-  O137  1  0.37728502  0.12493827  0.50833770  1
  O2-  O138  1  0.37479430  0.37372587  -0.00140689  1
  O2-  O139  1  0.37753876  0.37522286  0.50713824  1
  O2-  O140  1  0.37351802  0.62472736  0.01667813  1
  O2-  O141  1  0.37716044  0.62447272  0.51962319  1
  O2-  O142  1  0.37264730  0.87584841  0.00716480  1
  O2-  O143  1  0.37881518  0.87348957  0.49696585  1
  O2-  O144  1  0.62350165  0.12415742  0.01664016  1
  O2-  O145  1  0.62474727  0.12629457  0.51983646  1
  O2-  O146  1  0.62351302  0.37409858  -0.00250057  1
  O2-  O147  1  0.62800774  0.37542725  0.49409712  1
  O2-  O148  1  0.62576906  0.62440892  -0.00134486  1
  O2-  O149  1  0.62541818  0.62384848  0.49483763  1
  O2-  O150  1  0.62525144  0.87653570  0.00587724  1
  O2-  O151  1  0.62540516  0.87388910  0.49536830  1
  O2-  O152  1  0.87842136  0.12205960  -0.00309325  1
  O2-  O153  1  0.87226121  0.12720498  0.49620002  1
  O2-  O154  1  0.87585889  0.37423367  0.00651935  1
  O2-  O155  1  0.87130840  0.37657773  0.49480994  1
  O2-  O156  1  0.87712802  0.62747267  0.00636086  1
  O2-  O157  1  0.87151857  0.62333073  0.50595273  1
  O2-  O158  1  0.88016524  0.87558700  -0.00459149  1
  O2-  O159  1  0.87057669  0.87356209  0.50477456  1
  O2-  O160  1  0.12516088  0.00000750  0.17016776  1
  O2-  O161  1  0.12275641  -0.00065866  0.65472335  1
  O2-  O162  1  0.12550733  0.24927472  0.16657191  1
  O2-  O163  1  0.12546224  0.24726789  0.66251499  1
  O2-  O164  1  0.12552084  0.49963830  0.16636943  1
  O2-  O165  1  0.12367939  0.50357007  0.66636252  1
  O2-  O166  1  0.12446876  0.75130893  0.16809586  1
  O2-  O167  1  0.12385005  0.74945743  0.66047587  1
  O2-  O168  1  0.37375980  0.00198821  0.16957558  1
  O2-  O169  1  0.37551831  0.00098746  0.66188523  1
  O2-  O170  1  0.37433275  0.24996261  0.16780773  1
  O2-  O171  1  0.37368427  0.24696304  0.66383228  1
  O2-  O172  1  0.37497497  0.49938089  0.16524503  1
  O2-  O173  1  0.37538696  0.50145525  0.66850778  1
  O2-  O174  1  0.37471346  0.74894589  0.16474800  1
  O2-  O175  1  0.37459381  0.74967542  0.66731526  1
  O2-  O176  1  0.62534202  0.00247883  0.16847307  1
  O2-  O177  1  0.62474031  0.00077254  0.66617205  1
  O2-  O178  1  0.62449015  0.24921691  0.16561083  1
  O2-  O179  1  0.62551456  0.24981443  0.66734255  1
  O2-  O180  1  0.62536864  0.49893751  0.16097780  1
  O2-  O181  1  0.62476812  0.49865802  0.66488479  1
  O2-  O182  1  0.62496174  0.74978456  0.16295132  1
  O2-  O183  1  0.62577559  0.75063191  0.66405633  1
  O2-  O184  1  0.87610210  -0.00049644  0.16805391  1
  O2-  O185  1  0.87557587  -0.00226969  0.65765653  1
  O2-  O186  1  0.87639352  0.24909264  0.16324355  1
  O2-  O187  1  0.87436125  0.25124034  0.66410044  1
  O2-  O188  1  0.87471456  0.50309552  0.16259696  1
  O2-  O189  1  0.87522362  0.50242570  0.66563196  1
  O2-  O190  1  0.87599066  0.74858629  0.16591398  1
  O2-  O191  1  0.87450639  0.74922671  0.65953688  1
  O2-  O192  1  0.00091687  0.12401890  0.16718539  1
  O2-  O193  1  0.00085386  0.12491126  0.65750043  1
  O2-  O194  1  0.00079523  0.37549792  0.16514377  1
  O2-  O195  1  -0.00113580  0.37556044  0.66421435  1
  O2-  O196  1  -0.00249203  0.62603998  0.16840262  1
  O2-  O197  1  -0.00024245  0.62631056  0.65813554  1
  O2-  O198  1  0.00081934  0.87484304  0.17075305  1
  O2-  O199  1  -0.00071962  0.87326794  0.65320384  1
  O2-  O200  1  0.25046358  0.12531173  0.17250354  1
  O2-  O201  1  0.24988021  0.12229208  0.65918800  1
  O2-  O202  1  0.25106741  0.37465487  0.16820889  1
  O2-  O203  1  0.25019685  0.37599570  0.66542597  1
  O2-  O204  1  0.25204719  0.62491962  0.17088496  1
  O2-  O205  1  0.24855503  0.62583439  0.66561199  1
  O2-  O206  1  0.24887676  0.87557142  0.16951189  1
  O2-  O207  1  0.24752191  0.87547333  0.66132953  1
  O2-  O208  1  0.49938253  0.12602169  0.17109961  1
  O2-  O209  1  0.49835004  0.12492850  0.66695567  1
  O2-  O210  1  0.49985673  0.37447113  0.16497664  1
  O2-  O211  1  0.50060540  0.37402581  0.66468317  1
  O2-  O212  1  0.49922330  0.62411390  0.16455194  1
  O2-  O213  1  0.50031760  0.62583113  0.66747766  1
  O2-  O214  1  0.49976285  0.87605967  0.16451648  1
  O2-  O215  1  0.50031799  0.87464334  0.66681943  1
  O2-  O216  1  0.75006276  0.12495968  0.16205096  1
  O2-  O217  1  0.74983965  0.12475070  0.66723398  1
  O2-  O218  1  0.74880862  0.37450102  0.15918999  1
  O2-  O219  1  0.74984977  0.37590731  0.66630009  1
  O2-  O220  1  0.75146902  0.62615852  0.15954360  1
  O2-  O221  1  0.75072529  0.62482952  0.66407690  1
  O2-  O222  1  0.75081018  0.87507554  0.16207720  1
  O2-  O223  1  0.75165540  0.87467504  0.66384444  1
  O2-  O224  1  0.12391475  -0.00041497  0.35457502  1
  O2-  O225  1  0.12475742  0.00026776  0.83604813  1
  O2-  O226  1  0.12531343  0.24741073  0.35001995  1
  O2-  O227  1  0.12491283  0.24813413  0.84502308  1
  O2-  O228  1  0.12387884  0.50313908  0.34952515  1
  O2-  O229  1  0.12487701  0.49922931  0.85013499  1
  O2-  O230  1  0.12445916  0.75014888  0.35229724  1
  O2-  O231  1  0.12388456  0.75234546  0.84351606  1
  O2-  O232  1  0.37536258  0.00034313  0.35103756  1
  O2-  O233  1  0.37420331  0.00196412  0.84718132  1
  O2-  O234  1  0.37487240  0.24687194  0.35096504  1
  O2-  O235  1  0.37475463  0.25089440  0.84668474  1
  O2-  O236  1  0.37562628  0.50139902  0.34862645  1
  O2-  O237  1  0.37428279  0.49875528  0.84920254  1
  O2-  O238  1  0.37450979  0.75112937  0.34645072  1
  O2-  O239  1  0.37440314  0.74841948  0.85077828  1
  O2-  O240  1  0.62576122  -0.00054342  0.34998200  1
  O2-  O241  1  0.62511428  0.00179836  0.84912663  1
  O2-  O242  1  0.62626287  0.25024555  0.34701446  1
  O2-  O243  1  0.62405798  0.25027595  0.84845504  1
  O2-  O244  1  0.62583351  0.50018340  0.34227483  1
  O2-  O245  1  0.62561377  0.49965710  0.84643436  1
  O2-  O246  1  0.62612221  0.75018157  0.34372875  1
  O2-  O247  1  0.62529756  0.74790827  0.84758195  1
  O2-  O248  1  0.87558746  -0.00174370  0.35196923  1
  O2-  O249  1  0.87549951  -0.00018896  0.83999890  1
  O2-  O250  1  0.87461225  0.25069008  0.34433185  1
  O2-  O251  1  0.87576709  0.24768137  0.84755401  1
  O2-  O252  1  0.87545007  0.50219236  0.34523669  1
  O2-  O253  1  0.87459246  0.50282287  0.85060395  1
  O2-  O254  1  0.87525334  0.74966498  0.35142702  1
  O2-  O255  1  0.87574133  0.74920468  0.84372830  1
  O2-  O256  1  0.00048752  0.12433873  0.35065201  1
  O2-  O257  1  0.00024488  0.12417805  0.83916631  1
  O2-  O258  1  -0.00263465  0.37578958  0.34681489  1
  O2-  O259  1  0.00060920  0.37521812  0.84844666  1
  O2-  O260  1  -0.00071405  0.62701523  0.35469195  1
  O2-  O261  1  -0.00320568  0.62506750  0.84376756  1
  O2-  O262  1  -0.00040921  0.87390902  0.35603489  1
  O2-  O263  1  -0.00042561  0.87511427  0.83432002  1
  O2-  O264  1  0.25034282  0.12294160  0.35679055  1
  O2-  O265  1  0.24905333  0.12474836  0.84256865  1
  O2-  O266  1  0.25005328  0.37580586  0.35189871  1
  O2-  O267  1  0.25119735  0.37440791  0.84710117  1
  O2-  O268  1  0.24914862  0.62588045  0.35515421  1
  O2-  O269  1  0.25112403  0.62533483  0.84887266  1
  O2-  O270  1  0.24905296  0.87553422  0.35285426  1
  O2-  O271  1  0.24769364  0.87536436  0.84489067  1
  O2-  O272  1  0.49931330  0.12475572  0.35330206  1
  O2-  O273  1  0.49920636  0.12503416  0.85079884  1
  O2-  O274  1  0.50287662  0.37469158  0.34768369  1
  O2-  O275  1  0.49955204  0.37458226  0.84614034  1
  O2-  O276  1  0.50091729  0.62560428  0.34608431  1
  O2-  O277  1  0.50039986  0.62419569  0.84960928  1
  O2-  O278  1  0.50099395  0.87506971  0.34426417  1
  O2-  O279  1  0.49939309  0.87554186  0.85151193  1
  O2-  O280  1  0.75073209  0.12382867  0.34409361  1
  O2-  O281  1  0.75111949  0.12449483  0.84955726  1
  O2-  O282  1  0.75081215  0.37611336  0.33892783  1
  O2-  O283  1  0.74827403  0.37450679  0.84908585  1
  O2-  O284  1  0.75097348  0.62567458  0.34277208  1
  O2-  O285  1  0.75123108  0.62577284  0.84833924  1
  O2-  O286  1  0.75102612  0.87467321  0.34466500  1
  O2-  O287  1  0.75283665  0.87470639  0.84673626  1
