# generated using pymatgen
data_BaYFeCuO5
_symmetry_space_group_name_H-M   'P 1'
_cell_length_a   15.67525274
_cell_length_b   15.67767619
_cell_length_c   15.49931597
_cell_angle_alpha   89.99720123
_cell_angle_beta   89.99561522
_cell_angle_gamma   90.00500393
_symmetry_Int_Tables_number   1
_chemical_formula_structural   BaYFeCuO5
_chemical_formula_sum   'Ba32 Y32 Fe32 Cu32 O160'
_cell_volume   3808.98068783
_cell_formula_units_Z   32
loop_
 _symmetry_equiv_pos_site_id
 _symmetry_equiv_pos_as_xyz
  1  'x, y, z'
loop_
 _atom_type_symbol
 _atom_type_oxidation_number
  Ba2+  2.0
  Y3+  3.0
  Fe3+  3.0
  Cu2+  2.0
  O2-  -2.0
loop_
 _atom_site_type_symbol
 _atom_site_label
 _atom_site_symmetry_multiplicity
 _atom_site_fract_x
 _atom_site_fract_y
 _atom_site_fract_z
 _atom_site_occupancy
  Ba2+  Ba0  1  -0.00285947  0.00828413  0.01842308  1
  Ba2+  Ba1  1  0.00155466  -0.01250308  0.50705101  1
  Ba2+  Ba2  1  0.00107346  0.24749567  0.02218645  1
  Ba2+  Ba3  1  0.00046426  0.26105861  0.51094949  1
  Ba2+  Ba4  1  -0.00573935  0.49398984  0.02149167  1
  Ba2+  Ba5  1  0.00143419  0.49985706  0.51146441  1
  Ba2+  Ba6  1  -0.01084373  0.75082305  0.01795398  1
  Ba2+  Ba7  1  0.00144712  0.75286349  0.50546598  1
  Ba2+  Ba8  1  0.25579461  0.00681896  0.00658527  1
  Ba2+  Ba9  1  0.24975362  -0.00043033  0.50637569  1
  Ba2+  Ba10  1  0.24949369  0.24382078  0.00670023  1
  Ba2+  Ba11  1  0.25560863  0.25289229  0.51943047  1
  Ba2+  Ba12  1  0.25405369  0.49407125  0.00887769  1
  Ba2+  Ba13  1  0.24802418  0.50061568  0.52812454  1
  Ba2+  Ba14  1  0.26037252  0.75276224  0.01077426  1
  Ba2+  Ba15  1  0.24283974  0.74703051  0.52001876  1
  Ba2+  Ba16  1  0.49648587  0.00082065  0.00688796  1
  Ba2+  Ba17  1  0.50013852  0.00627419  0.50601662  1
  Ba2+  Ba18  1  0.49899429  0.24547078  -0.00055968  1
  Ba2+  Ba19  1  0.49257227  0.24388301  0.50655887  1
  Ba2+  Ba20  1  0.50297216  0.49957392  0.00579633  1
  Ba2+  Ba21  1  0.48887309  0.50002423  0.51760031  1
  Ba2+  Ba22  1  0.50021726  0.75443509  0.01214214  1
  Ba2+  Ba23  1  0.49820777  0.75025849  0.51656694  1
  Ba2+  Ba24  1  0.74951847  0.00019993  0.01988785  1
  Ba2+  Ba25  1  0.74846350  -0.00687780  0.50803187  1
  Ba2+  Ba26  1  0.75069466  0.25006014  0.02133078  1
  Ba2+  Ba27  1  0.75138715  0.25146568  0.50316672  1
  Ba2+  Ba28  1  0.75039731  0.49876685  0.01994557  1
  Ba2+  Ba29  1  0.76076030  0.49904189  0.50229939  1
  Ba2+  Ba30  1  0.74864983  0.75118131  0.01818238  1
  Ba2+  Ba31  1  0.75704536  0.75537337  0.50624526  1
  Y3+  Y32  1  0.00126416  -0.00111479  0.26009906  1
  Y3+  Y33  1  0.00188467  -0.00078337  0.75549144  1
  Y3+  Y34  1  0.00081697  0.25026720  0.25767703  1
  Y3+  Y35  1  0.00107353  0.24987518  0.75537155  1
  Y3+  Y36  1  -0.00252857  0.49872629  0.25836218  1
  Y3+  Y37  1  0.00017001  0.49848406  0.75395451  1
  Y3+  Y38  1  -0.00174173  0.75144147  0.26017851  1
  Y3+  Y39  1  0.00090671  0.75232674  0.75381488  1
  Y3+  Y40  1  0.25100724  0.00149769  0.25531550  1
  Y3+  Y41  1  0.25067261  0.00186746  0.76032773  1
  Y3+  Y42  1  0.25020450  0.24613824  0.25416117  1
  Y3+  Y43  1  0.25224219  0.24772040  0.76100952  1
  Y3+  Y44  1  0.25003074  0.49963251  0.25041151  1
  Y3+  Y45  1  0.25048428  0.49859758  0.75980845  1
  Y3+  Y46  1  0.25068380  0.75254068  0.25432778  1
  Y3+  Y47  1  0.24949359  0.75228780  0.75941777  1
  Y3+  Y48  1  0.49708711  0.00130742  0.25771773  1
  Y3+  Y49  1  0.49797924  0.00133861  0.75898888  1
  Y3+  Y50  1  0.49856870  0.24659542  0.25954849  1
  Y3+  Y51  1  0.49700013  0.24764244  0.75743988  1
  Y3+  Y52  1  0.49956393  0.49969362  0.25557529  1
  Y3+  Y53  1  0.49928292  0.49965066  0.75853380  1
  Y3+  Y54  1  0.49791401  0.75198410  0.25433207  1
  Y3+  Y55  1  0.50029227  0.75164651  0.75936745  1
  Y3+  Y56  1  0.75038353  -0.00082819  0.26134877  1
  Y3+  Y57  1  0.74958219  -0.00147558  0.75340592  1
  Y3+  Y58  1  0.75027615  0.25065849  0.26199817  1
  Y3+  Y59  1  0.75047189  0.24987391  0.75361481  1
  Y3+  Y60  1  0.75247946  0.49863805  0.26000955  1
  Y3+  Y61  1  0.75048292  0.50008292  0.75461010  1
  Y3+  Y62  1  0.75266483  0.75151010  0.25933196  1
  Y3+  Y63  1  0.74950512  0.75192233  0.75414655  1
  Fe3+  Fe64  1  0.37603722  0.62526123  0.87666346  1
  Fe3+  Fe65  1  0.62705085  0.37419632  0.87526721  1
  Fe3+  Fe66  1  0.62260891  0.37549223  0.38062430  1
  Fe3+  Fe67  1  0.87467392  0.87597089  0.87610681  1
  Fe3+  Fe68  1  0.62408814  0.62503660  0.38041467  1
  Fe3+  Fe69  1  0.62625345  0.87599656  0.87606484  1
  Fe3+  Fe70  1  0.12772215  0.37589819  0.37485158  1
  Fe3+  Fe71  1  0.12667044  0.62422034  0.37343445  1
  Fe3+  Fe72  1  0.87465842  0.37419487  0.87527403  1
  Fe3+  Fe73  1  0.12595283  0.12549561  0.38037153  1
  Fe3+  Fe74  1  0.12287958  0.62523318  0.88059561  1
  Fe3+  Fe75  1  0.37338375  0.87421278  0.37944972  1
  Fe3+  Fe76  1  0.12405879  0.87605216  0.88138529  1
  Fe3+  Fe77  1  0.87630410  0.12456876  0.38027572  1
  Fe3+  Fe78  1  0.87399788  0.62481440  0.87668045  1
  Fe3+  Fe79  1  0.87419076  0.12532747  0.87479540  1
  Fe3+  Fe80  1  0.62288905  0.87431532  0.37731684  1
  Fe3+  Fe81  1  0.12355333  0.37406398  0.87732744  1
  Fe3+  Fe82  1  0.37241693  0.37585069  0.37550978  1
  Fe3+  Fe83  1  0.37298856  0.62469625  0.37581631  1
  Fe3+  Fe84  1  0.87611721  0.62586895  0.63632399  1
  Fe3+  Fe85  1  0.62396099  0.37503387  0.63317989  1
  Fe3+  Fe86  1  0.62510242  0.62513453  0.14037410  1
  Fe3+  Fe87  1  0.12559551  0.12497742  0.63455813  1
  Fe3+  Fe88  1  0.62448855  0.12474700  0.63609995  1
  Fe3+  Fe89  1  0.62426579  0.12506678  0.14137279  1
  Fe3+  Fe90  1  0.87603270  0.12441837  0.63248384  1
  Fe3+  Fe91  1  0.37451395  0.87602903  0.63639111  1
  Fe3+  Fe92  1  0.37684901  0.37282978  0.13518033  1
  Fe3+  Fe93  1  0.12487661  0.87597450  0.13464431  1
  Fe3+  Fe94  1  0.62511579  0.62529697  0.63368155  1
  Fe3+  Fe95  1  0.12467295  0.62509013  0.13250220  1
  Cu2+  Cu96  1  0.62474196  0.12472871  0.36830235  1
  Cu2+  Cu97  1  0.87575220  0.62512637  0.36467902  1
  Cu2+  Cu98  1  0.37309085  0.12490830  0.37359921  1
  Cu2+  Cu99  1  0.87653723  0.37452589  0.37248373  1
  Cu2+  Cu100  1  0.37546415  0.12462665  0.87175731  1
  Cu2+  Cu101  1  0.62701204  0.12479606  0.86080056  1
  Cu2+  Cu102  1  0.12716199  0.87393287  0.37123273  1
  Cu2+  Cu103  1  0.62672690  0.62530953  0.86110157  1
  Cu2+  Cu104  1  0.37558851  0.37475353  0.86546954  1
  Cu2+  Cu105  1  0.12286116  0.12500111  0.87239242  1
  Cu2+  Cu106  1  0.37527609  0.87538148  0.87213611  1
  Cu2+  Cu107  1  0.87559906  0.87530557  0.37161675  1
  Cu2+  Cu108  1  0.12592210  0.37409874  0.65361739  1
  Cu2+  Cu109  1  0.37583225  0.12526513  0.14386113  1
  Cu2+  Cu110  1  0.87473886  0.62488738  0.15513208  1
  Cu2+  Cu111  1  0.87517703  0.87613455  0.15513625  1
  Cu2+  Cu112  1  0.12562861  0.37439347  0.14831475  1
  Cu2+  Cu113  1  0.62507316  0.87598019  0.15466016  1
  Cu2+  Cu114  1  0.12498101  0.62500858  0.65613812  1
  Cu2+  Cu115  1  0.87418423  0.12495669  0.15902975  1
  Cu2+  Cu116  1  0.87439271  0.37376176  0.15678710  1
  Cu2+  Cu117  1  0.12612146  0.87590029  0.64315842  1
  Cu2+  Cu118  1  0.12521503  0.12443296  0.14314461  1
  Cu2+  Cu119  1  0.62437867  0.37399588  0.15606919  1
  Cu2+  Cu120  1  0.87569449  0.87505363  0.64136271  1
  Cu2+  Cu121  1  0.37557278  0.37456739  0.65580917  1
  Cu2+  Cu122  1  0.37443285  0.12387989  0.64331252  1
  Cu2+  Cu123  1  0.37477387  0.62624787  0.65543358  1
  Cu2+  Cu124  1  0.37520000  0.87672978  0.14156350  1
  Cu2+  Cu125  1  0.37559183  0.62465196  0.14724980  1
  Cu2+  Cu126  1  0.62365513  0.87512875  0.64782594  1
  Cu2+  Cu127  1  0.87451149  0.37515641  0.63951469  1
  O2-  O128  1  0.12261801  0.12505198  0.00751136  1
  O2-  O129  1  0.12609120  0.12591852  0.50713895  1
  O2-  O130  1  0.12093724  0.37449505  -0.00280856  1
  O2-  O131  1  0.12924599  0.37814989  0.49470284  1
  O2-  O132  1  0.12197667  0.62510569  0.00544299  1
  O2-  O133  1  0.12751369  0.62300541  0.49340881  1
  O2-  O134  1  0.12246995  0.87627577  0.00757025  1
  O2-  O135  1  0.12751334  0.87301111  0.50705986  1
  O2-  O136  1  0.37693823  0.12586559  0.00729661  1
  O2-  O137  1  0.37295291  0.12463927  0.50815736  1
  O2-  O138  1  0.37922447  0.37366279  0.01481399  1
  O2-  O139  1  0.37100165  0.37831708  0.49552102  1
  O2-  O140  1  0.37849994  0.62481844  -0.00292112  1
  O2-  O141  1  0.37046997  0.62431785  0.49533140  1
  O2-  O142  1  0.37640922  0.87546911  0.00691624  1
  O2-  O143  1  0.37337726  0.87345163  0.50723047  1
  O2-  O144  1  0.62688001  0.12559695  0.02095173  1
  O2-  O145  1  0.62373452  0.12594809  0.51593144  1
  O2-  O146  1  0.62929917  0.37504190  -0.00497031  1
  O2-  O147  1  0.62189772  0.37666943  0.50691136  1
  O2-  O148  1  0.62705181  0.62433425  0.01997570  1
  O2-  O149  1  0.62356669  0.62486396  0.50677467  1
  O2-  O150  1  0.62802638  0.87527787  -0.00396899  1
  O2-  O151  1  0.62192571  0.87231366  0.49743768  1
  O2-  O152  1  0.87274656  0.12607293  -0.00508776  1
  O2-  O153  1  0.87668574  0.12451723  0.50652258  1
  O2-  O154  1  0.87331583  0.37319847  -0.00503358  1
  O2-  O155  1  0.87620456  0.37578660  0.50597512  1
  O2-  O156  1  0.87259677  0.62417930  -0.00327236  1
  O2-  O157  1  0.87768552  0.62575275  0.51586278  1
  O2-  O158  1  0.87305278  0.87671875  -0.00397225  1
  O2-  O159  1  0.87590216  0.87426798  0.50628189  1
  O2-  O160  1  0.12396154  -0.00273470  0.16756104  1
  O2-  O161  1  0.12513667  0.00333163  0.66416995  1
  O2-  O162  1  0.12462608  0.25077886  0.16751044  1
  O2-  O163  1  0.12530210  0.24855943  0.66073475  1
  O2-  O164  1  0.12498104  0.50163997  0.15859226  1
  O2-  O165  1  0.12560153  0.49915457  0.66584321  1
  O2-  O166  1  0.12433854  0.75005763  0.15980824  1
  O2-  O167  1  0.12620548  0.74929728  0.66809846  1
  O2-  O168  1  0.37486305  0.00087291  0.16821397  1
  O2-  O169  1  0.37488448  -0.00254046  0.66465053  1
  O2-  O170  1  0.37553841  0.25092733  0.16850945  1
  O2-  O171  1  0.37505310  0.25052928  0.66444815  1
  O2-  O172  1  0.37613590  0.49901300  0.16190581  1
  O2-  O173  1  0.37541480  0.50065694  0.66484546  1
  O2-  O174  1  0.37535194  0.74893559  0.16334187  1
  O2-  O175  1  0.37408702  0.75171843  0.66306977  1
  O2-  O176  1  0.62595822  -0.00002541  0.16909710  1
  O2-  O177  1  0.62448074  0.00028072  0.66396881  1
  O2-  O178  1  0.62609479  0.24967403  0.17172112  1
  O2-  O179  1  0.62494423  0.25111914  0.66291882  1
  O2-  O180  1  0.62564867  0.49950018  0.16792186  1
  O2-  O181  1  0.62365220  0.50066606  0.66143528  1
  O2-  O182  1  0.62548401  0.75096662  0.16571755  1
  O2-  O183  1  0.62460411  0.74831654  0.66210715  1
  O2-  O184  1  0.87504794  0.00040907  0.16814850  1
  O2-  O185  1  0.87591713  0.00292820  0.66152228  1
  O2-  O186  1  0.87407301  0.24977481  0.16883506  1
  O2-  O187  1  0.87475378  0.24687876  0.66026406  1
  O2-  O188  1  0.87390052  0.49873829  0.16485027  1
  O2-  O189  1  0.87519218  0.50219895  0.66525860  1
  O2-  O190  1  0.87461791  0.75082748  0.16406258  1
  O2-  O191  1  0.87509688  0.74850890  0.66676270  1
  O2-  O192  1  -0.00207835  0.12522579  0.16710446  1
  O2-  O193  1  0.00071774  0.12562377  0.66055441  1
  O2-  O194  1  -0.00022338  0.37437351  0.16392977  1
  O2-  O195  1  0.00149100  0.37498716  0.66122611  1
  O2-  O196  1  0.00083235  0.62477693  0.16200640  1
  O2-  O197  1  0.00057892  0.62514169  0.66535473  1
  O2-  O198  1  0.00112506  0.87502148  0.16422509  1
  O2-  O199  1  0.00085241  0.87505646  0.66495133  1
  O2-  O200  1  0.25047133  0.12439067  0.16413936  1
  O2-  O201  1  0.24747951  0.12526573  0.66636518  1
  O2-  O202  1  0.25121274  0.37513672  0.15879181  1
  O2-  O203  1  0.25085404  0.37512773  0.66845261  1
  O2-  O204  1  0.24832908  0.62527902  0.15584342  1
  O2-  O205  1  0.24956289  0.62505466  0.66923671  1
  O2-  O206  1  0.24694842  0.87485594  0.16248428  1
  O2-  O207  1  0.25274988  0.87499194  0.66762225  1
  O2-  O208  1  0.50152513  0.12473210  0.17021106  1
  O2-  O209  1  0.50117445  0.12494283  0.66661722  1
  O2-  O210  1  0.49967583  0.37492204  0.16940550  1
  O2-  O211  1  0.50147542  0.37556715  0.66325427  1
  O2-  O212  1  0.50102784  0.62521491  0.16917924  1
  O2-  O213  1  0.50146071  0.62558901  0.66164210  1
  O2-  O214  1  0.50091717  0.87523824  0.16684918  1
  O2-  O215  1  0.49767551  0.87390339  0.66323861  1
  O2-  O216  1  0.74960059  0.12505426  0.17126006  1
  O2-  O217  1  0.75085289  0.12450545  0.66011670  1
  O2-  O218  1  0.74968957  0.37446175  0.16944370  1
  O2-  O219  1  0.74623018  0.37591423  0.65864940  1
  O2-  O220  1  0.74982179  0.62480142  0.17160248  1
  O2-  O221  1  0.74857933  0.62482012  0.66047459  1
  O2-  O222  1  0.75099862  0.87557421  0.16760230  1
  O2-  O223  1  0.74849115  0.87516893  0.65992995  1
  O2-  O224  1  0.12534378  0.00249008  0.35238327  1
  O2-  O225  1  0.12422667  -0.00296262  0.84792345  1
  O2-  O226  1  0.12537653  0.24916367  0.35013010  1
  O2-  O227  1  0.12432300  0.25186106  0.84387570  1
  O2-  O228  1  0.12580938  0.50013559  0.33944990  1
  O2-  O229  1  0.12450399  0.50119240  0.84864309  1
  O2-  O230  1  0.12580633  0.74775159  0.34291735  1
  O2-  O231  1  0.12415991  0.75013947  0.85192842  1
  O2-  O232  1  0.37428408  -0.00262204  0.35241329  1
  O2-  O233  1  0.37482504  0.00016099  0.84769272  1
  O2-  O234  1  0.37480151  0.25178452  0.34976948  1
  O2-  O235  1  0.37583924  0.25036274  0.84841510  1
  O2-  O236  1  0.37475226  0.50024630  0.34149711  1
  O2-  O237  1  0.37538610  0.50112571  0.84783136  1
  O2-  O238  1  0.37477932  0.75040187  0.34612905  1
  O2-  O239  1  0.37536881  0.74823502  0.84600596  1
  O2-  O240  1  0.62389819  -0.00100880  0.35122935  1
  O2-  O241  1  0.62621956  0.00024394  0.84628650  1
  O2-  O242  1  0.62403231  0.25176258  0.35482175  1
  O2-  O243  1  0.62558663  0.24988819  0.84492882  1
  O2-  O244  1  0.62454215  0.50045797  0.35135921  1
  O2-  O245  1  0.62606604  0.49929443  0.84458355  1
  O2-  O246  1  0.62412113  0.74824748  0.34791862  1
  O2-  O247  1  0.62568257  0.75086613  0.84556261  1
  O2-  O248  1  0.87587637  0.00285378  0.35143791  1
  O2-  O249  1  0.87495687  -0.00062650  0.84227147  1
  O2-  O250  1  0.87562719  0.24689701  0.35240691  1
  O2-  O251  1  0.87470674  0.25051725  0.84069469  1
  O2-  O252  1  0.87515416  0.50061010  0.34887734  1
  O2-  O253  1  0.87446855  0.49964702  0.84474817  1
  O2-  O254  1  0.87526861  0.74926489  0.34842698  1
  O2-  O255  1  0.87526333  0.75073505  0.84672499  1
  O2-  O256  1  0.00128888  0.12507891  0.35121427  1
  O2-  O257  1  -0.00292957  0.12471097  0.84237532  1
  O2-  O258  1  0.00338698  0.37507666  0.34700922  1
  O2-  O259  1  -0.00105425  0.37541112  0.84213164  1
  O2-  O260  1  0.00093658  0.62472446  0.34586897  1
  O2-  O261  1  0.00037805  0.62521715  0.84686408  1
  O2-  O262  1  0.00103739  0.87450878  0.34844199  1
  O2-  O263  1  0.00073276  0.87477063  0.84692233  1
  O2-  O264  1  0.24690421  0.12457269  0.34703575  1
  O2-  O265  1  0.24955276  0.12476684  0.85041069  1
  O2-  O266  1  0.25016023  0.37512635  0.33792292  1
  O2-  O267  1  0.24940171  0.37541293  0.85215182  1
  O2-  O268  1  0.25078601  0.62507089  0.33660608  1
  O2-  O269  1  0.24778467  0.62534836  0.85283361  1
  O2-  O270  1  0.25323588  0.87449869  0.34548775  1
  O2-  O271  1  0.24673248  0.87439185  0.85188074  1
  O2-  O272  1  0.50012851  0.12479260  0.35239738  1
  O2-  O273  1  0.50232617  0.12491256  0.84950835  1
  O2-  O274  1  0.49968946  0.37591075  0.35041722  1
  O2-  O275  1  0.50147485  0.37531346  0.84684853  1
  O2-  O276  1  0.50001570  0.62446227  0.35066976  1
  O2-  O277  1  0.50101954  0.62451767  0.84589251  1
  O2-  O278  1  0.49738124  0.87416725  0.34927410  1
  O2-  O279  1  0.50234526  0.87526563  0.84639330  1
  O2-  O280  1  0.75159214  0.12510053  0.35466252  1
  O2-  O281  1  0.75143063  0.12523931  0.84026954  1
  O2-  O282  1  0.74656104  0.37510393  0.35414379  1
  O2-  O283  1  0.75104660  0.37478156  0.83861891  1
  O2-  O284  1  0.74828002  0.62469827  0.35536590  1
  O2-  O285  1  0.75125395  0.62536534  0.84152595  1
  O2-  O286  1  0.74766588  0.87469230  0.35083026  1
  O2-  O287  1  0.75062932  0.87495733  0.84100903  1
