# generated using pymatgen
data_BaYFeCuO5
_symmetry_space_group_name_H-M   'P 1'
_cell_length_a   15.65828347
_cell_length_b   15.65886428
_cell_length_c   15.46372841
_cell_angle_alpha   90.00415984
_cell_angle_beta   89.98946050
_cell_angle_gamma   90.00794452
_symmetry_Int_Tables_number   1
_chemical_formula_structural   BaYFeCuO5
_chemical_formula_sum   'Ba32 Y32 Fe32 Cu32 O160'
_cell_volume   3791.56592802
_cell_formula_units_Z   32
loop_
 _symmetry_equiv_pos_site_id
 _symmetry_equiv_pos_as_xyz
  1  'x, y, z'
loop_
 _atom_type_symbol
 _atom_type_oxidation_number
  Ba2+  2.0
  Y3+  3.0
  Fe3+  3.0
  Cu2+  2.0
  O2-  -2.0
loop_
 _atom_site_type_symbol
 _atom_site_label
 _atom_site_symmetry_multiplicity
 _atom_site_fract_x
 _atom_site_fract_y
 _atom_site_fract_z
 _atom_site_occupancy
  Ba2+  Ba0  1  0.00116865  -0.00094941  0.00754892  1
  Ba2+  Ba1  1  0.01143181  0.00190491  0.51115669  1
  Ba2+  Ba2  1  -0.00439979  0.25459241  0.00050916  1
  Ba2+  Ba3  1  -0.00068728  0.25175475  0.50583506  1
  Ba2+  Ba4  1  -0.00300653  0.50273948  0.01295926  1
  Ba2+  Ba5  1  -0.00290536  0.50400840  0.51174931  1
  Ba2+  Ba6  1  0.00277280  0.74363569  0.01747320  1
  Ba2+  Ba7  1  0.00766915  0.74376698  0.51428156  1
  Ba2+  Ba8  1  0.25789653  -0.00497986  0.01157823  1
  Ba2+  Ba9  1  0.24860201  -0.00621426  0.51146830  1
  Ba2+  Ba10  1  0.25241177  0.24741608  0.00175633  1
  Ba2+  Ba11  1  0.24812238  0.24726473  0.51119431  1
  Ba2+  Ba12  1  0.24784891  0.50746132  0.00753015  1
  Ba2+  Ba13  1  0.25170324  0.50708850  0.51642655  1
  Ba2+  Ba14  1  0.25393613  0.75054293  0.01711593  1
  Ba2+  Ba15  1  0.25042326  0.75019221  0.51658921  1
  Ba2+  Ba16  1  0.49462226  -0.00098261  0.00636842  1
  Ba2+  Ba17  1  0.50017748  -0.00637000  0.51761762  1
  Ba2+  Ba18  1  0.50258643  0.24382025  0.01578372  1
  Ba2+  Ba19  1  0.50416183  0.25374141  0.52253246  1
  Ba2+  Ba20  1  0.50146045  0.50724547  0.00565940  1
  Ba2+  Ba21  1  0.49570382  0.49624526  0.52281460  1
  Ba2+  Ba22  1  0.49494116  0.75100312  -0.00300042  1
  Ba2+  Ba23  1  0.49278661  0.75531269  0.51607953  1
  Ba2+  Ba24  1  0.74519250  0.00431011  0.00165826  1
  Ba2+  Ba25  1  0.73990632  0.00106960  0.51754131  1
  Ba2+  Ba26  1  0.74945854  0.25186253  0.01879624  1
  Ba2+  Ba27  1  0.74741804  0.25692987  0.51594762  1
  Ba2+  Ba28  1  0.75325054  0.50169060  0.01297655  1
  Ba2+  Ba29  1  0.75500116  0.49400262  0.51511663  1
  Ba2+  Ba30  1  0.74799598  0.74353138  -0.00462961  1
  Ba2+  Ba31  1  0.74916121  0.74920174  0.51615946  1
  Y3+  Y32  1  0.00308218  -0.00009387  0.25870090  1
  Y3+  Y33  1  0.00175216  0.00137078  0.75648350  1
  Y3+  Y34  1  -0.00015094  0.25137088  0.26187058  1
  Y3+  Y35  1  0.00053505  0.25066079  0.75458358  1
  Y3+  Y36  1  -0.00105333  0.50158878  0.25884939  1
  Y3+  Y37  1  -0.00077901  0.50111176  0.75582394  1
  Y3+  Y38  1  0.00267224  0.74710840  0.25671433  1
  Y3+  Y39  1  0.00059910  0.74682231  0.75566523  1
  Y3+  Y40  1  0.25216125  -0.00190813  0.25723095  1
  Y3+  Y41  1  0.25194197  -0.00104110  0.75757744  1
  Y3+  Y42  1  0.25026099  0.24715674  0.25780741  1
  Y3+  Y43  1  0.24953708  0.24905604  0.75765620  1
  Y3+  Y44  1  0.24938774  0.50393881  0.25624426  1
  Y3+  Y45  1  0.25002563  0.50183968  0.75773344  1
  Y3+  Y46  1  0.25117242  0.75023601  0.25684524  1
  Y3+  Y47  1  0.25235030  0.75010425  0.75698514  1
  Y3+  Y48  1  0.49640708  -0.00072722  0.25453574  1
  Y3+  Y49  1  0.49844903  -0.00309185  0.76017291  1
  Y3+  Y50  1  0.50030789  0.24833467  0.25284772  1
  Y3+  Y51  1  0.49907612  0.24972468  0.75856400  1
  Y3+  Y52  1  0.49993060  0.50064936  0.25289973  1
  Y3+  Y53  1  0.49790654  0.50199112  0.75977900  1
  Y3+  Y54  1  0.49558459  0.75146624  0.25523792  1
  Y3+  Y55  1  0.49730358  0.75157368  0.75962990  1
  Y3+  Y56  1  0.74889615  0.00063106  0.25684024  1
  Y3+  Y57  1  0.74770563  -0.00081484  0.75808126  1
  Y3+  Y58  1  0.75038147  0.25290060  0.25834635  1
  Y3+  Y59  1  0.75047147  0.25127992  0.75482475  1
  Y3+  Y60  1  0.75238884  0.49820836  0.25579232  1
  Y3+  Y61  1  0.75232173  0.50150809  0.75679721  1
  Y3+  Y62  1  0.75101670  0.74829144  0.25607586  1
  Y3+  Y63  1  0.74938762  0.74840028  0.75865012  1
  Fe3+  Fe64  1  0.62369062  0.62451886  0.38110649  1
  Fe3+  Fe65  1  0.12615833  0.87341898  0.37563813  1
  Fe3+  Fe66  1  0.37440016  0.37509026  0.87897880  1
  Fe3+  Fe67  1  0.62488090  0.12627003  0.87452570  1
  Fe3+  Fe68  1  0.37579840  0.62508104  0.37718374  1
  Fe3+  Fe69  1  0.87400548  0.12422905  0.38130335  1
  Fe3+  Fe70  1  0.37604248  0.12431790  0.38021372  1
  Fe3+  Fe71  1  0.62334461  0.37607319  0.37523674  1
  Fe3+  Fe72  1  0.12465058  0.62509353  0.87562812  1
  Fe3+  Fe73  1  0.87431275  0.62540538  0.37803875  1
  Fe3+  Fe74  1  0.62410128  0.87399081  0.37733410  1
  Fe3+  Fe75  1  0.62551134  0.37568067  0.87696588  1
  Fe3+  Fe76  1  0.87471701  0.37542634  0.87474156  1
  Fe3+  Fe77  1  0.12497733  0.12491198  0.87899842  1
  Fe3+  Fe78  1  0.87597968  0.87464548  0.87845989  1
  Fe3+  Fe79  1  0.62353471  0.12526515  0.37749275  1
  Fe3+  Fe80  1  0.87509893  0.87509285  0.38092447  1
  Fe3+  Fe81  1  0.12530708  0.87372487  0.87716903  1
  Fe3+  Fe82  1  0.12635733  0.37668685  0.37994884  1
  Fe3+  Fe83  1  0.37579898  0.37493613  0.37666017  1
  Fe3+  Fe84  1  0.87471641  0.12468127  0.63537291  1
  Fe3+  Fe85  1  0.12500296  0.12525084  0.13564242  1
  Fe3+  Fe86  1  0.37442536  0.37538072  0.13355682  1
  Fe3+  Fe87  1  0.62499841  0.87447176  0.13492864  1
  Fe3+  Fe88  1  0.37521755  0.12451331  0.63652218  1
  Fe3+  Fe89  1  0.87594388  0.87497868  0.63501336  1
  Fe3+  Fe90  1  0.62419504  0.62493845  0.63625820  1
  Fe3+  Fe91  1  0.87573567  0.12499304  0.13860758  1
  Fe3+  Fe92  1  0.12475652  0.37470170  0.13725347  1
  Fe3+  Fe93  1  0.62494336  0.62631763  0.13770141  1
  Fe3+  Fe94  1  0.12556412  0.37553368  0.63622906  1
  Fe3+  Fe95  1  0.87455004  0.87448267  0.13448937  1
  Cu2+  Cu96  1  0.37338301  0.62526554  0.87220503  1
  Cu2+  Cu97  1  0.37517120  0.12495562  0.87212250  1
  Cu2+  Cu98  1  0.62484581  0.87470961  0.86641111  1
  Cu2+  Cu99  1  0.12644100  0.12454648  0.37432408  1
  Cu2+  Cu100  1  0.87475253  0.12542031  0.86203738  1
  Cu2+  Cu101  1  0.12457041  0.37559636  0.86442305  1
  Cu2+  Cu102  1  0.87468246  0.37547768  0.37431858  1
  Cu2+  Cu103  1  0.62473423  0.62430614  0.86119677  1
  Cu2+  Cu104  1  0.87625161  0.62463607  0.87207480  1
  Cu2+  Cu105  1  0.37353335  0.87492940  0.87100438  1
  Cu2+  Cu106  1  0.37534892  0.87482399  0.37275440  1
  Cu2+  Cu107  1  0.12624265  0.62489537  0.37318897  1
  Cu2+  Cu108  1  0.37389868  0.37464465  0.65353998  1
  Cu2+  Cu109  1  0.12489223  0.87513913  0.14900662  1
  Cu2+  Cu110  1  0.12574447  0.12511740  0.64183430  1
  Cu2+  Cu111  1  0.37416922  0.12480777  0.14071547  1
  Cu2+  Cu112  1  0.62512988  0.87371477  0.65412938  1
  Cu2+  Cu113  1  0.12529554  0.62462035  0.15170224  1
  Cu2+  Cu114  1  0.87641491  0.37460510  0.15322584  1
  Cu2+  Cu115  1  0.87469638  0.62554465  0.64928301  1
  Cu2+  Cu116  1  0.37559642  0.62510130  0.14072931  1
  Cu2+  Cu117  1  0.62426419  0.12511854  0.65183260  1
  Cu2+  Cu118  1  0.37550009  0.62549756  0.65256504  1
  Cu2+  Cu119  1  0.87619198  0.37506683  0.64142410  1
  Cu2+  Cu120  1  0.12451183  0.87488128  0.65256142  1
  Cu2+  Cu121  1  0.37534384  0.87450452  0.14300629  1
  Cu2+  Cu122  1  0.87434078  0.62543899  0.14206711  1
  Cu2+  Cu123  1  0.62468040  0.37648323  0.65458121  1
  Cu2+  Cu124  1  0.62509302  0.37558659  0.14626240  1
  Cu2+  Cu125  1  0.12576639  0.62464975  0.64224463  1
  Cu2+  Cu126  1  0.37421276  0.87530450  0.64365662  1
  Cu2+  Cu127  1  0.62570274  0.12409313  0.15161071  1
  O2-  O128  1  0.12384165  0.12558919  0.00764300  1
  O2-  O129  1  0.12631244  0.12558549  0.50771796  1
  O2-  O130  1  0.12339719  0.37342631  0.01722317  1
  O2-  O131  1  0.12697651  0.37606217  0.50760329  1
  O2-  O132  1  0.12378036  0.62512137  -0.00324522  1
  O2-  O133  1  0.12657151  0.62409571  0.50737023  1
  O2-  O134  1  0.12364595  0.87396346  -0.00281204  1
  O2-  O135  1  0.12482398  0.87383381  0.49682942  1
  O2-  O136  1  0.37457587  0.12578608  0.00676362  1
  O2-  O137  1  0.37679629  0.12509214  0.50741263  1
  O2-  O138  1  0.37435196  0.37498818  0.00612484  1
  O2-  O139  1  0.37687428  0.37448144  0.49652334  1
  O2-  O140  1  0.37466059  0.62430599  0.00639171  1
  O2-  O141  1  0.37718221  0.62403538  0.49791697  1
  O2-  O142  1  0.37530279  0.87475927  0.00698704  1
  O2-  O143  1  0.37483173  0.87577675  0.50863579  1
  O2-  O144  1  0.62722999  0.12706756  -0.00454008  1
  O2-  O145  1  0.62289229  0.12585603  0.49738001  1
  O2-  O146  1  0.62699037  0.37469763  -0.00301925  1
  O2-  O147  1  0.62218067  0.37605564  0.49557993  1
  O2-  O148  1  0.62586944  0.62612287  0.01685444  1
  O2-  O149  1  0.62344368  0.62402193  0.50722458  1
  O2-  O150  1  0.62704933  0.87388899  0.01467661  1
  O2-  O151  1  0.62542290  0.87451596  0.49797567  1
  O2-  O152  1  0.87570477  0.12467023  0.01830044  1
  O2-  O153  1  0.87388922  0.12338714  0.50809986  1
  O2-  O154  1  0.87432869  0.37454627  -0.00430073  1
  O2-  O155  1  0.87474967  0.37430463  0.50714655  1
  O2-  O156  1  0.87509997  0.62548996  0.00690123  1
  O2-  O157  1  0.87310320  0.62619372  0.49852512  1
  O2-  O158  1  0.87489415  0.87518993  0.00672230  1
  O2-  O159  1  0.87499366  0.87551377  0.50677498  1
  O2-  O160  1  0.12393690  0.00178482  0.16259007  1
  O2-  O161  1  0.12489134  -0.00160759  0.66638058  1
  O2-  O162  1  0.12424027  0.24874254  0.16829192  1
  O2-  O163  1  0.12534509  0.25279330  0.66554765  1
  O2-  O164  1  0.12510350  0.49949251  0.16581599  1
  O2-  O165  1  0.12602997  0.49757604  0.66417932  1
  O2-  O166  1  0.12413146  0.74949131  0.16297145  1
  O2-  O167  1  0.12374424  0.75144020  0.66305297  1
  O2-  O168  1  0.37448917  -0.00028852  0.16603617  1
  O2-  O169  1  0.37508748  0.00241086  0.66507182  1
  O2-  O170  1  0.37471008  0.25287165  0.16375760  1
  O2-  O171  1  0.37517340  0.24838426  0.66430054  1
  O2-  O172  1  0.37450004  0.49711817  0.16204244  1
  O2-  O173  1  0.37463403  0.49974742  0.66542287  1
  O2-  O174  1  0.37467963  0.75000426  0.16564030  1
  O2-  O175  1  0.37517684  0.74951638  0.66501507  1
  O2-  O176  1  0.62647473  -0.00098371  0.16574519  1
  O2-  O177  1  0.62592947  -0.00107727  0.66419632  1
  O2-  O178  1  0.62557386  0.24974816  0.16260275  1
  O2-  O179  1  0.62408054  0.25149775  0.66260271  1
  O2-  O180  1  0.62562788  0.50061471  0.16529566  1
  O2-  O181  1  0.62495346  0.50194545  0.66319082  1
  O2-  O182  1  0.62579535  0.75080501  0.17102638  1
  O2-  O183  1  0.62523644  0.74798291  0.66299792  1
  O2-  O184  1  0.87551936  -0.00117678  0.16747930  1
  O2-  O185  1  0.87382756  -0.00016908  0.66411524  1
  O2-  O186  1  0.87600134  0.24917552  0.16860666  1
  O2-  O187  1  0.87537904  0.24694869  0.66204157  1
  O2-  O188  1  0.87540908  0.49841378  0.16389841  1
  O2-  O189  1  0.87472771  0.50139318  0.66358812  1
  O2-  O190  1  0.87534718  0.75327261  0.16577537  1
  O2-  O191  1  0.87554754  0.75210137  0.66278753  1
  O2-  O192  1  0.00128404  0.12451248  0.16867592  1
  O2-  O193  1  -0.00287097  0.12361883  0.66451234  1
  O2-  O194  1  0.00119838  0.37467133  0.17021537  1
  O2-  O195  1  0.00281888  0.37487838  0.66253036  1
  O2-  O196  1  0.00107195  0.62465055  0.16605180  1
  O2-  O197  1  -0.00128806  0.62485127  0.66295654  1
  O2-  O198  1  -0.00167125  0.87584824  0.16359600  1
  O2-  O199  1  -0.00128319  0.87681637  0.66287208  1
  O2-  O200  1  0.24635154  0.12534690  0.16550378  1
  O2-  O201  1  0.25308568  0.12561027  0.66503811  1
  O2-  O202  1  0.25041402  0.37413363  0.16565493  1
  O2-  O203  1  0.24882045  0.37420022  0.66508006  1
  O2-  O204  1  0.24898819  0.62491943  0.16392101  1
  O2-  O205  1  0.25210069  0.62522263  0.66473727  1
  O2-  O206  1  0.24871612  0.87522559  0.16462144  1
  O2-  O207  1  0.24758919  0.87531954  0.66462738  1
  O2-  O208  1  0.50175141  0.12475020  0.16280198  1
  O2-  O209  1  0.49884536  0.12527008  0.66352288  1
  O2-  O210  1  0.49820233  0.37479740  0.15927629  1
  O2-  O211  1  0.49917294  0.37576058  0.66618646  1
  O2-  O212  1  0.50188440  0.62482461  0.16643666  1
  O2-  O213  1  0.50103416  0.62455450  0.66476150  1
  O2-  O214  1  0.50193506  0.87542112  0.16544825  1
  O2-  O215  1  0.50123806  0.87503168  0.66626860  1
  O2-  O216  1  0.75134003  0.12505790  0.16787739  1
  O2-  O217  1  0.75059593  0.12491202  0.66132029  1
  O2-  O218  1  0.75122757  0.37428383  0.16401236  1
  O2-  O219  1  0.74915452  0.37475399  0.66211004  1
  O2-  O220  1  0.74834313  0.62511317  0.16868724  1
  O2-  O221  1  0.74841062  0.62596777  0.66249587  1
  O2-  O222  1  0.75115703  0.87551617  0.16665697  1
  O2-  O223  1  0.75204423  0.87444561  0.66366977  1
  O2-  O224  1  0.12490071  -0.00248696  0.34616872  1
  O2-  O225  1  0.12316137  0.00099089  0.84976578  1
  O2-  O226  1  0.12586561  0.25319485  0.35124708  1
  O2-  O227  1  0.12465425  0.24863188  0.85045617  1
  O2-  O228  1  0.12576502  0.49744509  0.34860624  1
  O2-  O229  1  0.12465062  0.50019957  0.84705426  1
  O2-  O230  1  0.12481727  0.75119091  0.34579634  1
  O2-  O231  1  0.12426666  0.75008028  0.84430692  1
  O2-  O232  1  0.37554500  0.00226191  0.35005522  1
  O2-  O233  1  0.37494854  -0.00024704  0.84849988  1
  O2-  O234  1  0.37540904  0.24875952  0.34694627  1
  O2-  O235  1  0.37393440  0.25304137  0.84852392  1
  O2-  O236  1  0.37588441  0.49977146  0.34332955  1
  O2-  O237  1  0.37454664  0.49720546  0.85012745  1
  O2-  O238  1  0.37587716  0.74853142  0.34802720  1
  O2-  O239  1  0.37419312  0.75026690  0.84848648  1
  O2-  O240  1  0.62558436  0.00000589  0.34710623  1
  O2-  O241  1  0.62533597  0.00079010  0.84820390  1
  O2-  O242  1  0.62452825  0.24969375  0.34460586  1
  O2-  O243  1  0.62552016  0.25131633  0.84371208  1
  O2-  O244  1  0.62445689  0.50168317  0.34700923  1
  O2-  O245  1  0.62425299  0.49925860  0.84635551  1
  O2-  O246  1  0.62604676  0.74838784  0.35117142  1
  O2-  O247  1  0.62595266  0.74906781  0.84800598  1
  O2-  O248  1  0.87461752  -0.00069188  0.35092374  1
  O2-  O249  1  0.87557386  -0.00131366  0.85000613  1
  O2-  O250  1  0.87474692  0.24665669  0.35216092  1
  O2-  O251  1  0.87524055  0.25062839  0.84475406  1
  O2-  O252  1  0.87439494  0.50236320  0.34718173  1
  O2-  O253  1  0.87567494  0.49837677  0.84606830  1
  O2-  O254  1  0.87411999  0.75155928  0.34861458  1
  O2-  O255  1  0.87460101  0.75288230  0.84791305  1
  O2-  O256  1  -0.00286107  0.12401311  0.35218044  1
  O2-  O257  1  0.00149744  0.12578086  0.84962312  1
  O2-  O258  1  0.00284709  0.37464790  0.35336096  1
  O2-  O259  1  -0.00065049  0.37353306  0.84543857  1
  O2-  O260  1  -0.00182332  0.62580427  0.34919802  1
  O2-  O261  1  0.00204251  0.62500910  0.84489963  1
  O2-  O262  1  -0.00179877  0.87517785  0.34803259  1
  O2-  O263  1  -0.00060548  0.87578858  0.84645922  1
  O2-  O264  1  0.25380369  0.12546784  0.34943318  1
  O2-  O265  1  0.24663663  0.12535642  0.84943623  1
  O2-  O266  1  0.25049489  0.37437986  0.34780472  1
  O2-  O267  1  0.25079218  0.37433527  0.85050548  1
  O2-  O268  1  0.25256445  0.62445038  0.34694127  1
  O2-  O269  1  0.24748126  0.62430504  0.84666496  1
  O2-  O270  1  0.24958602  0.87515717  0.34746357  1
  O2-  O271  1  0.24745527  0.87632818  0.84657796  1
  O2-  O272  1  0.49892162  0.12497540  0.34539010  1
  O2-  O273  1  0.50167350  0.12579781  0.84637185  1
  O2-  O274  1  0.49980069  0.37470536  0.34011160  1
  O2-  O275  1  0.49905078  0.37502965  0.84994198  1
  O2-  O276  1  0.50134581  0.62500308  0.34678366  1
  O2-  O277  1  0.50043319  0.62516344  0.84966714  1
  O2-  O278  1  0.50178667  0.87496701  0.34669502  1
  O2-  O279  1  0.50030771  0.87443780  0.85027819  1
  O2-  O280  1  0.75025332  0.12407462  0.34993504  1
  O2-  O281  1  0.74942863  0.12417818  0.84439366  1
  O2-  O282  1  0.74724153  0.37520100  0.34722475  1
  O2-  O283  1  0.74997506  0.37553922  0.84353511  1
  O2-  O284  1  0.74828502  0.62566529  0.34983520  1
  O2-  O285  1  0.74909798  0.62496805  0.84693220  1
  O2-  O286  1  0.75111803  0.87507427  0.34821063  1
  O2-  O287  1  0.75205471  0.87542913  0.84929872  1
