# generated using pymatgen
data_BaYFeCuO5
_symmetry_space_group_name_H-M   'P 1'
_cell_length_a   15.67050641
_cell_length_b   15.66804931
_cell_length_c   15.47866532
_cell_angle_alpha   89.99981578
_cell_angle_beta   90.00080869
_cell_angle_gamma   89.99887756
_symmetry_Int_Tables_number   1
_chemical_formula_structural   BaYFeCuO5
_chemical_formula_sum   'Ba32 Y32 Fe32 Cu32 O160'
_cell_volume   3800.41891459
_cell_formula_units_Z   32
loop_
 _symmetry_equiv_pos_site_id
 _symmetry_equiv_pos_as_xyz
  1  'x, y, z'
loop_
 _atom_type_symbol
 _atom_type_oxidation_number
  Ba2+  2.0
  Y3+  3.0
  Fe3+  3.0
  Cu2+  2.0
  O2-  -2.0
loop_
 _atom_site_type_symbol
 _atom_site_label
 _atom_site_symmetry_multiplicity
 _atom_site_fract_x
 _atom_site_fract_y
 _atom_site_fract_z
 _atom_site_occupancy
  Ba2+  Ba0  1  -0.01073115  0.00064262  0.00730288  1
  Ba2+  Ba1  1  0.00361582  -0.00402939  0.51296486  1
  Ba2+  Ba2  1  -0.00318938  0.25555815  -0.00393995  1
  Ba2+  Ba3  1  0.00271858  0.25903068  0.50364684  1
  Ba2+  Ba4  1  -0.00283834  0.49285679  0.00566281  1
  Ba2+  Ba5  1  -0.00618258  0.49473013  0.50681650  1
  Ba2+  Ba6  1  -0.01069824  0.74939542  0.01822866  1
  Ba2+  Ba7  1  -0.00689942  0.75016627  0.51555658  1
  Ba2+  Ba8  1  0.26097942  0.00260622  0.01141192  1
  Ba2+  Ba9  1  0.24776102  -0.00419553  0.51364454  1
  Ba2+  Ba10  1  0.24923117  0.24964445  0.00659947  1
  Ba2+  Ba11  1  0.24403043  0.25624788  0.50624786  1
  Ba2+  Ba12  1  0.24614284  0.49642225  0.01017085  1
  Ba2+  Ba13  1  0.25259240  0.49441598  0.51861943  1
  Ba2+  Ba14  1  0.25967004  0.75018408  0.01572594  1
  Ba2+  Ba15  1  0.25507370  0.75265751  0.52212027  1
  Ba2+  Ba16  1  0.50009940  0.00121245  0.01384147  1
  Ba2+  Ba17  1  0.50714319  -0.00360166  0.51044159  1
  Ba2+  Ba18  1  0.49948753  0.23950556  0.01275836  1
  Ba2+  Ba19  1  0.50782376  0.25364949  0.51149399  1
  Ba2+  Ba20  1  0.50161112  0.50903576  0.01625347  1
  Ba2+  Ba21  1  0.50197433  0.49880373  0.52083533  1
  Ba2+  Ba22  1  0.50263398  0.75158168  0.01649602  1
  Ba2+  Ba23  1  0.50182244  0.75105191  0.51918829  1
  Ba2+  Ba24  1  0.74833748  -0.00078999  0.00697998  1
  Ba2+  Ba25  1  0.74180471  -0.00340119  0.51032381  1
  Ba2+  Ba26  1  0.75493374  0.24624802  -0.00164876  1
  Ba2+  Ba27  1  0.74469418  0.25661927  0.50675904  1
  Ba2+  Ba28  1  0.75456871  0.50521433  0.01515755  1
  Ba2+  Ba29  1  0.75153719  0.49806860  0.51129685  1
  Ba2+  Ba30  1  0.74906034  0.75019945  0.01922644  1
  Ba2+  Ba31  1  0.74886087  0.74857917  0.51442985  1
  Y3+  Y32  1  -0.00011473  0.00133398  0.25905208  1
  Y3+  Y33  1  -0.00161227  -0.00074029  0.75697426  1
  Y3+  Y34  1  0.00212653  0.25319425  0.26224880  1
  Y3+  Y35  1  -0.00064886  0.25406300  0.75704818  1
  Y3+  Y36  1  -0.00087566  0.49792808  0.26100399  1
  Y3+  Y37  1  -0.00093069  0.49677668  0.75427106  1
  Y3+  Y38  1  -0.00345313  0.74795679  0.25910452  1
  Y3+  Y39  1  -0.00205946  0.74983158  0.75324110  1
  Y3+  Y40  1  0.25174699  0.00277459  0.25574341  1
  Y3+  Y41  1  0.25222098  0.00071800  0.75896441  1
  Y3+  Y42  1  0.24774790  0.25034725  0.25624579  1
  Y3+  Y43  1  0.24976348  0.25175789  0.75998425  1
  Y3+  Y44  1  0.24765187  0.49811803  0.25494360  1
  Y3+  Y45  1  0.24895498  0.49694420  0.75795443  1
  Y3+  Y46  1  0.25171217  0.74908955  0.25405551  1
  Y3+  Y47  1  0.25109945  0.75062701  0.75615402  1
  Y3+  Y48  1  0.50127518  0.00199061  0.25912671  1
  Y3+  Y49  1  0.50207929  0.00000729  0.75516571  1
  Y3+  Y50  1  0.50185160  0.24700320  0.25943685  1
  Y3+  Y51  1  0.50105426  0.24935184  0.75595974  1
  Y3+  Y52  1  0.50143200  0.50065980  0.25597980  1
  Y3+  Y53  1  0.50110408  0.49950610  0.75467997  1
  Y3+  Y54  1  0.50070352  0.75000461  0.25639259  1
  Y3+  Y55  1  0.50215902  0.75111815  0.75377697  1
  Y3+  Y56  1  0.74686458  0.00076326  0.26214380  1
  Y3+  Y57  1  0.74795552  -0.00093375  0.75324777  1
  Y3+  Y58  1  0.74781935  0.25070013  0.26455474  1
  Y3+  Y59  1  0.75003580  0.25122479  0.75279192  1
  Y3+  Y60  1  0.75183748  0.50012732  0.26320353  1
  Y3+  Y61  1  0.75121962  0.49929079  0.75180109  1
  Y3+  Y62  1  0.75025708  0.74830683  0.26076469  1
  Y3+  Y63  1  0.74890521  0.75009042  0.75106994  1
  Fe3+  Fe64  1  0.62629446  0.62608205  0.87517116  1
  Fe3+  Fe65  1  0.87553088  0.12518060  0.38241609  1
  Fe3+  Fe66  1  0.12591545  0.62514081  0.37981765  1
  Fe3+  Fe67  1  0.37406149  0.12541260  0.38076966  1
  Fe3+  Fe68  1  0.37765920  0.87490993  0.87535054  1
  Fe3+  Fe69  1  0.37443701  0.62449980  0.37641526  1
  Fe3+  Fe70  1  0.62380370  0.62492120  0.37765207  1
  Fe3+  Fe71  1  0.62539386  0.12402648  0.87475121  1
  Fe3+  Fe72  1  0.12410242  0.12399014  0.88024285  1
  Fe3+  Fe73  1  0.12456402  0.87394265  0.88017140  1
  Fe3+  Fe74  1  0.37718690  0.37487539  0.87978782  1
  Fe3+  Fe75  1  0.87254131  0.87356630  0.87418761  1
  Fe3+  Fe76  1  0.62592461  0.37617977  0.88035392  1
  Fe3+  Fe77  1  0.87425044  0.87508262  0.37758680  1
  Fe3+  Fe78  1  0.37577906  0.37583035  0.37520560  1
  Fe3+  Fe79  1  0.87423025  0.62508074  0.87398716  1
  Fe3+  Fe80  1  0.12616060  0.87352245  0.37456962  1
  Fe3+  Fe81  1  0.12400072  0.62585139  0.87892316  1
  Fe3+  Fe82  1  0.37586427  0.62505141  0.87551222  1
  Fe3+  Fe83  1  0.37515090  0.87429024  0.37563421  1
  Fe3+  Fe84  1  0.87456602  0.37355471  0.14144614  1
  Fe3+  Fe85  1  0.87506562  0.12560002  0.63505088  1
  Fe3+  Fe86  1  0.12303120  0.12586137  0.13501575  1
  Fe3+  Fe87  1  0.12436418  0.87583130  0.13286259  1
  Fe3+  Fe88  1  0.37554496  0.37430543  0.13442725  1
  Fe3+  Fe89  1  0.62663538  0.37419028  0.13469901  1
  Fe3+  Fe90  1  0.12347304  0.62427653  0.13397950  1
  Fe3+  Fe91  1  0.12496421  0.12593783  0.63926836  1
  Fe3+  Fe92  1  0.87387938  0.12639756  0.14136700  1
  Fe3+  Fe93  1  0.12489489  0.62413010  0.63508497  1
  Fe3+  Fe94  1  0.37499615  0.12604355  0.63480232  1
  Fe3+  Fe95  1  0.62589937  0.87605980  0.14056163  1
  Cu2+  Cu96  1  0.62552912  0.87409864  0.86128846  1
  Cu2+  Cu97  1  0.12486878  0.37598396  0.87391148  1
  Cu2+  Cu98  1  0.12572034  0.12437765  0.36585911  1
  Cu2+  Cu99  1  0.87303762  0.37611003  0.86002380  1
  Cu2+  Cu100  1  0.62378759  0.87319959  0.37174258  1
  Cu2+  Cu101  1  0.37632199  0.12481112  0.87204348  1
  Cu2+  Cu102  1  0.12686211  0.37688215  0.37190625  1
  Cu2+  Cu103  1  0.62288259  0.37690698  0.37137267  1
  Cu2+  Cu104  1  0.87437908  0.37494921  0.37363476  1
  Cu2+  Cu105  1  0.87528821  0.62491548  0.37478730  1
  Cu2+  Cu106  1  0.62408950  0.12477454  0.37564397  1
  Cu2+  Cu107  1  0.87445977  0.12467987  0.85881020  1
  Cu2+  Cu108  1  0.12308382  0.37402072  0.14094220  1
  Cu2+  Cu109  1  0.62666451  0.12598924  0.15348862  1
  Cu2+  Cu110  1  0.62495155  0.87486661  0.64128242  1
  Cu2+  Cu111  1  0.12499925  0.37445553  0.64426733  1
  Cu2+  Cu112  1  0.87442081  0.87605511  0.15532164  1
  Cu2+  Cu113  1  0.87540158  0.62395099  0.15497415  1
  Cu2+  Cu114  1  0.87511777  0.37386395  0.64242313  1
  Cu2+  Cu115  1  0.37534482  0.87654902  0.65157702  1
  Cu2+  Cu116  1  0.87518202  0.62393308  0.63983783  1
  Cu2+  Cu117  1  0.62520724  0.12561664  0.64170876  1
  Cu2+  Cu118  1  0.62619590  0.62445192  0.15265095  1
  Cu2+  Cu119  1  0.62513317  0.37493472  0.64369610  1
  Cu2+  Cu120  1  0.37558487  0.87593612  0.15183956  1
  Cu2+  Cu121  1  0.37494284  0.37337217  0.65297916  1
  Cu2+  Cu122  1  0.62494212  0.62420504  0.64810557  1
  Cu2+  Cu123  1  0.12529603  0.87522679  0.65447185  1
  Cu2+  Cu124  1  0.37542734  0.12626984  0.14323697  1
  Cu2+  Cu125  1  0.87474939  0.87611484  0.64820989  1
  Cu2+  Cu126  1  0.37459771  0.62381577  0.14919321  1
  Cu2+  Cu127  1  0.37465164  0.62427947  0.65159638  1
  O2-  O128  1  0.12239542  0.12387659  0.00801061  1
  O2-  O129  1  0.12645036  0.12425337  0.51902623  1
  O2-  O130  1  0.12335210  0.37530731  0.00688908  1
  O2-  O131  1  0.12696186  0.37683228  0.50761419  1
  O2-  O132  1  0.12300043  0.62608482  0.00562447  1
  O2-  O133  1  0.12727489  0.62547054  0.50644670  1
  O2-  O134  1  0.12390399  0.87480016  0.00574096  1
  O2-  O135  1  0.12738140  0.87308308  0.49451267  1
  O2-  O136  1  0.37565491  0.12510851  0.00741748  1
  O2-  O137  1  0.37301948  0.12553361  0.50739455  1
  O2-  O138  1  0.37645622  0.37484703  0.00646451  1
  O2-  O139  1  0.37536489  0.37599772  0.49576179  1
  O2-  O140  1  0.37654127  0.62641529  -0.00447371  1
  O2-  O141  1  0.37331062  0.62476195  0.49614094  1
  O2-  O142  1  0.37751882  0.87445776  -0.00407533  1
  O2-  O143  1  0.37286246  0.87383106  0.49591131  1
  O2-  O144  1  0.62666250  0.12366098  -0.00428836  1
  O2-  O145  1  0.62379981  0.12513513  0.50776038  1
  O2-  O146  1  0.62782087  0.37490239  0.00675640  1
  O2-  O147  1  0.62293390  0.37741503  0.50692239  1
  O2-  O148  1  0.62683598  0.62629049  -0.00444000  1
  O2-  O149  1  0.62209245  0.62450081  0.49816422  1
  O2-  O150  1  0.62658034  0.87652658  0.01966237  1
  O2-  O151  1  0.62389058  0.87278489  0.50718508  1
  O2-  O152  1  0.87448134  0.12622570  0.02061996  1
  O2-  O153  1  0.87711875  0.12426132  0.50878475  1
  O2-  O154  1  0.87336529  0.37337974  0.02075794  1
  O2-  O155  1  0.87464087  0.37392910  0.50843219  1
  O2-  O156  1  0.87393065  0.62644265  -0.00563225  1
  O2-  O157  1  0.87589254  0.62558352  0.50693036  1
  O2-  O158  1  0.87279173  0.87354835  -0.00522893  1
  O2-  O159  1  0.87688551  0.87566251  0.49793463  1
  O2-  O160  1  0.12410558  0.00006051  0.16177915  1
  O2-  O161  1  0.12566006  0.00049834  0.66856772  1
  O2-  O162  1  0.12406902  0.24707733  0.16629306  1
  O2-  O163  1  0.12544632  0.24831308  0.67079677  1
  O2-  O164  1  0.12432462  0.50253876  0.16186542  1
  O2-  O165  1  0.12644162  0.50204015  0.66541092  1
  O2-  O166  1  0.12542594  0.75067310  0.15843808  1
  O2-  O167  1  0.12582085  0.74911505  0.66321125  1
  O2-  O168  1  0.37525394  0.00003884  0.16732047  1
  O2-  O169  1  0.37364158  0.00239129  0.66226274  1
  O2-  O170  1  0.37591401  0.25347977  0.16626750  1
  O2-  O171  1  0.37437353  0.24800447  0.66695574  1
  O2-  O172  1  0.37448927  0.49754941  0.16001195  1
  O2-  O173  1  0.37390054  0.49867113  0.66565256  1
  O2-  O174  1  0.37402586  0.74966093  0.16066887  1
  O2-  O175  1  0.37426479  0.75077247  0.66191795  1
  O2-  O176  1  0.62535091  0.00069925  0.16871467  1
  O2-  O177  1  0.62489385  0.00034706  0.66401514  1
  O2-  O178  1  0.62498213  0.25185920  0.16612004  1
  O2-  O179  1  0.62449274  0.25003395  0.66728852  1
  O2-  O180  1  0.62556875  0.49864484  0.16035032  1
  O2-  O181  1  0.62436507  0.50074813  0.66632318  1
  O2-  O182  1  0.62537460  0.74972526  0.16452190  1
  O2-  O183  1  0.62437162  0.74832862  0.66247243  1
  O2-  O184  1  0.87563410  0.00132066  0.16805026  1
  O2-  O185  1  0.87603876  0.00162388  0.66333114  1
  O2-  O186  1  0.87479892  0.25003067  0.17486045  1
  O2-  O187  1  0.87606967  0.24711554  0.66671096  1
  O2-  O188  1  0.87514915  0.49907239  0.16682729  1
  O2-  O189  1  0.87577785  0.49921322  0.66461164  1
  O2-  O190  1  0.87547836  0.74987952  0.16298946  1
  O2-  O191  1  0.87616598  0.75169556  0.66080381  1
  O2-  O192  1  0.00051918  0.12437731  0.16853637  1
  O2-  O193  1  -0.00061871  0.12378137  0.66769303  1
  O2-  O194  1  -0.00211469  0.37490127  0.17006673  1
  O2-  O195  1  0.00055527  0.37450357  0.66574031  1
  O2-  O196  1  0.00157883  0.62611510  0.16581769  1
  O2-  O197  1  0.00336662  0.62547440  0.66412391  1
  O2-  O198  1  0.00128523  0.87505432  0.16183593  1
  O2-  O199  1  0.00023713  0.87577237  0.66534781  1
  O2-  O200  1  0.24635393  0.12488740  0.16234316  1
  O2-  O201  1  0.25121243  0.12500105  0.66844620  1
  O2-  O202  1  0.25174250  0.37446514  0.15956968  1
  O2-  O203  1  0.25103740  0.37401185  0.66820948  1
  O2-  O204  1  0.24769677  0.62481875  0.16043213  1
  O2-  O205  1  0.24867025  0.62544414  0.66547898  1
  O2-  O206  1  0.24849408  0.87604339  0.15828718  1
  O2-  O207  1  0.25058779  0.87553872  0.66725396  1
  O2-  O208  1  0.50244354  0.12545534  0.16454491  1
  O2-  O209  1  0.49714825  0.12547146  0.66213551  1
  O2-  O210  1  0.50137556  0.37574644  0.15704367  1
  O2-  O211  1  0.49859863  0.37470910  0.66731308  1
  O2-  O212  1  0.49981674  0.62440778  0.16060421  1
  O2-  O213  1  0.49905315  0.62396105  0.66353664  1
  O2-  O214  1  0.50062975  0.87531220  0.16501232  1
  O2-  O215  1  0.49846112  0.87556384  0.66420455  1
  O2-  O216  1  0.75058507  0.12540811  0.17104257  1
  O2-  O217  1  0.75268441  0.12505979  0.66232810  1
  O2-  O218  1  0.74886100  0.37506745  0.16902100  1
  O2-  O219  1  0.74994020  0.37451549  0.66520372  1
  O2-  O220  1  0.75126199  0.62485996  0.16612503  1
  O2-  O221  1  0.74899460  0.62460250  0.66174119  1
  O2-  O222  1  0.74995247  0.87535290  0.16881778  1
  O2-  O223  1  0.75112268  0.87521331  0.66292151  1
  O2-  O224  1  0.12591551  -0.00172776  0.34550922  1
  O2-  O225  1  0.12387609  -0.00130335  0.85234114  1
  O2-  O226  1  0.12650858  0.24935184  0.35073880  1
  O2-  O227  1  0.12433212  0.24715995  0.85386316  1
  O2-  O228  1  0.12620211  0.50350156  0.34642142  1
  O2-  O229  1  0.12477725  0.50362503  0.84983140  1
  O2-  O230  1  0.12569759  0.74865899  0.34210263  1
  O2-  O231  1  0.12534351  0.75035641  0.84812634  1
  O2-  O232  1  0.37316794  0.00117893  0.35042895  1
  O2-  O233  1  0.37528535  -0.00214666  0.84520479  1
  O2-  O234  1  0.37387678  0.24865040  0.34941440  1
  O2-  O235  1  0.37562859  0.25295058  0.85097502  1
  O2-  O236  1  0.37412677  0.50082843  0.34142048  1
  O2-  O237  1  0.37537591  0.49919227  0.84905143  1
  O2-  O238  1  0.37385485  0.74931093  0.34257562  1
  O2-  O239  1  0.37448934  0.74998387  0.84348143  1
  O2-  O240  1  0.62406762  -0.00086261  0.35178084  1
  O2-  O241  1  0.62567493  -0.00060160  0.84682354  1
  O2-  O242  1  0.62356896  0.25034736  0.35065964  1
  O2-  O243  1  0.62570315  0.25182638  0.85014991  1
  O2-  O244  1  0.62349346  0.50245050  0.34343767  1
  O2-  O245  1  0.62484056  0.49922861  0.84883261  1
  O2-  O246  1  0.62395395  0.74787941  0.34560250  1
  O2-  O247  1  0.62548308  0.74943573  0.84480345  1
  O2-  O248  1  0.87629567  0.00123931  0.34987040  1
  O2-  O249  1  0.87527643  -0.00151118  0.84684337  1
  O2-  O250  1  0.87583806  0.24760777  0.35486915  1
  O2-  O251  1  0.87466967  0.25051067  0.85106163  1
  O2-  O252  1  0.87584798  0.49938560  0.34987610  1
  O2-  O253  1  0.87558477  0.50108393  0.84714944  1
  O2-  O254  1  0.87581728  0.75190616  0.34651669  1
  O2-  O255  1  0.87518058  0.74965578  0.84141016  1
  O2-  O256  1  -0.00053545  0.12428200  0.35170657  1
  O2-  O257  1  0.00057170  0.12403964  0.85193830  1
  O2-  O258  1  0.00094553  0.37549741  0.35190949  1
  O2-  O259  1  -0.00254440  0.37569022  0.84919548  1
  O2-  O260  1  0.00340483  0.62575113  0.35074421  1
  O2-  O261  1  0.00060764  0.62609194  0.84700238  1
  O2-  O262  1  0.00056718  0.87500879  0.34431535  1
  O2-  O263  1  0.00092640  0.87418995  0.84884163  1
  O2-  O264  1  0.25147610  0.12520333  0.34707934  1
  O2-  O265  1  0.24674189  0.12396763  0.85207585  1
  O2-  O266  1  0.25246306  0.37511065  0.34247217  1
  O2-  O267  1  0.25347147  0.37550643  0.85182866  1
  O2-  O268  1  0.24911991  0.62546820  0.34335839  1
  O2-  O269  1  0.24920215  0.62523230  0.84927452  1
  O2-  O270  1  0.25055589  0.87461410  0.33961644  1
  O2-  O271  1  0.24858613  0.87504206  0.85070138  1
  O2-  O272  1  0.49585917  0.12485811  0.34908010  1
  O2-  O273  1  0.50275137  0.12533159  0.84434923  1
  O2-  O274  1  0.49701120  0.37497140  0.33975746  1
  O2-  O275  1  0.50130110  0.37536074  0.85129393  1
  O2-  O276  1  0.49846369  0.62495766  0.34276102  1
  O2-  O277  1  0.50052100  0.62492099  0.84527016  1
  O2-  O278  1  0.49726168  0.87490119  0.34573626  1
  O2-  O279  1  0.50092444  0.87436951  0.84660962  1
  O2-  O280  1  0.75290232  0.12482686  0.35373721  1
  O2-  O281  1  0.74972521  0.12514658  0.84539852  1
  O2-  O282  1  0.74910419  0.37534520  0.35124993  1
  O2-  O283  1  0.74808699  0.37512869  0.84912567  1
  O2-  O284  1  0.74842532  0.62484405  0.34992577  1
  O2-  O285  1  0.75020009  0.62450100  0.84269737  1
  O2-  O286  1  0.75110266  0.87521594  0.35000087  1
  O2-  O287  1  0.74983026  0.87497790  0.84525992  1
