# generated using pymatgen
data_BaYFeCuO5
_symmetry_space_group_name_H-M   'P 1'
_cell_length_a   15.67591990
_cell_length_b   15.67287886
_cell_length_c   15.48687241
_cell_angle_alpha   89.99659698
_cell_angle_beta   89.99895317
_cell_angle_gamma   90.00055398
_symmetry_Int_Tables_number   1
_chemical_formula_structural   BaYFeCuO5
_chemical_formula_sum   'Ba32 Y32 Fe32 Cu32 O160'
_cell_volume   3804.92001886
_cell_formula_units_Z   32
loop_
 _symmetry_equiv_pos_site_id
 _symmetry_equiv_pos_as_xyz
  1  'x, y, z'
loop_
 _atom_type_symbol
 _atom_type_oxidation_number
  Ba2+  2.0
  Y3+  3.0
  Fe3+  3.0
  Cu2+  2.0
  O2-  -2.0
loop_
 _atom_site_type_symbol
 _atom_site_label
 _atom_site_symmetry_multiplicity
 _atom_site_fract_x
 _atom_site_fract_y
 _atom_site_fract_z
 _atom_site_occupancy
  Ba2+  Ba0  1  0.00509865  0.00523592  0.01277958  1
  Ba2+  Ba1  1  -0.00286499  -0.00387384  0.51257515  1
  Ba2+  Ba2  1  0.00410849  0.25422198  0.02198264  1
  Ba2+  Ba3  1  -0.00363414  0.25287721  0.51066573  1
  Ba2+  Ba4  1  0.00355127  0.49707647  0.02291198  1
  Ba2+  Ba5  1  0.00454524  0.49636669  0.51101655  1
  Ba2+  Ba6  1  0.00452570  0.74372279  0.01295552  1
  Ba2+  Ba7  1  0.00503459  0.75437973  0.51292788  1
  Ba2+  Ba8  1  0.24731936  0.00771681  0.00714169  1
  Ba2+  Ba9  1  0.25742183  -0.00278301  0.51824422  1
  Ba2+  Ba10  1  0.24698257  0.25275578  0.00699684  1
  Ba2+  Ba11  1  0.25943955  0.25384686  0.51099865  1
  Ba2+  Ba12  1  0.24794442  0.49838595  0.00620796  1
  Ba2+  Ba13  1  0.25743686  0.50012000  0.50647265  1
  Ba2+  Ba14  1  0.24800813  0.74150458  0.00735815  1
  Ba2+  Ba15  1  0.25562764  0.74774993  0.51296468  1
  Ba2+  Ba16  1  0.49305697  0.00516803  0.00711717  1
  Ba2+  Ba17  1  0.49769049  0.00325001  0.51325732  1
  Ba2+  Ba18  1  0.48861119  0.25021816  0.00261918  1
  Ba2+  Ba19  1  0.49627365  0.25107188  0.51769369  1
  Ba2+  Ba20  1  0.49179285  0.50469858  0.00696829  1
  Ba2+  Ba21  1  0.49665766  0.50157689  0.51214703  1
  Ba2+  Ba22  1  0.49667853  0.73955547  0.01183594  1
  Ba2+  Ba23  1  0.49872254  0.74475981  0.50687250  1
  Ba2+  Ba24  1  0.75540509  0.00430259  0.01057573  1
  Ba2+  Ba25  1  0.74731252  0.00025093  0.50521973  1
  Ba2+  Ba26  1  0.76056037  0.25293077  0.01685850  1
  Ba2+  Ba27  1  0.74708918  0.24977135  0.51786968  1
  Ba2+  Ba28  1  0.75578430  0.50305353  0.02296064  1
  Ba2+  Ba29  1  0.74172976  0.49784550  0.51513299  1
  Ba2+  Ba30  1  0.75113703  0.73991309  0.01774698  1
  Ba2+  Ba31  1  0.74074332  0.75151602  0.50573135  1
  Y3+  Y32  1  0.00020657  0.00260895  0.25816475  1
  Y3+  Y33  1  0.00201318  -0.00345955  0.75615052  1
  Y3+  Y34  1  0.00110132  0.24991692  0.25697370  1
  Y3+  Y35  1  0.00233448  0.25423292  0.75434698  1
  Y3+  Y36  1  0.00290469  0.50017768  0.25804818  1
  Y3+  Y37  1  0.00231988  0.49654926  0.75413472  1
  Y3+  Y38  1  0.00225307  0.74755089  0.25880175  1
  Y3+  Y39  1  0.00148202  0.75258442  0.75588237  1
  Y3+  Y40  1  0.25223460  0.00360120  0.25671060  1
  Y3+  Y41  1  0.25102585  -0.00035358  0.75849684  1
  Y3+  Y42  1  0.25147023  0.24976125  0.25780906  1
  Y3+  Y43  1  0.25235769  0.25275706  0.75760133  1
  Y3+  Y44  1  0.25099927  0.50137131  0.25910194  1
  Y3+  Y45  1  0.25244602  0.49767914  0.75694915  1
  Y3+  Y46  1  0.25154445  0.74508397  0.25877199  1
  Y3+  Y47  1  0.25125146  0.74976513  0.75774417  1
  Y3+  Y48  1  0.49752916  0.00224004  0.25646256  1
  Y3+  Y49  1  0.49651339  0.00267304  0.75915382  1
  Y3+  Y50  1  0.49463225  0.24960306  0.25911027  1
  Y3+  Y51  1  0.49610540  0.25045426  0.75688590  1
  Y3+  Y52  1  0.49745723  0.50283204  0.26070130  1
  Y3+  Y53  1  0.49679523  0.50043713  0.75499543  1
  Y3+  Y54  1  0.49979489  0.74517368  0.25886190  1
  Y3+  Y55  1  0.49761898  0.74606881  0.75665374  1
  Y3+  Y56  1  0.75054862  0.00109251  0.25671020  1
  Y3+  Y57  1  0.74997079  -0.00052304  0.75736343  1
  Y3+  Y58  1  0.75260404  0.24943774  0.25678256  1
  Y3+  Y59  1  0.74873395  0.25209502  0.75555455  1
  Y3+  Y60  1  0.74879648  0.50204225  0.25911284  1
  Y3+  Y61  1  0.74786140  0.49910796  0.75214398  1
  Y3+  Y62  1  0.74682524  0.74743724  0.25933436  1
  Y3+  Y63  1  0.74927331  0.74936635  0.75438791  1
  Fe3+  Fe64  1  0.87466908  0.87465179  0.37574405  1
  Fe3+  Fe65  1  0.12711373  0.87514895  0.37707586  1
  Fe3+  Fe66  1  0.12599132  0.12468034  0.38071920  1
  Fe3+  Fe67  1  0.37395675  0.87404515  0.88045131  1
  Fe3+  Fe68  1  0.87552121  0.87383462  0.88045986  1
  Fe3+  Fe69  1  0.87576701  0.37657668  0.87516615  1
  Fe3+  Fe70  1  0.37605964  0.87523114  0.37505897  1
  Fe3+  Fe71  1  0.62592062  0.12641289  0.88001355  1
  Fe3+  Fe72  1  0.62499975  0.87405148  0.88220339  1
  Fe3+  Fe73  1  0.87571385  0.62325413  0.87360308  1
  Fe3+  Fe74  1  0.12376097  0.12666458  0.87344814  1
  Fe3+  Fe75  1  0.62424588  0.12600575  0.37499592  1
  Fe3+  Fe76  1  0.12640681  0.37479526  0.37796316  1
  Fe3+  Fe77  1  0.87411629  0.37483520  0.37673411  1
  Fe3+  Fe78  1  0.62511223  0.37609060  0.88027821  1
  Fe3+  Fe79  1  0.87693390  0.12668186  0.87563335  1
  Fe3+  Fe80  1  0.62589894  0.62358340  0.87619386  1
  Fe3+  Fe81  1  0.12390076  0.62346461  0.87424188  1
  Fe3+  Fe82  1  0.62359764  0.37395682  0.37563955  1
  Fe3+  Fe83  1  0.87545759  0.62481867  0.37977939  1
  Fe3+  Fe84  1  0.37411332  0.87413098  0.13431993  1
  Fe3+  Fe85  1  0.62463693  0.12687009  0.13321877  1
  Fe3+  Fe86  1  0.62281855  0.87560511  0.64057101  1
  Fe3+  Fe87  1  0.87488653  0.62542284  0.63273373  1
  Fe3+  Fe88  1  0.12641459  0.62440079  0.63639111  1
  Fe3+  Fe89  1  0.87593389  0.87401403  0.13524250  1
  Fe3+  Fe90  1  0.12634308  0.87482294  0.13679734  1
  Fe3+  Fe91  1  0.87481208  0.12425616  0.63727414  1
  Fe3+  Fe92  1  0.37428278  0.37590731  0.13919175  1
  Fe3+  Fe93  1  0.12623345  0.12542910  0.63416218  1
  Fe3+  Fe94  1  0.62422772  0.87478174  0.13371397  1
  Fe3+  Fe95  1  0.62376227  0.37568634  0.13377560  1
  Cu2+  Cu96  1  0.37479457  0.62488269  0.37251163  1
  Cu2+  Cu97  1  0.37416958  0.62466385  0.87179943  1
  Cu2+  Cu98  1  0.37552640  0.37508157  0.37179218  1
  Cu2+  Cu99  1  0.87527611  0.12521794  0.36500651  1
  Cu2+  Cu100  1  0.37337383  0.12546092  0.87234772  1
  Cu2+  Cu101  1  0.12438000  0.37539428  0.87200859  1
  Cu2+  Cu102  1  0.12525851  0.62490559  0.36917538  1
  Cu2+  Cu103  1  0.12481485  0.87452992  0.86678898  1
  Cu2+  Cu104  1  0.37517497  0.37566158  0.86442010  1
  Cu2+  Cu105  1  0.37473507  0.12500988  0.37407992  1
  Cu2+  Cu106  1  0.62371507  0.87595326  0.35841176  1
  Cu2+  Cu107  1  0.62458953  0.62390848  0.37406196  1
  Cu2+  Cu108  1  0.87528023  0.37605991  0.15533448  1
  Cu2+  Cu109  1  0.87370120  0.87471217  0.64990382  1
  Cu2+  Cu110  1  0.87560545  0.12444667  0.15158034  1
  Cu2+  Cu111  1  0.37440594  0.12522614  0.64398675  1
  Cu2+  Cu112  1  0.87605560  0.62572934  0.15657654  1
  Cu2+  Cu113  1  0.62326604  0.37448626  0.65201948  1
  Cu2+  Cu114  1  0.87456164  0.37531853  0.64619280  1
  Cu2+  Cu115  1  0.62408357  0.62382388  0.15190300  1
  Cu2+  Cu116  1  0.37453059  0.62480087  0.64379762  1
  Cu2+  Cu117  1  0.37496880  0.37573304  0.64397031  1
  Cu2+  Cu118  1  0.62382963  0.62533116  0.64180231  1
  Cu2+  Cu119  1  0.12656047  0.87503764  0.65080402  1
  Cu2+  Cu120  1  0.37403278  0.62422660  0.14309623  1
  Cu2+  Cu121  1  0.12591458  0.62490754  0.15447286  1
  Cu2+  Cu122  1  0.37439030  0.12595024  0.14024357  1
  Cu2+  Cu123  1  0.62423539  0.12476163  0.65546872  1
  Cu2+  Cu124  1  0.12551366  0.12519210  0.15451948  1
  Cu2+  Cu125  1  0.37607987  0.87442124  0.65609436  1
  Cu2+  Cu126  1  0.12653978  0.37474357  0.64521664  1
  Cu2+  Cu127  1  0.12688773  0.37531007  0.14460741  1
  O2-  O128  1  0.12178571  0.12716985  -0.00572759  1
  O2-  O129  1  0.12600862  0.12356997  0.50685170  1
  O2-  O130  1  0.12428229  0.37525627  0.00756565  1
  O2-  O131  1  0.12437722  0.37345113  0.49846072  1
  O2-  O132  1  0.12177181  0.62282692  -0.00475068  1
  O2-  O133  1  0.12584767  0.62653794  0.51563982  1
  O2-  O134  1  0.12349869  0.87462791  0.01662569  1
  O2-  O135  1  0.12622602  0.87662703  0.49707118  1
  O2-  O136  1  0.37341393  0.12521936  0.00680817  1
  O2-  O137  1  0.37561571  0.12389327  0.50822702  1
  O2-  O138  1  0.37357510  0.37585804  0.01809352  1
  O2-  O139  1  0.37705159  0.37524179  0.50836383  1
  O2-  O140  1  0.37348323  0.62483599  0.00751986  1
  O2-  O141  1  0.37523007  0.62592608  0.50819427  1
  O2-  O142  1  0.37235391  0.87390590  0.00749265  1
  O2-  O143  1  0.37776177  0.87576440  0.49544784  1
  O2-  O144  1  0.62685312  0.12696010  0.00633899  1
  O2-  O145  1  0.62517497  0.12520712  0.49514503  1
  O2-  O146  1  0.62624849  0.37688443  0.00630213  1
  O2-  O147  1  0.62500634  0.37165798  0.49573668  1
  O2-  O148  1  0.62821002  0.62284540  -0.00342123  1
  O2-  O149  1  0.62529365  0.62528287  0.50695171  1
  O2-  O150  1  0.62727998  0.87298303  0.00756371  1
  O2-  O151  1  0.62308465  0.87774213  0.52012444  1
  O2-  O152  1  0.87793991  0.12694369  -0.00407850  1
  O2-  O153  1  0.87256625  0.12280592  0.51679114  1
  O2-  O154  1  0.87624546  0.37755909  -0.00467933  1
  O2-  O155  1  0.87265138  0.37387302  0.49687094  1
  O2-  O156  1  0.87648324  0.62283441  -0.00639533  1
  O2-  O157  1  0.87436890  0.62707895  0.50577047  1
  O2-  O158  1  0.87612654  0.87341225  0.00710423  1
  O2-  O159  1  0.87362450  0.87523972  0.49605870  1
  O2-  O160  1  0.12432484  -0.00036107  0.16520037  1
  O2-  O161  1  0.12515800  0.00069112  0.66409718  1
  O2-  O162  1  0.12474717  0.24847468  0.16663495  1
  O2-  O163  1  0.12445247  0.24870958  0.66100234  1
  O2-  O164  1  0.12447283  0.50171386  0.16717176  1
  O2-  O165  1  0.12483258  0.50005886  0.66321755  1
  O2-  O166  1  0.12511446  0.75031758  0.16608390  1
  O2-  O167  1  0.12457881  0.74999639  0.66625922  1
  O2-  O168  1  0.37564521  -0.00281670  0.16207674  1
  O2-  O169  1  0.37543680  -0.00107757  0.66818310  1
  O2-  O170  1  0.37485777  0.25198137  0.16759975  1
  O2-  O171  1  0.37528469  0.25030579  0.66587827  1
  O2-  O172  1  0.37562667  0.49870304  0.16860268  1
  O2-  O173  1  0.37481869  0.50003648  0.66535181  1
  O2-  O174  1  0.37540199  0.75241399  0.16370828  1
  O2-  O175  1  0.37530100  0.75075668  0.66708746  1
  O2-  O176  1  0.62590083  0.00004535  0.15786800  1
  O2-  O177  1  0.62436262  -0.00026664  0.67304222  1
  O2-  O178  1  0.62804977  0.25076653  0.15790400  1
  O2-  O179  1  0.62454113  0.24951395  0.66669940  1
  O2-  O180  1  0.62584546  0.49810963  0.16347089  1
  O2-  O181  1  0.62504449  0.49861886  0.66255197  1
  O2-  O182  1  0.62542006  0.75129540  0.16353729  1
  O2-  O183  1  0.62463831  0.75164514  0.66851308  1
  O2-  O184  1  0.87533689  -0.00264426  0.16122087  1
  O2-  O185  1  0.87476222  0.00050843  0.66962791  1
  O2-  O186  1  0.87494337  0.25002684  0.16287868  1
  O2-  O187  1  0.87450741  0.24939001  0.66390465  1
  O2-  O188  1  0.87552633  0.50145425  0.16691335  1
  O2-  O189  1  0.87437111  0.50138781  0.65762982  1
  O2-  O190  1  0.87460468  0.75163785  0.16343698  1
  O2-  O191  1  0.87500729  0.74848559  0.66468637  1
  O2-  O192  1  0.00001300  0.12449088  0.16676687  1
  O2-  O193  1  0.00152839  0.12394773  0.65901362  1
  O2-  O194  1  -0.00071974  0.37509783  0.16663123  1
  O2-  O195  1  0.00029503  0.37497648  0.66007323  1
  O2-  O196  1  0.00068138  0.62611655  0.16662574  1
  O2-  O197  1  -0.00099763  0.62537987  0.65957202  1
  O2-  O198  1  -0.00062609  0.87439832  0.16497632  1
  O2-  O199  1  -0.00055644  0.87519543  0.66238520  1
  O2-  O200  1  0.24889636  0.12453789  0.16633598  1
  O2-  O201  1  0.24714025  0.12422846  0.66389871  1
  O2-  O202  1  0.25157019  0.37522231  0.16876530  1
  O2-  O203  1  0.24955245  0.37459223  0.66668376  1
  O2-  O204  1  0.24902983  0.62510282  0.16642329  1
  O2-  O205  1  0.24845326  0.62592552  0.66735573  1
  O2-  O206  1  0.25092168  0.87547171  0.16425718  1
  O2-  O207  1  0.25192128  0.87504389  0.66587787  1
  O2-  O208  1  0.50368803  0.12558262  0.16204726  1
  O2-  O209  1  0.50042721  0.12462510  0.66924768  1
  O2-  O210  1  0.50127611  0.37418138  0.16369521  1
  O2-  O211  1  0.50073499  0.37453437  0.66952528  1
  O2-  O212  1  0.50074039  0.62485403  0.16486176  1
  O2-  O213  1  0.49940798  0.62482955  0.66732166  1
  O2-  O214  1  0.50039878  0.87536649  0.15688701  1
  O2-  O215  1  0.50003168  0.87579258  0.67420134  1
  O2-  O216  1  0.74865602  0.12393024  0.16121040  1
  O2-  O217  1  0.75021624  0.12460544  0.66763529  1
  O2-  O218  1  0.74907541  0.37598621  0.16099668  1
  O2-  O219  1  0.74863421  0.37421420  0.66399129  1
  O2-  O220  1  0.75004325  0.62551141  0.16461545  1
  O2-  O221  1  0.75244443  0.62558159  0.66137046  1
  O2-  O222  1  0.74988214  0.87502177  0.16028514  1
  O2-  O223  1  0.74840712  0.87556020  0.66934693  1
  O2-  O224  1  0.12487050  0.00090855  0.34679289  1
  O2-  O225  1  0.12361752  0.00021593  0.84794836  1
  O2-  O226  1  0.12413269  0.24872489  0.34959785  1
  O2-  O227  1  0.12470161  0.24945987  0.84371570  1
  O2-  O228  1  0.12453668  0.49947604  0.35053961  1
  O2-  O229  1  0.12450519  0.50101602  0.84435354  1
  O2-  O230  1  0.12476716  0.75062894  0.34821304  1
  O2-  O231  1  0.12379055  0.74931246  0.84864709  1
  O2-  O232  1  0.37532705  -0.00137611  0.34400762  1
  O2-  O233  1  0.37496134  -0.00293254  0.85196509  1
  O2-  O234  1  0.37472060  0.25009113  0.34978361  1
  O2-  O235  1  0.37476793  0.25179383  0.84950372  1
  O2-  O236  1  0.37497059  0.50010126  0.35069211  1
  O2-  O237  1  0.37555306  0.49860960  0.84859569  1
  O2-  O238  1  0.37557020  0.75131098  0.34628455  1
  O2-  O239  1  0.37537881  0.75266709  0.85043284  1
  O2-  O240  1  0.62581490  0.00138509  0.34178753  1
  O2-  O241  1  0.62637524  -0.00010147  0.85676622  1
  O2-  O242  1  0.62550583  0.24979406  0.33966981  1
  O2-  O243  1  0.62616179  0.25082885  0.85196465  1
  O2-  O244  1  0.62585026  0.49742994  0.34647415  1
  O2-  O245  1  0.62499250  0.49855764  0.84539427  1
  O2-  O246  1  0.62500928  0.75147165  0.34887118  1
  O2-  O247  1  0.62593488  0.75095438  0.84978047  1
  O2-  O248  1  0.87452017  -0.00102187  0.34498237  1
  O2-  O249  1  0.87470450  -0.00135624  0.85248321  1
  O2-  O250  1  0.87566391  0.25074921  0.34671913  1
  O2-  O251  1  0.87378126  0.25081055  0.84431345  1
  O2-  O252  1  0.87490449  0.50091637  0.35016234  1
  O2-  O253  1  0.87418517  0.50002680  0.83876808  1
  O2-  O254  1  0.87488540  0.74912411  0.34678726  1
  O2-  O255  1  0.87424952  0.75084362  0.84812573  1
  O2-  O256  1  0.00208952  0.12392131  0.35171576  1
  O2-  O257  1  -0.00117327  0.12472297  0.83883705  1
  O2-  O258  1  0.00011321  0.37516350  0.34840776  1
  O2-  O259  1  -0.00224882  0.37514255  0.84210110  1
  O2-  O260  1  -0.00180987  0.62544041  0.35097818  1
  O2-  O261  1  -0.00084884  0.62561389  0.83949299  1
  O2-  O262  1  0.00044428  0.87509908  0.34660946  1
  O2-  O263  1  -0.00271819  0.87447344  0.84759356  1
  O2-  O264  1  0.24717798  0.12468449  0.34988239  1
  O2-  O265  1  0.24764850  0.12427752  0.84639730  1
  O2-  O266  1  0.24884791  0.37469837  0.34967101  1
  O2-  O267  1  0.25230554  0.37523991  0.85051916  1
  O2-  O268  1  0.24941307  0.62527215  0.34995286  1
  O2-  O269  1  0.24826414  0.62545215  0.84886979  1
  O2-  O270  1  0.25039573  0.87517582  0.34462189  1
  O2-  O271  1  0.25129395  0.87504032  0.85093722  1
  O2-  O272  1  0.50111548  0.12451870  0.34426487  1
  O2-  O273  1  0.50324941  0.12529722  0.85371577  1
  O2-  O274  1  0.50087447  0.37439226  0.34501707  1
  O2-  O275  1  0.50111687  0.37432463  0.85438250  1
  O2-  O276  1  0.49962747  0.62512864  0.34884898  1
  O2-  O277  1  0.50188823  0.62508636  0.85014249  1
  O2-  O278  1  0.49978975  0.87577341  0.34079908  1
  O2-  O279  1  0.50074546  0.87576534  0.85795246  1
  O2-  O280  1  0.74958027  0.12468301  0.34444514  1
  O2-  O281  1  0.74973974  0.12450352  0.84942844  1
  O2-  O282  1  0.75037481  0.37443118  0.34283153  1
  O2-  O283  1  0.74861378  0.37559731  0.84684324  1
  O2-  O284  1  0.75303810  0.62578723  0.34890162  1
  O2-  O285  1  0.75000262  0.62509617  0.84182971  1
  O2-  O286  1  0.74995531  0.87511017  0.34500436  1
  O2-  O287  1  0.75020240  0.87530922  0.85239364  1
