# generated using pymatgen
data_BaYFeCuO5
_symmetry_space_group_name_H-M   'P 1'
_cell_length_a   15.68055823
_cell_length_b   15.68043916
_cell_length_c   15.51201381
_cell_angle_alpha   89.99685780
_cell_angle_beta   89.99183132
_cell_angle_gamma   89.99239393
_symmetry_Int_Tables_number   1
_chemical_formula_structural   BaYFeCuO5
_chemical_formula_sum   'Ba32 Y32 Fe32 Cu32 O160'
_cell_volume   3814.06346306
_cell_formula_units_Z   32
loop_
 _symmetry_equiv_pos_site_id
 _symmetry_equiv_pos_as_xyz
  1  'x, y, z'
loop_
 _atom_type_symbol
 _atom_type_oxidation_number
  Ba2+  2.0
  Y3+  3.0
  Fe3+  3.0
  Cu2+  2.0
  O2-  -2.0
loop_
 _atom_site_type_symbol
 _atom_site_label
 _atom_site_symmetry_multiplicity
 _atom_site_fract_x
 _atom_site_fract_y
 _atom_site_fract_z
 _atom_site_occupancy
  Ba2+  Ba0  1  -0.01084351  0.00072834  0.00667725  1
  Ba2+  Ba1  1  0.00033595  0.00042923  0.51777556  1
  Ba2+  Ba2  1  -0.00843216  0.25537657  0.01580175  1
  Ba2+  Ba3  1  0.00096817  0.25018053  0.50502943  1
  Ba2+  Ba4  1  -0.01075162  0.49656674  0.01137849  1
  Ba2+  Ba5  1  -0.00435422  0.49654176  0.49921621  1
  Ba2+  Ba6  1  -0.01249375  0.74762879  0.00266719  1
  Ba2+  Ba7  1  -0.00413269  0.75430311  0.51379370  1
  Ba2+  Ba8  1  0.25981869  -0.00078044  0.00604598  1
  Ba2+  Ba9  1  0.25061459  0.00022582  0.51831839  1
  Ba2+  Ba10  1  0.25036438  0.24993466  0.00652876  1
  Ba2+  Ba11  1  0.24994152  0.25088809  0.51911636  1
  Ba2+  Ba12  1  0.25318681  0.50302546  0.01039076  1
  Ba2+  Ba13  1  0.25458818  0.49507039  0.52444920  1
  Ba2+  Ba14  1  0.26193260  0.74837742  0.01049564  1
  Ba2+  Ba15  1  0.25548728  0.75386151  0.52330172  1
  Ba2+  Ba16  1  0.50582772  -0.00397913  0.01206555  1
  Ba2+  Ba17  1  0.49749194  -0.00671954  0.51691795  1
  Ba2+  Ba18  1  0.50923059  0.24847860  0.00655157  1
  Ba2+  Ba19  1  0.49509914  0.25490228  0.52271400  1
  Ba2+  Ba20  1  0.50657501  0.50431665  0.01165448  1
  Ba2+  Ba21  1  0.50006344  0.50050403  0.51888532  1
  Ba2+  Ba22  1  0.50323906  0.75067644  0.01756767  1
  Ba2+  Ba23  1  0.50292923  0.75104440  0.51139196  1
  Ba2+  Ba24  1  0.74578941  -0.00235272  0.01322198  1
  Ba2+  Ba25  1  0.75194071  -0.00614036  0.51681938  1
  Ba2+  Ba26  1  0.74972723  0.25391954  0.01714784  1
  Ba2+  Ba27  1  0.75397123  0.25434477  0.51171712  1
  Ba2+  Ba28  1  0.75116135  0.49812235  0.01185154  1
  Ba2+  Ba29  1  0.74961017  0.50215270  0.49349350  1
  Ba2+  Ba30  1  0.74781753  0.74951649  0.00671576  1
  Ba2+  Ba31  1  0.74647582  0.75068772  0.50070420  1
  Y3+  Y32  1  -0.00002714  0.00189863  0.25676051  1
  Y3+  Y33  1  -0.00273582  -0.00151252  0.75674614  1
  Y3+  Y34  1  -0.00150308  0.25180792  0.25558205  1
  Y3+  Y35  1  -0.00222785  0.25143533  0.75782773  1
  Y3+  Y36  1  -0.00332390  0.49927717  0.25435812  1
  Y3+  Y37  1  -0.00264599  0.49958838  0.76183762  1
  Y3+  Y38  1  -0.00181173  0.74726025  0.25738570  1
  Y3+  Y39  1  -0.00296137  0.75038810  0.75930685  1
  Y3+  Y40  1  0.25052033  0.00064089  0.25550537  1
  Y3+  Y41  1  0.25222967  -0.00014290  0.75800146  1
  Y3+  Y42  1  0.24800962  0.24999478  0.25480755  1
  Y3+  Y43  1  0.25172254  0.25002979  0.75885764  1
  Y3+  Y44  1  0.25001370  0.50090785  0.25217475  1
  Y3+  Y45  1  0.25192858  0.50096449  0.76066731  1
  Y3+  Y46  1  0.25271440  0.74870192  0.25298958  1
  Y3+  Y47  1  0.25225163  0.74906629  0.75938326  1
  Y3+  Y48  1  0.50282047  -0.00285718  0.25641778  1
  Y3+  Y49  1  0.50128922  -0.00141172  0.75674090  1
  Y3+  Y50  1  0.50279837  0.25013696  0.25375044  1
  Y3+  Y51  1  0.50067962  0.25080509  0.75902167  1
  Y3+  Y52  1  0.50243509  0.50248466  0.25368926  1
  Y3+  Y53  1  0.50074951  0.49982694  0.76080376  1
  Y3+  Y54  1  0.50269715  0.75033400  0.25662228  1
  Y3+  Y55  1  0.50134380  0.75050452  0.75779929  1
  Y3+  Y56  1  0.74634286  -0.00071081  0.25786988  1
  Y3+  Y57  1  0.74922009  -0.00390636  0.75655688  1
  Y3+  Y58  1  0.75027946  0.25110529  0.25507557  1
  Y3+  Y59  1  0.74971048  0.25314476  0.75905102  1
  Y3+  Y60  1  0.75057615  0.50084921  0.25369201  1
  Y3+  Y61  1  0.75019345  0.49847956  0.76354214  1
  Y3+  Y62  1  0.74705110  0.74839437  0.25789197  1
  Y3+  Y63  1  0.74967534  0.75237964  0.75912033  1
  Fe3+  Fe64  1  0.37642473  0.37486056  0.87942635  1
  Fe3+  Fe65  1  0.12598923  0.87496478  0.37568618  1
  Fe3+  Fe66  1  0.62591095  0.12414918  0.87486694  1
  Fe3+  Fe67  1  0.87484955  0.12481180  0.37664434  1
  Fe3+  Fe68  1  0.37751980  0.87473467  0.87559700  1
  Fe3+  Fe69  1  0.87299830  0.12538089  0.87615431  1
  Fe3+  Fe70  1  0.62376426  0.12512664  0.38091145  1
  Fe3+  Fe71  1  0.12643201  0.62539623  0.38008010  1
  Fe3+  Fe72  1  0.12417842  0.62534245  0.88035640  1
  Fe3+  Fe73  1  0.62533306  0.62573819  0.87743810  1
  Fe3+  Fe74  1  0.62359684  0.37477316  0.37596149  1
  Fe3+  Fe75  1  0.12405269  0.37481005  0.87931917  1
  Fe3+  Fe76  1  0.37478209  0.12592784  0.37697966  1
  Fe3+  Fe77  1  0.12413235  0.12455153  0.88019847  1
  Fe3+  Fe78  1  0.37438314  0.87468867  0.37418963  1
  Fe3+  Fe79  1  0.12464381  0.87482950  0.88028997  1
  Fe3+  Fe80  1  0.37512972  0.37536863  0.37335948  1
  Fe3+  Fe81  1  0.87528554  0.87543503  0.37603285  1
  Fe3+  Fe82  1  0.37461805  0.62396541  0.37630727  1
  Fe3+  Fe83  1  0.12662375  0.37554742  0.37452068  1
  Fe3+  Fe84  1  0.12451816  0.87451424  0.13197816  1
  Fe3+  Fe85  1  0.62576254  0.12569059  0.63457457  1
  Fe3+  Fe86  1  0.12389134  0.62418560  0.63619697  1
  Fe3+  Fe87  1  0.62660703  0.62401763  0.63903675  1
  Fe3+  Fe88  1  0.12340648  0.62536480  0.13326811  1
  Fe3+  Fe89  1  0.12414278  0.12591878  0.64081397  1
  Fe3+  Fe90  1  0.37683626  0.12482299  0.13505562  1
  Fe3+  Fe91  1  0.87483260  0.37677991  0.63876473  1
  Fe3+  Fe92  1  0.87357650  0.62424313  0.63865777  1
  Fe3+  Fe93  1  0.37604512  0.37473650  0.13296351  1
  Fe3+  Fe94  1  0.12410970  0.12466062  0.13297044  1
  Fe3+  Fe95  1  0.87410527  0.87471856  0.13912260  1
  Cu2+  Cu96  1  0.37686567  0.62542698  0.87406743  1
  Cu2+  Cu97  1  0.62411267  0.87535768  0.37420110  1
  Cu2+  Cu98  1  0.87355757  0.62464370  0.87390766  1
  Cu2+  Cu99  1  0.87403999  0.87583633  0.86352563  1
  Cu2+  Cu100  1  0.62550646  0.37458837  0.87383027  1
  Cu2+  Cu101  1  0.87538545  0.62546041  0.36324798  1
  Cu2+  Cu102  1  0.87430324  0.37389740  0.87297052  1
  Cu2+  Cu103  1  0.37621801  0.12472952  0.86622133  1
  Cu2+  Cu104  1  0.62506215  0.87505645  0.87197841  1
  Cu2+  Cu105  1  0.12555337  0.12508880  0.36122652  1
  Cu2+  Cu106  1  0.87452502  0.37481107  0.36023576  1
  Cu2+  Cu107  1  0.62375262  0.62429267  0.36240869  1
  Cu2+  Cu108  1  0.62599038  0.87419652  0.14265692  1
  Cu2+  Cu109  1  0.37657355  0.62497811  0.13974641  1
  Cu2+  Cu110  1  0.37551122  0.87546459  0.15008697  1
  Cu2+  Cu111  1  0.62523987  0.87350071  0.64194094  1
  Cu2+  Cu112  1  0.12395155  0.37609425  0.65515941  1
  Cu2+  Cu113  1  0.37519555  0.37549506  0.65881573  1
  Cu2+  Cu114  1  0.87469594  0.87376510  0.65289232  1
  Cu2+  Cu115  1  0.12490536  0.37525370  0.14446494  1
  Cu2+  Cu116  1  0.62604309  0.62559559  0.15075471  1
  Cu2+  Cu117  1  0.37535863  0.87452021  0.65559444  1
  Cu2+  Cu118  1  0.62506010  0.37555908  0.14078897  1
  Cu2+  Cu119  1  0.62593128  0.37619347  0.65259186  1
  Cu2+  Cu120  1  0.87393392  0.62611143  0.14269697  1
  Cu2+  Cu121  1  0.12503299  0.87419403  0.65595044  1
  Cu2+  Cu122  1  0.87428237  0.12560995  0.65103264  1
  Cu2+  Cu123  1  0.62546150  0.12453528  0.15133928  1
  Cu2+  Cu124  1  0.37579130  0.62506667  0.65401593  1
  Cu2+  Cu125  1  0.37563044  0.12490430  0.65326837  1
  Cu2+  Cu126  1  0.87399727  0.12410881  0.15178899  1
  Cu2+  Cu127  1  0.87384526  0.37517460  0.14499218  1
  O2-  O128  1  0.12378838  0.12430274  0.00641091  1
  O2-  O129  1  0.12564681  0.12576326  0.52034578  1
  O2-  O130  1  0.12433247  0.37404366  -0.00121533  1
  O2-  O131  1  0.12824411  0.37557095  0.49449216  1
  O2-  O132  1  0.12343288  0.62611119  0.00651102  1
  O2-  O133  1  0.12672037  0.62463234  0.50683755  1
  O2-  O134  1  0.12410523  0.87452784  0.00602875  1
  O2-  O135  1  0.12704732  0.87535544  0.49533551  1
  O2-  O136  1  0.37619975  0.12509329  0.01500781  1
  O2-  O137  1  0.37264630  0.12671078  0.49676230  1
  O2-  O138  1  0.37626769  0.37394665  0.00590002  1
  O2-  O139  1  0.37378601  0.37544643  0.49304990  1
  O2-  O140  1  0.37574965  0.62453224  0.00645773  1
  O2-  O141  1  0.37223538  0.62306945  0.49598562  1
  O2-  O142  1  0.37765194  0.87572147  -0.00378070  1
  O2-  O143  1  0.37187917  0.87506519  0.49423641  1
  O2-  O144  1  0.62690727  0.12366621  -0.00471437  1
  O2-  O145  1  0.62308827  0.12633735  0.50631456  1
  O2-  O146  1  0.62477752  0.37439805  0.00762411  1
  O2-  O147  1  0.62208673  0.37473848  0.49604013  1
  O2-  O148  1  0.62535141  0.62662938  -0.00171143  1
  O2-  O149  1  0.62574460  0.62349952  0.51861410  1
  O2-  O150  1  0.62531747  0.87488905  0.00785888  1
  O2-  O151  1  0.62401745  0.87481420  0.50741492  1
  O2-  O152  1  0.87202742  0.12489687  -0.00386891  1
  O2-  O153  1  0.87759666  0.12494568  0.49649676  1
  O2-  O154  1  0.87357495  0.37373260  0.00885839  1
  O2-  O155  1  0.87547311  0.37696508  0.51835048  1
  O2-  O156  1  0.87393977  0.62523028  0.00851060  1
  O2-  O157  1  0.87567690  0.62368419  0.51861809  1
  O2-  O158  1  0.87357001  0.87539107  0.01827237  1
  O2-  O159  1  0.87814985  0.87624247  0.49641733  1
  O2-  O160  1  0.12547635  -0.00014853  0.16020646  1
  O2-  O161  1  0.12522013  -0.00000508  0.66859541  1
  O2-  O162  1  0.12459250  0.24772080  0.16094160  1
  O2-  O163  1  0.12527593  0.25064181  0.66807809  1
  O2-  O164  1  0.12538539  0.50189551  0.16193182  1
  O2-  O165  1  0.12567458  0.50200022  0.66614711  1
  O2-  O166  1  0.12463407  0.75055850  0.16285262  1
  O2-  O167  1  0.12526818  0.74793825  0.66468147  1
  O2-  O168  1  0.37447594  0.00075346  0.16426297  1
  O2-  O169  1  0.37400241  -0.00067871  0.66384567  1
  O2-  O170  1  0.37491118  0.25026843  0.16260502  1
  O2-  O171  1  0.37426305  0.25099602  0.66675372  1
  O2-  O172  1  0.37440107  0.49738272  0.16035098  1
  O2-  O173  1  0.37399358  0.49974479  0.66791687  1
  O2-  O174  1  0.37490115  0.75149362  0.16310430  1
  O2-  O175  1  0.37389553  0.74991767  0.66456030  1
  O2-  O176  1  0.62509639  0.00088567  0.16563917  1
  O2-  O177  1  0.62510013  0.00240030  0.66207463  1
  O2-  O178  1  0.62508050  0.24836033  0.16424131  1
  O2-  O179  1  0.62485708  0.24962559  0.66312826  1
  O2-  O180  1  0.62535693  0.50240595  0.16323044  1
  O2-  O181  1  0.62424965  0.50015840  0.66997425  1
  O2-  O182  1  0.62516163  0.74829498  0.16648200  1
  O2-  O183  1  0.62463442  0.74768923  0.66715335  1
  O2-  O184  1  0.87548893  -0.00063747  0.16502950  1
  O2-  O185  1  0.87564402  -0.00068157  0.66330777  1
  O2-  O186  1  0.87503719  0.24791141  0.16453882  1
  O2-  O187  1  0.87540260  0.25151203  0.66536223  1
  O2-  O188  1  0.87480821  0.50064042  0.16523969  1
  O2-  O189  1  0.87590402  0.50053792  0.67249407  1
  O2-  O190  1  0.87622567  0.75199688  0.16823265  1
  O2-  O191  1  0.87633896  0.74874962  0.66754621  1
  O2-  O192  1  0.00159944  0.12419190  0.16156778  1
  O2-  O193  1  -0.00025138  0.12453931  0.66915510  1
  O2-  O194  1  0.00050904  0.37518960  0.16550992  1
  O2-  O195  1  -0.00087460  0.37574934  0.66819664  1
  O2-  O196  1  0.00276134  0.62517470  0.16607678  1
  O2-  O197  1  0.00077389  0.62535142  0.66738515  1
  O2-  O198  1  0.00178743  0.87577104  0.16362375  1
  O2-  O199  1  -0.00001827  0.87442125  0.66744565  1
  O2-  O200  1  0.24879808  0.12495448  0.16037086  1
  O2-  O201  1  0.24974248  0.12520417  0.67016566  1
  O2-  O202  1  0.25211459  0.37429346  0.15763022  1
  O2-  O203  1  0.24968948  0.37541546  0.66759251  1
  O2-  O204  1  0.24675107  0.62575399  0.15978934  1
  O2-  O205  1  0.24883137  0.62480609  0.66592645  1
  O2-  O206  1  0.24798013  0.87473000  0.15731995  1
  O2-  O207  1  0.25050384  0.87466966  0.66836029  1
  O2-  O208  1  0.50012410  0.12466133  0.16514289  1
  O2-  O209  1  0.50129239  0.12577254  0.66141740  1
  O2-  O210  1  0.49733677  0.37463814  0.16120834  1
  O2-  O211  1  0.49996674  0.37518173  0.66513345  1
  O2-  O212  1  0.50255504  0.62537970  0.16350638  1
  O2-  O213  1  0.50011801  0.62389736  0.66470813  1
  O2-  O214  1  0.49947292  0.87516166  0.16446518  1
  O2-  O215  1  0.49860723  0.87496602  0.66320947  1
  O2-  O216  1  0.74950725  0.12444424  0.16759732  1
  O2-  O217  1  0.74885072  0.12555675  0.65812614  1
  O2-  O218  1  0.74954150  0.37466165  0.16701424  1
  O2-  O219  1  0.75109173  0.37522155  0.66760124  1
  O2-  O220  1  0.74838058  0.62586429  0.16719925  1
  O2-  O221  1  0.75057752  0.62456731  0.66991697  1
  O2-  O222  1  0.75136996  0.87528461  0.16951576  1
  O2-  O223  1  0.75112693  0.87452109  0.66511078  1
  O2-  O224  1  0.12564627  -0.00078766  0.34319775  1
  O2-  O225  1  0.12511634  -0.00042970  0.85264656  1
  O2-  O226  1  0.12527665  0.25116439  0.34469761  1
  O2-  O227  1  0.12556648  0.24843149  0.85023256  1
  O2-  O228  1  0.12506083  0.50181711  0.34606547  1
  O2-  O229  1  0.12517187  0.50086976  0.85010906  1
  O2-  O230  1  0.12545680  0.74834594  0.34648482  1
  O2-  O231  1  0.12452562  0.75081035  0.85042563  1
  O2-  O232  1  0.37413762  0.00063980  0.34471287  1
  O2-  O233  1  0.37449222  -0.00079205  0.84685359  1
  O2-  O234  1  0.37423350  0.25037942  0.34189389  1
  O2-  O235  1  0.37441557  0.25135682  0.85112867  1
  O2-  O236  1  0.37434832  0.49990491  0.34064923  1
  O2-  O237  1  0.37406522  0.49713813  0.85174230  1
  O2-  O238  1  0.37372702  0.74915856  0.34438513  1
  O2-  O239  1  0.37421026  0.75179803  0.84677199  1
  O2-  O240  1  0.62403270  0.00339773  0.34891601  1
  O2-  O241  1  0.62507761  0.00086446  0.84513466  1
  O2-  O242  1  0.62469881  0.24893169  0.34625430  1
  O2-  O243  1  0.62478320  0.24827146  0.84649810  1
  O2-  O244  1  0.62466378  0.49919734  0.34614861  1
  O2-  O245  1  0.62478460  0.50108577  0.85113659  1
  O2-  O246  1  0.62442372  0.74816572  0.35040916  1
  O2-  O247  1  0.62554423  0.74929817  0.84788184  1
  O2-  O248  1  0.87583686  0.00026803  0.34426011  1
  O2-  O249  1  0.87557555  0.00068821  0.84687922  1
  O2-  O250  1  0.87541031  0.24922358  0.34710651  1
  O2-  O251  1  0.87544897  0.24807433  0.84613216  1
  O2-  O252  1  0.87600270  0.50050909  0.34931101  1
  O2-  O253  1  0.87565819  0.49914759  0.85240569  1
  O2-  O254  1  0.87639506  0.75041533  0.34919766  1
  O2-  O255  1  0.87550519  0.75195845  0.85052778  1
  O2-  O256  1  0.00009003  0.12534263  0.34551989  1
  O2-  O257  1  0.00089536  0.12394920  0.85060291  1
  O2-  O258  1  0.00051441  0.37536998  0.34861169  1
  O2-  O259  1  0.00147231  0.37451280  0.84892298  1
  O2-  O260  1  0.00288355  0.62483951  0.35052314  1
  O2-  O261  1  0.00222352  0.62574021  0.85086213  1
  O2-  O262  1  0.00078788  0.87465484  0.34343573  1
  O2-  O263  1  0.00154323  0.87529487  0.85233643  1
  O2-  O264  1  0.25065522  0.12539135  0.34207406  1
  O2-  O265  1  0.24803662  0.12453718  0.85396933  1
  O2-  O266  1  0.25028223  0.37567865  0.33817817  1
  O2-  O267  1  0.25063153  0.37458166  0.85122797  1
  O2-  O268  1  0.24880851  0.62451719  0.34156932  1
  O2-  O269  1  0.24659634  0.62537429  0.85100382  1
  O2-  O270  1  0.24995258  0.87468276  0.33839908  1
  O2-  O271  1  0.24867779  0.87511749  0.85153434  1
  O2-  O272  1  0.50051835  0.12595571  0.34693965  1
  O2-  O273  1  0.50109004  0.12504618  0.84501844  1
  O2-  O274  1  0.49958565  0.37460659  0.34113328  1
  O2-  O275  1  0.49767697  0.37404725  0.84952745  1
  O2-  O276  1  0.49846979  0.62455755  0.34614978  1
  O2-  O277  1  0.50250783  0.62496832  0.84619080  1
  O2-  O278  1  0.49762936  0.87493344  0.34674518  1
  O2-  O279  1  0.49937637  0.87566051  0.84502989  1
  O2-  O280  1  0.74835315  0.12522226  0.35112026  1
  O2-  O281  1  0.74999899  0.12424575  0.84026605  1
  O2-  O282  1  0.74929270  0.37494137  0.34989410  1
  O2-  O283  1  0.75018277  0.37405677  0.84962248  1
  O2-  O284  1  0.74966462  0.62507745  0.35195374  1
  O2-  O285  1  0.74841317  0.62538465  0.84881688  1
  O2-  O286  1  0.75157500  0.87510123  0.35070307  1
  O2-  O287  1  0.75092338  0.87576534  0.84859606  1
