# generated using pymatgen
data_BaYFeCuO5
_symmetry_space_group_name_H-M   'P 1'
_cell_length_a   15.67074556
_cell_length_b   15.67164929
_cell_length_c   15.49369794
_cell_angle_alpha   89.98808297
_cell_angle_beta   89.99936249
_cell_angle_gamma   90.00254393
_symmetry_Int_Tables_number   1
_chemical_formula_structural   BaYFeCuO5
_chemical_formula_sum   'Ba32 Y32 Fe32 Cu32 O160'
_cell_volume   3805.04185487
_cell_formula_units_Z   32
loop_
 _symmetry_equiv_pos_site_id
 _symmetry_equiv_pos_as_xyz
  1  'x, y, z'
loop_
 _atom_type_symbol
 _atom_type_oxidation_number
  Ba2+  2.0
  Y3+  3.0
  Fe3+  3.0
  Cu2+  2.0
  O2-  -2.0
loop_
 _atom_site_type_symbol
 _atom_site_label
 _atom_site_symmetry_multiplicity
 _atom_site_fract_x
 _atom_site_fract_y
 _atom_site_fract_z
 _atom_site_occupancy
  Ba2+  Ba0  1  -0.00977194  0.00024958  0.01812113  1
  Ba2+  Ba1  1  -0.00556292  -0.00023696  0.50534170  1
  Ba2+  Ba2  1  -0.00525153  0.25423172  0.01221459  1
  Ba2+  Ba3  1  -0.00130727  0.24629856  0.51205124  1
  Ba2+  Ba4  1  0.00200032  0.49606168  0.00198985  1
  Ba2+  Ba5  1  0.00215955  0.50042825  0.51810471  1
  Ba2+  Ba6  1  -0.00127366  0.74934582  0.00598038  1
  Ba2+  Ba7  1  -0.00231161  0.75318998  0.51185848  1
  Ba2+  Ba8  1  0.25882030  -0.00069874  0.00620833  1
  Ba2+  Ba9  1  0.25044806  0.00098709  0.51897628  1
  Ba2+  Ba10  1  0.24990020  0.25044740  0.00669975  1
  Ba2+  Ba11  1  0.25079884  0.25174015  0.52247064  1
  Ba2+  Ba12  1  0.24728319  0.50389627  0.01049552  1
  Ba2+  Ba13  1  0.25116597  0.49801782  0.52106189  1
  Ba2+  Ba14  1  0.25607074  0.74586516  0.01153867  1
  Ba2+  Ba15  1  0.25049508  0.74965655  0.51793743  1
  Ba2+  Ba16  1  0.50170525  -0.00774273  0.00688236  1
  Ba2+  Ba17  1  0.50170264  0.00170424  0.52118258  1
  Ba2+  Ba18  1  0.50410154  0.25234214  0.00142300  1
  Ba2+  Ba19  1  0.49536264  0.24553420  0.51202871  1
  Ba2+  Ba20  1  0.50602059  0.50332987  0.01930128  1
  Ba2+  Ba21  1  0.49223291  0.50090228  0.50649986  1
  Ba2+  Ba22  1  0.50246636  0.75156349  0.02152821  1
  Ba2+  Ba23  1  0.49883719  0.75091791  0.51608901  1
  Ba2+  Ba24  1  0.75045170  -0.00545367  0.01882098  1
  Ba2+  Ba25  1  0.75238164  0.00172965  0.51158561  1
  Ba2+  Ba26  1  0.75109349  0.25623406  0.00592644  1
  Ba2+  Ba27  1  0.75336100  0.24080418  0.50222733  1
  Ba2+  Ba28  1  0.74304687  0.49439374  0.00692714  1
  Ba2+  Ba29  1  0.75437696  0.50409312  0.50141252  1
  Ba2+  Ba30  1  0.74269605  0.75530152  0.01646012  1
  Ba2+  Ba31  1  0.75274170  0.75458640  0.51153503  1
  Y3+  Y32  1  -0.00367201  -0.00057439  0.26064904  1
  Y3+  Y33  1  -0.00268788  0.00100612  0.75282567  1
  Y3+  Y34  1  -0.00258945  0.24956417  0.25939304  1
  Y3+  Y35  1  -0.00041250  0.24928732  0.75535292  1
  Y3+  Y36  1  -0.00012166  0.49825644  0.25792060  1
  Y3+  Y37  1  0.00104558  0.50115483  0.75752732  1
  Y3+  Y38  1  -0.00090475  0.75323398  0.25888102  1
  Y3+  Y39  1  -0.00102455  0.74841086  0.75552933  1
  Y3+  Y40  1  0.24989516  -0.00136469  0.25533889  1
  Y3+  Y41  1  0.25216596  0.00154374  0.75841738  1
  Y3+  Y42  1  0.25036179  0.25253726  0.25654041  1
  Y3+  Y43  1  0.25175987  0.24954746  0.75714979  1
  Y3+  Y44  1  0.25134789  0.49901371  0.25671364  1
  Y3+  Y45  1  0.24973586  0.50045969  0.75561155  1
  Y3+  Y46  1  0.25113653  0.75054580  0.25560288  1
  Y3+  Y47  1  0.24967916  0.74768677  0.75710645  1
  Y3+  Y48  1  0.50227162  -0.00042295  0.25635106  1
  Y3+  Y49  1  0.50213717  0.00046940  0.75719613  1
  Y3+  Y50  1  0.50199706  0.25153760  0.26028119  1
  Y3+  Y51  1  0.50062241  0.24884174  0.75614652  1
  Y3+  Y52  1  0.50117500  0.49998573  0.25919370  1
  Y3+  Y53  1  0.49961979  0.49770742  0.75569648  1
  Y3+  Y54  1  0.50160906  0.74958846  0.25605525  1
  Y3+  Y55  1  0.50155753  0.75249994  0.75561280  1
  Y3+  Y56  1  0.75155244  0.00034123  0.26165233  1
  Y3+  Y57  1  0.74870792  -0.00074431  0.75298434  1
  Y3+  Y58  1  0.75022508  0.24837417  0.26049212  1
  Y3+  Y59  1  0.74872284  0.24874091  0.75627426  1
  Y3+  Y60  1  0.74729625  0.49980027  0.25802164  1
  Y3+  Y61  1  0.74980134  0.49812771  0.75930320  1
  Y3+  Y62  1  0.74835207  0.75219791  0.25862954  1
  Y3+  Y63  1  0.74968954  0.75286723  0.75497967  1
  Fe3+  Fe64  1  0.62399680  0.87531437  0.37788644  1
  Fe3+  Fe65  1  0.37462950  0.87567810  0.37643874  1
  Fe3+  Fe66  1  0.37426843  0.62550822  0.37548976  1
  Fe3+  Fe67  1  0.37595977  0.37558305  0.87899109  1
  Fe3+  Fe68  1  0.87586774  0.62547538  0.37558352  1
  Fe3+  Fe69  1  0.12514944  0.37435412  0.87594303  1
  Fe3+  Fe70  1  0.87423997  0.12470912  0.87698280  1
  Fe3+  Fe71  1  0.87396404  0.87529409  0.87598506  1
  Fe3+  Fe72  1  0.62435792  0.62599817  0.87620564  1
  Fe3+  Fe73  1  0.12432172  0.87501526  0.87991416  1
  Fe3+  Fe74  1  0.62599184  0.12365214  0.87933307  1
  Fe3+  Fe75  1  0.12529937  0.37506550  0.37741955  1
  Fe3+  Fe76  1  0.12386513  0.12381871  0.87981585  1
  Fe3+  Fe77  1  0.37669806  0.62458102  0.87615253  1
  Fe3+  Fe78  1  0.87354131  0.62468146  0.87976032  1
  Fe3+  Fe79  1  0.37424061  0.12478965  0.37573213  1
  Fe3+  Fe80  1  0.37625324  0.87383794  0.87513422  1
  Fe3+  Fe81  1  0.62496456  0.37487026  0.38077561  1
  Fe3+  Fe82  1  0.12566363  0.62579003  0.37748252  1
  Fe3+  Fe83  1  0.12662982  0.12463544  0.37592759  1
  Fe3+  Fe84  1  0.37647024  0.12551462  0.13473698  1
  Fe3+  Fe85  1  0.62598304  0.12581676  0.13559119  1
  Fe3+  Fe86  1  0.62570672  0.62402481  0.63556512  1
  Fe3+  Fe87  1  0.87422325  0.37494313  0.63778234  1
  Fe3+  Fe88  1  0.12412820  0.12560823  0.13360456  1
  Fe3+  Fe89  1  0.87392507  0.62505107  0.13449501  1
  Fe3+  Fe90  1  0.12366864  0.62465469  0.13646462  1
  Fe3+  Fe91  1  0.62536386  0.37452811  0.63425387  1
  Fe3+  Fe92  1  0.87409263  0.37581026  0.14017441  1
  Fe3+  Fe93  1  0.12477172  0.87573958  0.63923953  1
  Fe3+  Fe94  1  0.37571595  0.37512474  0.13466900  1
  Fe3+  Fe95  1  0.12493493  0.87533234  0.13391270  1
  Cu2+  Cu96  1  0.87547673  0.12487940  0.37139351  1
  Cu2+  Cu97  1  0.62441215  0.37519951  0.87207294  1
  Cu2+  Cu98  1  0.62382533  0.12372485  0.37364245  1
  Cu2+  Cu99  1  0.37592770  0.12505690  0.86702040  1
  Cu2+  Cu100  1  0.62576803  0.87462295  0.87141962  1
  Cu2+  Cu101  1  0.87549458  0.37550329  0.36689685  1
  Cu2+  Cu102  1  0.62459007  0.62599304  0.36730287  1
  Cu2+  Cu103  1  0.87524772  0.37452449  0.86198832  1
  Cu2+  Cu104  1  0.12603128  0.87523518  0.36308169  1
  Cu2+  Cu105  1  0.12507681  0.62541894  0.86473252  1
  Cu2+  Cu106  1  0.37368511  0.37472224  0.37312976  1
  Cu2+  Cu107  1  0.87471555  0.87438561  0.37289517  1
  Cu2+  Cu108  1  0.62514250  0.87645156  0.14449426  1
  Cu2+  Cu109  1  0.37600697  0.62515860  0.65213894  1
  Cu2+  Cu110  1  0.87423542  0.12557608  0.15193929  1
  Cu2+  Cu111  1  0.62569483  0.12573634  0.64147689  1
  Cu2+  Cu112  1  0.12465886  0.37447387  0.65314576  1
  Cu2+  Cu113  1  0.62593439  0.62494179  0.15356308  1
  Cu2+  Cu114  1  0.37529732  0.62448901  0.15085127  1
  Cu2+  Cu115  1  0.62517807  0.37362295  0.14480146  1
  Cu2+  Cu116  1  0.62498189  0.87513661  0.64789536  1
  Cu2+  Cu117  1  0.12463434  0.37483291  0.14892648  1
  Cu2+  Cu118  1  0.87464980  0.12537951  0.64266762  1
  Cu2+  Cu119  1  0.37530284  0.12469065  0.65553298  1
  Cu2+  Cu120  1  0.37480454  0.87508064  0.65273510  1
  Cu2+  Cu121  1  0.12495232  0.12471265  0.65255184  1
  Cu2+  Cu122  1  0.12481404  0.62525922  0.65035078  1
  Cu2+  Cu123  1  0.37581115  0.37480505  0.64253027  1
  Cu2+  Cu124  1  0.87402995  0.62440027  0.65313908  1
  Cu2+  Cu125  1  0.37492659  0.87545974  0.15024761  1
  Cu2+  Cu126  1  0.87518207  0.87425413  0.15281748  1
  Cu2+  Cu127  1  0.87526410  0.87520783  0.64190672  1
  O2-  O128  1  0.12271812  0.12449046  0.00612755  1
  O2-  O129  1  0.12841072  0.12530156  0.49585261  1
  O2-  O130  1  0.12502989  0.37485931  -0.00350606  1
  O2-  O131  1  0.12626613  0.37467621  0.49745147  1
  O2-  O132  1  0.12356882  0.62520489  0.01608983  1
  O2-  O133  1  0.12608095  0.62525082  0.49747467  1
  O2-  O134  1  0.12434379  0.87486684  0.00668626  1
  O2-  O135  1  0.12625807  0.87555894  0.51886197  1
  O2-  O136  1  0.37661143  0.12621110  0.01488571  1
  O2-  O137  1  0.37195436  0.12416129  0.49581228  1
  O2-  O138  1  0.37619054  0.37614338  0.00637869  1
  O2-  O139  1  0.37367448  0.37458774  0.50700128  1
  O2-  O140  1  0.37738322  0.62459315  -0.00391790  1
  O2-  O141  1  0.37222927  0.62584049  0.49576260  1
  O2-  O142  1  0.37583458  0.87274542  -0.00413988  1
  O2-  O143  1  0.37341687  0.87550071  0.49616573  1
  O2-  O144  1  0.62658404  0.12491119  0.00745991  1
  O2-  O145  1  0.62352333  0.12471810  0.50742361  1
  O2-  O146  1  0.62399647  0.37475606  0.00796622  1
  O2-  O147  1  0.62517864  0.37503109  0.50820525  1
  O2-  O148  1  0.62433695  0.62600146  -0.00339286  1
  O2-  O149  1  0.62548363  0.62413649  0.51528935  1
  O2-  O150  1  0.62520294  0.87523345  0.00719502  1
  O2-  O151  1  0.62247224  0.87499539  0.49837900  1
  O2-  O152  1  0.87467019  0.12475183  -0.00298049  1
  O2-  O153  1  0.87665356  0.12502479  0.50717969  1
  O2-  O154  1  0.87421602  0.37647574  0.01923881  1
  O2-  O155  1  0.87576869  0.37619149  0.51765102  1
  O2-  O156  1  0.87352725  0.62447266  0.00712478  1
  O2-  O157  1  0.87766161  0.62526691  0.49615236  1
  O2-  O158  1  0.87438193  0.87477512  -0.00359689  1
  O2-  O159  1  0.87595014  0.87418728  0.50677586  1
  O2-  O160  1  0.12496871  0.00025959  0.15959088  1
  O2-  O161  1  0.12626363  -0.00003506  0.66976605  1
  O2-  O162  1  0.12499301  0.24840648  0.15995342  1
  O2-  O163  1  0.12529019  0.24908975  0.66669029  1
  O2-  O164  1  0.12459620  0.50048650  0.16516925  1
  O2-  O165  1  0.12507040  0.50052929  0.66460167  1
  O2-  O166  1  0.12487402  0.75118466  0.16352579  1
  O2-  O167  1  0.12518553  0.75024679  0.66773032  1
  O2-  O168  1  0.37444607  0.00129544  0.16238872  1
  O2-  O169  1  0.37425583  0.00020397  0.66572654  1
  O2-  O170  1  0.37420957  0.25081453  0.16365219  1
  O2-  O171  1  0.37526792  0.24857713  0.66842022  1
  O2-  O172  1  0.37509729  0.49817203  0.16247381  1
  O2-  O173  1  0.37494591  0.50122186  0.66602954  1
  O2-  O174  1  0.37465379  0.75015338  0.16205395  1
  O2-  O175  1  0.37497939  0.74988720  0.66291129  1
  O2-  O176  1  0.62507732  0.00355798  0.16264635  1
  O2-  O177  1  0.62472322  -0.00129307  0.66574133  1
  O2-  O178  1  0.62542935  0.24693369  0.16675204  1
  O2-  O179  1  0.62460817  0.25311217  0.66707691  1
  O2-  O180  1  0.62488898  0.50065483  0.16709993  1
  O2-  O181  1  0.62541803  0.49826464  0.66588914  1
  O2-  O182  1  0.62511659  0.74940396  0.16425652  1
  O2-  O183  1  0.62485087  0.74963944  0.66356007  1
  O2-  O184  1  0.87569717  -0.00024330  0.16378716  1
  O2-  O185  1  0.87500196  0.00030490  0.66422177  1
  O2-  O186  1  0.87511404  0.25064010  0.16678461  1
  O2-  O187  1  0.87534810  0.25193834  0.66777289  1
  O2-  O188  1  0.87480883  0.50178854  0.16623307  1
  O2-  O189  1  0.87509713  0.49915145  0.66911371  1
  O2-  O190  1  0.87531959  0.74841026  0.16102882  1
  O2-  O191  1  0.87520538  0.74828235  0.66555678  1
  O2-  O192  1  0.00126709  0.12492190  0.16249056  1
  O2-  O193  1  0.00105414  0.12519415  0.66570940  1
  O2-  O194  1  -0.00091417  0.37490376  0.16615833  1
  O2-  O195  1  -0.00016043  0.37560958  0.66659854  1
  O2-  O196  1  -0.00181068  0.62544683  0.16262336  1
  O2-  O197  1  -0.00099298  0.62448485  0.66686108  1
  O2-  O198  1  0.00179717  0.87534712  0.16347610  1
  O2-  O199  1  0.00159581  0.87463056  0.66854807  1
  O2-  O200  1  0.24879512  0.12515464  0.15806938  1
  O2-  O201  1  0.25053403  0.12524974  0.66819658  1
  O2-  O202  1  0.25158474  0.37516244  0.15890284  1
  O2-  O203  1  0.24868811  0.37450349  0.66717614  1
  O2-  O204  1  0.24916893  0.62489010  0.16143627  1
  O2-  O205  1  0.25111100  0.62502569  0.66543367  1
  O2-  O206  1  0.24816097  0.87524292  0.15917284  1
  O2-  O207  1  0.24971587  0.87496298  0.66904833  1
  O2-  O208  1  0.50095038  0.12597789  0.16412421  1
  O2-  O209  1  0.49897288  0.12497880  0.66594351  1
  O2-  O210  1  0.49717872  0.37472241  0.16585345  1
  O2-  O211  1  0.50289139  0.37495278  0.66338537  1
  O2-  O212  1  0.50038114  0.62435372  0.16446054  1
  O2-  O213  1  0.50107907  0.62428033  0.66289061  1
  O2-  O214  1  0.49864758  0.87553165  0.16382356  1
  O2-  O215  1  0.49921775  0.87554664  0.66337718  1
  O2-  O216  1  0.74916913  0.12499407  0.16540216  1
  O2-  O217  1  0.74997397  0.12559812  0.66596035  1
  O2-  O218  1  0.75132213  0.37510911  0.17025249  1
  O2-  O219  1  0.74860999  0.37525105  0.66659447  1
  O2-  O220  1  0.75168558  0.62509622  0.16412110  1
  O2-  O221  1  0.74899065  0.62434387  0.66696916  1
  O2-  O222  1  0.75153655  0.87531451  0.16654420  1
  O2-  O223  1  0.74915725  0.87471462  0.66309055  1
  O2-  O224  1  0.12577353  0.00023153  0.34358845  1
  O2-  O225  1  0.12480276  -0.00026279  0.85271826  1
  O2-  O226  1  0.12505079  0.24999952  0.34275087  1
  O2-  O227  1  0.12548667  0.24796529  0.85022609  1
  O2-  O228  1  0.12474385  0.50050871  0.34576181  1
  O2-  O229  1  0.12487717  0.49906245  0.84825274  1
  O2-  O230  1  0.12511683  0.74999140  0.34601795  1
  O2-  O231  1  0.12464222  0.75220296  0.85114813  1
  O2-  O232  1  0.37411712  -0.00014183  0.34245151  1
  O2-  O233  1  0.37504732  -0.00069476  0.84932835  1
  O2-  O234  1  0.37457844  0.24862466  0.34473872  1
  O2-  O235  1  0.37461105  0.25139300  0.85289934  1
  O2-  O236  1  0.37477654  0.50196144  0.34577819  1
  O2-  O237  1  0.37481671  0.49891057  0.84797805  1
  O2-  O238  1  0.37447097  0.75028103  0.34395493  1
  O2-  O239  1  0.37439223  0.74946448  0.84416565  1
  O2-  O240  1  0.62451219  -0.00222550  0.34453335  1
  O2-  O241  1  0.62496963  0.00235965  0.84969864  1
  O2-  O242  1  0.62524605  0.25276884  0.35034765  1
  O2-  O243  1  0.62545117  0.24700164  0.85127231  1
  O2-  O244  1  0.62520319  0.49870707  0.35157496  1
  O2-  O245  1  0.62513023  0.50169158  0.84708190  1
  O2-  O246  1  0.62439302  0.75116841  0.34677366  1
  O2-  O247  1  0.62578133  0.74832544  0.84462858  1
  O2-  O248  1  0.87554755  -0.00007580  0.34880349  1
  O2-  O249  1  0.87573430  0.00027591  0.84497918  1
  O2-  O250  1  0.87518219  0.25131541  0.34987491  1
  O2-  O251  1  0.87495791  0.24914971  0.84950222  1
  O2-  O252  1  0.87517966  0.50102876  0.34727997  1
  O2-  O253  1  0.87551225  0.50091136  0.85273004  1
  O2-  O254  1  0.87556061  0.74823496  0.34422679  1
  O2-  O255  1  0.87534909  0.74874587  0.84881756  1
  O2-  O256  1  0.00229764  0.12468085  0.34628440  1
  O2-  O257  1  0.00061551  0.12487814  0.84805231  1
  O2-  O258  1  0.00081208  0.37495176  0.34748108  1
  O2-  O259  1  0.00073220  0.37444756  0.84910217  1
  O2-  O260  1  0.00132323  0.62553996  0.34287093  1
  O2-  O261  1  -0.00203752  0.62503121  0.85236113  1
  O2-  O262  1  0.00160975  0.87511833  0.34833195  1
  O2-  O263  1  0.00049173  0.87440968  0.84976448  1
  O2-  O264  1  0.25008692  0.12488528  0.33827404  1
  O2-  O265  1  0.24784460  0.12430055  0.85337461  1
  O2-  O266  1  0.24738679  0.37528285  0.34123434  1
  O2-  O267  1  0.25146681  0.37465684  0.85008339  1
  O2-  O268  1  0.24937726  0.62564574  0.34153091  1
  O2-  O269  1  0.25111173  0.62466801  0.84910932  1
  O2-  O270  1  0.25111385  0.87502140  0.34175335  1
  O2-  O271  1  0.24873320  0.87545171  0.85111900  1
  O2-  O272  1  0.49768127  0.12528446  0.34516293  1
  O2-  O273  1  0.50236469  0.12553863  0.85060077  1
  O2-  O274  1  0.50283262  0.37546824  0.35031306  1
  O2-  O275  1  0.49676321  0.37410089  0.84678669  1
  O2-  O276  1  0.49919698  0.62489329  0.34822595  1
  O2-  O277  1  0.49989460  0.62462030  0.84263347  1
  O2-  O278  1  0.49911643  0.87487887  0.34457712  1
  O2-  O279  1  0.49890318  0.87511324  0.84601629  1
  O2-  O280  1  0.75001948  0.12513548  0.34989836  1
  O2-  O281  1  0.74950741  0.12505171  0.84771299  1
  O2-  O282  1  0.74894857  0.37586932  0.35349587  1
  O2-  O283  1  0.75153507  0.37488320  0.84937725  1
  O2-  O284  1  0.75029492  0.62472687  0.34827764  1
  O2-  O285  1  0.75109362  0.62402741  0.84888480  1
  O2-  O286  1  0.74801713  0.87446649  0.34934985  1
  O2-  O287  1  0.75217614  0.87495465  0.84507620  1
