# generated using pymatgen
data_BaYFeCuO5
_symmetry_space_group_name_H-M   'P 1'
_cell_length_a   15.67080202
_cell_length_b   15.66712988
_cell_length_c   15.47829426
_cell_angle_alpha   90.00321343
_cell_angle_beta   90.00450078
_cell_angle_gamma   90.00140334
_symmetry_Int_Tables_number   1
_chemical_formula_structural   BaYFeCuO5
_chemical_formula_sum   'Ba32 Y32 Fe32 Cu32 O160'
_cell_volume   3800.17647068
_cell_formula_units_Z   32
loop_
 _symmetry_equiv_pos_site_id
 _symmetry_equiv_pos_as_xyz
  1  'x, y, z'
loop_
 _atom_type_symbol
 _atom_type_oxidation_number
  Ba2+  2.0
  Y3+  3.0
  Fe3+  3.0
  Cu2+  2.0
  O2-  -2.0
loop_
 _atom_site_type_symbol
 _atom_site_label
 _atom_site_symmetry_multiplicity
 _atom_site_fract_x
 _atom_site_fract_y
 _atom_site_fract_z
 _atom_site_occupancy
  Ba2+  Ba0  1  -0.00244372  -0.01144062  0.01091895  1
  Ba2+  Ba1  1  0.00350765  -0.00593069  0.51508469  1
  Ba2+  Ba2  1  0.00421986  0.25616298  0.01165864  1
  Ba2+  Ba3  1  0.00012649  0.25670308  0.50872949  1
  Ba2+  Ba4  1  0.00619484  0.50751338  0.00638510  1
  Ba2+  Ba5  1  -0.00653196  0.50181929  0.50684070  1
  Ba2+  Ba6  1  -0.00070008  0.74801594  0.00666309  1
  Ba2+  Ba7  1  -0.00304157  0.74797325  0.51194593  1
  Ba2+  Ba8  1  0.25150833  -0.00921323  0.00599154  1
  Ba2+  Ba9  1  0.25312790  0.00120599  0.51290345  1
  Ba2+  Ba10  1  0.25290331  0.26157458  0.01777829  1
  Ba2+  Ba11  1  0.24855826  0.24087991  0.50452957  1
  Ba2+  Ba12  1  0.24983954  0.50319800  0.02289245  1
  Ba2+  Ba13  1  0.23988080  0.50009613  0.50679491  1
  Ba2+  Ba14  1  0.24821469  0.74386744  0.01170153  1
  Ba2+  Ba15  1  0.24433698  0.75704252  0.51331849  1
  Ba2+  Ba16  1  0.50681723  -0.00647544  0.00570616  1
  Ba2+  Ba17  1  0.49998709  0.00484937  0.51633382  1
  Ba2+  Ba18  1  0.50350275  0.25646619  0.02486737  1
  Ba2+  Ba19  1  0.50608882  0.24205021  0.50606709  1
  Ba2+  Ba20  1  0.49916692  0.50075459  0.02978472  1
  Ba2+  Ba21  1  0.50665230  0.49419718  0.50622038  1
  Ba2+  Ba22  1  0.50322904  0.74979052  0.01176577  1
  Ba2+  Ba23  1  0.50039743  0.76070510  0.51719305  1
  Ba2+  Ba24  1  0.74583272  -0.00923752  0.01033680  1
  Ba2+  Ba25  1  0.74406728  -0.00200773  0.51813238  1
  Ba2+  Ba26  1  0.73975932  0.25098669  0.01880142  1
  Ba2+  Ba27  1  0.74499971  0.25487775  0.50655220  1
  Ba2+  Ba28  1  0.74383243  0.50544119  0.01429779  1
  Ba2+  Ba29  1  0.75758731  0.49512908  0.50730716  1
  Ba2+  Ba30  1  0.74957394  0.75379560  0.00581107  1
  Ba2+  Ba31  1  0.75814276  0.75213737  0.51778706  1
  Y3+  Y32  1  -0.00055495  -0.00219139  0.25400421  1
  Y3+  Y33  1  -0.00198421  -0.00281013  0.76051851  1
  Y3+  Y34  1  -0.00081349  0.25013059  0.25883363  1
  Y3+  Y35  1  -0.00129434  0.25259522  0.75702142  1
  Y3+  Y36  1  -0.00036646  0.50330034  0.26046960  1
  Y3+  Y37  1  -0.00208853  0.50183665  0.75604261  1
  Y3+  Y38  1  0.00018643  0.74860709  0.25555000  1
  Y3+  Y39  1  -0.00296276  0.74844485  0.76042663  1
  Y3+  Y40  1  0.25023952  0.00104085  0.25769207  1
  Y3+  Y41  1  0.25307595  -0.00118559  0.75675658  1
  Y3+  Y42  1  0.25073029  0.24863290  0.25903904  1
  Y3+  Y43  1  0.25119627  0.24969507  0.75457475  1
  Y3+  Y44  1  0.24742719  0.50178906  0.25716128  1
  Y3+  Y45  1  0.24741636  0.50080508  0.75632126  1
  Y3+  Y46  1  0.24708973  0.74818281  0.25507868  1
  Y3+  Y47  1  0.24998768  0.75101207  0.75915837  1
  Y3+  Y48  1  0.50254468  0.00202935  0.25791944  1
  Y3+  Y49  1  0.50066700  -0.00066333  0.75584260  1
  Y3+  Y50  1  0.50280391  0.24826678  0.26370830  1
  Y3+  Y51  1  0.50124841  0.24800558  0.74978035  1
  Y3+  Y52  1  0.50207302  0.49929947  0.26186203  1
  Y3+  Y53  1  0.50144723  0.49837319  0.75036073  1
  Y3+  Y54  1  0.50174222  0.74996340  0.25513923  1
  Y3+  Y55  1  0.50032118  0.75477220  0.75863419  1
  Y3+  Y56  1  0.74800627  -0.00098083  0.25392006  1
  Y3+  Y57  1  0.74855131  -0.00265593  0.76010010  1
  Y3+  Y58  1  0.74784749  0.24988159  0.26264480  1
  Y3+  Y59  1  0.74864723  0.25138245  0.75213135  1
  Y3+  Y60  1  0.75134016  0.49986336  0.26382952  1
  Y3+  Y61  1  0.75274337  0.50006496  0.75222373  1
  Y3+  Y62  1  0.75093184  0.75096527  0.25448349  1
  Y3+  Y63  1  0.75257073  0.75120463  0.76010645  1
  Fe3+  Fe64  1  0.62381649  0.62334305  0.87323983  1
  Fe3+  Fe65  1  0.87522961  0.12310519  0.37988345  1
  Fe3+  Fe66  1  0.37543424  0.87538446  0.37579265  1
  Fe3+  Fe67  1  0.62650400  0.62750437  0.38048909  1
  Fe3+  Fe68  1  0.12554803  0.12585389  0.88106022  1
  Fe3+  Fe69  1  0.62568278  0.87510115  0.37666012  1
  Fe3+  Fe70  1  0.37451823  0.62666536  0.38035864  1
  Fe3+  Fe71  1  0.37432437  0.37449086  0.37892451  1
  Fe3+  Fe72  1  0.12428918  0.37484669  0.37534697  1
  Fe3+  Fe73  1  0.12642202  0.37627044  0.87602207  1
  Fe3+  Fe74  1  0.37707733  0.37615678  0.87436342  1
  Fe3+  Fe75  1  0.37609292  0.12674099  0.88073036  1
  Fe3+  Fe76  1  0.87389514  0.12633609  0.88144452  1
  Fe3+  Fe77  1  0.12458013  0.87527515  0.37451388  1
  Fe3+  Fe78  1  0.12555043  0.87360673  0.87644291  1
  Fe3+  Fe79  1  0.62338334  0.37588248  0.87388085  1
  Fe3+  Fe80  1  0.87475032  0.87538441  0.37543310  1
  Fe3+  Fe81  1  0.87301247  0.37592255  0.88094272  1
  Fe3+  Fe82  1  0.37654230  0.62303515  0.87454163  1
  Fe3+  Fe83  1  0.62431662  0.12685899  0.87644876  1
  Fe3+  Fe84  1  0.37624882  0.12489747  0.13472013  1
  Fe3+  Fe85  1  0.12394527  0.12435565  0.64006022  1
  Fe3+  Fe86  1  0.62611415  0.62619228  0.63342896  1
  Fe3+  Fe87  1  0.12537650  0.12462092  0.13387142  1
  Fe3+  Fe88  1  0.37343808  0.37413898  0.63102100  1
  Fe3+  Fe89  1  0.87393982  0.12504649  0.13418094  1
  Fe3+  Fe90  1  0.87420434  0.62477709  0.13832073  1
  Fe3+  Fe91  1  0.87471727  0.37599710  0.13611988  1
  Fe3+  Fe92  1  0.12401905  0.62606520  0.63819583  1
  Fe3+  Fe93  1  0.37472176  0.62559453  0.63197897  1
  Fe3+  Fe94  1  0.87483184  0.12456083  0.63584088  1
  Fe3+  Fe95  1  0.37518188  0.87421533  0.13691413  1
  Cu2+  Cu96  1  0.87454720  0.87464845  0.87346880  1
  Cu2+  Cu97  1  0.62567485  0.37520416  0.37314537  1
  Cu2+  Cu98  1  0.12340316  0.12340468  0.36145438  1
  Cu2+  Cu99  1  0.87595109  0.37432468  0.37138742  1
  Cu2+  Cu100  1  0.37537881  0.87493540  0.86599785  1
  Cu2+  Cu101  1  0.37531340  0.12321215  0.37282280  1
  Cu2+  Cu102  1  0.87378763  0.62349292  0.86555280  1
  Cu2+  Cu103  1  0.12590569  0.62435322  0.87145447  1
  Cu2+  Cu104  1  0.12471428  0.62650732  0.36561792  1
  Cu2+  Cu105  1  0.87487637  0.62722531  0.37308157  1
  Cu2+  Cu106  1  0.62681501  0.12240114  0.37241880  1
  Cu2+  Cu107  1  0.62465442  0.87441097  0.87033246  1
  Cu2+  Cu108  1  0.62575721  0.87434609  0.65314894  1
  Cu2+  Cu109  1  0.62635044  0.12424231  0.64228544  1
  Cu2+  Cu110  1  0.62482922  0.12480621  0.15163923  1
  Cu2+  Cu111  1  0.62645880  0.37552152  0.15933632  1
  Cu2+  Cu112  1  0.87460460  0.87399678  0.14113951  1
  Cu2+  Cu113  1  0.87538501  0.87569663  0.65453069  1
  Cu2+  Cu114  1  0.62553396  0.37520746  0.63893831  1
  Cu2+  Cu115  1  0.87526080  0.62559429  0.64308521  1
  Cu2+  Cu116  1  0.37470805  0.12482049  0.64226341  1
  Cu2+  Cu117  1  0.12444625  0.87500147  0.65582032  1
  Cu2+  Cu118  1  0.12478725  0.37506897  0.65057022  1
  Cu2+  Cu119  1  0.37535104  0.37483645  0.15907717  1
  Cu2+  Cu120  1  0.12558167  0.87475697  0.14873462  1
  Cu2+  Cu121  1  0.12359655  0.37493200  0.15370406  1
  Cu2+  Cu122  1  0.87579759  0.37448685  0.64243479  1
  Cu2+  Cu123  1  0.62424364  0.87420799  0.14227549  1
  Cu2+  Cu124  1  0.62595463  0.62463225  0.15627114  1
  Cu2+  Cu125  1  0.12357994  0.62508239  0.14312078  1
  Cu2+  Cu126  1  0.37461605  0.87484250  0.65229741  1
  Cu2+  Cu127  1  0.37558248  0.62470918  0.15657244  1
  O2-  O128  1  0.12637111  0.12654359  0.00719020  1
  O2-  O129  1  0.12304368  0.12246976  0.51969468  1
  O2-  O130  1  0.12801180  0.37646613  -0.00342964  1
  O2-  O131  1  0.12462468  0.37344291  0.49584827  1
  O2-  O132  1  0.12650205  0.62388941  0.00728862  1
  O2-  O133  1  0.12437453  0.62723648  0.51733282  1
  O2-  O134  1  0.12705910  0.87285579  -0.00262460  1
  O2-  O135  1  0.12451327  0.87697674  0.49482069  1
  O2-  O136  1  0.37681304  0.12789063  0.00705927  1
  O2-  O137  1  0.37381889  0.12361846  0.50649991  1
  O2-  O138  1  0.37769293  0.37786939  -0.00556146  1
  O2-  O139  1  0.37209842  0.37251441  0.50473164  1
  O2-  O140  1  0.37783857  0.62047744  -0.00549570  1
  O2-  O141  1  0.37295779  0.62790332  0.50584332  1
  O2-  O142  1  0.37589658  0.87336950  0.01616939  1
  O2-  O143  1  0.37410843  0.87615710  0.49615263  1
  O2-  O144  1  0.62220605  0.12924777  -0.00328378  1
  O2-  O145  1  0.62721685  0.12233892  0.50730434  1
  O2-  O146  1  0.62213387  0.37707433  -0.00595347  1
  O2-  O147  1  0.62531908  0.37517140  0.50586754  1
  O2-  O148  1  0.62053547  0.62103274  -0.00659799  1
  O2-  O149  1  0.62692490  0.62891672  0.50636944  1
  O2-  O150  1  0.62380488  0.87279595  0.00687054  1
  O2-  O151  1  0.62616144  0.87483478  0.49704578  1
  O2-  O152  1  0.87346987  0.12730638  0.00746547  1
  O2-  O153  1  0.87657829  0.12300477  0.50756596  1
  O2-  O154  1  0.87273191  0.37620179  0.00784952  1
  O2-  O155  1  0.87696723  0.37318156  0.50677143  1
  O2-  O156  1  0.87331025  0.62231411  0.01774148  1
  O2-  O157  1  0.87558521  0.62685281  0.50835288  1
  O2-  O158  1  0.87416291  0.87396759  0.00666226  1
  O2-  O159  1  0.87575610  0.87728143  0.49563021  1
  O2-  O160  1  0.12561141  0.00239207  0.15930488  1
  O2-  O161  1  0.12413169  -0.00037385  0.67061888  1
  O2-  O162  1  0.12477731  0.24769888  0.16261889  1
  O2-  O163  1  0.12411563  0.24932638  0.66766646  1
  O2-  O164  1  0.12432188  0.49839054  0.16781067  1
  O2-  O165  1  0.12509524  0.50077436  0.66311894  1
  O2-  O166  1  0.12524944  0.75096689  0.16470928  1
  O2-  O167  1  0.12541043  0.75056912  0.66575864  1
  O2-  O168  1  0.37443320  0.00184300  0.16087098  1
  O2-  O169  1  0.37458630  -0.00159623  0.66809919  1
  O2-  O170  1  0.37469304  0.24846890  0.16399794  1
  O2-  O171  1  0.37375328  0.25245265  0.66367579  1
  O2-  O172  1  0.37525193  0.49978758  0.17082569  1
  O2-  O173  1  0.37394738  0.50047357  0.65477637  1
  O2-  O174  1  0.37488904  0.74939980  0.16528831  1
  O2-  O175  1  0.37515002  0.74861591  0.66238953  1
  O2-  O176  1  0.62460186  0.00128042  0.16245287  1
  O2-  O177  1  0.62586962  -0.00235432  0.66758293  1
  O2-  O178  1  0.62539829  0.25032808  0.16623681  1
  O2-  O179  1  0.62545643  0.25009972  0.66260507  1
  O2-  O180  1  0.62541297  0.49980715  0.16990673  1
  O2-  O181  1  0.62497898  0.50343525  0.65803058  1
  O2-  O182  1  0.62442189  0.74808711  0.16434772  1
  O2-  O183  1  0.62400373  0.74888400  0.66349828  1
  O2-  O184  1  0.87507925  0.00292003  0.16064850  1
  O2-  O185  1  0.87568816  0.00094270  0.66608817  1
  O2-  O186  1  0.87527999  0.24987228  0.16262150  1
  O2-  O187  1  0.87638741  0.24702627  0.66569676  1
  O2-  O188  1  0.87436892  0.49855609  0.16867295  1
  O2-  O189  1  0.87566200  0.49991567  0.66450213  1
  O2-  O190  1  0.87471948  0.74816489  0.16609024  1
  O2-  O191  1  0.87542500  0.75233276  0.66625591  1
  O2-  O192  1  -0.00003293  0.12554795  0.16065820  1
  O2-  O193  1  -0.00147861  0.12414965  0.67084250  1
  O2-  O194  1  -0.00239854  0.37331922  0.16083328  1
  O2-  O195  1  0.00156861  0.37443273  0.66971608  1
  O2-  O196  1  -0.00240279  0.62421016  0.16677355  1
  O2-  O197  1  0.00142051  0.62578433  0.66910608  1
  O2-  O198  1  0.00163746  0.87600266  0.16203541  1
  O2-  O199  1  -0.00035278  0.87616638  0.66686648  1
  O2-  O200  1  0.25045506  0.12595988  0.16244437  1
  O2-  O201  1  0.24797378  0.12441734  0.66902178  1
  O2-  O202  1  0.24927850  0.37467485  0.16438721  1
  O2-  O203  1  0.25110829  0.37506787  0.66193394  1
  O2-  O204  1  0.25072010  0.62386738  0.16539197  1
  O2-  O205  1  0.25117311  0.62549950  0.66365113  1
  O2-  O206  1  0.25092975  0.87537649  0.16525557  1
  O2-  O207  1  0.24973441  0.87555091  0.66430692  1
  O2-  O208  1  0.49845590  0.12616601  0.16537952  1
  O2-  O209  1  0.50032338  0.12420986  0.66284043  1
  O2-  O210  1  0.50134169  0.37507237  0.16914640  1
  O2-  O211  1  0.49631978  0.37540338  0.65730571  1
  O2-  O212  1  0.50109250  0.62361390  0.16925009  1
  O2-  O213  1  0.49932178  0.62466910  0.65469823  1
  O2-  O214  1  0.49776546  0.87468860  0.16735429  1
  O2-  O215  1  0.49995505  0.87540307  0.66261746  1
  O2-  O216  1  0.75129776  0.12602609  0.16350980  1
  O2-  O217  1  0.75338502  0.12420872  0.66545766  1
  O2-  O218  1  0.75196310  0.37421812  0.16438946  1
  O2-  O219  1  0.75028012  0.37475331  0.66547469  1
  O2-  O220  1  0.75031689  0.62360226  0.16721898  1
  O2-  O221  1  0.74789246  0.62630417  0.66354748  1
  O2-  O222  1  0.74948345  0.87516481  0.16374727  1
  O2-  O223  1  0.75076125  0.87508628  0.66607192  1
  O2-  O224  1  0.12453382  -0.00109516  0.34212857  1
  O2-  O225  1  0.12492282  0.00216171  0.85297431  1
  O2-  O226  1  0.12495758  0.24934658  0.34664506  1
  O2-  O227  1  0.12537029  0.24957790  0.84933255  1
  O2-  O228  1  0.12511689  0.50080303  0.35104247  1
  O2-  O229  1  0.12453358  0.49788392  0.84420264  1
  O2-  O230  1  0.12536583  0.75093484  0.34729263  1
  O2-  O231  1  0.12590692  0.75064621  0.84746336  1
  O2-  O232  1  0.37466601  -0.00271934  0.34208096  1
  O2-  O233  1  0.37470831  0.00292450  0.85373027  1
  O2-  O234  1  0.37397609  0.25224319  0.34885780  1
  O2-  O235  1  0.37438362  0.24956889  0.84632491  1
  O2-  O236  1  0.37473657  0.50065468  0.35567250  1
  O2-  O237  1  0.37591004  0.49881966  0.83585620  1
  O2-  O238  1  0.37512579  0.74925526  0.34733476  1
  O2-  O239  1  0.37553610  0.74900450  0.84671355  1
  O2-  O240  1  0.62580793  -0.00290131  0.34421975  1
  O2-  O241  1  0.62497841  0.00255790  0.85021412  1
  O2-  O242  1  0.62589045  0.24908737  0.35105828  1
  O2-  O243  1  0.62505508  0.25077772  0.84233534  1
  O2-  O244  1  0.62486240  0.50374129  0.35390296  1
  O2-  O245  1  0.62475424  0.49871725  0.83751251  1
  O2-  O246  1  0.62442529  0.75003753  0.34603845  1
  O2-  O247  1  0.62431891  0.74782309  0.84661233  1
  O2-  O248  1  0.87578934  0.00008984  0.34350111  1
  O2-  O249  1  0.87530515  0.00439957  0.85104020  1
  O2-  O250  1  0.87592453  0.24630342  0.34833207  1
  O2-  O251  1  0.87499443  0.25105353  0.85042756  1
  O2-  O252  1  0.87557576  0.50085165  0.35189885  1
  O2-  O253  1  0.87458739  0.49715660  0.84850455  1
  O2-  O254  1  0.87533041  0.75269389  0.34690009  1
  O2-  O255  1  0.87433912  0.74769104  0.85055786  1
  O2-  O256  1  -0.00222502  0.12428055  0.34614983  1
  O2-  O257  1  0.00030459  0.12703961  0.85506743  1
  O2-  O258  1  0.00197027  0.37408541  0.34384222  1
  O2-  O259  1  -0.00160970  0.37385651  0.85341990  1
  O2-  O260  1  0.00100681  0.62609347  0.34927317  1
  O2-  O261  1  -0.00184733  0.62412237  0.85223380  1
  O2-  O262  1  -0.00014409  0.87571771  0.34353313  1
  O2-  O263  1  0.00161776  0.87539674  0.84986305  1
  O2-  O264  1  0.24783249  0.12443810  0.34724023  1
  O2-  O265  1  0.25030414  0.12575130  0.85247509  1
  O2-  O266  1  0.25036324  0.37507642  0.34764789  1
  O2-  O267  1  0.25107702  0.37464630  0.84329679  1
  O2-  O268  1  0.25179451  0.62521099  0.34972503  1
  O2-  O269  1  0.25264176  0.62400847  0.84443935  1
  O2-  O270  1  0.24989047  0.87483010  0.34549557  1
  O2-  O271  1  0.24974988  0.87608593  0.84738421  1
  O2-  O272  1  0.50123625  0.12415754  0.34941613  1
  O2-  O273  1  0.49863035  0.12593899  0.84518198  1
  O2-  O274  1  0.49710395  0.37516842  0.35300934  1
  O2-  O275  1  0.50007014  0.37427151  0.83722645  1
  O2-  O276  1  0.49988305  0.62526539  0.35376773  1
  O2-  O277  1  0.49990678  0.62426482  0.83584740  1
  O2-  O278  1  0.50052459  0.87446869  0.34712384  1
  O2-  O279  1  0.49902767  0.87600754  0.84718564  1
  O2-  O280  1  0.75374495  0.12387716  0.34840235  1
  O2-  O281  1  0.75062560  0.12672119  0.84866500  1
  O2-  O282  1  0.75068911  0.37462667  0.34843250  1
  O2-  O283  1  0.75031843  0.37472542  0.84822301  1
  O2-  O284  1  0.74766792  0.62625393  0.34978462  1
  O2-  O285  1  0.74892569  0.62333878  0.84684290  1
  O2-  O286  1  0.75019896  0.87509392  0.34439377  1
  O2-  O287  1  0.74971581  0.87505851  0.84992984  1
