# generated using pymatgen
data_BaYFeCuO5
_symmetry_space_group_name_H-M   'P 1'
_cell_length_a   15.68695310
_cell_length_b   15.68691413
_cell_length_c   15.54925840
_cell_angle_alpha   89.99336504
_cell_angle_beta   90.00756398
_cell_angle_gamma   89.98926459
_symmetry_Int_Tables_number   1
_chemical_formula_structural   BaYFeCuO5
_chemical_formula_sum   'Ba32 Y32 Fe32 Cu32 O160'
_cell_volume   3826.35961192
_cell_formula_units_Z   32
loop_
 _symmetry_equiv_pos_site_id
 _symmetry_equiv_pos_as_xyz
  1  'x, y, z'
loop_
 _atom_type_symbol
 _atom_type_oxidation_number
  Ba2+  2.0
  Y3+  3.0
  Fe3+  3.0
  Cu2+  2.0
  O2-  -2.0
loop_
 _atom_site_type_symbol
 _atom_site_label
 _atom_site_symmetry_multiplicity
 _atom_site_fract_x
 _atom_site_fract_y
 _atom_site_fract_z
 _atom_site_occupancy
  Ba2+  Ba0  1  -0.00582131  0.00434597  0.02111364  1
  Ba2+  Ba1  1  0.00170632  0.00032838  0.51807795  1
  Ba2+  Ba2  1  -0.00254401  0.25162198  0.00729545  1
  Ba2+  Ba3  1  0.00348945  0.25130830  0.51180723  1
  Ba2+  Ba4  1  -0.00132433  0.49897296  -0.00673762  1
  Ba2+  Ba5  1  0.00340612  0.49684722  0.51130907  1
  Ba2+  Ba6  1  -0.00547053  0.74427443  0.01168175  1
  Ba2+  Ba7  1  0.00171773  0.75115361  0.51797842  1
  Ba2+  Ba8  1  0.25039138  -0.00045633  0.00677560  1
  Ba2+  Ba9  1  0.24777093  -0.00055600  0.52097397  1
  Ba2+  Ba10  1  0.24569788  0.25566365  0.01180751  1
  Ba2+  Ba11  1  0.24733530  0.25213316  0.51102005  1
  Ba2+  Ba12  1  0.25113926  0.50099557  0.02125636  1
  Ba2+  Ba13  1  0.24901193  0.49956234  0.50540396  1
  Ba2+  Ba14  1  0.25475563  0.74336795  0.01384526  1
  Ba2+  Ba15  1  0.25093837  0.74748798  0.51184924  1
  Ba2+  Ba16  1  0.50784564  -0.00651189  0.00638320  1
  Ba2+  Ba17  1  0.49527983  0.00554224  0.51076330  1
  Ba2+  Ba18  1  0.50655983  0.25732065  0.01558484  1
  Ba2+  Ba19  1  0.49980947  0.25011191  0.51832822  1
  Ba2+  Ba20  1  0.50172442  0.49871224  0.01463959  1
  Ba2+  Ba21  1  0.49235080  0.49723127  0.51642379  1
  Ba2+  Ba22  1  0.50459400  0.75016531  -0.00128070  1
  Ba2+  Ba23  1  0.48850239  0.74856791  0.51119867  1
  Ba2+  Ba24  1  0.74834478  -0.00201603  0.02242255  1
  Ba2+  Ba25  1  0.75468920  0.00580055  0.50959662  1
  Ba2+  Ba26  1  0.74794711  0.25341093  0.01300560  1
  Ba2+  Ba27  1  0.74965628  0.24962957  0.51770814  1
  Ba2+  Ba28  1  0.74763860  0.49927191  -0.00981192  1
  Ba2+  Ba29  1  0.75552485  0.49507510  0.52080797  1
  Ba2+  Ba30  1  0.74726801  0.75096878  0.00024617  1
  Ba2+  Ba31  1  0.75953789  0.75092210  0.51741888  1
  Y3+  Y32  1  -0.00205388  0.00258688  0.25540482  1
  Y3+  Y33  1  0.00116280  -0.00072134  0.75627925  1
  Y3+  Y34  1  0.00034496  0.24861446  0.25811911  1
  Y3+  Y35  1  0.00169012  0.25349423  0.75695041  1
  Y3+  Y36  1  0.00307857  0.49994169  0.26176136  1
  Y3+  Y37  1  -0.00098607  0.49757396  0.75470334  1
  Y3+  Y38  1  0.00065161  0.74834541  0.25651539  1
  Y3+  Y39  1  -0.00180712  0.74936264  0.75719132  1
  Y3+  Y40  1  0.25004802  0.00200859  0.25413452  1
  Y3+  Y41  1  0.25062371  -0.00206456  0.75956144  1
  Y3+  Y42  1  0.24905177  0.25104174  0.25742893  1
  Y3+  Y43  1  0.24797898  0.25268018  0.75621163  1
  Y3+  Y44  1  0.24977365  0.50110449  0.26222086  1
  Y3+  Y45  1  0.25025411  0.49826787  0.75279634  1
  Y3+  Y46  1  0.25046089  0.74517680  0.25915069  1
  Y3+  Y47  1  0.25298030  0.75088173  0.75588547  1
  Y3+  Y48  1  0.50226079  0.00047976  0.25438986  1
  Y3+  Y49  1  0.50014212  -0.00210353  0.75899869  1
  Y3+  Y50  1  0.50124822  0.25136110  0.25395582  1
  Y3+  Y51  1  0.50220449  0.25232292  0.75819224  1
  Y3+  Y52  1  0.49760445  0.50041270  0.25828240  1
  Y3+  Y53  1  0.50089670  0.49854542  0.75639687  1
  Y3+  Y54  1  0.49903538  0.74867733  0.25806170  1
  Y3+  Y55  1  0.49905438  0.75112124  0.75699196  1
  Y3+  Y56  1  0.74977421  0.00079279  0.25536849  1
  Y3+  Y57  1  0.74840878  -0.00056335  0.75616578  1
  Y3+  Y58  1  0.74946515  0.24872611  0.25519221  1
  Y3+  Y59  1  0.74819923  0.25339988  0.75862900  1
  Y3+  Y60  1  0.74862303  0.49890040  0.25894239  1
  Y3+  Y61  1  0.75011722  0.49778794  0.75705337  1
  Y3+  Y62  1  0.74978020  0.75188872  0.25643728  1
  Y3+  Y63  1  0.74990161  0.74936743  0.75823334  1
  Fe3+  Fe64  1  0.62459562  0.12591646  0.37613567  1
  Fe3+  Fe65  1  0.12431410  0.12541892  0.87775356  1
  Fe3+  Fe66  1  0.87615386  0.87604002  0.37579873  1
  Fe3+  Fe67  1  0.12510514  0.87545159  0.37440622  1
  Fe3+  Fe68  1  0.87495848  0.87641579  0.87632156  1
  Fe3+  Fe69  1  0.62529247  0.62490487  0.38355836  1
  Fe3+  Fe70  1  0.12613546  0.62434678  0.87613041  1
  Fe3+  Fe71  1  0.87419683  0.12525664  0.87654651  1
  Fe3+  Fe72  1  0.87515937  0.62497751  0.37956343  1
  Fe3+  Fe73  1  0.37516452  0.62339502  0.87454504  1
  Fe3+  Fe74  1  0.12431853  0.87362796  0.88004157  1
  Fe3+  Fe75  1  0.62583432  0.12500696  0.87705346  1
  Fe3+  Fe76  1  0.62505714  0.37486245  0.37889273  1
  Fe3+  Fe77  1  0.37564534  0.12583717  0.88050294  1
  Fe3+  Fe78  1  0.37550911  0.37284062  0.37578987  1
  Fe3+  Fe79  1  0.87490130  0.37327785  0.37857857  1
  Fe3+  Fe80  1  0.37367337  0.87697466  0.37583647  1
  Fe3+  Fe81  1  0.37438159  0.37558147  0.87679340  1
  Fe3+  Fe82  1  0.12554897  0.12389838  0.37542849  1
  Fe3+  Fe83  1  0.62489278  0.87490789  0.38131393  1
  Fe3+  Fe84  1  0.62570073  0.62483615  0.13940942  1
  Fe3+  Fe85  1  0.12526221  0.62497684  0.63862268  1
  Fe3+  Fe86  1  0.12332273  0.37623911  0.13961855  1
  Fe3+  Fe87  1  0.37447425  0.12583846  0.64100578  1
  Fe3+  Fe88  1  0.37603578  0.87367563  0.13590455  1
  Fe3+  Fe89  1  0.62459825  0.87579839  0.63359654  1
  Fe3+  Fe90  1  0.37574950  0.12584227  0.13307452  1
  Fe3+  Fe91  1  0.87480460  0.37739197  0.13842307  1
  Fe3+  Fe92  1  0.62471870  0.62514858  0.63527787  1
  Fe3+  Fe93  1  0.87409956  0.62262677  0.13800956  1
  Fe3+  Fe94  1  0.87555255  0.12593701  0.63907610  1
  Fe3+  Fe95  1  0.12482948  0.87396453  0.13344311  1
  Cu2+  Cu96  1  0.62631719  0.87546811  0.86946637  1
  Cu2+  Cu97  1  0.12426728  0.62588982  0.36584064  1
  Cu2+  Cu98  1  0.87476322  0.12518474  0.36239663  1
  Cu2+  Cu99  1  0.62373061  0.37498567  0.87197711  1
  Cu2+  Cu100  1  0.12586613  0.37596000  0.86226315  1
  Cu2+  Cu101  1  0.37482531  0.87458175  0.86714193  1
  Cu2+  Cu102  1  0.62429960  0.62459377  0.85765509  1
  Cu2+  Cu103  1  0.37539137  0.12493435  0.35873995  1
  Cu2+  Cu104  1  0.87485551  0.62478348  0.85928723  1
  Cu2+  Cu105  1  0.37542495  0.62476839  0.37442177  1
  Cu2+  Cu106  1  0.87504237  0.37426567  0.86130813  1
  Cu2+  Cu107  1  0.12491549  0.37410635  0.37357797  1
  Cu2+  Cu108  1  0.87511362  0.62452337  0.65245344  1
  Cu2+  Cu109  1  0.12441813  0.62407658  0.15178501  1
  Cu2+  Cu110  1  0.62622489  0.37761989  0.14318461  1
  Cu2+  Cu111  1  0.62466683  0.12488018  0.65224262  1
  Cu2+  Cu112  1  0.37555116  0.62479327  0.15380883  1
  Cu2+  Cu113  1  0.87513897  0.87374069  0.15087942  1
  Cu2+  Cu114  1  0.62478746  0.37526247  0.64809162  1
  Cu2+  Cu115  1  0.12535447  0.12572210  0.14727716  1
  Cu2+  Cu116  1  0.37488114  0.37424732  0.65133842  1
  Cu2+  Cu117  1  0.37534954  0.87576991  0.65317392  1
  Cu2+  Cu118  1  0.12535842  0.87426199  0.65507203  1
  Cu2+  Cu119  1  0.87459862  0.87603301  0.65259284  1
  Cu2+  Cu120  1  0.87441598  0.12659718  0.15105686  1
  Cu2+  Cu121  1  0.87541919  0.37383082  0.65262793  1
  Cu2+  Cu122  1  0.37448441  0.37539597  0.15184251  1
  Cu2+  Cu123  1  0.62466088  0.87261570  0.14323876  1
  Cu2+  Cu124  1  0.12541199  0.37523500  0.64054323  1
  Cu2+  Cu125  1  0.12545890  0.12487361  0.65506116  1
  Cu2+  Cu126  1  0.62461894  0.12535925  0.14914777  1
  Cu2+  Cu127  1  0.37458510  0.62451792  0.64183935  1
  O2-  O128  1  0.12336672  0.12549891  -0.00276721  1
  O2-  O129  1  0.12626876  0.12208063  0.49518639  1
  O2-  O130  1  0.12286559  0.37717299  0.01946247  1
  O2-  O131  1  0.12518293  0.37420599  0.50764407  1
  O2-  O132  1  0.12615859  0.62441065  -0.00404161  1
  O2-  O133  1  0.12410044  0.62671108  0.51825949  1
  O2-  O134  1  0.12384238  0.87311319  0.00572047  1
  O2-  O135  1  0.12507894  0.87647836  0.49381497  1
  O2-  O136  1  0.37602018  0.12586047  0.00616304  1
  O2-  O137  1  0.37323703  0.12469501  0.52086574  1
  O2-  O138  1  0.37365217  0.37682986  -0.00350711  1
  O2-  O139  1  0.37601987  0.37105612  0.49588903  1
  O2-  O140  1  0.37541388  0.62271085  -0.00570358  1
  O2-  O141  1  0.37411094  0.62490380  0.50723995  1
  O2-  O142  1  0.37701258  0.87267923  0.01579459  1
  O2-  O143  1  0.37232730  0.87881115  0.49573450  1
  O2-  O144  1  0.62663238  0.12442953  -0.00319168  1
  O2-  O145  1  0.62382184  0.12540582  0.49590111  1
  O2-  O146  1  0.62561497  0.37707291  0.00699799  1
  O2-  O147  1  0.62467743  0.37313960  0.49854858  1
  O2-  O148  1  0.62612483  0.62489455  0.01961184  1
  O2-  O149  1  0.62556482  0.62555346  0.50869998  1
  O2-  O150  1  0.62618957  0.87310188  0.00766939  1
  O2-  O151  1  0.62459681  0.87615040  0.50661405  1
  O2-  O152  1  0.87356388  0.12415147  -0.00391355  1
  O2-  O153  1  0.87639965  0.12597744  0.51869723  1
  O2-  O154  1  0.87532958  0.37871582  0.01872400  1
  O2-  O155  1  0.87439067  0.37165947  0.49855857  1
  O2-  O156  1  0.87302767  0.62157422  0.01854998  1
  O2-  O157  1  0.87598432  0.62672889  0.49919185  1
  O2-  O158  1  0.87470092  0.87576359  -0.00405903  1
  O2-  O159  1  0.87750897  0.87670447  0.49543549  1
  O2-  O160  1  0.12500106  -0.00141046  0.15811659  1
  O2-  O161  1  0.12573903  -0.00133417  0.66652926  1
  O2-  O162  1  0.12540621  0.25072229  0.16523532  1
  O2-  O163  1  0.12537624  0.24905431  0.66562097  1
  O2-  O164  1  0.12569977  0.49970732  0.17155532  1
  O2-  O165  1  0.12453901  0.50171083  0.66484376  1
  O2-  O166  1  0.12552084  0.75087524  0.16227890  1
  O2-  O167  1  0.12474501  0.74984187  0.66753470  1
  O2-  O168  1  0.37529111  0.00102786  0.16074504  1
  O2-  O169  1  0.37496493  0.00076989  0.67017657  1
  O2-  O170  1  0.37516181  0.24888121  0.16004382  1
  O2-  O171  1  0.37510799  0.25010185  0.66830973  1
  O2-  O172  1  0.37491984  0.50041634  0.16624502  1
  O2-  O173  1  0.37534920  0.49729209  0.66103440  1
  O2-  O174  1  0.37398243  0.74989037  0.16791490  1
  O2-  O175  1  0.37524332  0.75201211  0.66410640  1
  O2-  O176  1  0.62487160  0.00072359  0.16426085  1
  O2-  O177  1  0.62412531  -0.00192374  0.66222551  1
  O2-  O178  1  0.62497259  0.24985963  0.16166980  1
  O2-  O179  1  0.62471108  0.25035895  0.66505141  1
  O2-  O180  1  0.62425406  0.50250941  0.17272988  1
  O2-  O181  1  0.62516212  0.50152913  0.66125459  1
  O2-  O182  1  0.62482480  0.74736905  0.17270860  1
  O2-  O183  1  0.62572922  0.75069120  0.66127093  1
  O2-  O184  1  0.87476826  0.00036328  0.16194527  1
  O2-  O185  1  0.87562236  0.00091030  0.66508845  1
  O2-  O186  1  0.87482662  0.25119806  0.16367720  1
  O2-  O187  1  0.87494610  0.24905412  0.66879579  1
  O2-  O188  1  0.87541040  0.50026183  0.17500447  1
  O2-  O189  1  0.87494658  0.49855192  0.66296544  1
  O2-  O190  1  0.87523429  0.74849954  0.16572123  1
  O2-  O191  1  0.87448426  0.75153444  0.66431253  1
  O2-  O192  1  -0.00010193  0.12533416  0.16366541  1
  O2-  O193  1  0.00093187  0.12434476  0.66548354  1
  O2-  O194  1  -0.00041684  0.37493271  0.17109454  1
  O2-  O195  1  -0.00095516  0.37444483  0.66591745  1
  O2-  O196  1  -0.00074372  0.62527244  0.16670513  1
  O2-  O197  1  -0.00004462  0.62607076  0.66726533  1
  O2-  O198  1  0.00173111  0.87449374  0.16010819  1
  O2-  O199  1  -0.00020785  0.87507216  0.66518217  1
  O2-  O200  1  0.25239802  0.12505818  0.16013435  1
  O2-  O201  1  0.24976840  0.12405133  0.67022689  1
  O2-  O202  1  0.24922265  0.37534578  0.16581542  1
  O2-  O203  1  0.25180367  0.37409557  0.66432355  1
  O2-  O204  1  0.25039311  0.62451081  0.16434969  1
  O2-  O205  1  0.24896221  0.62588766  0.66600028  1
  O2-  O206  1  0.24907787  0.87545971  0.15968593  1
  O2-  O207  1  0.25051280  0.87562105  0.66713345  1
  O2-  O208  1  0.49840572  0.12518700  0.16238396  1
  O2-  O209  1  0.50004043  0.12508571  0.66718243  1
  O2-  O210  1  0.49861152  0.37593788  0.16308580  1
  O2-  O211  1  0.49943211  0.37426932  0.66418147  1
  O2-  O212  1  0.49989677  0.62496632  0.16860461  1
  O2-  O213  1  0.50260433  0.62560754  0.66239607  1
  O2-  O214  1  0.49766999  0.87447981  0.16962925  1
  O2-  O215  1  0.50199897  0.87513232  0.66259017  1
  O2-  O216  1  0.74924916  0.12482496  0.16526856  1
  O2-  O217  1  0.74949145  0.12453749  0.66286825  1
  O2-  O218  1  0.75185403  0.37557222  0.16880660  1
  O2-  O219  1  0.75011712  0.37468123  0.66430672  1
  O2-  O220  1  0.75049353  0.62520220  0.17307380  1
  O2-  O221  1  0.74876484  0.62524858  0.66267114  1
  O2-  O222  1  0.75166902  0.87482965  0.16852622  1
  O2-  O223  1  0.74791335  0.87584303  0.66032277  1
  O2-  O224  1  0.12522490  0.00002380  0.33912743  1
  O2-  O225  1  0.12494572  -0.00156596  0.84971278  1
  O2-  O226  1  0.12502604  0.24725888  0.34643447  1
  O2-  O227  1  0.12556882  0.25027384  0.84889114  1
  O2-  O228  1  0.12519927  0.50161314  0.35404729  1
  O2-  O229  1  0.12474384  0.50027708  0.84577462  1
  O2-  O230  1  0.12473312  0.75100723  0.34540543  1
  O2-  O231  1  0.12450934  0.75090631  0.84863641  1
  O2-  O232  1  0.37561035  -0.00017904  0.34171450  1
  O2-  O233  1  0.37490310  0.00146430  0.85321322  1
  O2-  O234  1  0.37572705  0.24957714  0.34281328  1
  O2-  O235  1  0.37429801  0.24883775  0.84928048  1
  O2-  O236  1  0.37530153  0.49769022  0.34929498  1
  O2-  O237  1  0.37507787  0.49984695  0.84139417  1
  O2-  O238  1  0.37504331  0.75266516  0.34925808  1
  O2-  O239  1  0.37559282  0.74918504  0.84683264  1
  O2-  O240  1  0.62504591  -0.00143608  0.34762337  1
  O2-  O241  1  0.62474124  0.00196279  0.84425595  1
  O2-  O242  1  0.62477909  0.25024966  0.34346257  1
  O2-  O243  1  0.62438227  0.24812707  0.84731317  1
  O2-  O244  1  0.62554506  0.50078693  0.35279139  1
  O2-  O245  1  0.62513781  0.50098339  0.84501278  1
  O2-  O246  1  0.62528130  0.75082757  0.35434888  1
  O2-  O247  1  0.62495097  0.74888831  0.84603903  1
  O2-  O248  1  0.87415780  -0.00051929  0.34504375  1
  O2-  O249  1  0.87550058  0.00058987  0.84361092  1
  O2-  O250  1  0.87467215  0.25000742  0.34539242  1
  O2-  O251  1  0.87555239  0.24977447  0.84973167  1
  O2-  O252  1  0.87427588  0.49976577  0.35196541  1
  O2-  O253  1  0.87452841  0.49947338  0.84757419  1
  O2-  O254  1  0.87485140  0.75059837  0.34589154  1
  O2-  O255  1  0.87482124  0.75055915  0.84789735  1
  O2-  O256  1  -0.00003048  0.12396511  0.34658523  1
  O2-  O257  1  0.00008335  0.12534607  0.84571425  1
  O2-  O258  1  -0.00162529  0.37466835  0.34987830  1
  O2-  O259  1  0.00038501  0.37537945  0.84986580  1
  O2-  O260  1  -0.00127104  0.62570338  0.34793454  1
  O2-  O261  1  0.00072436  0.62467575  0.84889774  1
  O2-  O262  1  0.00009865  0.87557759  0.34147142  1
  O2-  O263  1  0.00099061  0.87474917  0.84771419  1
  O2-  O264  1  0.25016212  0.12446181  0.34291038  1
  O2-  O265  1  0.25083199  0.12387955  0.85197087  1
  O2-  O266  1  0.25129014  0.37373382  0.34778460  1
  O2-  O267  1  0.25083451  0.37493927  0.84579023  1
  O2-  O268  1  0.24855189  0.62552997  0.34945998  1
  O2-  O269  1  0.25038105  0.62565908  0.84448465  1
  O2-  O270  1  0.24962765  0.87565172  0.34039771  1
  O2-  O271  1  0.24755399  0.87500594  0.85180882  1
  O2-  O272  1  0.50086054  0.12411371  0.34503074  1
  O2-  O273  1  0.49867055  0.12425829  0.84912417  1
  O2-  O274  1  0.50111545  0.37457634  0.34433224  1
  O2-  O275  1  0.49761094  0.37497155  0.84628061  1
  O2-  O276  1  0.50404182  0.62592390  0.35110556  1
  O2-  O277  1  0.49943093  0.62561588  0.84468008  1
  O2-  O278  1  0.50147296  0.87568400  0.35067068  1
  O2-  O279  1  0.49963126  0.87479855  0.84703439  1
  O2-  O280  1  0.74916820  0.12432647  0.34828727  1
  O2-  O281  1  0.75031942  0.12510615  0.84278519  1
  O2-  O282  1  0.74949571  0.37444377  0.34733066  1
  O2-  O283  1  0.75069562  0.37520693  0.84836194  1
  O2-  O284  1  0.74888652  0.62587952  0.35161527  1
  O2-  O285  1  0.74945560  0.62525399  0.84729327  1
  O2-  O286  1  0.74870282  0.87531817  0.35068084  1
  O2-  O287  1  0.75223041  0.87462535  0.84289502  1
