# generated using pymatgen
data_BaYFeCuO5
_symmetry_space_group_name_H-M   'P 1'
_cell_length_a   15.67899652
_cell_length_b   15.67923075
_cell_length_c   15.51427428
_cell_angle_alpha   89.99857563
_cell_angle_beta   89.99246771
_cell_angle_gamma   90.00243156
_symmetry_Int_Tables_number   1
_chemical_formula_structural   BaYFeCuO5
_chemical_formula_sum   'Ba32 Y32 Fe32 Cu32 O160'
_cell_volume   3813.94544223
_cell_formula_units_Z   32
loop_
 _symmetry_equiv_pos_site_id
 _symmetry_equiv_pos_as_xyz
  1  'x, y, z'
loop_
 _atom_type_symbol
 _atom_type_oxidation_number
  Ba2+  2.0
  Y3+  3.0
  Fe3+  3.0
  Cu2+  2.0
  O2-  -2.0
loop_
 _atom_site_type_symbol
 _atom_site_label
 _atom_site_symmetry_multiplicity
 _atom_site_fract_x
 _atom_site_fract_y
 _atom_site_fract_z
 _atom_site_occupancy
  Ba2+  Ba0  1  0.00014909  0.00087174  0.01979435  1
  Ba2+  Ba1  1  0.00743603  -0.00134367  0.50656620  1
  Ba2+  Ba2  1  0.00424978  0.24402108  0.02465703  1
  Ba2+  Ba3  1  0.00353188  0.25465655  0.50177992  1
  Ba2+  Ba4  1  0.00016637  0.50012854  0.01671711  1
  Ba2+  Ba5  1  -0.00042830  0.50066795  0.49589620  1
  Ba2+  Ba6  1  -0.00424633  0.75561109  0.01108280  1
  Ba2+  Ba7  1  0.00323429  0.74630715  0.50099889  1
  Ba2+  Ba8  1  0.24439630  -0.00242240  0.01386364  1
  Ba2+  Ba9  1  0.25096643  -0.00193006  0.50712789  1
  Ba2+  Ba10  1  0.24797100  0.25546672  0.01777756  1
  Ba2+  Ba11  1  0.24444305  0.24366618  0.50779869  1
  Ba2+  Ba12  1  0.25669190  0.49447479  0.01629744  1
  Ba2+  Ba13  1  0.24400178  0.50752089  0.50743935  1
  Ba2+  Ba14  1  0.25402767  0.75429161  0.01112237  1
  Ba2+  Ba15  1  0.25085994  0.75020075  0.50673572  1
  Ba2+  Ba16  1  0.50481253  -0.00343864  0.01248786  1
  Ba2+  Ba17  1  0.49559251  -0.00456399  0.51193609  1
  Ba2+  Ba18  1  0.50015074  0.25690829  0.00410638  1
  Ba2+  Ba19  1  0.50349554  0.24600136  0.51197787  1
  Ba2+  Ba20  1  0.49687689  0.49852858  0.01051843  1
  Ba2+  Ba21  1  0.50489031  0.50556967  0.52357350  1
  Ba2+  Ba22  1  0.50110058  0.74862498  0.01660709  1
  Ba2+  Ba23  1  0.49788276  0.75122192  0.52113380  1
  Ba2+  Ba24  1  0.75060049  -0.00007597  0.01790747  1
  Ba2+  Ba25  1  0.74517191  -0.00471982  0.51173027  1
  Ba2+  Ba26  1  0.74697656  0.24380665  0.01403864  1
  Ba2+  Ba27  1  0.74930155  0.25775070  0.50802109  1
  Ba2+  Ba28  1  0.74533862  0.50472672  0.01175287  1
  Ba2+  Ba29  1  0.75266819  0.49893184  0.51245338  1
  Ba2+  Ba30  1  0.74904101  0.75071021  0.01716362  1
  Ba2+  Ba31  1  0.74874714  0.74856098  0.51768884  1
  Y3+  Y32  1  0.00335898  0.00115058  0.26084011  1
  Y3+  Y33  1  -0.00020548  -0.00066443  0.75403869  1
  Y3+  Y34  1  0.00199882  0.25033234  0.26234306  1
  Y3+  Y35  1  -0.00027076  0.24967687  0.75210420  1
  Y3+  Y36  1  0.00038524  0.50029775  0.26020336  1
  Y3+  Y37  1  -0.00022597  0.49977284  0.75478754  1
  Y3+  Y38  1  0.00147501  0.74825350  0.25882652  1
  Y3+  Y39  1  -0.00050302  0.75087605  0.75581226  1
  Y3+  Y40  1  0.24868258  -0.00126486  0.26182559  1
  Y3+  Y41  1  0.25135623  0.00015868  0.75367475  1
  Y3+  Y42  1  0.24813664  0.25137591  0.25876793  1
  Y3+  Y43  1  0.25072919  0.24925498  0.75628523  1
  Y3+  Y44  1  0.24928340  0.49962233  0.25704903  1
  Y3+  Y45  1  0.25071784  0.50078710  0.75698963  1
  Y3+  Y46  1  0.24969114  0.75051743  0.26038169  1
  Y3+  Y47  1  0.25143605  0.74976682  0.75406377  1
  Y3+  Y48  1  0.50086049  -0.00022238  0.25910279  1
  Y3+  Y49  1  0.49696772  -0.00205539  0.75514822  1
  Y3+  Y50  1  0.50001115  0.24965889  0.25576545  1
  Y3+  Y51  1  0.49889001  0.25208248  0.75879864  1
  Y3+  Y52  1  0.49824399  0.50097926  0.25238896  1
  Y3+  Y53  1  0.50008479  0.49840155  0.76002128  1
  Y3+  Y54  1  0.49944757  0.74995408  0.25614820  1
  Y3+  Y55  1  0.49803530  0.75139202  0.75559088  1
  Y3+  Y56  1  0.74760070  0.00211510  0.25794072  1
  Y3+  Y57  1  0.75145931  -0.00257687  0.75537495  1
  Y3+  Y58  1  0.75019027  0.24908992  0.26042265  1
  Y3+  Y59  1  0.75017528  0.25294405  0.75534212  1
  Y3+  Y60  1  0.75242138  0.50103105  0.25811020  1
  Y3+  Y61  1  0.74913868  0.49778250  0.75570862  1
  Y3+  Y62  1  0.74985895  0.74776272  0.25623346  1
  Y3+  Y63  1  0.75059825  0.75196583  0.75612834  1
  Fe3+  Fe64  1  0.87420483  0.12443796  0.37984413  1
  Fe3+  Fe65  1  0.37574861  0.12507408  0.37639661  1
  Fe3+  Fe66  1  0.62505713  0.62552386  0.87540006  1
  Fe3+  Fe67  1  0.62344895  0.37658582  0.37652890  1
  Fe3+  Fe68  1  0.12472662  0.87556905  0.87653625  1
  Fe3+  Fe69  1  0.87427621  0.87421864  0.37823301  1
  Fe3+  Fe70  1  0.37399643  0.12415806  0.87998845  1
  Fe3+  Fe71  1  0.62426615  0.87363628  0.37618027  1
  Fe3+  Fe72  1  0.37663382  0.62483749  0.37625414  1
  Fe3+  Fe73  1  0.87549324  0.37382446  0.88108290  1
  Fe3+  Fe74  1  0.12403554  0.37448057  0.87782477  1
  Fe3+  Fe75  1  0.62466069  0.62479069  0.37589602  1
  Fe3+  Fe76  1  0.62543692  0.12443882  0.87550267  1
  Fe3+  Fe77  1  0.62516111  0.87489287  0.87570975  1
  Fe3+  Fe78  1  0.12415281  0.12516764  0.87525764  1
  Fe3+  Fe79  1  0.37565367  0.37604741  0.38045603  1
  Fe3+  Fe80  1  0.87489698  0.62543291  0.87843307  1
  Fe3+  Fe81  1  0.87569055  0.12446873  0.87580227  1
  Fe3+  Fe82  1  0.37455879  0.62580622  0.87646205  1
  Fe3+  Fe83  1  0.12481466  0.62513070  0.88077274  1
  Fe3+  Fe84  1  0.12497714  0.87388398  0.63724197  1
  Fe3+  Fe85  1  0.37494379  0.87589517  0.13918629  1
  Fe3+  Fe86  1  0.12577839  0.62590967  0.13542630  1
  Fe3+  Fe87  1  0.87529723  0.87568081  0.14144013  1
  Fe3+  Fe88  1  0.12494363  0.37605222  0.63629996  1
  Fe3+  Fe89  1  0.37433381  0.37517380  0.63398761  1
  Fe3+  Fe90  1  0.87504678  0.37421297  0.13655139  1
  Fe3+  Fe91  1  0.62471554  0.12461427  0.63718687  1
  Fe3+  Fe92  1  0.87515316  0.12501866  0.63267610  1
  Fe3+  Fe93  1  0.37499247  0.12522044  0.13504925  1
  Fe3+  Fe94  1  0.87623753  0.62469937  0.63794162  1
  Fe3+  Fe95  1  0.62545451  0.37487417  0.13756081  1
  Cu2+  Cu96  1  0.62440072  0.12512801  0.36603385  1
  Cu2+  Cu97  1  0.12516367  0.87413919  0.36429190  1
  Cu2+  Cu98  1  0.87430074  0.37537029  0.37301849  1
  Cu2+  Cu99  1  0.12597176  0.62511571  0.37124837  1
  Cu2+  Cu100  1  0.12599212  0.12487319  0.37363502  1
  Cu2+  Cu101  1  0.37319315  0.37482316  0.87198080  1
  Cu2+  Cu102  1  0.12644890  0.37591440  0.36389759  1
  Cu2+  Cu103  1  0.87519708  0.87566550  0.86262904  1
  Cu2+  Cu104  1  0.62616198  0.37492697  0.86440485  1
  Cu2+  Cu105  1  0.37588212  0.87392609  0.37283042  1
  Cu2+  Cu106  1  0.37449403  0.87546318  0.86384574  1
  Cu2+  Cu107  1  0.87421330  0.62560671  0.36282445  1
  Cu2+  Cu108  1  0.37353871  0.87472186  0.64108165  1
  Cu2+  Cu109  1  0.62485902  0.62433758  0.15024273  1
  Cu2+  Cu110  1  0.62421529  0.37472565  0.65205304  1
  Cu2+  Cu111  1  0.87588899  0.62480288  0.15051279  1
  Cu2+  Cu112  1  0.62548806  0.62527600  0.65406240  1
  Cu2+  Cu113  1  0.12523594  0.87461129  0.15509128  1
  Cu2+  Cu114  1  0.12651175  0.12469952  0.15655987  1
  Cu2+  Cu115  1  0.62405839  0.12564297  0.15195062  1
  Cu2+  Cu116  1  0.37479376  0.62406766  0.65101699  1
  Cu2+  Cu117  1  0.87586611  0.37536048  0.64039772  1
  Cu2+  Cu118  1  0.12436524  0.62497308  0.64254857  1
  Cu2+  Cu119  1  0.12518102  0.12492230  0.64016819  1
  Cu2+  Cu120  1  0.37414029  0.62553845  0.15040194  1
  Cu2+  Cu121  1  0.37523105  0.37396464  0.14401992  1
  Cu2+  Cu122  1  0.37509391  0.12579791  0.65073540  1
  Cu2+  Cu123  1  0.87583333  0.87476962  0.64530597  1
  Cu2+  Cu124  1  0.62452892  0.87510046  0.65131691  1
  Cu2+  Cu125  1  0.62505408  0.87502555  0.15267760  1
  Cu2+  Cu126  1  0.87544395  0.12521822  0.15748181  1
  Cu2+  Cu127  1  0.12435025  0.37561618  0.15356904  1
  O2-  O128  1  0.12326758  0.12482209  -0.00496296  1
  O2-  O129  1  0.12534546  0.12440201  0.50636634  1
  O2-  O130  1  0.12306928  0.37352477  -0.00200017  1
  O2-  O131  1  0.12576333  0.37727832  0.51596998  1
  O2-  O132  1  0.12536013  0.62552241  0.00663915  1
  O2-  O133  1  0.12431818  0.62523811  0.50696375  1
  O2-  O134  1  0.12375107  0.87650197  -0.00333959  1
  O2-  O135  1  0.12547501  0.87278364  0.51662586  1
  O2-  O136  1  0.37415071  0.12462805  0.00716629  1
  O2-  O137  1  0.37638623  0.12590661  0.49652940  1
  O2-  O138  1  0.37470831  0.37376599  0.00690253  1
  O2-  O139  1  0.37602881  0.37613531  0.50639105  1
  O2-  O140  1  0.37454343  0.62574976  -0.00345470  1
  O2-  O141  1  0.37764513  0.62385079  0.49619456  1
  O2-  O142  1  0.37456224  0.87703654  0.01871998  1
  O2-  O143  1  0.37535511  0.87386871  0.50700626  1
  O2-  O144  1  0.62672440  0.12346407  -0.00439458  1
  O2-  O145  1  0.62447796  0.12512541  0.51681242  1
  O2-  O146  1  0.62685870  0.37370395  0.01725674  1
  O2-  O147  1  0.62296741  0.37750559  0.49666416  1
  O2-  O148  1  0.62522183  0.62637961  -0.00472529  1
  O2-  O149  1  0.62454120  0.62498271  0.49543781  1
  O2-  O150  1  0.62633095  0.87545585  -0.00409027  1
  O2-  O151  1  0.62414143  0.87261496  0.49624060  1
  O2-  O152  1  0.87631113  0.12427703  -0.00430747  1
  O2-  O153  1  0.87346058  0.12513242  0.50620477  1
  O2-  O154  1  0.87534483  0.37260616  0.00769258  1
  O2-  O155  1  0.87488030  0.37600169  0.50629893  1
  O2-  O156  1  0.87448869  0.62565331  -0.00160722  1
  O2-  O157  1  0.87577434  0.62453796  0.51760528  1
  O2-  O158  1  0.87520193  0.87696919  0.02050594  1
  O2-  O159  1  0.87287578  0.87372770  0.49814133  1
  O2-  O160  1  0.12511786  -0.00015046  0.16667716  1
  O2-  O161  1  0.12491017  -0.00162752  0.66347942  1
  O2-  O162  1  0.12532260  0.25012078  0.16638089  1
  O2-  O163  1  0.12586109  0.25184623  0.66367238  1
  O2-  O164  1  0.12503490  0.50195785  0.16193438  1
  O2-  O165  1  0.12557946  0.49832694  0.66931250  1
  O2-  O166  1  0.12513316  0.74855082  0.16268423  1
  O2-  O167  1  0.12494117  0.75120126  0.66864550  1
  O2-  O168  1  0.37530501  0.00157881  0.16635725  1
  O2-  O169  1  0.37504023  0.00166345  0.66454844  1
  O2-  O170  1  0.37436659  0.24690037  0.16580412  1
  O2-  O171  1  0.37514924  0.25233102  0.66342113  1
  O2-  O172  1  0.37442474  0.50105869  0.16322320  1
  O2-  O173  1  0.37534729  0.49821601  0.66343054  1
  O2-  O174  1  0.37503604  0.75093902  0.16444711  1
  O2-  O175  1  0.37482662  0.74762516  0.66452968  1
  O2-  O176  1  0.62502732  0.00111402  0.16513505  1
  O2-  O177  1  0.62430407  0.00001912  0.66387481  1
  O2-  O178  1  0.62595116  0.25069325  0.16792584  1
  O2-  O179  1  0.62482071  0.24932649  0.66579466  1
  O2-  O180  1  0.62560701  0.49937717  0.16317028  1
  O2-  O181  1  0.62481458  0.49960334  0.66556632  1
  O2-  O182  1  0.62531242  0.74895630  0.16168260  1
  O2-  O183  1  0.62523729  0.75078966  0.66344058  1
  O2-  O184  1  0.87538692  0.00047950  0.16915332  1
  O2-  O185  1  0.87478199  0.00136768  0.66058951  1
  O2-  O186  1  0.87511378  0.25068786  0.16565162  1
  O2-  O187  1  0.87385055  0.24728123  0.66328518  1
  O2-  O188  1  0.87551949  0.49807782  0.16189811  1
  O2-  O189  1  0.87444666  0.50145926  0.66974637  1
  O2-  O190  1  0.87525505  0.75064991  0.16551363  1
  O2-  O191  1  0.87438505  0.74948074  0.66684736  1
  O2-  O192  1  0.00168617  0.12515595  0.16802357  1
  O2-  O193  1  -0.00280736  0.12511553  0.66108259  1
  O2-  O194  1  -0.00184592  0.37435556  0.16451089  1
  O2-  O195  1  0.00188107  0.37486015  0.66723916  1
  O2-  O196  1  0.00246114  0.62504085  0.16384297  1
  O2-  O197  1  -0.00164099  0.62506292  0.67034931  1
  O2-  O198  1  0.00034943  0.87544370  0.16768245  1
  O2-  O199  1  0.00081398  0.87483097  0.66608249  1
  O2-  O200  1  0.25154376  0.12473698  0.16221783  1
  O2-  O201  1  0.25152411  0.12559310  0.66588801  1
  O2-  O202  1  0.24872740  0.37499817  0.16649593  1
  O2-  O203  1  0.25156311  0.37533556  0.66449397  1
  O2-  O204  1  0.24817670  0.62517945  0.16335955  1
  O2-  O205  1  0.25118542  0.62418745  0.66569687  1
  O2-  O206  1  0.25028734  0.87535365  0.16693690  1
  O2-  O207  1  0.24830628  0.87486919  0.66715842  1
  O2-  O208  1  0.49821893  0.12537179  0.16092925  1
  O2-  O209  1  0.50035123  0.12576023  0.66785034  1
  O2-  O210  1  0.50188067  0.37452837  0.16526776  1
  O2-  O211  1  0.49791139  0.37479120  0.66420677  1
  O2-  O212  1  0.49932629  0.62450340  0.16068627  1
  O2-  O213  1  0.50079920  0.62468273  0.66412688  1
  O2-  O214  1  0.50021053  0.87554146  0.16394846  1
  O2-  O215  1  0.50016933  0.87490677  0.66462529  1
  O2-  O216  1  0.74949313  0.12519527  0.16548597  1
  O2-  O217  1  0.75077527  0.12427462  0.66352596  1
  O2-  O218  1  0.75178011  0.37444227  0.16525150  1
  O2-  O219  1  0.74835756  0.37499313  0.66450126  1
  O2-  O220  1  0.75038945  0.62461619  0.16341340  1
  O2-  O221  1  0.75031283  0.62495947  0.66496192  1
  O2-  O222  1  0.74969906  0.87574016  0.16577469  1
  O2-  O223  1  0.74976090  0.87534698  0.66265124  1
  O2-  O224  1  0.12572944  -0.00166860  0.35077365  1
  O2-  O225  1  0.12499151  0.00043653  0.84361069  1
  O2-  O226  1  0.12544060  0.25187631  0.35059977  1
  O2-  O227  1  0.12411686  0.24952488  0.84319046  1
  O2-  O228  1  0.12531573  0.49927555  0.34620757  1
  O2-  O229  1  0.12412163  0.50143159  0.85041650  1
  O2-  O230  1  0.12487979  0.75051196  0.34657953  1
  O2-  O231  1  0.12408875  0.74876127  0.85034738  1
  O2-  O232  1  0.37544984  0.00100906  0.34827958  1
  O2-  O233  1  0.37440095  0.00179523  0.84862939  1
  O2-  O234  1  0.37564415  0.25229646  0.34881956  1
  O2-  O235  1  0.37490779  0.24640656  0.84786131  1
  O2-  O236  1  0.37524466  0.49859365  0.34590201  1
  O2-  O237  1  0.37419421  0.50225389  0.84619429  1
  O2-  O238  1  0.37541287  0.74800016  0.34601078  1
  O2-  O239  1  0.37442356  0.74977745  0.84703386  1
  O2-  O240  1  0.62498234  -0.00043774  0.34885980  1
  O2-  O241  1  0.62500671  -0.00006265  0.84369887  1
  O2-  O242  1  0.62413822  0.25089976  0.34985529  1
  O2-  O243  1  0.62487035  0.24941333  0.84756723  1
  O2-  O244  1  0.62477864  0.50042143  0.34262680  1
  O2-  O245  1  0.62568009  0.50029648  0.84875202  1
  O2-  O246  1  0.62532561  0.74908864  0.34289122  1
  O2-  O247  1  0.62502020  0.75029522  0.84449590  1
  O2-  O248  1  0.87446284  0.00062170  0.35074065  1
  O2-  O249  1  0.87498199  0.00058360  0.84355760  1
  O2-  O250  1  0.87498409  0.24700542  0.35020824  1
  O2-  O251  1  0.87530182  0.25104114  0.84597828  1
  O2-  O252  1  0.87527574  0.50184165  0.34646980  1
  O2-  O253  1  0.87525677  0.49850726  0.85192816  1
  O2-  O254  1  0.87519195  0.75053626  0.34696352  1
  O2-  O255  1  0.87566205  0.74986881  0.84909247  1
  O2-  O256  1  -0.00239344  0.12476730  0.35235497  1
  O2-  O257  1  -0.00026789  0.12495614  0.84128858  1
  O2-  O258  1  0.00173083  0.37565257  0.34933980  1
  O2-  O259  1  -0.00134605  0.37507536  0.84773636  1
  O2-  O260  1  -0.00114549  0.62486288  0.34871651  1
  O2-  O261  1  0.00088490  0.62470862  0.85083426  1
  O2-  O262  1  -0.00061153  0.87474105  0.35010154  1
  O2-  O263  1  0.00045789  0.87532314  0.84738630  1
  O2-  O264  1  0.25245654  0.12591341  0.34577287  1
  O2-  O265  1  0.25024165  0.12494571  0.84844519  1
  O2-  O266  1  0.25256687  0.37551929  0.35053286  1
  O2-  O267  1  0.24659929  0.37485898  0.84557384  1
  O2-  O268  1  0.25247850  0.62414241  0.34676351  1
  O2-  O269  1  0.24795134  0.62554289  0.84833997  1
  O2-  O270  1  0.24885272  0.87423427  0.35002679  1
  O2-  O271  1  0.24929943  0.87481600  0.84880298  1
  O2-  O272  1  0.49906319  0.12581880  0.34390577  1
  O2-  O273  1  0.49883949  0.12496082  0.85071944  1
  O2-  O274  1  0.49849377  0.37507671  0.34589247  1
  O2-  O275  1  0.50086796  0.37472652  0.84914685  1
  O2-  O276  1  0.50038640  0.62438967  0.34168977  1
  O2-  O277  1  0.50004609  0.62482283  0.84589966  1
  O2-  O278  1  0.50219076  0.87478281  0.34444063  1
  O2-  O279  1  0.49988802  0.87565864  0.84762033  1
  O2-  O280  1  0.75108068  0.12522395  0.34994339  1
  O2-  O281  1  0.75047512  0.12553989  0.84402164  1
  O2-  O282  1  0.74735587  0.37496225  0.34675327  1
  O2-  O283  1  0.75298273  0.37435726  0.84879787  1
  O2-  O284  1  0.74918698  0.62466721  0.34640087  1
  O2-  O285  1  0.75046681  0.62476505  0.84553174  1
  O2-  O286  1  0.74955099  0.87505668  0.34580496  1
  O2-  O287  1  0.74988576  0.87526711  0.84581255  1
