# generated using pymatgen
data_BaYFeCuO5
_symmetry_space_group_name_H-M   'P 1'
_cell_length_a   15.67523850
_cell_length_b   15.66940592
_cell_length_c   15.49006958
_cell_angle_alpha   89.99824634
_cell_angle_beta   89.99194651
_cell_angle_gamma   89.99514641
_symmetry_Int_Tables_number   1
_chemical_formula_structural   BaYFeCuO5
_chemical_formula_sum   'Ba32 Y32 Fe32 Cu32 O160'
_cell_volume   3804.69678290
_cell_formula_units_Z   32
loop_
 _symmetry_equiv_pos_site_id
 _symmetry_equiv_pos_as_xyz
  1  'x, y, z'
loop_
 _atom_type_symbol
 _atom_type_oxidation_number
  Ba2+  2.0
  Y3+  3.0
  Fe3+  3.0
  Cu2+  2.0
  O2-  -2.0
loop_
 _atom_site_type_symbol
 _atom_site_label
 _atom_site_symmetry_multiplicity
 _atom_site_fract_x
 _atom_site_fract_y
 _atom_site_fract_z
 _atom_site_occupancy
  Ba2+  Ba0  1  0.00273091  0.00022640  0.01192057  1
  Ba2+  Ba1  1  0.00249663  0.00252121  0.51195303  1
  Ba2+  Ba2  1  0.00095546  0.24844182  0.02933077  1
  Ba2+  Ba3  1  0.00250565  0.25263536  0.50955901  1
  Ba2+  Ba4  1  0.00421435  0.49351279  0.01185514  1
  Ba2+  Ba5  1  -0.00072407  0.49659667  0.51570816  1
  Ba2+  Ba6  1  0.00479759  0.75659914  -0.00202529  1
  Ba2+  Ba7  1  -0.00020525  0.74890832  0.51928399  1
  Ba2+  Ba8  1  0.24204459  0.00464562  0.01748939  1
  Ba2+  Ba9  1  0.24684287  0.00099819  0.51152912  1
  Ba2+  Ba10  1  0.24984649  0.25106478  0.02489555  1
  Ba2+  Ba11  1  0.24095849  0.24664636  0.50307980  1
  Ba2+  Ba12  1  0.24795890  0.49094920  0.00584626  1
  Ba2+  Ba13  1  0.24293853  0.50268465  0.50785710  1
  Ba2+  Ba14  1  0.23979894  0.75217861  0.00231986  1
  Ba2+  Ba15  1  0.24985633  0.75147079  0.52090919  1
  Ba2+  Ba16  1  0.49904260  0.00355352  0.01676545  1
  Ba2+  Ba17  1  0.49772075  -0.01008550  0.50779692  1
  Ba2+  Ba18  1  0.49267812  0.25501750  0.01721090  1
  Ba2+  Ba19  1  0.49933886  0.25025384  0.50629912  1
  Ba2+  Ba20  1  0.49688036  0.48784332  0.01098190  1
  Ba2+  Ba21  1  0.50590091  0.50891606  0.50645832  1
  Ba2+  Ba22  1  0.50314090  0.75407843  0.01131447  1
  Ba2+  Ba23  1  0.50523232  0.74940994  0.50655113  1
  Ba2+  Ba24  1  0.75713741  -0.00062975  0.01124741  1
  Ba2+  Ba25  1  0.75193025  -0.00866257  0.50546776  1
  Ba2+  Ba26  1  0.75612312  0.25270436  0.02321440  1
  Ba2+  Ba27  1  0.75762188  0.25604350  0.51354066  1
  Ba2+  Ba28  1  0.75123672  0.48943478  0.01691695  1
  Ba2+  Ba29  1  0.75126705  0.50241915  0.51760501  1
  Ba2+  Ba30  1  0.75216939  0.75841082  0.00677718  1
  Ba2+  Ba31  1  0.74539928  0.74853133  0.50722231  1
  Y3+  Y32  1  0.00163160  0.00095801  0.25813656  1
  Y3+  Y33  1  0.00140612  0.00012681  0.75633405  1
  Y3+  Y34  1  0.00155555  0.25099079  0.26462850  1
  Y3+  Y35  1  0.00033002  0.24951319  0.74686908  1
  Y3+  Y36  1  0.00027986  0.49652342  0.26068109  1
  Y3+  Y37  1  0.00133798  0.50007770  0.75365500  1
  Y3+  Y38  1  0.00000160  0.75155217  0.25591091  1
  Y3+  Y39  1  0.00220053  0.75055249  0.76045878  1
  Y3+  Y40  1  0.24813571  0.00296994  0.25857524  1
  Y3+  Y41  1  0.24687852  -0.00044240  0.75571600  1
  Y3+  Y42  1  0.24847503  0.24891310  0.26214120  1
  Y3+  Y43  1  0.24866033  0.25077919  0.75268305  1
  Y3+  Y44  1  0.24983937  0.49807996  0.25823835  1
  Y3+  Y45  1  0.24820454  0.49899683  0.75832875  1
  Y3+  Y46  1  0.24893689  0.75026523  0.25465332  1
  Y3+  Y47  1  0.24652337  0.75102657  0.76060681  1
  Y3+  Y48  1  0.49962766  -0.00048733  0.25919220  1
  Y3+  Y49  1  0.50046290  -0.00117950  0.75487074  1
  Y3+  Y50  1  0.49683371  0.25037339  0.25741840  1
  Y3+  Y51  1  0.49960289  0.25196454  0.75621284  1
  Y3+  Y52  1  0.49945090  0.50060349  0.25796034  1
  Y3+  Y53  1  0.50076667  0.49859838  0.75715561  1
  Y3+  Y54  1  0.50271778  0.74947772  0.25943478  1
  Y3+  Y55  1  0.50189735  0.75062895  0.75525700  1
  Y3+  Y56  1  0.74964367  -0.00249120  0.25867484  1
  Y3+  Y57  1  0.75135409  -0.00004702  0.75521664  1
  Y3+  Y58  1  0.75259313  0.25182530  0.25983627  1
  Y3+  Y59  1  0.75199908  0.25113266  0.75079970  1
  Y3+  Y60  1  0.75047429  0.49924996  0.25990698  1
  Y3+  Y61  1  0.75048168  0.49969119  0.75346694  1
  Y3+  Y62  1  0.74812066  0.75147424  0.26016321  1
  Y3+  Y63  1  0.74961325  0.74956226  0.75559292  1
  Fe3+  Fe64  1  0.87648961  0.37299217  0.87383176  1
  Fe3+  Fe65  1  0.12425503  0.12755839  0.87493024  1
  Fe3+  Fe66  1  0.37453597  0.37632529  0.38018989  1
  Fe3+  Fe67  1  0.62534345  0.87714401  0.87722134  1
  Fe3+  Fe68  1  0.12362575  0.37157914  0.87402097  1
  Fe3+  Fe69  1  0.62478521  0.12468178  0.37896872  1
  Fe3+  Fe70  1  0.87469541  0.12394007  0.37802964  1
  Fe3+  Fe71  1  0.37389923  0.12621732  0.87732548  1
  Fe3+  Fe72  1  0.62598181  0.12680642  0.87991595  1
  Fe3+  Fe73  1  0.87581796  0.62564918  0.37696418  1
  Fe3+  Fe74  1  0.37308591  0.87353010  0.37476854  1
  Fe3+  Fe75  1  0.62543722  0.37567170  0.37754446  1
  Fe3+  Fe76  1  0.62555847  0.62376833  0.88095477  1
  Fe3+  Fe77  1  0.62653225  0.37267052  0.87566123  1
  Fe3+  Fe78  1  0.37466095  0.87694278  0.87982863  1
  Fe3+  Fe79  1  0.87502833  0.62377506  0.88005457  1
  Fe3+  Fe80  1  0.12489049  0.62648277  0.37687775  1
  Fe3+  Fe81  1  0.37521806  0.62419048  0.88118101  1
  Fe3+  Fe82  1  0.87606717  0.12684378  0.87528987  1
  Fe3+  Fe83  1  0.12430403  0.87393871  0.37711143  1
  Fe3+  Fe84  1  0.12417408  0.62424163  0.13560159  1
  Fe3+  Fe85  1  0.37480706  0.37609416  0.63361552  1
  Fe3+  Fe86  1  0.37522561  0.12419180  0.63483223  1
  Fe3+  Fe87  1  0.62563997  0.62400055  0.13412662  1
  Fe3+  Fe88  1  0.87528133  0.87433412  0.63932950  1
  Fe3+  Fe89  1  0.87546924  0.62451274  0.13360482  1
  Fe3+  Fe90  1  0.37425834  0.62453270  0.13384892  1
  Fe3+  Fe91  1  0.62550422  0.12438088  0.63285381  1
  Fe3+  Fe92  1  0.87584186  0.87485675  0.13928260  1
  Fe3+  Fe93  1  0.37413159  0.87521197  0.13462337  1
  Fe3+  Fe94  1  0.62578806  0.12585092  0.13628913  1
  Fe3+  Fe95  1  0.37495142  0.62558252  0.64016931  1
  Cu2+  Cu96  1  0.12440842  0.62324137  0.86617877  1
  Cu2+  Cu97  1  0.37525573  0.12422797  0.36804824  1
  Cu2+  Cu98  1  0.37391274  0.37301159  0.87080503  1
  Cu2+  Cu99  1  0.62467235  0.87487756  0.37148323  1
  Cu2+  Cu100  1  0.12509329  0.87794583  0.87197797  1
  Cu2+  Cu101  1  0.12437799  0.12365150  0.37277881  1
  Cu2+  Cu102  1  0.87479906  0.87596840  0.86247411  1
  Cu2+  Cu103  1  0.37398278  0.62593203  0.36224710  1
  Cu2+  Cu104  1  0.62583421  0.62453294  0.37084124  1
  Cu2+  Cu105  1  0.87492870  0.37623702  0.37389561  1
  Cu2+  Cu106  1  0.12497720  0.37614213  0.37349215  1
  Cu2+  Cu107  1  0.87597397  0.87415776  0.36437895  1
  Cu2+  Cu108  1  0.12457507  0.87477301  0.14218050  1
  Cu2+  Cu109  1  0.37461932  0.87442782  0.65443567  1
  Cu2+  Cu110  1  0.37456994  0.12475992  0.15346538  1
  Cu2+  Cu111  1  0.12436251  0.12568191  0.15676746  1
  Cu2+  Cu112  1  0.12560854  0.62545432  0.65387589  1
  Cu2+  Cu113  1  0.12520829  0.12443807  0.63966446  1
  Cu2+  Cu114  1  0.12509753  0.37511038  0.15730225  1
  Cu2+  Cu115  1  0.87568603  0.62610096  0.65329812  1
  Cu2+  Cu116  1  0.62539089  0.87476122  0.64242265  1
  Cu2+  Cu117  1  0.12668374  0.37556288  0.63966921  1
  Cu2+  Cu118  1  0.87511861  0.12464538  0.15579392  1
  Cu2+  Cu119  1  0.37378089  0.37553843  0.14769899  1
  Cu2+  Cu120  1  0.62471571  0.62532583  0.64516034  1
  Cu2+  Cu121  1  0.87476039  0.12365349  0.64438409  1
  Cu2+  Cu122  1  0.87578419  0.37608606  0.64022067  1
  Cu2+  Cu123  1  0.12476648  0.87483193  0.65224838  1
  Cu2+  Cu124  1  0.87601283  0.37541498  0.15646798  1
  Cu2+  Cu125  1  0.62462372  0.37465111  0.15400164  1
  Cu2+  Cu126  1  0.62490026  0.87530256  0.15055902  1
  Cu2+  Cu127  1  0.62384439  0.37517240  0.64545180  1
  O2-  O128  1  0.12389661  0.12908886  -0.00474944  1
  O2-  O129  1  0.12471462  0.12261208  0.50619216  1
  O2-  O130  1  0.12334528  0.37023110  -0.00536550  1
  O2-  O131  1  0.12649743  0.37699264  0.50652686  1
  O2-  O132  1  0.12392661  0.62305543  0.01544309  1
  O2-  O133  1  0.12498164  0.62842133  0.49692873  1
  O2-  O134  1  0.12487799  0.87752449  0.00674948  1
  O2-  O135  1  0.12576953  0.87254252  0.49709879  1
  O2-  O136  1  0.37368468  0.12683380  -0.00247610  1
  O2-  O137  1  0.37757415  0.12260015  0.51469678  1
  O2-  O138  1  0.37343183  0.37338307  0.00665942  1
  O2-  O139  1  0.37531961  0.37751190  0.50696308  1
  O2-  O140  1  0.37530811  0.62282354  0.00789378  1
  O2-  O141  1  0.37505601  0.62704411  0.52003853  1
  O2-  O142  1  0.37520844  0.87826188  0.00623347  1
  O2-  O143  1  0.37307871  0.87181651  0.49492113  1
  O2-  O144  1  0.62637143  0.12709688  0.00615187  1
  O2-  O145  1  0.62474985  0.12384837  0.50564314  1
  O2-  O146  1  0.62678205  0.37056128  -0.00412825  1
  O2-  O147  1  0.62410341  0.37664065  0.49780854  1
  O2-  O148  1  0.62559055  0.62366918  0.00689761  1
  O2-  O149  1  0.62565203  0.62528760  0.50675600  1
  O2-  O150  1  0.62469057  0.87883362  -0.00252751  1
  O2-  O151  1  0.62468458  0.87418077  0.50691103  1
  O2-  O152  1  0.87622681  0.12829704  -0.00469643  1
  O2-  O153  1  0.87263594  0.12270912  0.49823062  1
  O2-  O154  1  0.87674644  0.37185840  -0.00591973  1
  O2-  O155  1  0.87469876  0.37759879  0.50661806  1
  O2-  O156  1  0.87493446  0.62354288  0.00696857  1
  O2-  O157  1  0.87559818  0.62614643  0.49710866  1
  O2-  O158  1  0.87571138  0.87605864  0.01835770  1
  O2-  O159  1  0.87521480  0.87246282  0.51877161  1
  O2-  O160  1  0.12474888  0.00149670  0.16462029  1
  O2-  O161  1  0.12509375  -0.00148045  0.66428595  1
  O2-  O162  1  0.12546025  0.25055309  0.16889275  1
  O2-  O163  1  0.12628826  0.24978549  0.65777350  1
  O2-  O164  1  0.12497241  0.50027418  0.16572970  1
  O2-  O165  1  0.12635292  0.50165228  0.66587563  1
  O2-  O166  1  0.12516551  0.74765802  0.16345287  1
  O2-  O167  1  0.12560641  0.75022982  0.66897217  1
  O2-  O168  1  0.37618026  -0.00129407  0.16265963  1
  O2-  O169  1  0.37637287  -0.00078610  0.66477099  1
  O2-  O170  1  0.37431956  0.24882966  0.16931998  1
  O2-  O171  1  0.37633521  0.25112200  0.65927466  1
  O2-  O172  1  0.37569874  0.50332414  0.16570012  1
  O2-  O173  1  0.37560315  0.49932893  0.66775067  1
  O2-  O174  1  0.37552892  0.74945412  0.15718035  1
  O2-  O175  1  0.37436577  0.75025514  0.67300863  1
  O2-  O176  1  0.62415043  0.00254355  0.16392198  1
  O2-  O177  1  0.62432643  0.00283719  0.66349922  1
  O2-  O178  1  0.62542253  0.24879364  0.16546699  1
  O2-  O179  1  0.62437211  0.24792781  0.65833967  1
  O2-  O180  1  0.62393719  0.50098301  0.16121223  1
  O2-  O181  1  0.62417934  0.49918609  0.66732775  1
  O2-  O182  1  0.62562649  0.74733038  0.16174668  1
  O2-  O183  1  0.62499244  0.74988812  0.66920896  1
  O2-  O184  1  0.87437277  -0.00028280  0.16609082  1
  O2-  O185  1  0.87479547  -0.00100231  0.66629490  1
  O2-  O186  1  0.87413235  0.25017415  0.16697710  1
  O2-  O187  1  0.87401292  0.24849708  0.65772868  1
  O2-  O188  1  0.87509818  0.50118356  0.16134067  1
  O2-  O189  1  0.87507213  0.50256706  0.66622064  1
  O2-  O190  1  0.87323457  0.74805350  0.16347274  1
  O2-  O191  1  0.87561866  0.75025310  0.67157154  1
  O2-  O192  1  -0.00035562  0.12550076  0.16633045  1
  O2-  O193  1  -0.00106602  0.12407448  0.66059611  1
  O2-  O194  1  0.00047906  0.37487601  0.16693226  1
  O2-  O195  1  0.00096112  0.37616487  0.66115840  1
  O2-  O196  1  -0.00164404  0.62448480  0.16340570  1
  O2-  O197  1  0.00114472  0.62596621  0.66523879  1
  O2-  O198  1  -0.00148660  0.87468480  0.16735828  1
  O2-  O199  1  0.00009983  0.87381950  0.66639787  1
  O2-  O200  1  0.24936096  0.12508538  0.16591056  1
  O2-  O201  1  0.25273595  0.12377240  0.66428982  1
  O2-  O202  1  0.24888163  0.37554541  0.16817350  1
  O2-  O203  1  0.25386941  0.37600850  0.66335384  1
  O2-  O204  1  0.25086327  0.62472455  0.16350014  1
  O2-  O205  1  0.25071683  0.62582820  0.66935946  1
  O2-  O206  1  0.25271774  0.87505585  0.16152429  1
  O2-  O207  1  0.24919631  0.87438676  0.66595684  1
  O2-  O208  1  0.50185774  0.12604617  0.16308073  1
  O2-  O209  1  0.50088091  0.12500226  0.66702290  1
  O2-  O210  1  0.50000114  0.37425138  0.16592533  1
  O2-  O211  1  0.49760857  0.37521531  0.66410020  1
  O2-  O212  1  0.50038728  0.62538621  0.16140849  1
  O2-  O213  1  0.49829010  0.62542317  0.67082765  1
  O2-  O214  1  0.49855788  0.87437886  0.16166045  1
  O2-  O215  1  0.49924529  0.87443180  0.66653303  1
  O2-  O216  1  0.74867945  0.12490602  0.16303813  1
  O2-  O217  1  0.74792845  0.12457375  0.66363341  1
  O2-  O218  1  0.75027213  0.37541304  0.16344601  1
  O2-  O219  1  0.74864978  0.37581862  0.66256646  1
  O2-  O220  1  0.74999395  0.62300081  0.15981384  1
  O2-  O221  1  0.75104034  0.62516320  0.66744933  1
  O2-  O222  1  0.75010527  0.87546222  0.16623564  1
  O2-  O223  1  0.75155239  0.87473056  0.66796417  1
  O2-  O224  1  0.12528767  -0.00256155  0.34730451  1
  O2-  O225  1  0.12501904  0.00345734  0.84633977  1
  O2-  O226  1  0.12510502  0.24982168  0.35314488  1
  O2-  O227  1  0.12433173  0.24946358  0.83681604  1
  O2-  O228  1  0.12588842  0.50271992  0.34738790  1
  O2-  O229  1  0.12484873  0.49817370  0.84899393  1
  O2-  O230  1  0.12493454  0.75028209  0.34173685  1
  O2-  O231  1  0.12507988  0.74921579  0.85380669  1
  O2-  O232  1  0.37502162  -0.00139256  0.34625661  1
  O2-  O233  1  0.37647036  0.00004882  0.84723356  1
  O2-  O234  1  0.37619034  0.25183300  0.35408905  1
  O2-  O235  1  0.37609072  0.24748626  0.84015873  1
  O2-  O236  1  0.37525380  0.49945613  0.35006866  1
  O2-  O237  1  0.37551117  0.50247611  0.85125771  1
  O2-  O238  1  0.37511916  0.75037619  0.34014903  1
  O2-  O239  1  0.37611778  0.75039444  0.85783048  1
  O2-  O240  1  0.62470619  0.00236573  0.34887510  1
  O2-  O241  1  0.62500427  0.00236595  0.84664602  1
  O2-  O242  1  0.62356261  0.24903202  0.34962775  1
  O2-  O243  1  0.62561074  0.24829891  0.84137356  1
  O2-  O244  1  0.62415116  0.49830693  0.34428125  1
  O2-  O245  1  0.62537075  0.50072134  0.85030996  1
  O2-  O246  1  0.62449424  0.74999638  0.34676112  1
  O2-  O247  1  0.62470252  0.74901086  0.85304189  1
  O2-  O248  1  0.87344154  -0.00073600  0.34828424  1
  O2-  O249  1  0.87366302  0.00116749  0.84807482  1
  O2-  O250  1  0.87419501  0.24823381  0.35024550  1
  O2-  O251  1  0.87432805  0.25010399  0.83772807  1
  O2-  O252  1  0.87481911  0.50230796  0.34445722  1
  O2-  O253  1  0.87428563  0.50024630  0.84914173  1
  O2-  O254  1  0.87502325  0.74995719  0.34480816  1
  O2-  O255  1  0.87420861  0.74866518  0.85560366  1
  O2-  O256  1  -0.00205899  0.12363606  0.34907238  1
  O2-  O257  1  -0.00032180  0.12519400  0.84174094  1
  O2-  O258  1  0.00022299  0.37582849  0.35079262  1
  O2-  O259  1  -0.00036378  0.37528488  0.84105964  1
  O2-  O260  1  0.00048934  0.62580494  0.34384480  1
  O2-  O261  1  -0.00245166  0.62480879  0.85037516  1
  O2-  O262  1  0.00060281  0.87440153  0.34797924  1
  O2-  O263  1  -0.00144102  0.87553242  0.84938152  1
  O2-  O264  1  0.25091013  0.12464850  0.35035828  1
  O2-  O265  1  0.24966567  0.12527425  0.84407228  1
  O2-  O266  1  0.25304040  0.37565124  0.35144645  1
  O2-  O267  1  0.24738719  0.37445123  0.84466435  1
  O2-  O268  1  0.24908558  0.62582540  0.34550402  1
  O2-  O269  1  0.25187680  0.62522056  0.85274762  1
  O2-  O270  1  0.24911698  0.87428992  0.34215018  1
  O2-  O271  1  0.25349381  0.87537167  0.84992928  1
  O2-  O272  1  0.50182137  0.12455818  0.34845450  1
  O2-  O273  1  0.50209171  0.12528663  0.85022799  1
  O2-  O274  1  0.49849713  0.37548768  0.34885202  1
  O2-  O275  1  0.50285555  0.37454700  0.84671030  1
  O2-  O276  1  0.49835468  0.62512147  0.34674419  1
  O2-  O277  1  0.50103907  0.62495236  0.85329960  1
  O2-  O278  1  0.49785445  0.87485420  0.34535917  1
  O2-  O279  1  0.49950249  0.87554758  0.84906634  1
  O2-  O280  1  0.74821376  0.12481407  0.34670213  1
  O2-  O281  1  0.74888954  0.12510851  0.84733512  1
  O2-  O282  1  0.74810298  0.37482275  0.34642440  1
  O2-  O283  1  0.75043750  0.37477268  0.84323778  1
  O2-  O284  1  0.75211618  0.62566555  0.34344039  1
  O2-  O285  1  0.74952023  0.62526121  0.85169581  1
  O2-  O286  1  0.75135783  0.87450854  0.34952459  1
  O2-  O287  1  0.74874558  0.87542272  0.84921126  1
