# generated using pymatgen
data_BaYFeCuO5
_symmetry_space_group_name_H-M   'P 1'
_cell_length_a   15.67099765
_cell_length_b   15.67788007
_cell_length_c   15.50323152
_cell_angle_alpha   89.99521097
_cell_angle_beta   90.00038799
_cell_angle_gamma   89.99961497
_symmetry_Int_Tables_number   1
_chemical_formula_structural   BaYFeCuO5
_chemical_formula_sum   'Ba32 Y32 Fe32 Cu32 O160'
_cell_volume   3808.95827222
_cell_formula_units_Z   32
loop_
 _symmetry_equiv_pos_site_id
 _symmetry_equiv_pos_as_xyz
  1  'x, y, z'
loop_
 _atom_type_symbol
 _atom_type_oxidation_number
  Ba2+  2.0
  Y3+  3.0
  Fe3+  3.0
  Cu2+  2.0
  O2-  -2.0
loop_
 _atom_site_type_symbol
 _atom_site_label
 _atom_site_symmetry_multiplicity
 _atom_site_fract_x
 _atom_site_fract_y
 _atom_site_fract_z
 _atom_site_occupancy
  Ba2+  Ba0  1  0.00071761  0.00061906  0.02834345  1
  Ba2+  Ba1  1  0.00115884  -0.00701556  0.49763775  1
  Ba2+  Ba2  1  -0.00051312  0.25023704  0.02837997  1
  Ba2+  Ba3  1  0.00646718  0.25667808  0.50598042  1
  Ba2+  Ba4  1  -0.00115159  0.49926905  0.02863527  1
  Ba2+  Ba5  1  0.00044136  0.50082413  0.50600149  1
  Ba2+  Ba6  1  0.00021295  0.75005188  0.02882987  1
  Ba2+  Ba7  1  -0.00427078  0.74836286  0.49926477  1
  Ba2+  Ba8  1  0.24157457  0.00404347  0.02302847  1
  Ba2+  Ba9  1  0.24966651  0.00687826  0.49666642  1
  Ba2+  Ba10  1  0.24287138  0.24696220  0.02272767  1
  Ba2+  Ba11  1  0.25218370  0.25099491  0.50680831  1
  Ba2+  Ba12  1  0.24601778  0.50512588  0.01647245  1
  Ba2+  Ba13  1  0.24819411  0.49616804  0.51254486  1
  Ba2+  Ba14  1  0.24506840  0.74378695  0.01622612  1
  Ba2+  Ba15  1  0.24506702  0.74609969  0.49981285  1
  Ba2+  Ba16  1  0.49541149  0.00416317  0.01140253  1
  Ba2+  Ba17  1  0.50292636  0.01026438  0.51188088  1
  Ba2+  Ba18  1  0.50105583  0.25236376  0.00562642  1
  Ba2+  Ba19  1  0.50118581  0.24834442  0.51225120  1
  Ba2+  Ba20  1  0.50254654  0.50488077  -0.00392591  1
  Ba2+  Ba21  1  0.49780653  0.49274614  0.51823157  1
  Ba2+  Ba22  1  0.49817652  0.73983556  0.00199515  1
  Ba2+  Ba23  1  0.50024654  0.74997209  0.51928071  1
  Ba2+  Ba24  1  0.76244559  0.00037040  0.01807984  1
  Ba2+  Ba25  1  0.74526756  -0.00382337  0.51300974  1
  Ba2+  Ba26  1  0.75772575  0.25527370  0.01286256  1
  Ba2+  Ba27  1  0.74047157  0.25360308  0.51099828  1
  Ba2+  Ba28  1  0.75204555  0.49936553  0.00409055  1
  Ba2+  Ba29  1  0.75363784  0.49617245  0.51220313  1
  Ba2+  Ba30  1  0.75755840  0.74463299  0.01262283  1
  Ba2+  Ba31  1  0.75848650  0.75246037  0.51096545  1
  Y3+  Y32  1  0.00050586  -0.00179373  0.26150996  1
  Y3+  Y33  1  -0.00130672  -0.00126341  0.75242621  1
  Y3+  Y34  1  0.00192754  0.25082469  0.26152203  1
  Y3+  Y35  1  0.00052226  0.25244399  0.75081276  1
  Y3+  Y36  1  0.00093792  0.50109769  0.26302175  1
  Y3+  Y37  1  -0.00072628  0.49862803  0.74939383  1
  Y3+  Y38  1  -0.00047841  0.74952740  0.26374183  1
  Y3+  Y39  1  -0.00239260  0.75015370  0.75059315  1
  Y3+  Y40  1  0.24927088  0.00215823  0.25953524  1
  Y3+  Y41  1  0.25059715  0.00161378  0.75518985  1
  Y3+  Y42  1  0.24894080  0.24870052  0.26092687  1
  Y3+  Y43  1  0.25005117  0.25126704  0.75257518  1
  Y3+  Y44  1  0.24794428  0.50069301  0.25785737  1
  Y3+  Y45  1  0.25109164  0.50000559  0.75667898  1
  Y3+  Y46  1  0.24819467  0.74828461  0.25614139  1
  Y3+  Y47  1  0.25131542  0.74757342  0.75857869  1
  Y3+  Y48  1  0.49942253  0.00379105  0.25946792  1
  Y3+  Y49  1  0.50082744  0.00169753  0.75501120  1
  Y3+  Y50  1  0.50066320  0.24854737  0.26119651  1
  Y3+  Y51  1  0.50098025  0.25066572  0.75429600  1
  Y3+  Y52  1  0.49966818  0.49950107  0.25691025  1
  Y3+  Y53  1  0.49975020  0.49981304  0.75910270  1
  Y3+  Y54  1  0.49897066  0.74802049  0.25470992  1
  Y3+  Y55  1  0.49910790  0.74754034  0.76018832  1
  Y3+  Y56  1  0.75113214  -0.00019422  0.26108816  1
  Y3+  Y57  1  0.74986943  -0.00066681  0.75343594  1
  Y3+  Y58  1  0.74821378  0.25041671  0.26086929  1
  Y3+  Y59  1  0.74804181  0.25191481  0.75435668  1
  Y3+  Y60  1  0.75129018  0.49993481  0.26099060  1
  Y3+  Y61  1  0.74985984  0.49874298  0.75468354  1
  Y3+  Y62  1  0.75355400  0.74932909  0.26126449  1
  Y3+  Y63  1  0.75175216  0.75017542  0.75369208  1
  Fe3+  Fe64  1  0.37302918  0.37435962  0.87967315  1
  Fe3+  Fe65  1  0.37547884  0.37511576  0.37541426  1
  Fe3+  Fe66  1  0.87778668  0.62469901  0.87391929  1
  Fe3+  Fe67  1  0.62710036  0.12491475  0.87979736  1
  Fe3+  Fe68  1  0.12335999  0.87522641  0.87761776  1
  Fe3+  Fe69  1  0.87443700  0.37440221  0.37729622  1
  Fe3+  Fe70  1  0.87736419  0.12544576  0.87456267  1
  Fe3+  Fe71  1  0.37595846  0.62435480  0.37784979  1
  Fe3+  Fe72  1  0.87729375  0.87508157  0.87560263  1
  Fe3+  Fe73  1  0.12283859  0.12555173  0.87521352  1
  Fe3+  Fe74  1  0.62457513  0.62430903  0.38190996  1
  Fe3+  Fe75  1  0.37292097  0.87572822  0.88086117  1
  Fe3+  Fe76  1  0.37610838  0.87486498  0.37858560  1
  Fe3+  Fe77  1  0.12342566  0.37474868  0.87670384  1
  Fe3+  Fe78  1  0.62323397  0.87396922  0.37655117  1
  Fe3+  Fe79  1  0.12164403  0.62445055  0.87577059  1
  Fe3+  Fe80  1  0.62637633  0.87506605  0.88060012  1
  Fe3+  Fe81  1  0.37292904  0.12562856  0.87747699  1
  Fe3+  Fe82  1  0.87424588  0.12534190  0.37979721  1
  Fe3+  Fe83  1  0.87750632  0.37480379  0.87365714  1
  Fe3+  Fe84  1  0.37426502  0.87547649  0.63471365  1
  Fe3+  Fe85  1  0.37511923  0.37496747  0.13481828  1
  Fe3+  Fe86  1  0.62621718  0.62435125  0.13873120  1
  Fe3+  Fe87  1  0.62607777  0.12530531  0.13493179  1
  Fe3+  Fe88  1  0.62523245  0.62471811  0.63665462  1
  Fe3+  Fe89  1  0.12614177  0.87483612  0.63407504  1
  Fe3+  Fe90  1  0.12551631  0.62532939  0.63555284  1
  Fe3+  Fe91  1  0.12501383  0.12456248  0.63369415  1
  Fe3+  Fe92  1  0.37488770  0.87487456  0.13517970  1
  Fe3+  Fe93  1  0.62546793  0.37574766  0.13762365  1
  Fe3+  Fe94  1  0.62562699  0.87448712  0.13350609  1
  Fe3+  Fe95  1  0.87481167  0.12567721  0.63163902  1
  Cu2+  Cu96  1  0.62373107  0.37582694  0.37330711  1
  Cu2+  Cu97  1  0.87404065  0.87535814  0.37230956  1
  Cu2+  Cu98  1  0.37561353  0.12578530  0.37197848  1
  Cu2+  Cu99  1  0.62567968  0.37448255  0.86359117  1
  Cu2+  Cu100  1  0.62551526  0.12496492  0.37246301  1
  Cu2+  Cu101  1  0.12432564  0.12537613  0.36590531  1
  Cu2+  Cu102  1  0.62752259  0.62576614  0.86028279  1
  Cu2+  Cu103  1  0.12596781  0.62458301  0.36545031  1
  Cu2+  Cu104  1  0.12648740  0.37571618  0.37202459  1
  Cu2+  Cu105  1  0.87442567  0.62403314  0.37407558  1
  Cu2+  Cu106  1  0.37275906  0.62445918  0.87385180  1
  Cu2+  Cu107  1  0.12656941  0.87439891  0.36384083  1
  Cu2+  Cu108  1  0.87464539  0.37415776  0.64569411  1
  Cu2+  Cu109  1  0.12508818  0.87457500  0.15699858  1
  Cu2+  Cu110  1  0.87493039  0.62454556  0.63883472  1
  Cu2+  Cu111  1  0.37477569  0.62514679  0.64906690  1
  Cu2+  Cu112  1  0.12390144  0.12522710  0.15966783  1
  Cu2+  Cu113  1  0.87423521  0.12570181  0.15846898  1
  Cu2+  Cu114  1  0.87424790  0.37541502  0.15809552  1
  Cu2+  Cu115  1  0.37505738  0.37510741  0.65343389  1
  Cu2+  Cu116  1  0.37580377  0.62380272  0.14100104  1
  Cu2+  Cu117  1  0.87436553  0.62433769  0.15815871  1
  Cu2+  Cu118  1  0.62547105  0.12550237  0.64372914  1
  Cu2+  Cu119  1  0.62418449  0.37563636  0.64312934  1
  Cu2+  Cu120  1  0.87545814  0.87573836  0.63895356  1
  Cu2+  Cu121  1  0.12372361  0.62471654  0.15714205  1
  Cu2+  Cu122  1  0.37458288  0.12518634  0.64079708  1
  Cu2+  Cu123  1  0.12604537  0.37549549  0.63888667  1
  Cu2+  Cu124  1  0.37575063  0.12593232  0.15178177  1
  Cu2+  Cu125  1  0.12505930  0.37533504  0.15571324  1
  Cu2+  Cu126  1  0.62383518  0.87424063  0.65244970  1
  Cu2+  Cu127  1  0.87457968  0.87439888  0.15751108  1
  O2-  O128  1  0.12140700  0.12569829  -0.00449389  1
  O2-  O129  1  0.12541775  0.12371947  0.51367337  1
  O2-  O130  1  0.12165579  0.37371686  -0.00361427  1
  O2-  O131  1  0.12737973  0.37587599  0.50599279  1
  O2-  O132  1  0.11993470  0.62454693  -0.00391518  1
  O2-  O133  1  0.12726260  0.62562179  0.51502103  1
  O2-  O134  1  0.12202418  0.87601521  -0.00248551  1
  O2-  O135  1  0.12878976  0.87499352  0.51464860  1
  O2-  O136  1  0.37168487  0.12445586  -0.00260523  1
  O2-  O137  1  0.37531976  0.12536085  0.50726627  1
  O2-  O138  1  0.37341054  0.37438740  0.00662402  1
  O2-  O139  1  0.37570432  0.37522139  0.49595659  1
  O2-  O140  1  0.37368421  0.62449660  0.00684538  1
  O2-  O141  1  0.37680226  0.62539430  0.49758175  1
  O2-  O142  1  0.37210799  0.87619600  0.00694354  1
  O2-  O143  1  0.37627598  0.87471714  0.50632278  1
  O2-  O144  1  0.62763683  0.12522876  0.00725905  1
  O2-  O145  1  0.62551961  0.12433519  0.50772176  1
  O2-  O146  1  0.62668982  0.37560536  0.01747902  1
  O2-  O147  1  0.62277486  0.37614718  0.50803739  1
  O2-  O148  1  0.62784278  0.62436912  0.01830344  1
  O2-  O149  1  0.62321475  0.62560947  0.50817817  1
  O2-  O150  1  0.62767342  0.87457773  0.00677682  1
  O2-  O151  1  0.62082508  0.87415398  0.49626613  1
  O2-  O152  1  0.87845997  0.12547526  -0.00534494  1
  O2-  O153  1  0.87368556  0.12517763  0.50563679  1
  O2-  O154  1  0.87851556  0.37487651  -0.00610427  1
  O2-  O155  1  0.87405433  0.37356793  0.49764790  1
  O2-  O156  1  0.87864593  0.62462504  -0.00587552  1
  O2-  O157  1  0.87403350  0.62474618  0.50630392  1
  O2-  O158  1  0.87814767  0.87522540  -0.00427998  1
  O2-  O159  1  0.87422410  0.87616032  0.50588997  1
  O2-  O160  1  0.12500700  0.00008249  0.16627138  1
  O2-  O161  1  0.12558548  -0.00012149  0.66636216  1
  O2-  O162  1  0.12445460  0.25014246  0.16618737  1
  O2-  O163  1  0.12539467  0.24857471  0.66215173  1
  O2-  O164  1  0.12471168  0.50007328  0.16559701  1
  O2-  O165  1  0.12621807  0.50166576  0.66405675  1
  O2-  O166  1  0.12480321  0.74957117  0.16598988  1
  O2-  O167  1  0.12690554  0.75019933  0.66691125  1
  O2-  O168  1  0.37571166  -0.00101618  0.16441458  1
  O2-  O169  1  0.37602261  -0.00305995  0.66531275  1
  O2-  O170  1  0.37553250  0.25154054  0.16208840  1
  O2-  O171  1  0.37545327  0.25205149  0.66547854  1
  O2-  O172  1  0.37512752  0.49645079  0.16352694  1
  O2-  O173  1  0.37570754  0.49923433  0.66544021  1
  O2-  O174  1  0.37551683  0.75271640  0.16419283  1
  O2-  O175  1  0.37591273  0.75245673  0.66556418  1
  O2-  O176  1  0.62506916  -0.00030241  0.15999173  1
  O2-  O177  1  0.62413767  -0.00170653  0.66714101  1
  O2-  O178  1  0.62570225  0.24909509  0.16453805  1
  O2-  O179  1  0.62448023  0.25092328  0.66652409  1
  O2-  O180  1  0.62583336  0.49965965  0.17015543  1
  O2-  O181  1  0.62386024  0.50263422  0.66445634  1
  O2-  O182  1  0.62479767  0.75152617  0.16514993  1
  O2-  O183  1  0.62370545  0.74820886  0.66491985  1
  O2-  O184  1  0.87417285  -0.00001297  0.16635713  1
  O2-  O185  1  0.87429911  0.00299448  0.66174220  1
  O2-  O186  1  0.87383994  0.25050505  0.16599734  1
  O2-  O187  1  0.87425520  0.24888192  0.66030645  1
  O2-  O188  1  0.87400569  0.49981769  0.16671687  1
  O2-  O189  1  0.87448938  0.49748946  0.66148810  1
  O2-  O190  1  0.87426504  0.74962356  0.16686206  1
  O2-  O191  1  0.87406128  0.75070496  0.66289734  1
  O2-  O192  1  -0.00104432  0.12489277  0.16920708  1
  O2-  O193  1  -0.00093771  0.12525944  0.65967182  1
  O2-  O194  1  -0.00053764  0.37488364  0.16795977  1
  O2-  O195  1  -0.00161691  0.37450656  0.65779963  1
  O2-  O196  1  -0.00116189  0.62493110  0.16848906  1
  O2-  O197  1  0.00159645  0.62541014  0.65950856  1
  O2-  O198  1  -0.00041584  0.87510079  0.16871381  1
  O2-  O199  1  0.00274694  0.87534254  0.66142412  1
  O2-  O200  1  0.24957045  0.12473254  0.16469931  1
  O2-  O201  1  0.24811935  0.12458053  0.66504345  1
  O2-  O202  1  0.25104482  0.37450196  0.16197567  1
  O2-  O203  1  0.25251431  0.37541817  0.66552741  1
  O2-  O204  1  0.24852974  0.62517617  0.16414619  1
  O2-  O205  1  0.25027505  0.62525502  0.66621541  1
  O2-  O206  1  0.25147911  0.87538495  0.16383430  1
  O2-  O207  1  0.25125342  0.87520578  0.66665501  1
  O2-  O208  1  0.50323517  0.12466183  0.16216416  1
  O2-  O209  1  0.50022974  0.12500365  0.66884919  1
  O2-  O210  1  0.50001463  0.37447798  0.16349938  1
  O2-  O211  1  0.49767759  0.37556952  0.66949683  1
  O2-  O212  1  0.50267892  0.62507729  0.16660493  1
  O2-  O213  1  0.50079243  0.62568409  0.66631467  1
  O2-  O214  1  0.50057437  0.87555898  0.15825929  1
  O2-  O215  1  0.49783678  0.87435592  0.66870116  1
  O2-  O216  1  0.74805499  0.12436372  0.16443062  1
  O2-  O217  1  0.75256131  0.12482090  0.66483207  1
  O2-  O218  1  0.74923733  0.37468007  0.16696213  1
  O2-  O219  1  0.75126999  0.37491715  0.66453464  1
  O2-  O220  1  0.74964899  0.62583146  0.16897646  1
  O2-  O221  1  0.74770985  0.62499853  0.66285884  1
  O2-  O222  1  0.74814976  0.87512230  0.16306902  1
  O2-  O223  1  0.74809855  0.87542888  0.66450310  1
  O2-  O224  1  0.12591014  -0.00017215  0.35010912  1
  O2-  O225  1  0.12516387  0.00014412  0.84421276  1
  O2-  O226  1  0.12560686  0.24932971  0.34982215  1
  O2-  O227  1  0.12453101  0.25018111  0.84188039  1
  O2-  O228  1  0.12614667  0.50130736  0.34898762  1
  O2-  O229  1  0.12491930  0.49918484  0.84407158  1
  O2-  O230  1  0.12660180  0.74951780  0.35005898  1
  O2-  O231  1  0.12488321  0.75054776  0.84587247  1
  O2-  O232  1  0.37554038  -0.00253576  0.34985248  1
  O2-  O233  1  0.37507533  -0.00064451  0.84740534  1
  O2-  O234  1  0.37512377  0.25119716  0.34573343  1
  O2-  O235  1  0.37571576  0.25056596  0.84811180  1
  O2-  O236  1  0.37542433  0.50094657  0.34454268  1
  O2-  O237  1  0.37505927  0.49636786  0.84974060  1
  O2-  O238  1  0.37574289  0.75070619  0.34795347  1
  O2-  O239  1  0.37546715  0.75380517  0.84984143  1
  O2-  O240  1  0.62393324  -0.00233122  0.34405109  1
  O2-  O241  1  0.62509493  -0.00018269  0.85102124  1
  O2-  O242  1  0.62455001  0.25034744  0.34810576  1
  O2-  O243  1  0.62482060  0.24701410  0.85041301  1
  O2-  O244  1  0.62362283  0.50345591  0.35124004  1
  O2-  O245  1  0.62574079  0.50047616  0.84881558  1
  O2-  O246  1  0.62313848  0.74827847  0.34745645  1
  O2-  O247  1  0.62470715  0.75305704  0.84964545  1
  O2-  O248  1  0.87476100  0.00238066  0.35046567  1
  O2-  O249  1  0.87462758  -0.00011547  0.84237746  1
  O2-  O250  1  0.87469658  0.24874329  0.34875590  1
  O2-  O251  1  0.87470566  0.24987162  0.84121943  1
  O2-  O252  1  0.87465301  0.49800342  0.34905727  1
  O2-  O253  1  0.87443391  0.49969084  0.84238969  1
  O2-  O254  1  0.87464289  0.75013504  0.35097053  1
  O2-  O255  1  0.87489169  0.75062914  0.84322133  1
  O2-  O256  1  -0.00184304  0.12477471  0.35324656  1
  O2-  O257  1  -0.00013585  0.12491331  0.83778299  1
  O2-  O258  1  -0.00093841  0.37448109  0.35116600  1
  O2-  O259  1  0.00029665  0.37489058  0.83778786  1
  O2-  O260  1  0.00147975  0.62486373  0.35301775  1
  O2-  O261  1  -0.00024781  0.62495554  0.83668880  1
  O2-  O262  1  0.00188040  0.87507512  0.35299545  1
  O2-  O263  1  -0.00018818  0.87549218  0.83968782  1
  O2-  O264  1  0.24884395  0.12442769  0.34932864  1
  O2-  O265  1  0.24937596  0.12509333  0.84425581  1
  O2-  O266  1  0.25220875  0.37538639  0.34523131  1
  O2-  O267  1  0.24991531  0.37411150  0.84781716  1
  O2-  O268  1  0.25177547  0.62599775  0.34730657  1
  O2-  O269  1  0.24622741  0.62534849  0.84719513  1
  O2-  O270  1  0.25299745  0.87450148  0.34908463  1
  O2-  O271  1  0.25034342  0.87554079  0.84805407  1
  O2-  O272  1  0.50035443  0.12448967  0.34648504  1
  O2-  O273  1  0.50091075  0.12377880  0.85291560  1
  O2-  O274  1  0.49808470  0.37538353  0.34394829  1
  O2-  O275  1  0.49901968  0.37484552  0.85446368  1
  O2-  O276  1  0.50038612  0.62579040  0.34664316  1
  O2-  O277  1  0.50207103  0.62554890  0.85147674  1
  O2-  O278  1  0.49823128  0.87451028  0.34142359  1
  O2-  O279  1  0.50000170  0.87607042  0.85573338  1
  O2-  O280  1  0.75239537  0.12448804  0.34806098  1
  O2-  O281  1  0.74984915  0.12434968  0.84790185  1
  O2-  O282  1  0.75069053  0.37478088  0.34854198  1
  O2-  O283  1  0.75087905  0.37455409  0.84780036  1
  O2-  O284  1  0.74668942  0.62560275  0.35152001  1
  O2-  O285  1  0.75211990  0.62577719  0.84589365  1
  O2-  O286  1  0.74694269  0.87463921  0.34636949  1
  O2-  O287  1  0.74985117  0.87539559  0.84811994  1
