# generated using pymatgen
data_BaYFeCuO5
_symmetry_space_group_name_H-M   'P 1'
_cell_length_a   15.67636784
_cell_length_b   15.66778016
_cell_length_c   15.49221168
_cell_angle_alpha   89.99355956
_cell_angle_beta   90.00064846
_cell_angle_gamma   90.00232596
_symmetry_Int_Tables_number   1
_chemical_formula_structural   BaYFeCuO5
_chemical_formula_sum   'Ba32 Y32 Fe32 Cu32 O160'
_cell_volume   3805.10227293
_cell_formula_units_Z   32
loop_
 _symmetry_equiv_pos_site_id
 _symmetry_equiv_pos_as_xyz
  1  'x, y, z'
loop_
 _atom_type_symbol
 _atom_type_oxidation_number
  Ba2+  2.0
  Y3+  3.0
  Fe3+  3.0
  Cu2+  2.0
  O2-  -2.0
loop_
 _atom_site_type_symbol
 _atom_site_label
 _atom_site_symmetry_multiplicity
 _atom_site_fract_x
 _atom_site_fract_y
 _atom_site_fract_z
 _atom_site_occupancy
  Ba2+  Ba0  1  -0.00794513  0.00265878  0.01210483  1
  Ba2+  Ba1  1  -0.00689866  -0.00575882  0.50744799  1
  Ba2+  Ba2  1  -0.00365938  0.24707787  0.01296001  1
  Ba2+  Ba3  1  -0.00660568  0.25123756  0.49709135  1
  Ba2+  Ba4  1  -0.00020596  0.50124122  0.01706875  1
  Ba2+  Ba5  1  -0.00174128  0.50027038  0.50654180  1
  Ba2+  Ba6  1  -0.00565825  0.74780045  0.01775834  1
  Ba2+  Ba7  1  -0.00119488  0.75395106  0.51601991  1
  Ba2+  Ba8  1  0.24856489  -0.00127499  0.01699455  1
  Ba2+  Ba9  1  0.25360730  -0.00752715  0.50260763  1
  Ba2+  Ba10  1  0.23959925  0.25074194  0.00621864  1
  Ba2+  Ba11  1  0.25398428  0.25256206  0.50146106  1
  Ba2+  Ba12  1  0.24406977  0.50534046  0.01164866  1
  Ba2+  Ba13  1  0.24603111  0.49675575  0.51167891  1
  Ba2+  Ba14  1  0.25250032  0.74532410  0.02441720  1
  Ba2+  Ba15  1  0.24654211  0.75816897  0.51044225  1
  Ba2+  Ba16  1  0.50063569  -0.00190015  0.01590821  1
  Ba2+  Ba17  1  0.50209750  -0.00254738  0.49628402  1
  Ba2+  Ba18  1  0.50470367  0.24624139  0.01099218  1
  Ba2+  Ba19  1  0.50263076  0.24818347  0.50740925  1
  Ba2+  Ba20  1  0.50019100  0.50986233  0.01564137  1
  Ba2+  Ba21  1  0.50507369  0.49540231  0.52241478  1
  Ba2+  Ba22  1  0.49634411  0.74635317  0.02284374  1
  Ba2+  Ba23  1  0.50439952  0.75980497  0.51077983  1
  Ba2+  Ba24  1  0.75881020  0.00233180  0.01136426  1
  Ba2+  Ba25  1  0.75192638  -0.00253100  0.50149276  1
  Ba2+  Ba26  1  0.75765089  0.24405488  0.01566094  1
  Ba2+  Ba27  1  0.75207531  0.24562494  0.50123716  1
  Ba2+  Ba28  1  0.75577744  0.50527386  0.02081905  1
  Ba2+  Ba29  1  0.74951486  0.50036899  0.51729686  1
  Ba2+  Ba30  1  0.75688878  0.74877934  0.01670052  1
  Ba2+  Ba31  1  0.75005466  0.75509435  0.51634656  1
  Y3+  Y32  1  -0.00326525  -0.00040114  0.26000017  1
  Y3+  Y33  1  -0.00409586  -0.00186711  0.75650883  1
  Y3+  Y34  1  -0.00309469  0.24845242  0.25850880  1
  Y3+  Y35  1  -0.00206848  0.24781108  0.75873690  1
  Y3+  Y36  1  -0.00142338  0.49903653  0.25886242  1
  Y3+  Y37  1  0.00055663  0.50190116  0.75455376  1
  Y3+  Y38  1  -0.00139543  0.75257832  0.25984116  1
  Y3+  Y39  1  -0.00156338  0.75225492  0.75318841  1
  Y3+  Y40  1  0.25019203  -0.00219227  0.26104949  1
  Y3+  Y41  1  0.24832944  -0.00291591  0.75424537  1
  Y3+  Y42  1  0.24822091  0.24901336  0.25880865  1
  Y3+  Y43  1  0.24842469  0.25069471  0.75794217  1
  Y3+  Y44  1  0.24843479  0.50129794  0.25826475  1
  Y3+  Y45  1  0.24835413  0.49989307  0.75540809  1
  Y3+  Y46  1  0.25056327  0.75194387  0.26148200  1
  Y3+  Y47  1  0.24807699  0.75218279  0.75042434  1
  Y3+  Y48  1  0.50108907  -0.00113117  0.25979088  1
  Y3+  Y49  1  0.50079253  -0.00272930  0.75566052  1
  Y3+  Y50  1  0.50172185  0.24622854  0.25723894  1
  Y3+  Y51  1  0.50075622  0.25059219  0.75800580  1
  Y3+  Y52  1  0.50104384  0.50290219  0.25493355  1
  Y3+  Y53  1  0.50103313  0.49955886  0.75568261  1
  Y3+  Y54  1  0.50001368  0.75243533  0.25990365  1
  Y3+  Y55  1  0.50167700  0.75243591  0.75155242  1
  Y3+  Y56  1  0.75239566  0.00034097  0.25891922  1
  Y3+  Y57  1  0.75461876  -0.00142140  0.75648684  1
  Y3+  Y58  1  0.75304984  0.24626046  0.25723822  1
  Y3+  Y59  1  0.75250603  0.24731009  0.75779203  1
  Y3+  Y60  1  0.75238863  0.50054931  0.25652954  1
  Y3+  Y61  1  0.74943425  0.50176228  0.75448938  1
  Y3+  Y62  1  0.75135665  0.75283353  0.25861805  1
  Y3+  Y63  1  0.75141846  0.75283713  0.75394105  1
  Fe3+  Fe64  1  0.37628753  0.62491411  0.37993252  1
  Fe3+  Fe65  1  0.87519709  0.62556451  0.87351679  1
  Fe3+  Fe66  1  0.37436514  0.37613147  0.88074067  1
  Fe3+  Fe67  1  0.12449626  0.62540208  0.37800487  1
  Fe3+  Fe68  1  0.37692708  0.37616372  0.37459528  1
  Fe3+  Fe69  1  0.12394099  0.12344675  0.87737184  1
  Fe3+  Fe70  1  0.37434241  0.87321823  0.87780094  1
  Fe3+  Fe71  1  0.62665201  0.37592319  0.88074341  1
  Fe3+  Fe72  1  0.12402355  0.87363107  0.88048503  1
  Fe3+  Fe73  1  0.37451332  0.62688061  0.87283046  1
  Fe3+  Fe74  1  0.62578984  0.87391726  0.88099383  1
  Fe3+  Fe75  1  0.87554862  0.37614885  0.87829922  1
  Fe3+  Fe76  1  0.62531172  0.62668131  0.87600602  1
  Fe3+  Fe77  1  0.87386475  0.62560370  0.37779578  1
  Fe3+  Fe78  1  0.62558739  0.12351681  0.87959811  1
  Fe3+  Fe79  1  0.12455252  0.62655097  0.87475830  1
  Fe3+  Fe80  1  0.62577025  0.37552267  0.37347249  1
  Fe3+  Fe81  1  0.62536785  0.62515616  0.37712112  1
  Fe3+  Fe82  1  0.12474201  0.12424330  0.37955840  1
  Fe3+  Fe83  1  0.37436340  0.12390444  0.88071941  1
  Fe3+  Fe84  1  0.62622038  0.87525133  0.13630568  1
  Fe3+  Fe85  1  0.62622483  0.12386969  0.63811748  1
  Fe3+  Fe86  1  0.87452714  0.37383188  0.63732771  1
  Fe3+  Fe87  1  0.37504906  0.62542064  0.63265684  1
  Fe3+  Fe88  1  0.12405550  0.37472079  0.14024302  1
  Fe3+  Fe89  1  0.37497028  0.12469333  0.63789199  1
  Fe3+  Fe90  1  0.12371006  0.37303858  0.63743165  1
  Fe3+  Fe91  1  0.37464073  0.37531884  0.13370498  1
  Fe3+  Fe92  1  0.12358453  0.12434249  0.63345721  1
  Fe3+  Fe93  1  0.62629825  0.37478109  0.13412218  1
  Fe3+  Fe94  1  0.37405126  0.12511380  0.13637741  1
  Fe3+  Fe95  1  0.12400207  0.87525483  0.13705517  1
  Cu2+  Cu96  1  0.87371792  0.37577460  0.36273465  1
  Cu2+  Cu97  1  0.87521736  0.87377372  0.87366853  1
  Cu2+  Cu98  1  0.12470886  0.37512281  0.36438041  1
  Cu2+  Cu99  1  0.37514406  0.12529726  0.36248896  1
  Cu2+  Cu100  1  0.87493202  0.12409633  0.37322814  1
  Cu2+  Cu101  1  0.87466848  0.87394304  0.37147277  1
  Cu2+  Cu102  1  0.87516961  0.12439056  0.87121345  1
  Cu2+  Cu103  1  0.62557967  0.12481446  0.36180355  1
  Cu2+  Cu104  1  0.37571958  0.87443941  0.37142863  1
  Cu2+  Cu105  1  0.12367900  0.87496411  0.37272600  1
  Cu2+  Cu106  1  0.62653089  0.87479965  0.37065640  1
  Cu2+  Cu107  1  0.12378161  0.37586410  0.86352013  1
  Cu2+  Cu108  1  0.87442996  0.87573874  0.64267123  1
  Cu2+  Cu109  1  0.62593214  0.87775082  0.64319736  1
  Cu2+  Cu110  1  0.87579741  0.12430730  0.14681865  1
  Cu2+  Cu111  1  0.37482570  0.37376681  0.65330093  1
  Cu2+  Cu112  1  0.62491098  0.62585359  0.64733635  1
  Cu2+  Cu113  1  0.12470892  0.62496732  0.64479955  1
  Cu2+  Cu114  1  0.87522969  0.12514210  0.64101613  1
  Cu2+  Cu115  1  0.87535864  0.87553481  0.14337414  1
  Cu2+  Cu116  1  0.12417546  0.62581555  0.15556202  1
  Cu2+  Cu117  1  0.37481914  0.87529441  0.15303763  1
  Cu2+  Cu118  1  0.62616668  0.37267819  0.65439070  1
  Cu2+  Cu119  1  0.12493787  0.12425168  0.15387438  1
  Cu2+  Cu120  1  0.37424421  0.62456591  0.15662018  1
  Cu2+  Cu121  1  0.87485791  0.62492257  0.64677583  1
  Cu2+  Cu122  1  0.12382021  0.87686588  0.64162926  1
  Cu2+  Cu123  1  0.87525313  0.37466417  0.15109440  1
  Cu2+  Cu124  1  0.62535897  0.12410542  0.14959028  1
  Cu2+  Cu125  1  0.62614567  0.62605473  0.15135078  1
  Cu2+  Cu126  1  0.37570122  0.87686318  0.64051208  1
  Cu2+  Cu127  1  0.87589273  0.62550071  0.15602610  1
  O2-  O128  1  0.12524817  0.12384943  -0.00221398  1
  O2-  O129  1  0.12588391  0.12561390  0.50734891  1
  O2-  O130  1  0.12466199  0.37612005  0.01970881  1
  O2-  O131  1  0.12566494  0.37293746  0.51717271  1
  O2-  O132  1  0.12519480  0.62659680  -0.00514179  1
  O2-  O133  1  0.12531881  0.62358328  0.49806383  1
  O2-  O134  1  0.12579074  0.87306108  0.00746740  1
  O2-  O135  1  0.12434321  0.87628434  0.50602218  1
  O2-  O136  1  0.37351631  0.12457773  0.00790969  1
  O2-  O137  1  0.37603509  0.12703660  0.51797565  1
  O2-  O138  1  0.37330870  0.37730996  0.00705879  1
  O2-  O139  1  0.37820321  0.37517655  0.49475903  1
  O2-  O140  1  0.37361511  0.62614882  -0.00695538  1
  O2-  O141  1  0.37665618  0.62314301  0.50535577  1
  O2-  O142  1  0.37362665  0.87105847  -0.00224809  1
  O2-  O143  1  0.37633504  0.87623191  0.50672357  1
  O2-  O144  1  0.62432487  0.12450901  -0.00016188  1
  O2-  O145  1  0.62384355  0.12546719  0.51776899  1
  O2-  O146  1  0.62617411  0.37671918  0.00590001  1
  O2-  O147  1  0.62403518  0.37552841  0.49354587  1
  O2-  O148  1  0.62464764  0.62618926  -0.00401359  1
  O2-  O149  1  0.62386359  0.62239054  0.49688328  1
  O2-  O150  1  0.62458806  0.87275044  0.00733116  1
  O2-  O151  1  0.62578317  0.87725703  0.50632143  1
  O2-  O152  1  0.87622461  0.12554729  0.00813845  1
  O2-  O153  1  0.87489558  0.12627443  0.50702906  1
  O2-  O154  1  0.87575426  0.37763544  -0.00151394  1
  O2-  O155  1  0.87325926  0.37414802  0.51690679  1
  O2-  O156  1  0.87627579  0.62405775  -0.00603184  1
  O2-  O157  1  0.87348289  0.62393691  0.49779163  1
  O2-  O158  1  0.87545406  0.87337167  0.00802061  1
  O2-  O159  1  0.87385576  0.87380163  0.50720338  1
  O2-  O160  1  0.12668247  -0.00142711  0.16314565  1
  O2-  O161  1  0.12491900  0.00328783  0.66686481  1
  O2-  O162  1  0.12571225  0.25009369  0.16818118  1
  O2-  O163  1  0.12538549  0.24853102  0.66873816  1
  O2-  O164  1  0.12547331  0.50013330  0.16613839  1
  O2-  O165  1  0.12538519  0.49861171  0.66445193  1
  O2-  O166  1  0.12530618  0.75125366  0.16299379  1
  O2-  O167  1  0.12516274  0.74955696  0.66174743  1
  O2-  O168  1  0.37440962  0.00184208  0.16214167  1
  O2-  O169  1  0.37449841  0.00280511  0.67145554  1
  O2-  O170  1  0.37553890  0.25076090  0.16075789  1
  O2-  O171  1  0.37459427  0.24888039  0.67314822  1
  O2-  O172  1  0.37488298  0.49812955  0.16195853  1
  O2-  O173  1  0.37576330  0.50054942  0.66198627  1
  O2-  O174  1  0.37485687  0.74943972  0.16590461  1
  O2-  O175  1  0.37505785  0.74779603  0.65844660  1
  O2-  O176  1  0.62405741  -0.00202769  0.16272686  1
  O2-  O177  1  0.62502741  0.00258211  0.67235885  1
  O2-  O178  1  0.62408285  0.25180213  0.16187216  1
  O2-  O179  1  0.62470526  0.24837460  0.67134660  1
  O2-  O180  1  0.62480079  0.49903143  0.16024812  1
  O2-  O181  1  0.62384288  0.49869506  0.66338481  1
  O2-  O182  1  0.62444757  0.75150042  0.16325241  1
  O2-  O183  1  0.62489933  0.75031000  0.66225805  1
  O2-  O184  1  0.87541746  0.00019886  0.16700771  1
  O2-  O185  1  0.87556275  0.00012901  0.66662602  1
  O2-  O186  1  0.87556295  0.24995997  0.16612290  1
  O2-  O187  1  0.87501669  0.25181194  0.66968389  1
  O2-  O188  1  0.87531100  0.50063529  0.16374132  1
  O2-  O189  1  0.87471992  0.49923825  0.66347193  1
  O2-  O190  1  0.87566134  0.74911564  0.16474764  1
  O2-  O191  1  0.87442781  0.74884078  0.66264317  1
  O2-  O192  1  0.00148723  0.12495171  0.16826432  1
  O2-  O193  1  0.00231822  0.12567215  0.66320705  1
  O2-  O194  1  0.00015584  0.37485746  0.16821316  1
  O2-  O195  1  -0.00011715  0.37489017  0.66684772  1
  O2-  O196  1  -0.00024451  0.62463675  0.16597486  1
  O2-  O197  1  -0.00002108  0.62504925  0.66251346  1
  O2-  O198  1  0.00250988  0.87537299  0.16495362  1
  O2-  O199  1  -0.00060423  0.87514507  0.66565769  1
  O2-  O200  1  0.25206838  0.12578625  0.16586965  1
  O2-  O201  1  0.24830012  0.12585645  0.66617752  1
  O2-  O202  1  0.25149836  0.37482105  0.16569258  1
  O2-  O203  1  0.24872710  0.37432502  0.66737983  1
  O2-  O204  1  0.24969460  0.62483100  0.16711857  1
  O2-  O205  1  0.25204515  0.62382157  0.66050033  1
  O2-  O206  1  0.24855779  0.87458225  0.16544371  1
  O2-  O207  1  0.24942827  0.87610566  0.66379034  1
  O2-  O208  1  0.49774476  0.12512300  0.16223357  1
  O2-  O209  1  0.50003810  0.12626825  0.67105488  1
  O2-  O210  1  0.49972308  0.37560682  0.15597128  1
  O2-  O211  1  0.50075797  0.37350202  0.66749357  1
  O2-  O212  1  0.49963431  0.62457318  0.16264867  1
  O2-  O213  1  0.49841307  0.62414096  0.66310571  1
  O2-  O214  1  0.50115756  0.87477375  0.16293295  1
  O2-  O215  1  0.50080962  0.87613439  0.66650334  1
  O2-  O216  1  0.74921752  0.12504287  0.16501287  1
  O2-  O217  1  0.74965832  0.12545580  0.66714717  1
  O2-  O218  1  0.74900071  0.37499541  0.16023615  1
  O2-  O219  1  0.75042145  0.37519496  0.66767963  1
  O2-  O220  1  0.75123108  0.62505298  0.16286076  1
  O2-  O221  1  0.74907734  0.62428596  0.66310694  1
  O2-  O222  1  0.74804064  0.87484831  0.16313906  1
  O2-  O223  1  0.75016165  0.87566249  0.66683664  1
  O2-  O224  1  0.12600073  0.00300125  0.34819254  1
  O2-  O225  1  0.12651108  -0.00216080  0.84965771  1
  O2-  O226  1  0.12624287  0.24894241  0.35208256  1
  O2-  O227  1  0.12559579  0.24966840  0.85053463  1
  O2-  O228  1  0.12541333  0.50047491  0.34790042  1
  O2-  O229  1  0.12600262  0.50109441  0.84666405  1
  O2-  O230  1  0.12564814  0.74751261  0.34581616  1
  O2-  O231  1  0.12558526  0.75137660  0.84400560  1
  O2-  O232  1  0.37530648  0.00141475  0.34738611  1
  O2-  O233  1  0.37447311  0.00018370  0.85268093  1
  O2-  O234  1  0.37544761  0.25111943  0.34464629  1
  O2-  O235  1  0.37477946  0.25033857  0.85681840  1
  O2-  O236  1  0.37589991  0.50165778  0.34468016  1
  O2-  O237  1  0.37479901  0.49927935  0.84614422  1
  O2-  O238  1  0.37528468  0.74646423  0.35013158  1
  O2-  O239  1  0.37511446  0.75038038  0.83899211  1
  O2-  O240  1  0.62454203  0.00159129  0.34743837  1
  O2-  O241  1  0.62298334  -0.00184464  0.85308472  1
  O2-  O242  1  0.62442774  0.25006448  0.34595828  1
  O2-  O243  1  0.62339542  0.25150230  0.85314126  1
  O2-  O244  1  0.62462941  0.50065047  0.34120237  1
  O2-  O245  1  0.62417246  0.49922114  0.84664590  1
  O2-  O246  1  0.62471513  0.74782540  0.34607109  1
  O2-  O247  1  0.62399373  0.75130447  0.84496635  1
  O2-  O248  1  0.87499151  -0.00061656  0.34995410  1
  O2-  O249  1  0.87523849  -0.00035740  0.85048789  1
  O2-  O250  1  0.87441099  0.25142460  0.34990681  1
  O2-  O251  1  0.87509287  0.25155237  0.85033893  1
  O2-  O252  1  0.87443041  0.50084879  0.34699770  1
  O2-  O253  1  0.87446737  0.50060226  0.84280524  1
  O2-  O254  1  0.87472974  0.74802508  0.34654590  1
  O2-  O255  1  0.87488192  0.74806082  0.84446002  1
  O2-  O256  1  0.00250514  0.12573673  0.35166037  1
  O2-  O257  1  0.00187606  0.12434629  0.84567881  1
  O2-  O258  1  -0.00077118  0.37516821  0.35203517  1
  O2-  O259  1  -0.00076810  0.37576705  0.84711404  1
  O2-  O260  1  -0.00054627  0.62414689  0.34831826  1
  O2-  O261  1  0.00048442  0.62498823  0.84355016  1
  O2-  O262  1  -0.00074303  0.87512742  0.34782474  1
  O2-  O263  1  0.00292176  0.87473198  0.84941710  1
  O2-  O264  1  0.24864088  0.12601182  0.35073223  1
  O2-  O265  1  0.25125507  0.12551190  0.84841635  1
  O2-  O266  1  0.25179722  0.37521739  0.34777515  1
  O2-  O267  1  0.25158730  0.37504211  0.85149403  1
  O2-  O268  1  0.25170495  0.62378768  0.35074303  1
  O2-  O269  1  0.24988825  0.62500178  0.84152679  1
  O2-  O270  1  0.25039926  0.87509152  0.34962393  1
  O2-  O271  1  0.24887344  0.87458431  0.84629601  1
  O2-  O272  1  0.50008547  0.12528659  0.34724483  1
  O2-  O273  1  0.49832959  0.12560571  0.85211088  1
  O2-  O274  1  0.50057764  0.37480434  0.33812852  1
  O2-  O275  1  0.49979783  0.37549028  0.85300307  1
  O2-  O276  1  0.49928949  0.62465836  0.34562417  1
  O2-  O277  1  0.50007886  0.62436667  0.84418228  1
  O2-  O278  1  0.50057356  0.87517694  0.34744350  1
  O2-  O279  1  0.50046292  0.87470793  0.84884042  1
  O2-  O280  1  0.74939658  0.12513621  0.34887200  1
  O2-  O281  1  0.74766551  0.12492102  0.84851574  1
  O2-  O282  1  0.74875461  0.37479082  0.34338727  1
  O2-  O283  1  0.74874038  0.37514092  0.84914054  1
  O2-  O284  1  0.74967844  0.62440262  0.34478127  1
  O2-  O285  1  0.74915573  0.62505850  0.84449821  1
  O2-  O286  1  0.75035370  0.87531785  0.34645746  1
  O2-  O287  1  0.74711887  0.87465150  0.85038102  1
