# generated using pymatgen
data_BaYFeCuO5
_symmetry_space_group_name_H-M   'P 1'
_cell_length_a   15.67536088
_cell_length_b   15.67922952
_cell_length_c   15.49893008
_cell_angle_alpha   90.00147940
_cell_angle_beta   89.99278234
_cell_angle_gamma   89.99850473
_symmetry_Int_Tables_number   1
_chemical_formula_structural   BaYFeCuO5
_chemical_formula_sum   'Ba32 Y32 Fe32 Cu32 O160'
_cell_volume   3809.28950895
_cell_formula_units_Z   32
loop_
 _symmetry_equiv_pos_site_id
 _symmetry_equiv_pos_as_xyz
  1  'x, y, z'
loop_
 _atom_type_symbol
 _atom_type_oxidation_number
  Ba2+  2.0
  Y3+  3.0
  Fe3+  3.0
  Cu2+  2.0
  O2-  -2.0
loop_
 _atom_site_type_symbol
 _atom_site_label
 _atom_site_symmetry_multiplicity
 _atom_site_fract_x
 _atom_site_fract_y
 _atom_site_fract_z
 _atom_site_occupancy
  Ba2+  Ba0  1  -0.00688487  -0.00600316  0.01111043  1
  Ba2+  Ba1  1  0.00293418  -0.00216881  0.51292617  1
  Ba2+  Ba2  1  -0.00542848  0.24311043  0.00737194  1
  Ba2+  Ba3  1  -0.00154470  0.25080204  0.49222116  1
  Ba2+  Ba4  1  0.00349007  0.51133089  0.01073483  1
  Ba2+  Ba5  1  -0.00140510  0.49861290  0.49218841  1
  Ba2+  Ba6  1  0.00207974  0.75196337  0.01777569  1
  Ba2+  Ba7  1  0.00255156  0.75255881  0.51219162  1
  Ba2+  Ba8  1  0.25535284  -0.00822927  0.01752214  1
  Ba2+  Ba9  1  0.24514248  0.00447948  0.51166689  1
  Ba2+  Ba10  1  0.25905886  0.24932278  0.01751826  1
  Ba2+  Ba11  1  0.25211931  0.24828444  0.51167855  1
  Ba2+  Ba12  1  0.25178095  0.50828168  0.01567516  1
  Ba2+  Ba13  1  0.24985158  0.49901829  0.51832355  1
  Ba2+  Ba14  1  0.24924888  0.75095018  0.01760622  1
  Ba2+  Ba15  1  0.24268662  0.74811557  0.51605290  1
  Ba2+  Ba16  1  0.49601942  0.00248971  0.01237217  1
  Ba2+  Ba17  1  0.49793372  0.01185802  0.51107420  1
  Ba2+  Ba18  1  0.49905274  0.24259567  0.01498321  1
  Ba2+  Ba19  1  0.49867539  0.25076400  0.52253276  1
  Ba2+  Ba20  1  0.49434775  0.50436598  0.01013971  1
  Ba2+  Ba21  1  0.50053072  0.49715492  0.52687202  1
  Ba2+  Ba22  1  0.49185219  0.75106622  0.00588226  1
  Ba2+  Ba23  1  0.50007192  0.73966599  0.51772074  1
  Ba2+  Ba24  1  0.75592420  0.00361145  0.00641546  1
  Ba2+  Ba25  1  0.75540266  0.00578840  0.51218139  1
  Ba2+  Ba26  1  0.74843492  0.23719907  0.00677350  1
  Ba2+  Ba27  1  0.74987239  0.25191383  0.50717080  1
  Ba2+  Ba28  1  0.74909447  0.50913587  0.00639355  1
  Ba2+  Ba29  1  0.74995059  0.49788885  0.50749970  1
  Ba2+  Ba30  1  0.75770580  0.75246751  0.00696030  1
  Ba2+  Ba31  1  0.75564571  0.74454104  0.51105308  1
  Y3+  Y32  1  -0.00091409  -0.00245027  0.25651349  1
  Y3+  Y33  1  -0.00068786  -0.00234766  0.75828908  1
  Y3+  Y34  1  -0.00196724  0.24948053  0.25482394  1
  Y3+  Y35  1  -0.00000068  0.24730792  0.76201461  1
  Y3+  Y36  1  0.00004259  0.50224103  0.25452370  1
  Y3+  Y37  1  0.00261052  0.50272387  0.76137754  1
  Y3+  Y38  1  0.00060536  0.75109169  0.25689873  1
  Y3+  Y39  1  0.00191953  0.75239742  0.75769706  1
  Y3+  Y40  1  0.25141725  -0.00237826  0.26067339  1
  Y3+  Y41  1  0.24934132  -0.00089884  0.75331651  1
  Y3+  Y42  1  0.25247398  0.24940507  0.25871651  1
  Y3+  Y43  1  0.25137815  0.24863790  0.75429700  1
  Y3+  Y44  1  0.24960730  0.50077848  0.25459122  1
  Y3+  Y45  1  0.24912449  0.50193164  0.75773724  1
  Y3+  Y46  1  0.24816096  0.75195109  0.25680777  1
  Y3+  Y47  1  0.24770434  0.75020064  0.75632755  1
  Y3+  Y48  1  0.49811626  0.00153805  0.25661199  1
  Y3+  Y49  1  0.49997752  0.00147782  0.75775067  1
  Y3+  Y50  1  0.49816932  0.24692119  0.25473990  1
  Y3+  Y51  1  0.50113556  0.24768905  0.75721380  1
  Y3+  Y52  1  0.49794119  0.49936688  0.25268366  1
  Y3+  Y53  1  0.50077006  0.50115845  0.75809318  1
  Y3+  Y54  1  0.49782024  0.75183506  0.25578746  1
  Y3+  Y55  1  0.50007302  0.74982947  0.75831746  1
  Y3+  Y56  1  0.75164716  0.00130673  0.25299632  1
  Y3+  Y57  1  0.75178776  0.00056234  0.76169106  1
  Y3+  Y58  1  0.75064672  0.24718143  0.25378881  1
  Y3+  Y59  1  0.74808990  0.24671186  0.76144836  1
  Y3+  Y60  1  0.75225546  0.50075126  0.25707643  1
  Y3+  Y61  1  0.74758539  0.50114437  0.75885692  1
  Y3+  Y62  1  0.75304922  0.75057524  0.25602935  1
  Y3+  Y63  1  0.75067545  0.75141410  0.75833891  1
  Fe3+  Fe64  1  0.12664412  0.12352762  0.88113941  1
  Fe3+  Fe65  1  0.37382146  0.12349521  0.87496300  1
  Fe3+  Fe66  1  0.37526925  0.62379633  0.37669650  1
  Fe3+  Fe67  1  0.12627224  0.87485740  0.87704151  1
  Fe3+  Fe68  1  0.37570875  0.37551855  0.37587984  1
  Fe3+  Fe69  1  0.62400502  0.37493694  0.88042264  1
  Fe3+  Fe70  1  0.12557158  0.62491857  0.37555783  1
  Fe3+  Fe71  1  0.62504119  0.87507668  0.38085822  1
  Fe3+  Fe72  1  0.37355362  0.62647223  0.87397538  1
  Fe3+  Fe73  1  0.12468053  0.12478137  0.37428045  1
  Fe3+  Fe74  1  0.37466202  0.37456357  0.87677625  1
  Fe3+  Fe75  1  0.62350066  0.37487760  0.37378087  1
  Fe3+  Fe76  1  0.62426357  0.62406826  0.37582959  1
  Fe3+  Fe77  1  0.37525785  0.87456297  0.38156488  1
  Fe3+  Fe78  1  0.62524820  0.12570887  0.37554912  1
  Fe3+  Fe79  1  0.87474405  0.87543822  0.37719373  1
  Fe3+  Fe80  1  0.87625561  0.62665941  0.87709560  1
  Fe3+  Fe81  1  0.62422886  0.87540803  0.87939145  1
  Fe3+  Fe82  1  0.87475572  0.37560443  0.88271603  1
  Fe3+  Fe83  1  0.12648789  0.37474703  0.88271422  1
  Fe3+  Fe84  1  0.12537123  0.37454355  0.13424429  1
  Fe3+  Fe85  1  0.62502997  0.87554887  0.13457875  1
  Fe3+  Fe86  1  0.87408563  0.37573780  0.13387383  1
  Fe3+  Fe87  1  0.62461137  0.37484170  0.13259883  1
  Fe3+  Fe88  1  0.87626236  0.12637470  0.64079674  1
  Fe3+  Fe89  1  0.62616386  0.87580187  0.63444320  1
  Fe3+  Fe90  1  0.62453229  0.62683677  0.13532106  1
  Fe3+  Fe91  1  0.37559561  0.87479994  0.63439174  1
  Fe3+  Fe92  1  0.12561059  0.12323896  0.13472193  1
  Fe3+  Fe93  1  0.12202287  0.37426827  0.63951339  1
  Fe3+  Fe94  1  0.87657844  0.62367453  0.63920616  1
  Fe3+  Fe95  1  0.87604845  0.37495479  0.64211763  1
  Cu2+  Cu96  1  0.12560904  0.37516496  0.35827393  1
  Cu2+  Cu97  1  0.12487243  0.87487941  0.37312293  1
  Cu2+  Cu98  1  0.87457582  0.12434776  0.35934750  1
  Cu2+  Cu99  1  0.87499409  0.62563809  0.36189812  1
  Cu2+  Cu100  1  0.62349191  0.12353658  0.87365564  1
  Cu2+  Cu101  1  0.87607127  0.87442577  0.87207992  1
  Cu2+  Cu102  1  0.37390000  0.87539616  0.86903140  1
  Cu2+  Cu103  1  0.87381387  0.37470818  0.35750615  1
  Cu2+  Cu104  1  0.87604799  0.12398085  0.87291492  1
  Cu2+  Cu105  1  0.37532325  0.12572183  0.37320964  1
  Cu2+  Cu106  1  0.62447981  0.62627897  0.86694830  1
  Cu2+  Cu107  1  0.12613827  0.62646462  0.87338214  1
  Cu2+  Cu108  1  0.87452993  0.87508423  0.65135713  1
  Cu2+  Cu109  1  0.62651770  0.37430320  0.65668061  1
  Cu2+  Cu110  1  0.37454071  0.12482358  0.64173338  1
  Cu2+  Cu111  1  0.12505435  0.62630238  0.14218004  1
  Cu2+  Cu112  1  0.62656796  0.12436884  0.65341944  1
  Cu2+  Cu113  1  0.87455933  0.62528613  0.15109187  1
  Cu2+  Cu114  1  0.12352203  0.62384027  0.65160850  1
  Cu2+  Cu115  1  0.37522556  0.62616223  0.15212011  1
  Cu2+  Cu116  1  0.12459532  0.87549001  0.64099642  1
  Cu2+  Cu117  1  0.37478497  0.37527006  0.65445548  1
  Cu2+  Cu118  1  0.37428772  0.62526631  0.65236188  1
  Cu2+  Cu119  1  0.87458201  0.87480807  0.14265298  1
  Cu2+  Cu120  1  0.62664506  0.62552276  0.65383360  1
  Cu2+  Cu121  1  0.87591857  0.12438216  0.14253906  1
  Cu2+  Cu122  1  0.12499557  0.87581884  0.15227917  1
  Cu2+  Cu123  1  0.62470820  0.12332597  0.14097667  1
  Cu2+  Cu124  1  0.37511586  0.37510719  0.14726318  1
  Cu2+  Cu125  1  0.37569924  0.87458320  0.14323049  1
  Cu2+  Cu126  1  0.37354960  0.12379492  0.15365679  1
  Cu2+  Cu127  1  0.12328949  0.12617507  0.65312670  1
  O2-  O128  1  0.12780528  0.12278430  0.00713305  1
  O2-  O129  1  0.12307617  0.12756479  0.49500069  1
  O2-  O130  1  0.12756418  0.37494657  0.00832170  1
  O2-  O131  1  0.12016293  0.37456751  0.51979486  1
  O2-  O132  1  0.12663681  0.62654258  0.00832394  1
  O2-  O133  1  0.12461312  0.62194809  0.49596058  1
  O2-  O134  1  0.12682793  0.87524916  -0.00270237  1
  O2-  O135  1  0.12449089  0.87488242  0.50713964  1
  O2-  O136  1  0.37298608  0.12327990  -0.00457203  1
  O2-  O137  1  0.37493847  0.12732945  0.50723299  1
  O2-  O138  1  0.37510132  0.37484097  -0.00324578  1
  O2-  O139  1  0.37645563  0.37647091  0.49571955  1
  O2-  O140  1  0.37378079  0.62710535  -0.00492940  1
  O2-  O141  1  0.37643234  0.62076657  0.49611094  1
  O2-  O142  1  0.37504870  0.87455717  0.00734823  1
  O2-  O143  1  0.37717628  0.87402057  0.50751131  1
  O2-  O144  1  0.62317789  0.12255006  0.00698105  1
  O2-  O145  1  0.62651749  0.12868524  0.49574045  1
  O2-  O146  1  0.62416122  0.37544135  0.00631965  1
  O2-  O147  1  0.62346036  0.37508868  0.49359927  1
  O2-  O148  1  0.62427791  0.62777339  0.01517733  1
  O2-  O149  1  0.62451633  0.62107152  0.49574710  1
  O2-  O150  1  0.62408766  0.87494411  0.00723732  1
  O2-  O151  1  0.62580224  0.87505627  0.50672420  1
  O2-  O152  1  0.87638196  0.12428631  0.00821587  1
  O2-  O153  1  0.87554149  0.12899358  0.52049053  1
  O2-  O154  1  0.87327334  0.37635334  0.00850946  1
  O2-  O155  1  0.87659088  0.37482315  0.52223664  1
  O2-  O156  1  0.87537799  0.62694923  -0.00191487  1
  O2-  O157  1  0.87544420  0.62079368  0.51872275  1
  O2-  O158  1  0.87527975  0.87378868  0.00715584  1
  O2-  O159  1  0.87319127  0.87540555  0.49743883  1
  O2-  O160  1  0.12572036  0.00094255  0.16363070  1
  O2-  O161  1  0.12436724  0.00213766  0.66350850  1
  O2-  O162  1  0.12532733  0.24989470  0.15891990  1
  O2-  O163  1  0.12419294  0.25078309  0.67250733  1
  O2-  O164  1  0.12479339  0.49705662  0.16131653  1
  O2-  O165  1  0.12437069  0.49892728  0.67076251  1
  O2-  O166  1  0.12513200  0.75223077  0.16599442  1
  O2-  O167  1  0.12471915  0.74804870  0.66232257  1
  O2-  O168  1  0.37459409  0.00063372  0.16880801  1
  O2-  O169  1  0.37605079  -0.00292202  0.66205527  1
  O2-  O170  1  0.37447770  0.24895016  0.16180678  1
  O2-  O171  1  0.37522783  0.25112433  0.66603836  1
  O2-  O172  1  0.37535456  0.50149632  0.15953494  1
  O2-  O173  1  0.37557875  0.50056888  0.66651628  1
  O2-  O174  1  0.37527125  0.74884287  0.16802490  1
  O2-  O175  1  0.37557502  0.75096711  0.66093024  1
  O2-  O176  1  0.62424662  -0.00279384  0.16667793  1
  O2-  O177  1  0.62486664  -0.00171878  0.66177223  1
  O2-  O178  1  0.62491681  0.25240514  0.15934023  1
  O2-  O179  1  0.62621878  0.24919623  0.66766926  1
  O2-  O180  1  0.62399922  0.49939363  0.15968564  1
  O2-  O181  1  0.62565252  0.50019721  0.66767490  1
  O2-  O182  1  0.62497362  0.75120817  0.16782462  1
  O2-  O183  1  0.62586204  0.75193616  0.66159058  1
  O2-  O184  1  0.87533766  -0.00048259  0.16524344  1
  O2-  O185  1  0.87508926  0.00024146  0.66539470  1
  O2-  O186  1  0.87483268  0.25351754  0.16237572  1
  O2-  O187  1  0.87445258  0.25024271  0.67531380  1
  O2-  O188  1  0.87503077  0.49831594  0.16219029  1
  O2-  O189  1  0.87481699  0.49976149  0.67401410  1
  O2-  O190  1  0.87432551  0.74896200  0.16560811  1
  O2-  O191  1  0.87441038  0.74978607  0.66284617  1
  O2-  O192  1  0.00364534  0.12552332  0.16250116  1
  O2-  O193  1  -0.00093731  0.12541943  0.67266948  1
  O2-  O194  1  -0.00007446  0.37480360  0.16060067  1
  O2-  O195  1  -0.00078009  0.37462520  0.67893430  1
  O2-  O196  1  -0.00155454  0.62527127  0.16421502  1
  O2-  O197  1  -0.00078497  0.62476585  0.67041012  1
  O2-  O198  1  0.00105551  0.87476499  0.16500586  1
  O2-  O199  1  -0.00116889  0.87516362  0.66561200  1
  O2-  O200  1  0.24817617  0.12496554  0.16351837  1
  O2-  O201  1  0.24764503  0.12581095  0.66223356  1
  O2-  O202  1  0.24899581  0.37485354  0.16220105  1
  O2-  O203  1  0.24895445  0.37528650  0.66469615  1
  O2-  O204  1  0.25211169  0.62552876  0.16386267  1
  O2-  O205  1  0.24880688  0.62363535  0.66160243  1
  O2-  O206  1  0.24915853  0.87498491  0.16716098  1
  O2-  O207  1  0.25277988  0.87496615  0.66061356  1
  O2-  O208  1  0.49744635  0.12394807  0.16299037  1
  O2-  O209  1  0.50226861  0.12517529  0.66418680  1
  O2-  O210  1  0.50093148  0.37507699  0.15874269  1
  O2-  O211  1  0.50093831  0.37487716  0.66484845  1
  O2-  O212  1  0.49998135  0.62612552  0.16275559  1
  O2-  O213  1  0.50125517  0.62541261  0.66408983  1
  O2-  O214  1  0.50292050  0.87465273  0.16483503  1
  O2-  O215  1  0.50092590  0.87393851  0.66328023  1
  O2-  O216  1  0.75051480  0.12464309  0.16396597  1
  O2-  O217  1  0.75118662  0.12435882  0.66938679  1
  O2-  O218  1  0.74941532  0.37622571  0.16230062  1
  O2-  O219  1  0.75094235  0.37518563  0.67088853  1
  O2-  O220  1  0.74867963  0.62444830  0.16559594  1
  O2-  O221  1  0.75139354  0.62482975  0.66782740  1
  O2-  O222  1  0.74703345  0.87453424  0.16372817  1
  O2-  O223  1  0.74798360  0.87548725  0.66682729  1
  O2-  O224  1  0.12474858  0.00130480  0.34662823  1
  O2-  O225  1  0.12599924  0.00113916  0.84687068  1
  O2-  O226  1  0.12375424  0.25011865  0.34255987  1
  O2-  O227  1  0.12509863  0.24977075  0.85539286  1
  O2-  O228  1  0.12435686  0.50026273  0.34368560  1
  O2-  O229  1  0.12564608  0.49710788  0.85346008  1
  O2-  O230  1  0.12474067  0.74807706  0.34817677  1
  O2-  O231  1  0.12551757  0.75183706  0.84522975  1
  O2-  O232  1  0.37605614  -0.00300226  0.35243422  1
  O2-  O233  1  0.37428159  0.00132120  0.84352154  1
  O2-  O234  1  0.37540145  0.25200974  0.34461131  1
  O2-  O235  1  0.37477207  0.24965162  0.84685072  1
  O2-  O236  1  0.37508751  0.50004015  0.34053668  1
  O2-  O237  1  0.37502628  0.49972299  0.84800607  1
  O2-  O238  1  0.37640081  0.75056466  0.35039751  1
  O2-  O239  1  0.37549476  0.74935273  0.84376720  1
  O2-  O240  1  0.62514176  -0.00127522  0.35030645  1
  O2-  O241  1  0.62470210  -0.00326059  0.84652058  1
  O2-  O242  1  0.62566762  0.25012482  0.34067610  1
  O2-  O243  1  0.62466251  0.25265792  0.85202410  1
  O2-  O244  1  0.62542755  0.49995052  0.34006425  1
  O2-  O245  1  0.62466964  0.49857341  0.85257050  1
  O2-  O246  1  0.62469464  0.75105784  0.35045281  1
  O2-  O247  1  0.62458700  0.75235619  0.84676733  1
  O2-  O248  1  0.87385623  -0.00059426  0.34733564  1
  O2-  O249  1  0.87533098  -0.00023553  0.84844383  1
  O2-  O250  1  0.87452225  0.24958303  0.34618979  1
  O2-  O251  1  0.87495705  0.25331185  0.85531595  1
  O2-  O252  1  0.87455054  0.49999047  0.34671841  1
  O2-  O253  1  0.87496617  0.49892362  0.85329517  1
  O2-  O254  1  0.87388204  0.75094406  0.34843900  1
  O2-  O255  1  0.87482438  0.74851575  0.84475227  1
  O2-  O256  1  -0.00076993  0.12614462  0.34512003  1
  O2-  O257  1  0.00381695  0.12524624  0.85458018  1
  O2-  O258  1  -0.00123042  0.37489132  0.34605066  1
  O2-  O259  1  0.00046207  0.37475829  0.85968285  1
  O2-  O260  1  0.00001435  0.62373771  0.34720136  1
  O2-  O261  1  -0.00064246  0.62446315  0.85075412  1
  O2-  O262  1  -0.00206549  0.87512003  0.34756088  1
  O2-  O263  1  0.00244973  0.87568255  0.84788106  1
  O2-  O264  1  0.24849181  0.12556976  0.34647023  1
  O2-  O265  1  0.24860697  0.12540548  0.84429080  1
  O2-  O266  1  0.25117774  0.37501705  0.34521076  1
  O2-  O267  1  0.24931493  0.37412684  0.84695987  1
  O2-  O268  1  0.25080801  0.62474940  0.34472458  1
  O2-  O269  1  0.25119992  0.62524560  0.84406472  1
  O2-  O270  1  0.25314936  0.87444168  0.35109128  1
  O2-  O271  1  0.24842403  0.87558362  0.84259355  1
  O2-  O272  1  0.50238034  0.12447297  0.34514667  1
  O2-  O273  1  0.49747075  0.12450285  0.84638564  1
  O2-  O274  1  0.49999735  0.37524819  0.33923850  1
  O2-  O275  1  0.50048548  0.37538164  0.84814382  1
  O2-  O276  1  0.49990357  0.62522423  0.34199700  1
  O2-  O277  1  0.49896163  0.62532787  0.84737282  1
  O2-  O278  1  0.50066067  0.87483018  0.34921148  1
  O2-  O279  1  0.50184528  0.87483272  0.84850125  1
  O2-  O280  1  0.74961755  0.12508446  0.34606606  1
  O2-  O281  1  0.75024457  0.12452778  0.85201887  1
  O2-  O282  1  0.74895428  0.37510155  0.34580054  1
  O2-  O283  1  0.74963189  0.37590330  0.85429518  1
  O2-  O284  1  0.74927605  0.62503600  0.34774412  1
  O2-  O285  1  0.75070475  0.62500041  0.85006822  1
  O2-  O286  1  0.74818199  0.87474635  0.34659435  1
  O2-  O287  1  0.74784483  0.87432169  0.85187564  1
