# generated using pymatgen
data_BaYFeCuO5
_symmetry_space_group_name_H-M   'P 1'
_cell_length_a   15.66365339
_cell_length_b   15.66417822
_cell_length_c   15.47146084
_cell_angle_alpha   89.99577590
_cell_angle_beta   90.00048346
_cell_angle_gamma   90.00488986
_symmetry_Int_Tables_number   1
_chemical_formula_structural   BaYFeCuO5
_chemical_formula_sum   'Ba32 Y32 Fe32 Cu32 O160'
_cell_volume   3796.05066175
_cell_formula_units_Z   32
loop_
 _symmetry_equiv_pos_site_id
 _symmetry_equiv_pos_as_xyz
  1  'x, y, z'
loop_
 _atom_type_symbol
 _atom_type_oxidation_number
  Ba2+  2.0
  Y3+  3.0
  Fe3+  3.0
  Cu2+  2.0
  O2-  -2.0
loop_
 _atom_site_type_symbol
 _atom_site_label
 _atom_site_symmetry_multiplicity
 _atom_site_fract_x
 _atom_site_fract_y
 _atom_site_fract_z
 _atom_site_occupancy
  Ba2+  Ba0  1  0.00516784  0.00270511  0.01160223  1
  Ba2+  Ba1  1  0.00031262  -0.00172528  0.50685225  1
  Ba2+  Ba2  1  0.00468520  0.24822329  0.01137405  1
  Ba2+  Ba3  1  -0.00886222  0.25065170  0.51725768  1
  Ba2+  Ba4  1  0.00278464  0.50633669  0.00592908  1
  Ba2+  Ba5  1  -0.00326681  0.50894447  0.51122797  1
  Ba2+  Ba6  1  0.00309145  0.74290342  0.00646334  1
  Ba2+  Ba7  1  0.00419200  0.74248721  0.50273060  1
  Ba2+  Ba8  1  0.24892464  -0.00894690  0.00767303  1
  Ba2+  Ba9  1  0.25828362  -0.00337240  0.50775997  1
  Ba2+  Ba10  1  0.24617337  0.25673216  0.01417996  1
  Ba2+  Ba11  1  0.26030648  0.24774899  0.50227480  1
  Ba2+  Ba12  1  0.25337789  0.50363111  0.01355707  1
  Ba2+  Ba13  1  0.25302454  0.50911952  0.50361735  1
  Ba2+  Ba14  1  0.25549046  0.74756843  0.00656465  1
  Ba2+  Ba15  1  0.25112557  0.74568522  0.50696494  1
  Ba2+  Ba16  1  0.49717002  -0.01198563  0.01053406  1
  Ba2+  Ba17  1  0.49911564  -0.00023486  0.52318578  1
  Ba2+  Ba18  1  0.49918867  0.26064526  0.01811229  1
  Ba2+  Ba19  1  0.49580736  0.24275347  0.50623394  1
  Ba2+  Ba20  1  0.49762712  0.50407716  0.02317205  1
  Ba2+  Ba21  1  0.49728117  0.50897882  0.50173604  1
  Ba2+  Ba22  1  0.49512065  0.74756593  0.01624512  1
  Ba2+  Ba23  1  0.49972824  0.74771899  0.51709899  1
  Ba2+  Ba24  1  0.75013672  -0.00129772  0.01405748  1
  Ba2+  Ba25  1  0.74428267  0.00236041  0.52261722  1
  Ba2+  Ba26  1  0.75045976  0.25178094  0.01442903  1
  Ba2+  Ba27  1  0.75157120  0.24589102  0.52188925  1
  Ba2+  Ba28  1  0.74721667  0.50597681  0.01781783  1
  Ba2+  Ba29  1  0.75301242  0.50861298  0.51027631  1
  Ba2+  Ba30  1  0.74672744  0.74313687  0.01723150  1
  Ba2+  Ba31  1  0.74494439  0.74303968  0.51033751  1
  Y3+  Y32  1  0.00160390  -0.00230992  0.25725273  1
  Y3+  Y33  1  0.00080510  -0.00001071  0.75762797  1
  Y3+  Y34  1  0.00055638  0.25070617  0.25630854  1
  Y3+  Y35  1  -0.00036202  0.25086864  0.75711211  1
  Y3+  Y36  1  0.00014251  0.50337074  0.25982714  1
  Y3+  Y37  1  -0.00138970  0.50449489  0.75523754  1
  Y3+  Y38  1  0.00142197  0.74801992  0.26010048  1
  Y3+  Y39  1  -0.00018168  0.74496265  0.75673707  1
  Y3+  Y40  1  0.25055811  -0.00365576  0.25823722  1
  Y3+  Y41  1  0.25262452  -0.00103214  0.75874732  1
  Y3+  Y42  1  0.25270922  0.25194125  0.26049414  1
  Y3+  Y43  1  0.25039112  0.24883778  0.75649930  1
  Y3+  Y44  1  0.25255096  0.50185992  0.26106528  1
  Y3+  Y45  1  0.25043735  0.50535538  0.75637078  1
  Y3+  Y46  1  0.25048842  0.74979016  0.25868652  1
  Y3+  Y47  1  0.25312961  0.74725027  0.75806273  1
  Y3+  Y48  1  0.49818703  -0.00285010  0.25431136  1
  Y3+  Y49  1  0.49722427  -0.00182206  0.75782097  1
  Y3+  Y50  1  0.49797808  0.25247204  0.25924893  1
  Y3+  Y51  1  0.49870826  0.24883040  0.75464183  1
  Y3+  Y52  1  0.49852413  0.50266505  0.25996020  1
  Y3+  Y53  1  0.49868176  0.50433019  0.75414017  1
  Y3+  Y54  1  0.49924690  0.74755345  0.25639548  1
  Y3+  Y55  1  0.49705965  0.74887855  0.75721471  1
  Y3+  Y56  1  0.75040502  -0.00202353  0.25306782  1
  Y3+  Y57  1  0.74853001  -0.00026662  0.75746816  1
  Y3+  Y58  1  0.74974048  0.25109958  0.25374447  1
  Y3+  Y59  1  0.75080909  0.25059402  0.75619885  1
  Y3+  Y60  1  0.74930693  0.50449522  0.25892477  1
  Y3+  Y61  1  0.75158811  0.50343050  0.75416536  1
  Y3+  Y62  1  0.74954832  0.74640137  0.25783075  1
  Y3+  Y63  1  0.74896977  0.74624384  0.75497820  1
  Fe3+  Fe64  1  0.37428853  0.12597191  0.88141810  1
  Fe3+  Fe65  1  0.12535903  0.12482083  0.38048408  1
  Fe3+  Fe66  1  0.62492966  0.87529874  0.37605593  1
  Fe3+  Fe67  1  0.62576492  0.37505173  0.37905615  1
  Fe3+  Fe68  1  0.62517276  0.12348245  0.37357434  1
  Fe3+  Fe69  1  0.87516799  0.12510135  0.87721646  1
  Fe3+  Fe70  1  0.37556739  0.37684199  0.87635374  1
  Fe3+  Fe71  1  0.62435457  0.37664287  0.87598975  1
  Fe3+  Fe72  1  0.87385939  0.87444732  0.37920451  1
  Fe3+  Fe73  1  0.12545880  0.37659534  0.87520188  1
  Fe3+  Fe74  1  0.62379997  0.62413484  0.87603272  1
  Fe3+  Fe75  1  0.12443388  0.37529607  0.38103310  1
  Fe3+  Fe76  1  0.37681339  0.87439702  0.37661277  1
  Fe3+  Fe77  1  0.87333415  0.12454127  0.37449283  1
  Fe3+  Fe78  1  0.62501366  0.87316653  0.87676101  1
  Fe3+  Fe79  1  0.62357377  0.12575001  0.87951734  1
  Fe3+  Fe80  1  0.87382928  0.37494134  0.37658405  1
  Fe3+  Fe81  1  0.87465398  0.87323309  0.87913570  1
  Fe3+  Fe82  1  0.12459660  0.87348487  0.87660657  1
  Fe3+  Fe83  1  0.87452605  0.37681374  0.87870446  1
  Fe3+  Fe84  1  0.87501221  0.87361727  0.63470542  1
  Fe3+  Fe85  1  0.12574594  0.87386371  0.63704999  1
  Fe3+  Fe86  1  0.87650496  0.37673782  0.13465215  1
  Fe3+  Fe87  1  0.37481919  0.37594425  0.63499502  1
  Fe3+  Fe88  1  0.37416144  0.12474401  0.13483242  1
  Fe3+  Fe89  1  0.12534631  0.37634595  0.63363268  1
  Fe3+  Fe90  1  0.62386919  0.12481886  0.13332306  1
  Fe3+  Fe91  1  0.12598273  0.62506305  0.14100308  1
  Fe3+  Fe92  1  0.62424931  0.37623132  0.63280455  1
  Fe3+  Fe93  1  0.12579701  0.12466996  0.63493955  1
  Fe3+  Fe94  1  0.12677996  0.12480883  0.14015398  1
  Fe3+  Fe95  1  0.87658708  0.87303552  0.13460956  1
  Cu2+  Cu96  1  0.12572918  0.62467938  0.86280632  1
  Cu2+  Cu97  1  0.37612626  0.62410259  0.87284973  1
  Cu2+  Cu98  1  0.12560955  0.12540143  0.86265607  1
  Cu2+  Cu99  1  0.87330034  0.62485854  0.87405879  1
  Cu2+  Cu100  1  0.37550274  0.62720917  0.37130953  1
  Cu2+  Cu101  1  0.37523703  0.87362291  0.87220195  1
  Cu2+  Cu102  1  0.12565944  0.62492323  0.37238285  1
  Cu2+  Cu103  1  0.37669309  0.12249967  0.36988599  1
  Cu2+  Cu104  1  0.37591676  0.37580870  0.36834341  1
  Cu2+  Cu105  1  0.62454291  0.62616924  0.37207788  1
  Cu2+  Cu106  1  0.87477135  0.62561967  0.37160304  1
  Cu2+  Cu107  1  0.12514990  0.87508362  0.36864529  1
  Cu2+  Cu108  1  0.12509188  0.37628401  0.15510911  1
  Cu2+  Cu109  1  0.87584951  0.12336698  0.65385997  1
  Cu2+  Cu110  1  0.37380403  0.12506026  0.64317558  1
  Cu2+  Cu111  1  0.62432824  0.62492507  0.15430750  1
  Cu2+  Cu112  1  0.62456594  0.87428745  0.65226778  1
  Cu2+  Cu113  1  0.12576927  0.62571274  0.64247444  1
  Cu2+  Cu114  1  0.87490984  0.37620742  0.65063575  1
  Cu2+  Cu115  1  0.37430892  0.87418516  0.65218697  1
  Cu2+  Cu116  1  0.62542226  0.87403822  0.14817680  1
  Cu2+  Cu117  1  0.37381437  0.62517223  0.14521959  1
  Cu2+  Cu118  1  0.62535608  0.37582427  0.15288580  1
  Cu2+  Cu119  1  0.12485392  0.87363557  0.15178673  1
  Cu2+  Cu120  1  0.62391082  0.62468380  0.64139115  1
  Cu2+  Cu121  1  0.87494929  0.62674188  0.64256919  1
  Cu2+  Cu122  1  0.37464912  0.62530205  0.64263997  1
  Cu2+  Cu123  1  0.37385888  0.87380400  0.14206875  1
  Cu2+  Cu124  1  0.37436356  0.37555291  0.15506772  1
  Cu2+  Cu125  1  0.87641755  0.62502907  0.14277928  1
  Cu2+  Cu126  1  0.62414294  0.12546522  0.65547416  1
  Cu2+  Cu127  1  0.87598658  0.12486342  0.14799832  1
  O2-  O128  1  0.12654378  0.12623568  0.01925739  1
  O2-  O129  1  0.12476096  0.12464507  0.50777413  1
  O2-  O130  1  0.12457563  0.37552149  -0.00441520  1
  O2-  O131  1  0.12360140  0.37369924  0.50721511  1
  O2-  O132  1  0.12638639  0.62395890  0.01959575  1
  O2-  O133  1  0.12520294  0.62441219  0.50810478  1
  O2-  O134  1  0.12232948  0.87474822  -0.00281192  1
  O2-  O135  1  0.12475460  0.87704674  0.51655836  1
  O2-  O136  1  0.37307496  0.12711578  0.00794506  1
  O2-  O137  1  0.37631084  0.12331430  0.50706879  1
  O2-  O138  1  0.37496714  0.37586382  -0.00312473  1
  O2-  O139  1  0.37635105  0.37370511  0.51465478  1
  O2-  O140  1  0.37519747  0.62340765  0.00879091  1
  O2-  O141  1  0.37541216  0.62741715  0.50710891  1
  O2-  O142  1  0.37390018  0.87433292  0.00699537  1
  O2-  O143  1  0.37841420  0.87582412  0.49720166  1
  O2-  O144  1  0.62381994  0.12672177  0.00481083  1
  O2-  O145  1  0.62626725  0.12343353  0.49364546  1
  O2-  O146  1  0.62487664  0.37585930  -0.00380608  1
  O2-  O147  1  0.62642381  0.37320843  0.50576569  1
  O2-  O148  1  0.62378153  0.62332732  -0.00326140  1
  O2-  O149  1  0.62465415  0.62473036  0.50632569  1
  O2-  O150  1  0.62731788  0.87366386  -0.00301406  1
  O2-  O151  1  0.62518698  0.87893489  0.49602057  1
  O2-  O152  1  0.87633762  0.12588108  -0.00287416  1
  O2-  O153  1  0.87146718  0.12421799  0.49446868  1
  O2-  O154  1  0.87598584  0.37602845  0.00552566  1
  O2-  O155  1  0.87238755  0.37179452  0.49650393  1
  O2-  O156  1  0.87475640  0.62413993  0.00746936  1
  O2-  O157  1  0.87468652  0.62737880  0.50674031  1
  O2-  O158  1  0.87616044  0.87430494  0.00585467  1
  O2-  O159  1  0.87339086  0.87600954  0.50672498  1
  O2-  O160  1  0.12492278  -0.00026158  0.16594226  1
  O2-  O161  1  0.12472439  0.00082113  0.66584126  1
  O2-  O162  1  0.12529107  0.25030361  0.16779827  1
  O2-  O163  1  0.12333108  0.24991287  0.66174269  1
  O2-  O164  1  0.12499294  0.50010722  0.16920601  1
  O2-  O165  1  0.12453433  0.49767595  0.66289089  1
  O2-  O166  1  0.12429148  0.74969419  0.16726589  1
  O2-  O167  1  0.12436106  0.75181199  0.66776591  1
  O2-  O168  1  0.37408369  0.00259112  0.16073930  1
  O2-  O169  1  0.37436429  -0.00127210  0.66815580  1
  O2-  O170  1  0.37488824  0.24874315  0.16434320  1
  O2-  O171  1  0.37463552  0.25222092  0.66722740  1
  O2-  O172  1  0.37447569  0.49879075  0.16789203  1
  O2-  O173  1  0.37431021  0.49813535  0.66505693  1
  O2-  O174  1  0.37486175  0.74975742  0.16498087  1
  O2-  O175  1  0.37494518  0.75105847  0.66626701  1
  O2-  O176  1  0.62593942  0.00196162  0.15814992  1
  O2-  O177  1  0.62502768  0.00038462  0.66747228  1
  O2-  O178  1  0.62466537  0.24815612  0.16282844  1
  O2-  O179  1  0.62526007  0.25169664  0.66378296  1
  O2-  O180  1  0.62570766  0.50001378  0.16733798  1
  O2-  O181  1  0.62548761  0.49709619  0.66163888  1
  O2-  O182  1  0.62564835  0.74944775  0.16393063  1
  O2-  O183  1  0.62509448  0.75083969  0.66387509  1
  O2-  O184  1  0.87567693  -0.00187226  0.16078928  1
  O2-  O185  1  0.87445960  -0.00208484  0.66527824  1
  O2-  O186  1  0.87587503  0.25182824  0.16019262  1
  O2-  O187  1  0.87554453  0.24861487  0.66443211  1
  O2-  O188  1  0.87506676  0.49778279  0.16475065  1
  O2-  O189  1  0.87497638  0.50042079  0.66450412  1
  O2-  O190  1  0.87546240  0.75201625  0.16413575  1
  O2-  O191  1  0.87472963  0.75324661  0.66630414  1
  O2-  O192  1  0.00163797  0.12494872  0.16854765  1
  O2-  O193  1  0.00234945  0.12424111  0.66190544  1
  O2-  O194  1  -0.00131004  0.37427850  0.16470450  1
  O2-  O195  1  0.00096837  0.37436454  0.66333862  1
  O2-  O196  1  0.00232557  0.62486548  0.16908018  1
  O2-  O197  1  -0.00047179  0.62556348  0.66538731  1
  O2-  O198  1  -0.00155815  0.87544783  0.16702472  1
  O2-  O199  1  -0.00108475  0.87641984  0.66434735  1
  O2-  O200  1  0.25159568  0.12593801  0.16974049  1
  O2-  O201  1  0.24631887  0.12539439  0.66608939  1
  O2-  O202  1  0.24974930  0.37411816  0.16849747  1
  O2-  O203  1  0.24848887  0.37355173  0.66362966  1
  O2-  O204  1  0.24837436  0.62447980  0.17036440  1
  O2-  O205  1  0.25067430  0.62555619  0.66598804  1
  O2-  O206  1  0.24837936  0.87519945  0.16745521  1
  O2-  O207  1  0.24963251  0.87593651  0.66647013  1
  O2-  O208  1  0.49915130  0.12536370  0.15849368  1
  O2-  O209  1  0.50050682  0.12474567  0.66776616  1
  O2-  O210  1  0.50027764  0.37473957  0.16499538  1
  O2-  O211  1  0.50093772  0.37407442  0.66297545  1
  O2-  O212  1  0.50065652  0.62390258  0.16511185  1
  O2-  O213  1  0.49926627  0.62515610  0.66356604  1
  O2-  O214  1  0.50155798  0.87585693  0.16083844  1
  O2-  O215  1  0.49959036  0.87621662  0.66448983  1
  O2-  O216  1  0.74849617  0.12558791  0.15676853  1
  O2-  O217  1  0.74992439  0.12506185  0.66533836  1
  O2-  O218  1  0.75202269  0.37388615  0.15992150  1
  O2-  O219  1  0.74879238  0.37361803  0.66345404  1
  O2-  O220  1  0.74891878  0.62495008  0.16455650  1
  O2-  O221  1  0.74985161  0.62533695  0.66343945  1
  O2-  O222  1  0.75199896  0.87524572  0.16087749  1
  O2-  O223  1  0.75110104  0.87620887  0.66342110  1
  O2-  O224  1  0.12396862  0.00238144  0.34980451  1
  O2-  O225  1  0.12394570  -0.00035367  0.84846797  1
  O2-  O226  1  0.12494117  0.24975509  0.35155533  1
  O2-  O227  1  0.12460199  0.25122138  0.84518061  1
  O2-  O228  1  0.12454046  0.49666209  0.35209608  1
  O2-  O229  1  0.12425690  0.50019569  0.84570559  1
  O2-  O230  1  0.12424919  0.75088483  0.35043072  1
  O2-  O231  1  0.12380337  0.74907220  0.84979431  1
  O2-  O232  1  0.37528411  -0.00284303  0.34252350  1
  O2-  O233  1  0.37505390  0.00323782  0.85252688  1
  O2-  O234  1  0.37590486  0.25022747  0.34899106  1
  O2-  O235  1  0.37465746  0.24925164  0.84834557  1
  O2-  O236  1  0.37554281  0.50018461  0.35171012  1
  O2-  O237  1  0.37517897  0.49856966  0.84505724  1
  O2-  O238  1  0.37490264  0.75258327  0.34603531  1
  O2-  O239  1  0.37511268  0.74908125  0.84991929  1
  O2-  O240  1  0.62602962  -0.00048836  0.33871940  1
  O2-  O241  1  0.62511706  0.00177172  0.85104053  1
  O2-  O242  1  0.62560464  0.25071985  0.34630485  1
  O2-  O243  1  0.62549231  0.24897892  0.84712856  1
  O2-  O244  1  0.62537997  0.49763804  0.35215928  1
  O2-  O245  1  0.62518550  0.49949284  0.84200475  1
  O2-  O246  1  0.62650862  0.75230825  0.34692128  1
  O2-  O247  1  0.62555982  0.74948008  0.84541000  1
  O2-  O248  1  0.87536352  -0.00085349  0.34451379  1
  O2-  O249  1  0.87493365  -0.00101185  0.84918411  1
  O2-  O250  1  0.87459608  0.24933002  0.34175022  1
  O2-  O251  1  0.87474534  0.25145669  0.84850120  1
  O2-  O252  1  0.87497209  0.49798855  0.34765987  1
  O2-  O253  1  0.87474605  0.49732274  0.84804380  1
  O2-  O254  1  0.87511702  0.75329624  0.34865247  1
  O2-  O255  1  0.87455724  0.75250309  0.84940700  1
  O2-  O256  1  0.00049174  0.12521445  0.35093506  1
  O2-  O257  1  -0.00097220  0.12556696  0.84577609  1
  O2-  O258  1  0.00051355  0.37342531  0.34844212  1
  O2-  O259  1  -0.00138695  0.37468967  0.84773621  1
  O2-  O260  1  0.00020428  0.62490170  0.35079561  1
  O2-  O261  1  0.00083509  0.62460373  0.84983347  1
  O2-  O262  1  -0.00169665  0.87638469  0.35269063  1
  O2-  O263  1  -0.00157348  0.87523910  0.84686713  1
  O2-  O264  1  0.24754878  0.12506707  0.35343868  1
  O2-  O265  1  0.25171756  0.12578792  0.84975625  1
  O2-  O266  1  0.24860902  0.37372648  0.35387405  1
  O2-  O267  1  0.25030654  0.37467000  0.84475146  1
  O2-  O268  1  0.25024405  0.62523818  0.35185331  1
  O2-  O269  1  0.24945620  0.62454179  0.84980144  1
  O2-  O270  1  0.25031526  0.87608337  0.35111361  1
  O2-  O271  1  0.24819505  0.87549323  0.84875441  1
  O2-  O272  1  0.50262591  0.12500710  0.34127720  1
  O2-  O273  1  0.49964895  0.12621768  0.85165965  1
  O2-  O274  1  0.50230931  0.37406647  0.35057469  1
  O2-  O275  1  0.50009985  0.37356348  0.84338971  1
  O2-  O276  1  0.49973300  0.62566505  0.34802499  1
  O2-  O277  1  0.50177847  0.62454221  0.84483164  1
  O2-  O278  1  0.50106365  0.87534261  0.34228543  1
  O2-  O279  1  0.50187528  0.87580414  0.84770980  1
  O2-  O280  1  0.75005442  0.12468193  0.33791004  1
  O2-  O281  1  0.74867501  0.12529898  0.84926722  1
  O2-  O282  1  0.74888042  0.37421776  0.34360152  1
  O2-  O283  1  0.75069874  0.37402330  0.84747742  1
  O2-  O284  1  0.75033183  0.62522990  0.34821155  1
  O2-  O285  1  0.74732439  0.62437744  0.84529550  1
  O2-  O286  1  0.75127099  0.87612462  0.34462376  1
  O2-  O287  1  0.75078925  0.87617354  0.84685804  1
