# generated using pymatgen
data_BaYFeCuO5
_symmetry_space_group_name_H-M   'P 1'
_cell_length_a   15.65442094
_cell_length_b   15.65550036
_cell_length_c   15.45113136
_cell_angle_alpha   89.99273283
_cell_angle_beta   90.00196393
_cell_angle_gamma   90.00237586
_symmetry_Int_Tables_number   1
_chemical_formula_structural   BaYFeCuO5
_chemical_formula_sum   'Ba32 Y32 Fe32 Cu32 O160'
_cell_volume   3786.72913030
_cell_formula_units_Z   32
loop_
 _symmetry_equiv_pos_site_id
 _symmetry_equiv_pos_as_xyz
  1  'x, y, z'
loop_
 _atom_type_symbol
 _atom_type_oxidation_number
  Ba2+  2.0
  Y3+  3.0
  Fe3+  3.0
  Cu2+  2.0
  O2-  -2.0
loop_
 _atom_site_type_symbol
 _atom_site_label
 _atom_site_symmetry_multiplicity
 _atom_site_fract_x
 _atom_site_fract_y
 _atom_site_fract_z
 _atom_site_occupancy
  Ba2+  Ba0  1  0.00816609  -0.00538500  0.00638307  1
  Ba2+  Ba1  1  0.00149374  0.00671638  0.51634071  1
  Ba2+  Ba2  1  0.00603319  0.25294188  0.01230280  1
  Ba2+  Ba3  1  0.00514231  0.24687034  0.51180169  1
  Ba2+  Ba4  1  -0.00555434  0.49946137  0.00837680  1
  Ba2+  Ba5  1  0.00375637  0.49610873  0.51124320  1
  Ba2+  Ba6  1  -0.00240683  0.75362933  0.00014340  1
  Ba2+  Ba7  1  -0.00027351  0.74971083  0.51754642  1
  Ba2+  Ba8  1  0.24838629  -0.00036335  0.02004865  1
  Ba2+  Ba9  1  0.24589948  0.00517101  0.51953913  1
  Ba2+  Ba10  1  0.25305138  0.25071811  0.01305423  1
  Ba2+  Ba11  1  0.25008912  0.25450520  0.51602876  1
  Ba2+  Ba12  1  0.25727125  0.49592955  0.00200143  1
  Ba2+  Ba13  1  0.25439988  0.49137234  0.51057877  1
  Ba2+  Ba14  1  0.25344317  0.75414991  0.01161474  1
  Ba2+  Ba15  1  0.25094327  0.74862829  0.51677195  1
  Ba2+  Ba16  1  0.49427187  -0.00316009  0.02295492  1
  Ba2+  Ba17  1  0.50237507  -0.00266636  0.50957056  1
  Ba2+  Ba18  1  0.49248771  0.25545924  0.00676589  1
  Ba2+  Ba19  1  0.49607327  0.25939864  0.51023149  1
  Ba2+  Ba20  1  0.49244552  0.49676121  0.00248047  1
  Ba2+  Ba21  1  0.49921987  0.49670910  0.51738372  1
  Ba2+  Ba22  1  0.49366546  0.75106626  0.01637649  1
  Ba2+  Ba23  1  0.50578717  0.74604253  0.51680935  1
  Ba2+  Ba24  1  0.74972999  -0.00833927  0.00684180  1
  Ba2+  Ba25  1  0.75022519  -0.00032968  0.50552224  1
  Ba2+  Ba26  1  0.74930262  0.25805040  0.00668240  1
  Ba2+  Ba27  1  0.74994486  0.25111323  0.50596934  1
  Ba2+  Ba28  1  0.75553264  0.49994097  0.00810362  1
  Ba2+  Ba29  1  0.74296524  0.50197043  0.51813204  1
  Ba2+  Ba30  1  0.75630030  0.74940879  0.00598740  1
  Ba2+  Ba31  1  0.74371147  0.74734185  0.51748080  1
  Y3+  Y32  1  0.00089485  0.00151546  0.25680151  1
  Y3+  Y33  1  0.00100405  -0.00061700  0.75701518  1
  Y3+  Y34  1  0.00029946  0.25039625  0.26022935  1
  Y3+  Y35  1  0.00188686  0.24953874  0.75423602  1
  Y3+  Y36  1  -0.00067340  0.49946987  0.25732403  1
  Y3+  Y37  1  0.00044441  0.50031120  0.75817747  1
  Y3+  Y38  1  0.00018024  0.74941569  0.25395430  1
  Y3+  Y39  1  -0.00043353  0.75052091  0.76067058  1
  Y3+  Y40  1  0.24930381  0.00042454  0.25366642  1
  Y3+  Y41  1  0.24763822  0.00031418  0.75576963  1
  Y3+  Y42  1  0.25141663  0.25274433  0.25830565  1
  Y3+  Y43  1  0.25091357  0.25280616  0.75580406  1
  Y3+  Y44  1  0.25240351  0.49795484  0.25774953  1
  Y3+  Y45  1  0.25288353  0.49723912  0.75791874  1
  Y3+  Y46  1  0.25075723  0.74975125  0.25324433  1
  Y3+  Y47  1  0.24959560  0.74899594  0.75982873  1
  Y3+  Y48  1  0.50073339  -0.00193232  0.25899632  1
  Y3+  Y49  1  0.50042682  0.00066778  0.75241673  1
  Y3+  Y50  1  0.49785392  0.25342238  0.25894437  1
  Y3+  Y51  1  0.49834313  0.25370259  0.75584695  1
  Y3+  Y52  1  0.49727748  0.49791672  0.25748805  1
  Y3+  Y53  1  0.49783725  0.49772534  0.75834163  1
  Y3+  Y54  1  0.50005285  0.75066608  0.25599225  1
  Y3+  Y55  1  0.49964006  0.74684054  0.75641342  1
  Y3+  Y56  1  0.74934677  -0.00056158  0.26090729  1
  Y3+  Y57  1  0.75046966  -0.00041418  0.75424573  1
  Y3+  Y58  1  0.75049096  0.25071589  0.26055880  1
  Y3+  Y59  1  0.74883532  0.25082759  0.75501960  1
  Y3+  Y60  1  0.75068604  0.49958541  0.25644578  1
  Y3+  Y61  1  0.74868278  0.50071686  0.75901150  1
  Y3+  Y62  1  0.74873785  0.75067449  0.25624309  1
  Y3+  Y63  1  0.75069221  0.74827957  0.75813210  1
  Fe3+  Fe64  1  0.12532855  0.87456452  0.37828009  1
  Fe3+  Fe65  1  0.12615540  0.12542731  0.37501664  1
  Fe3+  Fe66  1  0.62382794  0.12615717  0.37876535  1
  Fe3+  Fe67  1  0.37516435  0.62512424  0.37783620  1
  Fe3+  Fe68  1  0.12590477  0.62389741  0.87932314  1
  Fe3+  Fe69  1  0.12612132  0.12581775  0.87602944  1
  Fe3+  Fe70  1  0.87501192  0.12456390  0.87972477  1
  Fe3+  Fe71  1  0.62397209  0.62439689  0.87948601  1
  Fe3+  Fe72  1  0.37504331  0.12388158  0.87536867  1
  Fe3+  Fe73  1  0.62325697  0.87519991  0.87605220  1
  Fe3+  Fe74  1  0.37514719  0.87638799  0.87352489  1
  Fe3+  Fe75  1  0.12556179  0.62478235  0.37966279  1
  Fe3+  Fe76  1  0.87583664  0.87431143  0.38042942  1
  Fe3+  Fe77  1  0.62391498  0.12498825  0.87999297  1
  Fe3+  Fe78  1  0.37420232  0.87439130  0.37899082  1
  Fe3+  Fe79  1  0.62434699  0.62407121  0.37463781  1
  Fe3+  Fe80  1  0.87504264  0.37574681  0.38005091  1
  Fe3+  Fe81  1  0.87587646  0.37368211  0.87499403  1
  Fe3+  Fe82  1  0.37420813  0.12509621  0.37800604  1
  Fe3+  Fe83  1  0.87469104  0.62566152  0.37903560  1
  Fe3+  Fe84  1  0.12531686  0.62447248  0.13429074  1
  Fe3+  Fe85  1  0.62449811  0.12615968  0.63514278  1
  Fe3+  Fe86  1  0.62481397  0.12568245  0.13516414  1
  Fe3+  Fe87  1  0.62462906  0.62481592  0.13364564  1
  Fe3+  Fe88  1  0.87504014  0.12537804  0.13451708  1
  Fe3+  Fe89  1  0.87495231  0.87482149  0.63680573  1
  Fe3+  Fe90  1  0.37492515  0.87474474  0.63454255  1
  Fe3+  Fe91  1  0.12575573  0.62398674  0.63727133  1
  Fe3+  Fe92  1  0.62475849  0.37534953  0.13756148  1
  Fe3+  Fe93  1  0.12535313  0.37594776  0.13866198  1
  Fe3+  Fe94  1  0.87541599  0.87559603  0.13916364  1
  Fe3+  Fe95  1  0.87490358  0.37545946  0.63617606  1
  Cu2+  Cu96  1  0.87425352  0.87624201  0.86095455  1
  Cu2+  Cu97  1  0.12644228  0.87564102  0.87187290  1
  Cu2+  Cu98  1  0.62477063  0.87319340  0.37431106  1
  Cu2+  Cu99  1  0.87594410  0.12467670  0.37474090  1
  Cu2+  Cu100  1  0.37441737  0.37339397  0.87034112  1
  Cu2+  Cu101  1  0.37483058  0.37544425  0.37198194  1
  Cu2+  Cu102  1  0.12480908  0.37439713  0.86427522  1
  Cu2+  Cu103  1  0.87503377  0.62452514  0.87242630  1
  Cu2+  Cu104  1  0.62515900  0.37448358  0.86539000  1
  Cu2+  Cu105  1  0.62475074  0.37666202  0.37393917  1
  Cu2+  Cu106  1  0.37509168  0.62558741  0.87255060  1
  Cu2+  Cu107  1  0.12533354  0.37524355  0.37363444  1
  Cu2+  Cu108  1  0.12484672  0.12614823  0.15035240  1
  Cu2+  Cu109  1  0.37539919  0.12538366  0.64534654  1
  Cu2+  Cu110  1  0.37497307  0.87539983  0.15521315  1
  Cu2+  Cu111  1  0.87524291  0.62530009  0.14084262  1
  Cu2+  Cu112  1  0.62438442  0.62408428  0.65659531  1
  Cu2+  Cu113  1  0.37505243  0.37528457  0.14386052  1
  Cu2+  Cu114  1  0.87544759  0.62448344  0.64983071  1
  Cu2+  Cu115  1  0.62573285  0.87517328  0.14987039  1
  Cu2+  Cu116  1  0.87431218  0.12569231  0.64032834  1
  Cu2+  Cu117  1  0.37466539  0.62366895  0.14033894  1
  Cu2+  Cu118  1  0.62534551  0.87481362  0.64101282  1
  Cu2+  Cu119  1  0.37501933  0.37518885  0.64458621  1
  Cu2+  Cu120  1  0.87501712  0.37405223  0.15308627  1
  Cu2+  Cu121  1  0.12557409  0.12553283  0.65299449  1
  Cu2+  Cu122  1  0.37567301  0.12584027  0.15213047  1
  Cu2+  Cu123  1  0.37453741  0.62465902  0.64997273  1
  Cu2+  Cu124  1  0.12483812  0.87430525  0.64940619  1
  Cu2+  Cu125  1  0.62506805  0.37496699  0.64332216  1
  Cu2+  Cu126  1  0.12498006  0.37568631  0.64269864  1
  Cu2+  Cu127  1  0.12396547  0.87441504  0.14130573  1
  O2-  O128  1  0.12622349  0.12540853  -0.00349399  1
  O2-  O129  1  0.12566749  0.12447671  0.49576530  1
  O2-  O130  1  0.12461281  0.37616128  0.01795740  1
  O2-  O131  1  0.12426000  0.37523490  0.50830170  1
  O2-  O132  1  0.12503482  0.62422196  0.00714264  1
  O2-  O133  1  0.12520044  0.62557762  0.50760862  1
  O2-  O134  1  0.12589888  0.87450241  0.00665693  1
  O2-  O135  1  0.12533573  0.87409682  0.49837872  1
  O2-  O136  1  0.37498528  0.12200877  -0.00431520  1
  O2-  O137  1  0.37426608  0.12446820  0.49815378  1
  O2-  O138  1  0.37433827  0.37352624  0.00697224  1
  O2-  O139  1  0.37507535  0.37558121  0.50843135  1
  O2-  O140  1  0.37496723  0.62609099  0.00655602  1
  O2-  O141  1  0.37569369  0.62638824  0.49807833  1
  O2-  O142  1  0.37530990  0.87770889  -0.00577131  1
  O2-  O143  1  0.37411525  0.87382667  0.50550274  1
  O2-  O144  1  0.62401317  0.12408058  0.00718169  1
  O2-  O145  1  0.62471615  0.12587007  0.50677963  1
  O2-  O146  1  0.62495508  0.37394191  0.01699318  1
  O2-  O147  1  0.62597880  0.37628574  0.50788789  1
  O2-  O148  1  0.62463319  0.62534702  0.00642633  1
  O2-  O149  1  0.62488527  0.62456196  0.49544766  1
  O2-  O150  1  0.62205230  0.87694551  -0.00346609  1
  O2-  O151  1  0.62549110  0.87410492  0.50679464  1
  O2-  O152  1  0.87493669  0.12460543  0.00690231  1
  O2-  O153  1  0.87488301  0.12451870  0.50740246  1
  O2-  O154  1  0.87612366  0.37271007  -0.00371497  1
  O2-  O155  1  0.87463334  0.37623043  0.50751512  1
  O2-  O156  1  0.87496202  0.62561738  0.00651281  1
  O2-  O157  1  0.87415605  0.62634999  0.49881769  1
  O2-  O158  1  0.87535215  0.87660323  0.01796685  1
  O2-  O159  1  0.87552535  0.87403352  0.50800576  1
  O2-  O160  1  0.12458193  0.00192481  0.16311647  1
  O2-  O161  1  0.12426182  0.00065722  0.66202995  1
  O2-  O162  1  0.12427920  0.25100605  0.16590381  1
  O2-  O163  1  0.12496191  0.24867762  0.66394629  1
  O2-  O164  1  0.12423268  0.50081553  0.16829026  1
  O2-  O165  1  0.12479537  0.50277481  0.66656123  1
  O2-  O166  1  0.12481991  0.74718790  0.16404853  1
  O2-  O167  1  0.12491886  0.74771931  0.66500121  1
  O2-  O168  1  0.37606081  0.00023006  0.16569940  1
  O2-  O169  1  0.37545353  -0.00164793  0.65871803  1
  O2-  O170  1  0.37555810  0.24933128  0.16523154  1
  O2-  O171  1  0.37539660  0.24894781  0.66532016  1
  O2-  O172  1  0.37496622  0.49918453  0.16622686  1
  O2-  O173  1  0.37500085  0.50132314  0.66694514  1
  O2-  O174  1  0.37490768  0.75154935  0.16401554  1
  O2-  O175  1  0.37470419  0.75131452  0.66273970  1
  O2-  O176  1  0.62527842  0.00192566  0.16530498  1
  O2-  O177  1  0.62536949  0.00264130  0.66243541  1
  O2-  O178  1  0.62594230  0.24890406  0.16662738  1
  O2-  O179  1  0.62511119  0.24796137  0.66583146  1
  O2-  O180  1  0.62609268  0.50054477  0.16340407  1
  O2-  O181  1  0.62519379  0.50110957  0.66835123  1
  O2-  O182  1  0.62531799  0.74933404  0.16080644  1
  O2-  O183  1  0.62512748  0.74808344  0.66591310  1
  O2-  O184  1  0.87410603  0.00221100  0.16728244  1
  O2-  O185  1  0.87511020  -0.00252691  0.66396374  1
  O2-  O186  1  0.87424965  0.24741120  0.16555735  1
  O2-  O187  1  0.87449304  0.25276992  0.66402583  1
  O2-  O188  1  0.87512745  0.49849947  0.16503527  1
  O2-  O189  1  0.87504019  0.49905500  0.66382551  1
  O2-  O190  1  0.87460565  0.75203857  0.16730216  1
  O2-  O191  1  0.87536343  0.75090147  0.66406610  1
  O2-  O192  1  -0.00209859  0.12538552  0.16204293  1
  O2-  O193  1  0.00215988  0.12504497  0.66547509  1
  O2-  O194  1  0.00001529  0.37477181  0.16778991  1
  O2-  O195  1  -0.00246779  0.37547765  0.66319098  1
  O2-  O196  1  0.00254800  0.62437146  0.16520322  1
  O2-  O197  1  0.00188988  0.62525164  0.66440721  1
  O2-  O198  1  -0.00202305  0.87585669  0.16905344  1
  O2-  O199  1  -0.00122254  0.87432844  0.66401077  1
  O2-  O200  1  0.25057138  0.12495220  0.16234914  1
  O2-  O201  1  0.24942974  0.12440261  0.66168853  1
  O2-  O202  1  0.24863194  0.37508346  0.16725363  1
  O2-  O203  1  0.25025622  0.37531368  0.66492862  1
  O2-  O204  1  0.24738823  0.62488313  0.16447419  1
  O2-  O205  1  0.24877733  0.62554832  0.66380410  1
  O2-  O206  1  0.25100586  0.87523538  0.16475756  1
  O2-  O207  1  0.25116663  0.87478312  0.66081435  1
  O2-  O208  1  0.50217312  0.12486814  0.16406194  1
  O2-  O209  1  0.50157061  0.12469689  0.66242698  1
  O2-  O210  1  0.50176898  0.37446510  0.16719441  1
  O2-  O211  1  0.49987566  0.37535110  0.66524759  1
  O2-  O212  1  0.50290961  0.62557103  0.16231645  1
  O2-  O213  1  0.49970598  0.62503657  0.66458725  1
  O2-  O214  1  0.50000861  0.87569393  0.16517692  1
  O2-  O215  1  0.49751816  0.87481640  0.65996574  1
  O2-  O216  1  0.74981619  0.12489168  0.16296337  1
  O2-  O217  1  0.74666667  0.12507464  0.66759394  1
  O2-  O218  1  0.74962740  0.37405213  0.16690935  1
  O2-  O219  1  0.75235693  0.37552374  0.66484549  1
  O2-  O220  1  0.74709660  0.62515815  0.16225278  1
  O2-  O221  1  0.74965285  0.62485126  0.66640709  1
  O2-  O222  1  0.75116231  0.87662570  0.16791523  1
  O2-  O223  1  0.75257308  0.87438689  0.66479322  1
  O2-  O224  1  0.12549425  -0.00097858  0.34483876  1
  O2-  O225  1  0.12427442  0.00241921  0.84521769  1
  O2-  O226  1  0.12483774  0.24906184  0.34763803  1
  O2-  O227  1  0.12406686  0.24945637  0.84704727  1
  O2-  O228  1  0.12441715  0.50320884  0.35156708  1
  O2-  O229  1  0.12436259  0.50032219  0.85121980  1
  O2-  O230  1  0.12484175  0.74900798  0.34722189  1
  O2-  O231  1  0.12488252  0.74734175  0.85008892  1
  O2-  O232  1  0.37498842  -0.00132485  0.34912959  1
  O2-  O233  1  0.37582643  0.00057926  0.83903301  1
  O2-  O234  1  0.37540194  0.24862851  0.34813230  1
  O2-  O235  1  0.37555553  0.24763103  0.84777289  1
  O2-  O236  1  0.37429039  0.50204155  0.34801216  1
  O2-  O237  1  0.37482227  0.49881646  0.85092984  1
  O2-  O238  1  0.37447319  0.75081578  0.34696210  1
  O2-  O239  1  0.37533468  0.75217973  0.84566527  1
  O2-  O240  1  0.62484250  0.00255360  0.35089624  1
  O2-  O241  1  0.62552352  0.00155749  0.84547346  1
  O2-  O242  1  0.62495303  0.24821752  0.35026987  1
  O2-  O243  1  0.62595896  0.24763198  0.85086826  1
  O2-  O244  1  0.62565558  0.50226118  0.34396650  1
  O2-  O245  1  0.62541266  0.50061839  0.85318218  1
  O2-  O246  1  0.62497252  0.74716623  0.34358796  1
  O2-  O247  1  0.62497814  0.74935880  0.84913701  1
  O2-  O248  1  0.87494219  -0.00344105  0.35042582  1
  O2-  O249  1  0.87391711  0.00253265  0.84837605  1
  O2-  O250  1  0.87473814  0.25266205  0.35061486  1
  O2-  O251  1  0.87403933  0.24743352  0.84699985  1
  O2-  O252  1  0.87542177  0.50030323  0.34862096  1
  O2-  O253  1  0.87519042  0.49751389  0.84732128  1
  O2-  O254  1  0.87587819  0.75084721  0.34869056  1
  O2-  O255  1  0.87476861  0.75185866  0.84889415  1
  O2-  O256  1  0.00251919  0.12458168  0.34530816  1
  O2-  O257  1  -0.00149063  0.12483305  0.84948804  1
  O2-  O258  1  -0.00281890  0.37580534  0.35125136  1
  O2-  O259  1  -0.00083539  0.37392459  0.84557386  1
  O2-  O260  1  0.00059082  0.62555993  0.34876217  1
  O2-  O261  1  0.00274005  0.62497149  0.84932587  1
  O2-  O262  1  -0.00023787  0.87443498  0.35000281  1
  O2-  O263  1  -0.00164155  0.87549409  0.84893320  1
  O2-  O264  1  0.25039415  0.12438210  0.34401118  1
  O2-  O265  1  0.25033988  0.12477209  0.84383237  1
  O2-  O266  1  0.25022814  0.37570866  0.34958896  1
  O2-  O267  1  0.24847189  0.37440899  0.84829432  1
  O2-  O268  1  0.24919683  0.62598297  0.34809541  1
  O2-  O269  1  0.24757268  0.62458811  0.84834923  1
  O2-  O270  1  0.25064987  0.87407362  0.34762938  1
  O2-  O271  1  0.25210788  0.87551768  0.84319701  1
  O2-  O272  1  0.50016189  0.12452616  0.34798464  1
  O2-  O273  1  0.50144403  0.12472065  0.84616141  1
  O2-  O274  1  0.49937830  0.37555599  0.34938867  1
  O2-  O275  1  0.50128484  0.37385788  0.84898943  1
  O2-  O276  1  0.49913378  0.62545900  0.34381808  1
  O2-  O277  1  0.50260262  0.62472347  0.84898049  1
  O2-  O278  1  0.49666249  0.87491292  0.34967814  1
  O2-  O279  1  0.50051210  0.87579321  0.84044466  1
  O2-  O280  1  0.74704554  0.12508633  0.34866076  1
  O2-  O281  1  0.74966419  0.12452938  0.85312283  1
  O2-  O282  1  0.75315430  0.37517743  0.35014735  1
  O2-  O283  1  0.75096253  0.37355209  0.84772308  1
  O2-  O284  1  0.75109721  0.62547494  0.34393069  1
  O2-  O285  1  0.74699008  0.62517346  0.85094341  1
  O2-  O286  1  0.75306703  0.87473508  0.35115325  1
  O2-  O287  1  0.74837813  0.87602050  0.84819077  1
