# generated using pymatgen
data_BaYFeCuO5
_symmetry_space_group_name_H-M   'P 1'
_cell_length_a   15.66271693
_cell_length_b   15.66557742
_cell_length_c   15.47080872
_cell_angle_alpha   89.98930396
_cell_angle_beta   89.99516728
_cell_angle_gamma   89.99975528
_symmetry_Int_Tables_number   1
_chemical_formula_structural   BaYFeCuO5
_chemical_formula_sum   'Ba32 Y32 Fe32 Cu32 O160'
_cell_volume   3796.00271054
_cell_formula_units_Z   32
loop_
 _symmetry_equiv_pos_site_id
 _symmetry_equiv_pos_as_xyz
  1  'x, y, z'
loop_
 _atom_type_symbol
 _atom_type_oxidation_number
  Ba2+  2.0
  Y3+  3.0
  Fe3+  3.0
  Cu2+  2.0
  O2-  -2.0
loop_
 _atom_site_type_symbol
 _atom_site_label
 _atom_site_symmetry_multiplicity
 _atom_site_fract_x
 _atom_site_fract_y
 _atom_site_fract_z
 _atom_site_occupancy
  Ba2+  Ba0  1  0.00354141  0.00016347  0.01476051  1
  Ba2+  Ba1  1  0.00134669  0.00213820  0.51363326  1
  Ba2+  Ba2  1  0.00377693  0.25021427  0.01553362  1
  Ba2+  Ba3  1  0.00395825  0.24210399  0.51660898  1
  Ba2+  Ba4  1  -0.00109110  0.49973732  0.01698347  1
  Ba2+  Ba5  1  -0.00330206  0.50260708  0.51125793  1
  Ba2+  Ba6  1  -0.00106045  0.74976378  0.01610016  1
  Ba2+  Ba7  1  -0.00650452  0.75372762  0.50571549  1
  Ba2+  Ba8  1  0.24530015  0.00133440  0.01588357  1
  Ba2+  Ba9  1  0.24239641  -0.00055335  0.50695378  1
  Ba2+  Ba10  1  0.24337325  0.24918171  0.00610220  1
  Ba2+  Ba11  1  0.23965269  0.24566709  0.51171428  1
  Ba2+  Ba12  1  0.24266773  0.49252454  0.00617362  1
  Ba2+  Ba13  1  0.24438202  0.49543599  0.51172399  1
  Ba2+  Ba14  1  0.24308513  0.75582387  0.01575518  1
  Ba2+  Ba15  1  0.24822788  0.75997052  0.50658524  1
  Ba2+  Ba16  1  0.50194706  -0.00228459  0.01137136  1
  Ba2+  Ba17  1  0.50453833  -0.00270200  0.51366639  1
  Ba2+  Ba18  1  0.49950339  0.24998810  0.00559141  1
  Ba2+  Ba19  1  0.50775119  0.24749622  0.50645644  1
  Ba2+  Ba20  1  0.50558753  0.49554945  0.01428990  1
  Ba2+  Ba21  1  0.50471674  0.49586949  0.50218922  1
  Ba2+  Ba22  1  0.50682810  0.75530943  0.01568414  1
  Ba2+  Ba23  1  0.50154971  0.75986350  0.50597392  1
  Ba2+  Ba24  1  0.74884923  -0.00306695  0.00991956  1
  Ba2+  Ba25  1  0.75127667  0.00041125  0.51933178  1
  Ba2+  Ba26  1  0.75166753  0.25129014  0.01766164  1
  Ba2+  Ba27  1  0.74889894  0.24406404  0.51202247  1
  Ba2+  Ba28  1  0.75338100  0.50224551  0.02177654  1
  Ba2+  Ba29  1  0.75394832  0.50264350  0.50198058  1
  Ba2+  Ba30  1  0.75170209  0.74956678  0.01598630  1
  Ba2+  Ba31  1  0.75694246  0.75351226  0.50559392  1
  Y3+  Y32  1  0.00087553  0.00087857  0.25394019  1
  Y3+  Y33  1  0.00332863  0.00105795  0.75953897  1
  Y3+  Y34  1  0.00123355  0.24808023  0.25401228  1
  Y3+  Y35  1  0.00374489  0.24811781  0.75869186  1
  Y3+  Y36  1  -0.00168849  0.50117121  0.25534884  1
  Y3+  Y37  1  -0.00083610  0.50074130  0.75773356  1
  Y3+  Y38  1  -0.00232718  0.75005437  0.25519666  1
  Y3+  Y39  1  -0.00124951  0.74983693  0.75887392  1
  Y3+  Y40  1  0.24881789  0.00055400  0.25486831  1
  Y3+  Y41  1  0.24541694  0.00075427  0.76010278  1
  Y3+  Y42  1  0.24691137  0.24651772  0.25518627  1
  Y3+  Y43  1  0.24571578  0.25007363  0.76019222  1
  Y3+  Y44  1  0.24723746  0.49960944  0.25570263  1
  Y3+  Y45  1  0.24788086  0.49710705  0.75893806  1
  Y3+  Y46  1  0.24919446  0.75341010  0.25527022  1
  Y3+  Y47  1  0.24786751  0.75185890  0.75899164  1
  Y3+  Y48  1  0.49739745  -0.00186560  0.25404594  1
  Y3+  Y49  1  0.50371574  -0.00027633  0.76071580  1
  Y3+  Y50  1  0.50036833  0.24963988  0.25729052  1
  Y3+  Y51  1  0.50045188  0.24866151  0.75829624  1
  Y3+  Y52  1  0.50248435  0.49946615  0.25816613  1
  Y3+  Y53  1  0.49915263  0.49939039  0.75751482  1
  Y3+  Y54  1  0.50029582  0.75319093  0.25493422  1
  Y3+  Y55  1  0.50189509  0.75198750  0.75895504  1
  Y3+  Y56  1  0.75272287  -0.00169862  0.25259755  1
  Y3+  Y57  1  0.74746099  -0.00015636  0.76014286  1
  Y3+  Y58  1  0.75138581  0.25132368  0.25659939  1
  Y3+  Y59  1  0.75005192  0.24643451  0.75717399  1
  Y3+  Y60  1  0.75208038  0.50097484  0.25779067  1
  Y3+  Y61  1  0.75400394  0.50337034  0.75563772  1
  Y3+  Y62  1  0.75313521  0.74984573  0.25532423  1
  Y3+  Y63  1  0.75146902  0.75007821  0.75883619  1
  Fe3+  Fe64  1  0.12456289  0.62575385  0.37877099  1
  Fe3+  Fe65  1  0.62549435  0.62644355  0.37807776  1
  Fe3+  Fe66  1  0.12313868  0.87604420  0.37452935  1
  Fe3+  Fe67  1  0.37441205  0.87491988  0.87895819  1
  Fe3+  Fe68  1  0.87561512  0.87461519  0.87813102  1
  Fe3+  Fe69  1  0.37458833  0.12473749  0.87781013  1
  Fe3+  Fe70  1  0.87500592  0.37522171  0.87623500  1
  Fe3+  Fe71  1  0.62670723  0.87681673  0.37478117  1
  Fe3+  Fe72  1  0.62616742  0.62437348  0.87724000  1
  Fe3+  Fe73  1  0.87586991  0.12354635  0.37570603  1
  Fe3+  Fe74  1  0.37487925  0.62457149  0.88096723  1
  Fe3+  Fe75  1  0.12388583  0.62508703  0.87742249  1
  Fe3+  Fe76  1  0.37388140  0.37366081  0.38062598  1
  Fe3+  Fe77  1  0.12343965  0.37398049  0.37698736  1
  Fe3+  Fe78  1  0.37425579  0.62581745  0.38019738  1
  Fe3+  Fe79  1  0.37434636  0.12369139  0.38020790  1
  Fe3+  Fe80  1  0.87522610  0.12520238  0.87827794  1
  Fe3+  Fe81  1  0.62731453  0.37555863  0.87551470  1
  Fe3+  Fe82  1  0.87596058  0.37340370  0.37882754  1
  Fe3+  Fe83  1  0.62612373  0.12339110  0.37501223  1
  Fe3+  Fe84  1  0.87576946  0.37362957  0.63431793  1
  Fe3+  Fe85  1  0.37428229  0.37398272  0.13905315  1
  Fe3+  Fe86  1  0.62613075  0.37552882  0.63606703  1
  Fe3+  Fe87  1  0.37471383  0.12444097  0.63512422  1
  Fe3+  Fe88  1  0.62473703  0.12517768  0.13683778  1
  Fe3+  Fe89  1  0.12472406  0.62647718  0.63429999  1
  Fe3+  Fe90  1  0.37472550  0.37374790  0.63472991  1
  Fe3+  Fe91  1  0.37497429  0.62554536  0.63352500  1
  Fe3+  Fe92  1  0.62520033  0.62629774  0.63309118  1
  Fe3+  Fe93  1  0.87560099  0.87595359  0.64012597  1
  Fe3+  Fe94  1  0.37446598  0.87626141  0.63871851  1
  Fe3+  Fe95  1  0.37446994  0.62463666  0.13534480  1
  Cu2+  Cu96  1  0.12432291  0.12455729  0.87322399  1
  Cu2+  Cu97  1  0.12272139  0.37534502  0.87158177  1
  Cu2+  Cu98  1  0.62603515  0.37434259  0.36478092  1
  Cu2+  Cu99  1  0.87512464  0.62475825  0.87338608  1
  Cu2+  Cu100  1  0.12416557  0.87461918  0.87362718  1
  Cu2+  Cu101  1  0.12423006  0.12451013  0.37012557  1
  Cu2+  Cu102  1  0.62551583  0.12555936  0.86782027  1
  Cu2+  Cu103  1  0.37481535  0.87594109  0.36317492  1
  Cu2+  Cu104  1  0.87585296  0.62562874  0.37254832  1
  Cu2+  Cu105  1  0.37514239  0.37498976  0.86338649  1
  Cu2+  Cu106  1  0.87524340  0.87642503  0.36098756  1
  Cu2+  Cu107  1  0.62582159  0.87397813  0.87355431  1
  Cu2+  Cu108  1  0.87550707  0.87533387  0.14819050  1
  Cu2+  Cu109  1  0.12594856  0.12392146  0.64391149  1
  Cu2+  Cu110  1  0.87546734  0.62530149  0.14245525  1
  Cu2+  Cu111  1  0.12487043  0.12500013  0.14264426  1
  Cu2+  Cu112  1  0.62428866  0.12486447  0.65261450  1
  Cu2+  Cu113  1  0.62531593  0.87440694  0.65256702  1
  Cu2+  Cu114  1  0.62520213  0.37478808  0.15478485  1
  Cu2+  Cu115  1  0.12547256  0.62505777  0.15106965  1
  Cu2+  Cu116  1  0.12471010  0.87446052  0.65202848  1
  Cu2+  Cu117  1  0.62474006  0.62516711  0.15330251  1
  Cu2+  Cu118  1  0.37445868  0.87535083  0.14702573  1
  Cu2+  Cu119  1  0.87505581  0.62613242  0.64013574  1
  Cu2+  Cu120  1  0.12498479  0.37487576  0.14360402  1
  Cu2+  Cu121  1  0.87537791  0.37484259  0.15223394  1
  Cu2+  Cu122  1  0.37523178  0.12549581  0.14853220  1
  Cu2+  Cu123  1  0.87472425  0.12513025  0.14577237  1
  Cu2+  Cu124  1  0.12394315  0.87522895  0.14319621  1
  Cu2+  Cu125  1  0.12432022  0.37548358  0.65038732  1
  Cu2+  Cu126  1  0.87522918  0.12442523  0.65305758  1
  Cu2+  Cu127  1  0.62604534  0.87535708  0.14232052  1
  O2-  O128  1  0.12524367  0.12554684  0.00786287  1
  O2-  O129  1  0.12499218  0.12356622  0.50814378  1
  O2-  O130  1  0.12386522  0.37573904  0.00719247  1
  O2-  O131  1  0.12349158  0.37454448  0.49737199  1
  O2-  O132  1  0.12581773  0.62418135  -0.00203200  1
  O2-  O133  1  0.12593463  0.62636373  0.50594508  1
  O2-  O134  1  0.12441858  0.87435414  0.00744254  1
  O2-  O135  1  0.12314774  0.87535087  0.49580681  1
  O2-  O136  1  0.37600773  0.12615300  -0.00171233  1
  O2-  O137  1  0.37496420  0.12363651  0.50757229  1
  O2-  O138  1  0.37580772  0.37585408  0.01867740  1
  O2-  O139  1  0.37487585  0.37422625  0.50767315  1
  O2-  O140  1  0.37510372  0.62346383  0.00692670  1
  O2-  O141  1  0.37492763  0.62629422  0.50709757  1
  O2-  O142  1  0.37505357  0.87346718  -0.00047401  1
  O2-  O143  1  0.37559735  0.87574922  0.51784002  1
  O2-  O144  1  0.62371234  0.12718841  0.01570061  1
  O2-  O145  1  0.62605554  0.12263448  0.49565449  1
  O2-  O146  1  0.62721314  0.37674542  -0.00412775  1
  O2-  O147  1  0.62449960  0.37404478  0.51583514  1
  O2-  O148  1  0.62439561  0.62274856  -0.00244509  1
  O2-  O149  1  0.62406559  0.62660704  0.50596334  1
  O2-  O150  1  0.62554688  0.87395169  0.00716455  1
  O2-  O151  1  0.62631840  0.87725907  0.49553290  1
  O2-  O152  1  0.87408071  0.12684691  -0.00130802  1
  O2-  O153  1  0.87433658  0.12372514  0.49609422  1
  O2-  O154  1  0.87344110  0.37558632  -0.00337521  1
  O2-  O155  1  0.87560307  0.37322835  0.50599785  1
  O2-  O156  1  0.87488405  0.62421884  0.00812616  1
  O2-  O157  1  0.87453892  0.62541071  0.50642236  1
  O2-  O158  1  0.87508123  0.87441542  -0.00120712  1
  O2-  O159  1  0.87486521  0.87686623  0.51873786  1
  O2-  O160  1  0.12506537  0.00035046  0.16408386  1
  O2-  O161  1  0.12584482  -0.00188776  0.66655217  1
  O2-  O162  1  0.12527888  0.24963065  0.16529170  1
  O2-  O163  1  0.12584915  0.25136882  0.66536792  1
  O2-  O164  1  0.12545137  0.50121922  0.16813157  1
  O2-  O165  1  0.12605680  0.50195930  0.66100829  1
  O2-  O166  1  0.12575123  0.74902912  0.16621233  1
  O2-  O167  1  0.12708938  0.74845428  0.66268749  1
  O2-  O168  1  0.37501832  0.00044112  0.16377833  1
  O2-  O169  1  0.37583497  0.00107044  0.66501389  1
  O2-  O170  1  0.37557007  0.25080438  0.17049367  1
  O2-  O171  1  0.37586176  0.25013984  0.66023674  1
  O2-  O172  1  0.37550244  0.50106399  0.16991490  1
  O2-  O173  1  0.37513403  0.50010841  0.66057004  1
  O2-  O174  1  0.37493343  0.74787933  0.16431736  1
  O2-  O175  1  0.37493199  0.74870531  0.66521149  1
  O2-  O176  1  0.62474173  0.00160297  0.16305247  1
  O2-  O177  1  0.62382371  0.00010335  0.66539492  1
  O2-  O178  1  0.62473812  0.24985944  0.16677156  1
  O2-  O179  1  0.62448035  0.25111198  0.66432496  1
  O2-  O180  1  0.62431929  0.49963554  0.16819969  1
  O2-  O181  1  0.62357213  0.50141667  0.66084640  1
  O2-  O182  1  0.62429641  0.74933383  0.16635703  1
  O2-  O183  1  0.62324749  0.74793869  0.66197922  1
  O2-  O184  1  0.87501117  -0.00068207  0.16134691  1
  O2-  O185  1  0.87472174  0.00010832  0.66749973  1
  O2-  O186  1  0.87452620  0.25081852  0.16537655  1
  O2-  O187  1  0.87410885  0.25019502  0.66079516  1
  O2-  O188  1  0.87484787  0.49887314  0.16800697  1
  O2-  O189  1  0.87547313  0.49738707  0.66112211  1
  O2-  O190  1  0.87512645  0.75164528  0.16505033  1
  O2-  O191  1  0.87479322  0.75215430  0.66700197  1
  O2-  O192  1  -0.00165610  0.12541362  0.16365253  1
  O2-  O193  1  -0.00020723  0.12487062  0.66467882  1
  O2-  O194  1  -0.00091417  0.37567234  0.16507857  1
  O2-  O195  1  -0.00159974  0.37447282  0.66054620  1
  O2-  O196  1  0.00157362  0.62485231  0.16605738  1
  O2-  O197  1  0.00298159  0.62549095  0.66148530  1
  O2-  O198  1  -0.00171527  0.87444874  0.16437927  1
  O2-  O199  1  0.00056459  0.87485021  0.66479276  1
  O2-  O200  1  0.25120051  0.12506025  0.16698971  1
  O2-  O201  1  0.25351792  0.12536981  0.66490071  1
  O2-  O202  1  0.25134055  0.37558575  0.16958011  1
  O2-  O203  1  0.25192534  0.37555127  0.66287727  1
  O2-  O204  1  0.25206210  0.62460170  0.16650399  1
  O2-  O205  1  0.25086392  0.62434231  0.66126742  1
  O2-  O206  1  0.25053814  0.87499257  0.16601552  1
  O2-  O207  1  0.25019396  0.87438436  0.66548365  1
  O2-  O208  1  0.50087398  0.12565856  0.16837639  1
  O2-  O209  1  0.49796046  0.12559628  0.66288279  1
  O2-  O210  1  0.49929419  0.37590398  0.16924588  1
  O2-  O211  1  0.49893588  0.37570673  0.66421495  1
  O2-  O212  1  0.49805188  0.62432491  0.16596097  1
  O2-  O213  1  0.49923968  0.62458451  0.66203774  1
  O2-  O214  1  0.49889110  0.87467570  0.16547657  1
  O2-  O215  1  0.49973680  0.87430881  0.66604953  1
  O2-  O216  1  0.74936219  0.12606849  0.16436337  1
  O2-  O217  1  0.74915911  0.12462933  0.66379702  1
  O2-  O218  1  0.75000901  0.37583595  0.16619323  1
  O2-  O219  1  0.75103410  0.37519639  0.66095063  1
  O2-  O220  1  0.74855896  0.62452952  0.16717933  1
  O2-  O221  1  0.74695866  0.62513646  0.66172836  1
  O2-  O222  1  0.75227949  0.87432615  0.16363179  1
  O2-  O223  1  0.74961990  0.87529075  0.66548394  1
  O2-  O224  1  0.12536818  -0.00126492  0.34606528  1
  O2-  O225  1  0.12536320  0.00005762  0.85012890  1
  O2-  O226  1  0.12558803  0.25145894  0.34745404  1
  O2-  O227  1  0.12487579  0.24995811  0.84944155  1
  O2-  O228  1  0.12586839  0.50083114  0.35086326  1
  O2-  O229  1  0.12565620  0.50186293  0.84445888  1
  O2-  O230  1  0.12616377  0.74921052  0.34904838  1
  O2-  O231  1  0.12577774  0.74775935  0.84547413  1
  O2-  O232  1  0.37518438  0.00205391  0.34883738  1
  O2-  O233  1  0.37545583  -0.00031192  0.84667912  1
  O2-  O234  1  0.37540265  0.24967615  0.35415185  1
  O2-  O235  1  0.37582977  0.24974334  0.84483464  1
  O2-  O236  1  0.37518509  0.50027136  0.35495963  1
  O2-  O237  1  0.37480897  0.50185028  0.84642167  1
  O2-  O238  1  0.37511602  0.74794672  0.35032372  1
  O2-  O239  1  0.37517146  0.74786303  0.84806765  1
  O2-  O240  1  0.62445062  0.00017749  0.34205377  1
  O2-  O241  1  0.62475470  0.00089536  0.85068539  1
  O2-  O242  1  0.62438798  0.24855672  0.34899473  1
  O2-  O243  1  0.62464462  0.25137337  0.84670907  1
  O2-  O244  1  0.62437210  0.50162213  0.35349167  1
  O2-  O245  1  0.62461345  0.50023178  0.84080400  1
  O2-  O246  1  0.62364988  0.74977989  0.34937398  1
  O2-  O247  1  0.62404535  0.74697936  0.84486346  1
  O2-  O248  1  0.87500355  0.00070267  0.34417971  1
  O2-  O249  1  0.87434965  0.00027246  0.84835697  1
  O2-  O250  1  0.87499047  0.25035106  0.34830773  1
  O2-  O251  1  0.87452373  0.24972560  0.84334529  1
  O2-  O252  1  0.87510752  0.49717871  0.35224047  1
  O2-  O253  1  0.87489034  0.49901993  0.84385936  1
  O2-  O254  1  0.87512825  0.75178928  0.34969719  1
  O2-  O255  1  0.87500621  0.75086183  0.84802895  1
  O2-  O256  1  -0.00099900  0.12524964  0.34607963  1
  O2-  O257  1  -0.00152717  0.12506667  0.84748273  1
  O2-  O258  1  -0.00084598  0.37520784  0.34759269  1
  O2-  O259  1  -0.00261857  0.37545929  0.84309412  1
  O2-  O260  1  0.00329057  0.62507886  0.35026404  1
  O2-  O261  1  0.00126667  0.62468891  0.84506754  1
  O2-  O262  1  -0.00015630  0.87446622  0.34701116  1
  O2-  O263  1  -0.00177285  0.87464242  0.84628401  1
  O2-  O264  1  0.25216164  0.12518413  0.35158586  1
  O2-  O265  1  0.25124287  0.12566868  0.84736491  1
  O2-  O266  1  0.25087831  0.37595390  0.35111509  1
  O2-  O267  1  0.25059030  0.37559434  0.84818764  1
  O2-  O268  1  0.25011390  0.62461286  0.35142849  1
  O2-  O269  1  0.25186092  0.62410209  0.84623204  1
  O2-  O270  1  0.24954271  0.87449295  0.34937994  1
  O2-  O271  1  0.25182697  0.87386118  0.84700359  1
  O2-  O272  1  0.49880159  0.12542410  0.35101190  1
  O2-  O273  1  0.49955417  0.12567705  0.84688452  1
  O2-  O274  1  0.49761909  0.37553649  0.35291418  1
  O2-  O275  1  0.50141149  0.37585509  0.84664925  1
  O2-  O276  1  0.49952066  0.62437953  0.35191518  1
  O2-  O277  1  0.49827264  0.62375683  0.84634974  1
  O2-  O278  1  0.50055116  0.87472906  0.34847510  1
  O2-  O279  1  0.49809969  0.87396003  0.84788313  1
  O2-  O280  1  0.75028553  0.12525899  0.34475187  1
  O2-  O281  1  0.75048222  0.12531631  0.84754058  1
  O2-  O282  1  0.75232918  0.37481734  0.35108822  1
  O2-  O283  1  0.75044643  0.37534296  0.84047142  1
  O2-  O284  1  0.74734042  0.62536982  0.35143258  1
  O2-  O285  1  0.74872775  0.62455367  0.84476762  1
  O2-  O286  1  0.75000662  0.87464528  0.34615108  1
  O2-  O287  1  0.75184973  0.87444133  0.84724030  1
