# generated using pymatgen
data_BaYFeCuO5
_symmetry_space_group_name_H-M   'P 1'
_cell_length_a   15.68586403
_cell_length_b   15.68302703
_cell_length_c   15.53719445
_cell_angle_alpha   89.99547901
_cell_angle_beta   90.00300392
_cell_angle_gamma   89.99317486
_symmetry_Int_Tables_number   1
_chemical_formula_structural   BaYFeCuO5
_chemical_formula_sum   'Ba32 Y32 Fe32 Cu32 O160'
_cell_volume   3822.17821718
_cell_formula_units_Z   32
loop_
 _symmetry_equiv_pos_site_id
 _symmetry_equiv_pos_as_xyz
  1  'x, y, z'
loop_
 _atom_type_symbol
 _atom_type_oxidation_number
  Ba2+  2.0
  Y3+  3.0
  Fe3+  3.0
  Cu2+  2.0
  O2-  -2.0
loop_
 _atom_site_type_symbol
 _atom_site_label
 _atom_site_symmetry_multiplicity
 _atom_site_fract_x
 _atom_site_fract_y
 _atom_site_fract_z
 _atom_site_occupancy
  Ba2+  Ba0  1  0.00140730  0.00024956  0.00719543  1
  Ba2+  Ba1  1  -0.00018522  -0.00283560  0.50034279  1
  Ba2+  Ba2  1  0.00513898  0.25326094  0.01400126  1
  Ba2+  Ba3  1  -0.00583764  0.24729445  0.49597272  1
  Ba2+  Ba4  1  0.00706549  0.50019574  0.00752045  1
  Ba2+  Ba5  1  -0.00654218  0.50346648  0.51791554  1
  Ba2+  Ba6  1  0.00345828  0.74703405  0.00193398  1
  Ba2+  Ba7  1  -0.00049649  0.75241510  0.52206756  1
  Ba2+  Ba8  1  0.24899156  0.00042920  0.00795798  1
  Ba2+  Ba9  1  0.24267715  -0.00013157  0.50578095  1
  Ba2+  Ba10  1  0.24661081  0.25186780  0.02317035  1
  Ba2+  Ba11  1  0.25437748  0.24585294  0.51156064  1
  Ba2+  Ba12  1  0.24377236  0.50038430  0.00703724  1
  Ba2+  Ba13  1  0.25409730  0.50528164  0.52246802  1
  Ba2+  Ba14  1  0.24815148  0.74877762  -0.00937815  1
  Ba2+  Ba15  1  0.24299135  0.74861157  0.51509941  1
  Ba2+  Ba16  1  0.49732022  -0.00737297  0.00601862  1
  Ba2+  Ba17  1  0.50533224  0.00305454  0.52388430  1
  Ba2+  Ba18  1  0.48922904  0.24917337  0.01659421  1
  Ba2+  Ba19  1  0.49693907  0.24596433  0.52240019  1
  Ba2+  Ba20  1  0.49304968  0.50514659  0.01049613  1
  Ba2+  Ba21  1  0.49718854  0.50493781  0.52254953  1
  Ba2+  Ba22  1  0.50131413  0.75236940  0.00187019  1
  Ba2+  Ba23  1  0.50530569  0.74608194  0.52294964  1
  Ba2+  Ba24  1  0.75220013  -0.00689851  0.00773497  1
  Ba2+  Ba25  1  0.75031635  -0.00204913  0.51948698  1
  Ba2+  Ba26  1  0.76084976  0.24873321  0.00654518  1
  Ba2+  Ba27  1  0.75674679  0.24783161  0.50543308  1
  Ba2+  Ba28  1  0.75583581  0.50453617  0.01124818  1
  Ba2+  Ba29  1  0.75591067  0.50337393  0.51674570  1
  Ba2+  Ba30  1  0.74847552  0.75256616  0.01188258  1
  Ba2+  Ba31  1  0.75049122  0.75023108  0.52749308  1
  Y3+  Y32  1  0.00134950  -0.00010836  0.26003048  1
  Y3+  Y33  1  0.00072197  -0.00213568  0.75718485  1
  Y3+  Y34  1  0.00022920  0.25137756  0.25863737  1
  Y3+  Y35  1  -0.00043030  0.25193799  0.75848555  1
  Y3+  Y36  1  0.00043515  0.49836332  0.25502308  1
  Y3+  Y37  1  0.00138218  0.50123163  0.75991810  1
  Y3+  Y38  1  0.00162885  0.75076530  0.25651115  1
  Y3+  Y39  1  0.00200053  0.74871690  0.75848795  1
  Y3+  Y40  1  0.24733946  0.00079073  0.26036762  1
  Y3+  Y41  1  0.24889143  -0.00224935  0.75567747  1
  Y3+  Y42  1  0.24786558  0.24982680  0.25760385  1
  Y3+  Y43  1  0.24940880  0.25135633  0.75546512  1
  Y3+  Y44  1  0.24767771  0.49957321  0.25379364  1
  Y3+  Y45  1  0.24825237  0.50222401  0.75995653  1
  Y3+  Y46  1  0.24714276  0.74980244  0.25964640  1
  Y3+  Y47  1  0.24723100  0.74932364  0.75622528  1
  Y3+  Y48  1  0.50005931  -0.00178961  0.25337594  1
  Y3+  Y49  1  0.50143813  -0.00153470  0.76029208  1
  Y3+  Y50  1  0.49841642  0.25065221  0.25488232  1
  Y3+  Y51  1  0.49891304  0.24910363  0.75613899  1
  Y3+  Y52  1  0.50016243  0.50104539  0.25393542  1
  Y3+  Y53  1  0.49795222  0.50140177  0.75762813  1
  Y3+  Y54  1  0.50252638  0.75031451  0.25305216  1
  Y3+  Y55  1  0.50027895  0.75074175  0.76079339  1
  Y3+  Y56  1  0.75030482  -0.00243692  0.25412245  1
  Y3+  Y57  1  0.74962434  -0.00128809  0.76083685  1
  Y3+  Y58  1  0.75307391  0.25169765  0.25841819  1
  Y3+  Y59  1  0.75219232  0.25004113  0.75628529  1
  Y3+  Y60  1  0.75154965  0.49952442  0.25636654  1
  Y3+  Y61  1  0.75335364  0.50056630  0.75624363  1
  Y3+  Y62  1  0.74865154  0.75108185  0.25115765  1
  Y3+  Y63  1  0.75065002  0.75032577  0.76102489  1
  Fe3+  Fe64  1  0.12539434  0.37652134  0.38095699  1
  Fe3+  Fe65  1  0.62529603  0.12598604  0.88021645  1
  Fe3+  Fe66  1  0.37569015  0.62555159  0.37705536  1
  Fe3+  Fe67  1  0.87316374  0.87307482  0.37601748  1
  Fe3+  Fe68  1  0.87439819  0.62656188  0.37527026  1
  Fe3+  Fe69  1  0.37353996  0.37468362  0.87572770  1
  Fe3+  Fe70  1  0.37695698  0.12400851  0.37574993  1
  Fe3+  Fe71  1  0.37564921  0.37643117  0.37729258  1
  Fe3+  Fe72  1  0.62555470  0.62536302  0.37556812  1
  Fe3+  Fe73  1  0.62481307  0.87432068  0.37642397  1
  Fe3+  Fe74  1  0.87643784  0.87443574  0.87702857  1
  Fe3+  Fe75  1  0.37635698  0.87389885  0.38227144  1
  Fe3+  Fe76  1  0.62426865  0.37570867  0.37997421  1
  Fe3+  Fe77  1  0.37336805  0.12507792  0.87556423  1
  Fe3+  Fe78  1  0.62577710  0.62370620  0.87686630  1
  Fe3+  Fe79  1  0.12503729  0.12612069  0.87637564  1
  Fe3+  Fe80  1  0.62464373  0.37480876  0.87920202  1
  Fe3+  Fe81  1  0.62488115  0.12433455  0.37498614  1
  Fe3+  Fe82  1  0.87631044  0.37551730  0.87695716  1
  Fe3+  Fe83  1  0.12378847  0.62422160  0.37852027  1
  Fe3+  Fe84  1  0.37468496  0.87503654  0.63639505  1
  Fe3+  Fe85  1  0.87671519  0.62581535  0.13568349  1
  Fe3+  Fe86  1  0.37245838  0.87405086  0.13853813  1
  Fe3+  Fe87  1  0.12521282  0.87436595  0.13834569  1
  Fe3+  Fe88  1  0.87620654  0.12420261  0.13869840  1
  Fe3+  Fe89  1  0.12374502  0.12495779  0.63658874  1
  Fe3+  Fe90  1  0.62550693  0.37508267  0.13222658  1
  Fe3+  Fe91  1  0.12410618  0.37478270  0.63429937  1
  Fe3+  Fe92  1  0.87620376  0.12434179  0.64029509  1
  Fe3+  Fe93  1  0.37278824  0.62700802  0.13637611  1
  Fe3+  Fe94  1  0.62487645  0.12511470  0.13264766  1
  Fe3+  Fe95  1  0.62611353  0.37491582  0.63508239  1
  Cu2+  Cu96  1  0.12502425  0.87575510  0.86194710  1
  Cu2+  Cu97  1  0.87601286  0.12491268  0.86451394  1
  Cu2+  Cu98  1  0.87344880  0.12342988  0.36017477  1
  Cu2+  Cu99  1  0.12591759  0.37401843  0.87130049  1
  Cu2+  Cu100  1  0.87463104  0.37721204  0.37389802  1
  Cu2+  Cu101  1  0.12438009  0.87355880  0.37476110  1
  Cu2+  Cu102  1  0.62561106  0.87492157  0.87323127  1
  Cu2+  Cu103  1  0.12492648  0.12590075  0.36541670  1
  Cu2+  Cu104  1  0.87540891  0.62480410  0.86502487  1
  Cu2+  Cu105  1  0.37481623  0.62523423  0.86207267  1
  Cu2+  Cu106  1  0.12481278  0.62449034  0.87135846  1
  Cu2+  Cu107  1  0.37401768  0.87520756  0.86016590  1
  Cu2+  Cu108  1  0.37425456  0.37584541  0.15068002  1
  Cu2+  Cu109  1  0.62439277  0.87527186  0.13865296  1
  Cu2+  Cu110  1  0.62627586  0.12543140  0.65636214  1
  Cu2+  Cu111  1  0.12440553  0.12424046  0.15546945  1
  Cu2+  Cu112  1  0.37444143  0.37522432  0.65106375  1
  Cu2+  Cu113  1  0.87495385  0.87549910  0.65591191  1
  Cu2+  Cu114  1  0.62484111  0.62432004  0.14520523  1
  Cu2+  Cu115  1  0.37379660  0.12372915  0.15102735  1
  Cu2+  Cu116  1  0.62519339  0.87482339  0.65698221  1
  Cu2+  Cu117  1  0.12457391  0.37538440  0.14362583  1
  Cu2+  Cu118  1  0.62595060  0.62420353  0.65631123  1
  Cu2+  Cu119  1  0.37469849  0.62668481  0.65569398  1
  Cu2+  Cu120  1  0.12417357  0.87577074  0.64231358  1
  Cu2+  Cu121  1  0.87674126  0.87514009  0.14834858  1
  Cu2+  Cu122  1  0.87613348  0.37393687  0.64181639  1
  Cu2+  Cu123  1  0.12422695  0.62456240  0.65277345  1
  Cu2+  Cu124  1  0.87554638  0.62575650  0.65656356  1
  Cu2+  Cu125  1  0.87533524  0.37501061  0.15078421  1
  Cu2+  Cu126  1  0.12536229  0.62615540  0.14189601  1
  Cu2+  Cu127  1  0.37428632  0.12337064  0.65261007  1
  O2-  O128  1  0.12659844  0.12627984  -0.00372879  1
  O2-  O129  1  0.12294884  0.12548978  0.51654425  1
  O2-  O130  1  0.12617221  0.37389405  0.00646193  1
  O2-  O131  1  0.12519462  0.37650164  0.50713195  1
  O2-  O132  1  0.12613803  0.62581480  0.00651406  1
  O2-  O133  1  0.12350748  0.62286926  0.49839056  1
  O2-  O134  1  0.12723709  0.87558960  0.01850372  1
  O2-  O135  1  0.12398965  0.87466536  0.50874121  1
  O2-  O136  1  0.37224196  0.12604315  -0.00475237  1
  O2-  O137  1  0.37971287  0.12417896  0.49540954  1
  O2-  O138  1  0.37362292  0.37369576  -0.00439475  1
  O2-  O139  1  0.37807138  0.37631398  0.49662534  1
  O2-  O140  1  0.37337573  0.62811568  0.01635669  1
  O2-  O141  1  0.37773285  0.62481558  0.49691152  1
  O2-  O142  1  0.37142819  0.87383326  0.01888815  1
  O2-  O143  1  0.37827906  0.87492558  0.50820550  1
  O2-  O144  1  0.62456445  0.12658200  0.00606232  1
  O2-  O145  1  0.62436799  0.12442692  0.49445640  1
  O2-  O146  1  0.62487638  0.37452510  0.00508584  1
  O2-  O147  1  0.62406056  0.37527168  0.50592648  1
  O2-  O148  1  0.62455080  0.62234809  -0.00300198  1
  O2-  O149  1  0.62573356  0.62510656  0.49516167  1
  O2-  O150  1  0.62387340  0.87600227  0.00570313  1
  O2-  O151  1  0.62540216  0.87464752  0.49593957  1
  O2-  O152  1  0.87730433  0.12465285  0.01877404  1
  O2-  O153  1  0.87393107  0.12334926  0.52008600  1
  O2-  O154  1  0.87558582  0.37524183  -0.00308983  1
  O2-  O155  1  0.87363526  0.37527235  0.50680086  1
  O2-  O156  1  0.87651590  0.62507814  0.01546070  1
  O2-  O157  1  0.87321636  0.62797993  0.49517099  1
  O2-  O158  1  0.87693276  0.87507818  -0.00269876  1
  O2-  O159  1  0.87115161  0.87277491  0.49584739  1
  O2-  O160  1  0.12539494  -0.00046070  0.16829836  1
  O2-  O161  1  0.12530612  0.00208269  0.66742378  1
  O2-  O162  1  0.12468289  0.24871248  0.16763549  1
  O2-  O163  1  0.12533829  0.25108721  0.66360767  1
  O2-  O164  1  0.12499239  0.50019947  0.16391601  1
  O2-  O165  1  0.12551356  0.49862268  0.66406637  1
  O2-  O166  1  0.12501038  0.75181364  0.16866954  1
  O2-  O167  1  0.12432637  0.74850024  0.66497830  1
  O2-  O168  1  0.37391457  -0.00080245  0.16715452  1
  O2-  O169  1  0.37589715  -0.00200186  0.66489000  1
  O2-  O170  1  0.37521680  0.24974330  0.16298633  1
  O2-  O171  1  0.37612966  0.24881668  0.66164579  1
  O2-  O172  1  0.37502549  0.50106837  0.16284554  1
  O2-  O173  1  0.37516855  0.50135716  0.66484545  1
  O2-  O174  1  0.37460782  0.75029560  0.17176155  1
  O2-  O175  1  0.37635476  0.75190466  0.66419964  1
  O2-  O176  1  0.62493363  0.00340816  0.16145197  1
  O2-  O177  1  0.62529351  0.00044298  0.66721473  1
  O2-  O178  1  0.62366255  0.25028619  0.16214415  1
  O2-  O179  1  0.62472066  0.25179763  0.66441037  1
  O2-  O180  1  0.62504273  0.49726233  0.16258566  1
  O2-  O181  1  0.62518169  0.49825266  0.66304782  1
  O2-  O182  1  0.62450536  0.74913127  0.16152002  1
  O2-  O183  1  0.62518107  0.74902689  0.66576519  1
  O2-  O184  1  0.87488573  0.00019471  0.16665878  1
  O2-  O185  1  0.87382860  0.00003575  0.66856690  1
  O2-  O186  1  0.87498474  0.24974463  0.16745500  1
  O2-  O187  1  0.87480816  0.24803080  0.66831357  1
  O2-  O188  1  0.87436672  0.49997619  0.16404113  1
  O2-  O189  1  0.87498345  0.50115411  0.66428419  1
  O2-  O190  1  0.87504641  0.75042614  0.16194488  1
  O2-  O191  1  0.87446723  0.75081929  0.66602832  1
  O2-  O192  1  -0.00030879  0.12512680  0.16907624  1
  O2-  O193  1  0.00029189  0.12492332  0.67014790  1
  O2-  O194  1  -0.00100700  0.37421159  0.16767938  1
  O2-  O195  1  0.00307438  0.37532016  0.66439967  1
  O2-  O196  1  -0.00128168  0.62482393  0.16615564  1
  O2-  O197  1  -0.00046143  0.62481011  0.66560306  1
  O2-  O198  1  0.00115160  0.87590748  0.16759039  1
  O2-  O199  1  -0.00146852  0.87517588  0.66659792  1
  O2-  O200  1  0.24924882  0.12527821  0.16723422  1
  O2-  O201  1  0.24918173  0.12539814  0.66183411  1
  O2-  O202  1  0.25104621  0.37419691  0.16850506  1
  O2-  O203  1  0.24861603  0.37447532  0.66008214  1
  O2-  O204  1  0.25109089  0.62525902  0.16962411  1
  O2-  O205  1  0.24960621  0.62569155  0.66286966  1
  O2-  O206  1  0.24931418  0.87570300  0.17490752  1
  O2-  O207  1  0.25248308  0.87457336  0.66201883  1
  O2-  O208  1  0.50102255  0.12532876  0.15828974  1
  O2-  O209  1  0.50060969  0.12481987  0.66594669  1
  O2-  O210  1  0.50135512  0.37498688  0.15998883  1
  O2-  O211  1  0.50142337  0.37491564  0.66388277  1
  O2-  O212  1  0.49917552  0.62459434  0.16271659  1
  O2-  O213  1  0.50062526  0.62430408  0.66553148  1
  O2-  O214  1  0.49741863  0.87545221  0.16433679  1
  O2-  O215  1  0.49943517  0.87543608  0.66525199  1
  O2-  O216  1  0.74866857  0.12647561  0.16209377  1
  O2-  O217  1  0.75092535  0.12497654  0.67029784  1
  O2-  O218  1  0.74792801  0.37402684  0.16248061  1
  O2-  O219  1  0.74767743  0.37467899  0.66464575  1
  O2-  O220  1  0.75056294  0.62440152  0.16169938  1
  O2-  O221  1  0.75072399  0.62436551  0.66595423  1
  O2-  O222  1  0.75148759  0.87540570  0.15944240  1
  O2-  O223  1  0.74934633  0.87547851  0.66710116  1
  O2-  O224  1  0.12479390  0.00139025  0.35150441  1
  O2-  O225  1  0.12543010  0.00070211  0.84854070  1
  O2-  O226  1  0.12527535  0.25220091  0.35197194  1
  O2-  O227  1  0.12551539  0.24828566  0.84354840  1
  O2-  O228  1  0.12525774  0.49906271  0.34543090  1
  O2-  O229  1  0.12546747  0.49953145  0.84837068  1
  O2-  O230  1  0.12510986  0.74749335  0.34828909  1
  O2-  O231  1  0.12549206  0.75164860  0.84888680  1
  O2-  O232  1  0.37619561  -0.00170497  0.34839377  1
  O2-  O233  1  0.37518148  0.00058819  0.84774534  1
  O2-  O234  1  0.37572261  0.25060223  0.34532876  1
  O2-  O235  1  0.37548665  0.24957354  0.84248181  1
  O2-  O236  1  0.37598664  0.50021252  0.34316411  1
  O2-  O237  1  0.37563946  0.49938912  0.84795046  1
  O2-  O238  1  0.37531963  0.75080395  0.35014556  1
  O2-  O239  1  0.37491256  0.75075743  0.84865381  1
  O2-  O240  1  0.62440596  -0.00077734  0.34247981  1
  O2-  O241  1  0.62472045  0.00362758  0.85139915  1
  O2-  O242  1  0.62475902  0.25152366  0.34636350  1
  O2-  O243  1  0.62514023  0.25048166  0.84885336  1
  O2-  O244  1  0.62431030  0.49893915  0.34579624  1
  O2-  O245  1  0.62466444  0.49759587  0.84652313  1
  O2-  O246  1  0.62467136  0.75003609  0.34246545  1
  O2-  O247  1  0.62493083  0.74773623  0.84894064  1
  O2-  O248  1  0.87368715  -0.00113933  0.34778794  1
  O2-  O249  1  0.87540883  -0.00002306  0.84979202  1
  O2-  O250  1  0.87342198  0.24821133  0.35102121  1
  O2-  O251  1  0.87428673  0.25044228  0.84862140  1
  O2-  O252  1  0.87419983  0.50298706  0.34514073  1
  O2-  O253  1  0.87478143  0.49929623  0.84696301  1
  O2-  O254  1  0.87388561  0.74966700  0.34037001  1
  O2-  O255  1  0.87563918  0.74989285  0.84907091  1
  O2-  O256  1  -0.00123811  0.12506862  0.35247234  1
  O2-  O257  1  0.00046889  0.12530826  0.84909109  1
  O2-  O258  1  0.00302898  0.37476388  0.35121620  1
  O2-  O259  1  -0.00141925  0.37478438  0.84662892  1
  O2-  O260  1  -0.00012679  0.62459690  0.34544133  1
  O2-  O261  1  -0.00071875  0.62471310  0.84909338  1
  O2-  O262  1  -0.00219589  0.87510873  0.34896893  1
  O2-  O263  1  0.00037759  0.87504771  0.84892154  1
  O2-  O264  1  0.25177531  0.12503219  0.35058426  1
  O2-  O265  1  0.25008095  0.12423645  0.84179984  1
  O2-  O266  1  0.24941668  0.37507826  0.35077843  1
  O2-  O267  1  0.25208972  0.37506080  0.84250913  1
  O2-  O268  1  0.25009552  0.62453341  0.34903269  1
  O2-  O269  1  0.25121313  0.62548159  0.84674249  1
  O2-  O270  1  0.25313776  0.87532062  0.35624479  1
  O2-  O271  1  0.24940445  0.87519199  0.84620529  1
  O2-  O272  1  0.50041087  0.12535779  0.33873755  1
  O2-  O273  1  0.50079154  0.12586358  0.84937299  1
  O2-  O274  1  0.50134127  0.37503600  0.34298679  1
  O2-  O275  1  0.50104631  0.37431824  0.84756132  1
  O2-  O276  1  0.50043349  0.62497461  0.34229219  1
  O2-  O277  1  0.50053651  0.62441162  0.84853209  1
  O2-  O278  1  0.49936195  0.87463731  0.34495705  1
  O2-  O279  1  0.49859380  0.87511989  0.84953875  1
  O2-  O280  1  0.74823697  0.12552517  0.34302329  1
  O2-  O281  1  0.74897317  0.12629991  0.85361073  1
  O2-  O282  1  0.74606790  0.37508537  0.34733305  1
  O2-  O283  1  0.74879882  0.37448955  0.84856459  1
  O2-  O284  1  0.74903137  0.62448476  0.34126243  1
  O2-  O285  1  0.74963152  0.62331249  0.84820878  1
  O2-  O286  1  0.74856102  0.87480879  0.34041820  1
  O2-  O287  1  0.75241302  0.87520744  0.84933216  1
