# generated using pymatgen
data_BaYFeCuO5
_symmetry_space_group_name_H-M   'P 1'
_cell_length_a   15.66971109
_cell_length_b   15.66958021
_cell_length_c   15.47814986
_cell_angle_alpha   90.00908321
_cell_angle_beta   89.98851888
_cell_angle_gamma   89.99983100
_symmetry_Int_Tables_number   1
_chemical_formula_structural   BaYFeCuO5
_chemical_formula_sum   'Ba32 Y32 Fe32 Cu32 O160'
_cell_volume   3800.47066112
_cell_formula_units_Z   32
loop_
 _symmetry_equiv_pos_site_id
 _symmetry_equiv_pos_as_xyz
  1  'x, y, z'
loop_
 _atom_type_symbol
 _atom_type_oxidation_number
  Ba2+  2.0
  Y3+  3.0
  Fe3+  3.0
  Cu2+  2.0
  O2-  -2.0
loop_
 _atom_site_type_symbol
 _atom_site_label
 _atom_site_symmetry_multiplicity
 _atom_site_fract_x
 _atom_site_fract_y
 _atom_site_fract_z
 _atom_site_occupancy
  Ba2+  Ba0  1  0.00430462  -0.00127406  0.01665621  1
  Ba2+  Ba1  1  -0.00589968  0.00674297  0.50660472  1
  Ba2+  Ba2  1  0.00713920  0.24281190  0.01505113  1
  Ba2+  Ba3  1  -0.00430938  0.25044825  0.51335843  1
  Ba2+  Ba4  1  0.00754132  0.50612834  0.01319420  1
  Ba2+  Ba5  1  0.00156948  0.50037448  0.52340729  1
  Ba2+  Ba6  1  0.00547218  0.75220081  0.01513329  1
  Ba2+  Ba7  1  -0.00046414  0.74217699  0.51691630  1
  Ba2+  Ba8  1  0.24486220  -0.00048086  0.00605077  1
  Ba2+  Ba9  1  0.24906970  -0.00135275  0.50778687  1
  Ba2+  Ba10  1  0.24975470  0.24934427  0.00668539  1
  Ba2+  Ba11  1  0.23945145  0.25239986  0.50685307  1
  Ba2+  Ba12  1  0.25107041  0.50270337  0.01189434  1
  Ba2+  Ba13  1  0.24135927  0.50548214  0.50616680  1
  Ba2+  Ba14  1  0.24706548  0.74883980  0.01102802  1
  Ba2+  Ba15  1  0.24822938  0.74206800  0.50604889  1
  Ba2+  Ba16  1  0.50030219  -0.00102423  0.02073828  1
  Ba2+  Ba17  1  0.50054987  0.00023433  0.50711275  1
  Ba2+  Ba18  1  0.49169390  0.24718578  0.00515196  1
  Ba2+  Ba19  1  0.51107567  0.25378570  0.50162827  1
  Ba2+  Ba20  1  0.48663860  0.50008660  0.00684450  1
  Ba2+  Ba21  1  0.50174148  0.49771233  0.50101939  1
  Ba2+  Ba22  1  0.49185205  0.75363558  0.01746478  1
  Ba2+  Ba23  1  0.49085868  0.74880386  0.50733054  1
  Ba2+  Ba24  1  0.75098294  -0.00123155  0.02704860  1
  Ba2+  Ba25  1  0.75662111  0.00739426  0.50581633  1
  Ba2+  Ba26  1  0.74926223  0.23908762  0.01786899  1
  Ba2+  Ba27  1  0.75286517  0.25111112  0.50572179  1
  Ba2+  Ba28  1  0.75462017  0.50466922  0.01096102  1
  Ba2+  Ba29  1  0.75431693  0.49257150  0.51866154  1
  Ba2+  Ba30  1  0.75491974  0.75718298  0.02150135  1
  Ba2+  Ba31  1  0.76022767  0.74839419  0.51608956  1
  Y3+  Y32  1  0.00107467  0.00201639  0.25647034  1
  Y3+  Y33  1  0.00082004  -0.00010324  0.75787289  1
  Y3+  Y34  1  0.00179690  0.24606430  0.25646051  1
  Y3+  Y35  1  0.00044209  0.24888511  0.75739879  1
  Y3+  Y36  1  0.00386955  0.50271570  0.25248585  1
  Y3+  Y37  1  0.00289349  0.50135743  0.75818351  1
  Y3+  Y38  1  0.00296566  0.74920979  0.25386994  1
  Y3+  Y39  1  0.00291824  0.74938253  0.75848799  1
  Y3+  Y40  1  0.24642458  -0.00047768  0.25655368  1
  Y3+  Y41  1  0.24773584  -0.00066992  0.76025882  1
  Y3+  Y42  1  0.24761010  0.25134895  0.25474432  1
  Y3+  Y43  1  0.25016242  0.24945825  0.76167527  1
  Y3+  Y44  1  0.24941203  0.50240450  0.25415759  1
  Y3+  Y45  1  0.24958952  0.50190440  0.76198342  1
  Y3+  Y46  1  0.24843078  0.74737640  0.25520422  1
  Y3+  Y47  1  0.24801693  0.74875079  0.76065424  1
  Y3+  Y48  1  0.50138232  0.00040949  0.25992659  1
  Y3+  Y49  1  0.49814437  -0.00041371  0.75521232  1
  Y3+  Y50  1  0.50143393  0.25167124  0.25787493  1
  Y3+  Y51  1  0.49888145  0.25204406  0.75814572  1
  Y3+  Y52  1  0.49677331  0.49945930  0.25606679  1
  Y3+  Y53  1  0.49770897  0.49819283  0.76018703  1
  Y3+  Y54  1  0.49709838  0.74926143  0.25665918  1
  Y3+  Y55  1  0.49695798  0.74972395  0.75798839  1
  Y3+  Y56  1  0.75127622  0.00267831  0.25999132  1
  Y3+  Y57  1  0.75343046  0.00027371  0.75151826  1
  Y3+  Y58  1  0.74938941  0.24740068  0.26033645  1
  Y3+  Y59  1  0.75063621  0.25044509  0.75330460  1
  Y3+  Y60  1  0.74930683  0.49934625  0.25574583  1
  Y3+  Y61  1  0.74988956  0.49811456  0.75690407  1
  Y3+  Y62  1  0.75181397  0.75066679  0.25587212  1
  Y3+  Y63  1  0.75216977  0.75034641  0.75512915  1
  Fe3+  Fe64  1  0.37405343  0.12636954  0.38096834  1
  Fe3+  Fe65  1  0.87442118  0.12385441  0.87698429  1
  Fe3+  Fe66  1  0.12278145  0.37617731  0.37438116  1
  Fe3+  Fe67  1  0.87659767  0.87417352  0.37642123  1
  Fe3+  Fe68  1  0.37366868  0.87458181  0.37739438  1
  Fe3+  Fe69  1  0.87677408  0.37627723  0.37222949  1
  Fe3+  Fe70  1  0.87508823  0.62623320  0.87701573  1
  Fe3+  Fe71  1  0.62460125  0.62693231  0.88027892  1
  Fe3+  Fe72  1  0.87648566  0.62330103  0.37428636  1
  Fe3+  Fe73  1  0.37495005  0.87593680  0.87621543  1
  Fe3+  Fe74  1  0.62611316  0.62477405  0.37909237  1
  Fe3+  Fe75  1  0.62546422  0.12254740  0.87612813  1
  Fe3+  Fe76  1  0.12469465  0.37484408  0.87782291  1
  Fe3+  Fe77  1  0.87526005  0.37385995  0.88024514  1
  Fe3+  Fe78  1  0.62616668  0.87585511  0.87538460  1
  Fe3+  Fe79  1  0.37341239  0.37571931  0.37964196  1
  Fe3+  Fe80  1  0.87512284  0.87588679  0.87559364  1
  Fe3+  Fe81  1  0.12366382  0.87423682  0.37991561  1
  Fe3+  Fe82  1  0.62546225  0.37426105  0.88108377  1
  Fe3+  Fe83  1  0.62626070  0.87368276  0.37937263  1
  Fe3+  Fe84  1  0.62444096  0.62399161  0.63471456  1
  Fe3+  Fe85  1  0.12515366  0.12519736  0.63843162  1
  Fe3+  Fe86  1  0.37415770  0.12468657  0.14128008  1
  Fe3+  Fe87  1  0.62399075  0.62534819  0.13461069  1
  Fe3+  Fe88  1  0.62522471  0.87427105  0.63217244  1
  Fe3+  Fe89  1  0.37363265  0.37506830  0.63491701  1
  Fe3+  Fe90  1  0.62416430  0.37459949  0.13391512  1
  Fe3+  Fe91  1  0.87643295  0.37425302  0.13313628  1
  Fe3+  Fe92  1  0.12492892  0.87448006  0.63513587  1
  Fe3+  Fe93  1  0.37417746  0.62396728  0.63899488  1
  Fe3+  Fe94  1  0.62486205  0.12582409  0.63582680  1
  Fe3+  Fe95  1  0.37454360  0.12573011  0.63478606  1
  Cu2+  Cu96  1  0.12544506  0.12503336  0.36599407  1
  Cu2+  Cu97  1  0.62458426  0.12485678  0.36579759  1
  Cu2+  Cu98  1  0.12397405  0.87506894  0.87164878  1
  Cu2+  Cu99  1  0.62658011  0.37678975  0.37100170  1
  Cu2+  Cu100  1  0.87615421  0.12616413  0.37065653  1
  Cu2+  Cu101  1  0.37560710  0.12362102  0.86179309  1
  Cu2+  Cu102  1  0.12348583  0.62489531  0.37088990  1
  Cu2+  Cu103  1  0.12485784  0.62568278  0.87285428  1
  Cu2+  Cu104  1  0.37473055  0.62628634  0.87347860  1
  Cu2+  Cu105  1  0.37429117  0.62463693  0.36317189  1
  Cu2+  Cu106  1  0.12415363  0.12449123  0.87276357  1
  Cu2+  Cu107  1  0.37403338  0.37470980  0.87370289  1
  Cu2+  Cu108  1  0.37402370  0.87609329  0.15479775  1
  Cu2+  Cu109  1  0.37373183  0.87469213  0.64778939  1
  Cu2+  Cu110  1  0.87623470  0.87585958  0.15473875  1
  Cu2+  Cu111  1  0.37469775  0.62526740  0.14311858  1
  Cu2+  Cu112  1  0.87564619  0.12581545  0.64183460  1
  Cu2+  Cu113  1  0.12617814  0.62470201  0.64502909  1
  Cu2+  Cu114  1  0.87669783  0.87511834  0.64649034  1
  Cu2+  Cu115  1  0.62360358  0.37517042  0.64230775  1
  Cu2+  Cu116  1  0.12534925  0.37485126  0.14695678  1
  Cu2+  Cu117  1  0.12608212  0.62570607  0.14187122  1
  Cu2+  Cu118  1  0.87627343  0.37482098  0.65583576  1
  Cu2+  Cu119  1  0.62411093  0.12525383  0.15513788  1
  Cu2+  Cu120  1  0.87501855  0.62501359  0.14790423  1
  Cu2+  Cu121  1  0.62468991  0.87485473  0.15594592  1
  Cu2+  Cu122  1  0.12605495  0.87531518  0.14346205  1
  Cu2+  Cu123  1  0.12636475  0.37471885  0.65419454  1
  Cu2+  Cu124  1  0.87551027  0.12530992  0.15295953  1
  Cu2+  Cu125  1  0.12641490  0.12446139  0.14358421  1
  Cu2+  Cu126  1  0.37433230  0.37399618  0.14343379  1
  Cu2+  Cu127  1  0.87518738  0.62404528  0.65455657  1
  O2-  O128  1  0.12593034  0.12400520  0.00777965  1
  O2-  O129  1  0.12528291  0.12510089  0.51777615  1
  O2-  O130  1  0.12480644  0.37420773  -0.00181931  1
  O2-  O131  1  0.12104795  0.37617504  0.49483360  1
  O2-  O132  1  0.12558465  0.62636914  0.00721708  1
  O2-  O133  1  0.12350920  0.62459940  0.50747330  1
  O2-  O134  1  0.12503668  0.87556176  0.00788820  1
  O2-  O135  1  0.12368690  0.87407505  0.50708270  1
  O2-  O136  1  0.37571459  0.12282023  0.02051582  1
  O2-  O137  1  0.37432832  0.12746191  0.50820562  1
  O2-  O138  1  0.37524236  0.37267538  0.00799251  1
  O2-  O139  1  0.37402928  0.37585143  0.50766693  1
  O2-  O140  1  0.37603720  0.62721942  0.00838098  1
  O2-  O141  1  0.37490650  0.62259354  0.51841068  1
  O2-  O142  1  0.37710026  0.87842885  -0.00344021  1
  O2-  O143  1  0.37480836  0.87379115  0.49773723  1
  O2-  O144  1  0.62572909  0.12034560  -0.00376692  1
  O2-  O145  1  0.62501600  0.12654839  0.51537026  1
  O2-  O146  1  0.62444022  0.37401333  0.00718953  1
  O2-  O147  1  0.62638775  0.37705689  0.50689934  1
  O2-  O148  1  0.62457189  0.62773604  0.00654573  1
  O2-  O149  1  0.62614206  0.62387709  0.50687252  1
  O2-  O150  1  0.62609085  0.87662421  -0.00487955  1
  O2-  O151  1  0.62607705  0.87254392  0.50542010  1
  O2-  O152  1  0.87272738  0.12260636  -0.00284941  1
  O2-  O153  1  0.87506425  0.12757160  0.50622927  1
  O2-  O154  1  0.87446221  0.37297107  0.00532894  1
  O2-  O155  1  0.87726129  0.37735379  0.49259600  1
  O2-  O156  1  0.87260902  0.62811379  -0.00281623  1
  O2-  O157  1  0.87505001  0.62122966  0.49451245  1
  O2-  O158  1  0.87324736  0.87688887  -0.00428568  1
  O2-  O159  1  0.87592535  0.87321578  0.49667461  1
  O2-  O160  1  0.12529962  -0.00003852  0.16859110  1
  O2-  O161  1  0.12494578  -0.00075893  0.66455872  1
  O2-  O162  1  0.12521401  0.25076014  0.16484629  1
  O2-  O163  1  0.12635383  0.24957371  0.66617139  1
  O2-  O164  1  0.12580309  0.49948885  0.16182601  1
  O2-  O165  1  0.12560546  0.49851868  0.66693794  1
  O2-  O166  1  0.12544525  0.75018010  0.16606505  1
  O2-  O167  1  0.12549549  0.75197392  0.66405924  1
  O2-  O168  1  0.37597887  0.00051787  0.17209026  1
  O2-  O169  1  0.37572827  0.00156108  0.65829965  1
  O2-  O170  1  0.37596932  0.24833984  0.17050761  1
  O2-  O171  1  0.37463610  0.24968296  0.66442444  1
  O2-  O172  1  0.37557027  0.49948872  0.16595552  1
  O2-  O173  1  0.37550296  0.49879882  0.66856626  1
  O2-  O174  1  0.37610503  0.75217819  0.16481826  1
  O2-  O175  1  0.37530069  0.74929699  0.66543642  1
  O2-  O176  1  0.62455947  -0.00044323  0.16912052  1
  O2-  O177  1  0.62427133  -0.00150646  0.65839348  1
  O2-  O178  1  0.62515754  0.25192111  0.16344255  1
  O2-  O179  1  0.62400137  0.24826497  0.66861738  1
  O2-  O180  1  0.62554519  0.50001940  0.16003396  1
  O2-  O181  1  0.62449691  0.50316656  0.66835358  1
  O2-  O182  1  0.62490220  0.74881200  0.16463562  1
  O2-  O183  1  0.62583627  0.74922147  0.66035438  1
  O2-  O184  1  0.87462931  0.00092864  0.16758254  1
  O2-  O185  1  0.87570354  -0.00083171  0.66079919  1
  O2-  O186  1  0.87425901  0.25163517  0.16247432  1
  O2-  O187  1  0.87501577  0.25168457  0.66625047  1
  O2-  O188  1  0.87357473  0.49794843  0.15726594  1
  O2-  O189  1  0.87473433  0.49914617  0.66853532  1
  O2-  O190  1  0.87414735  0.75042333  0.16359664  1
  O2-  O191  1  0.87427940  0.74928148  0.66113721  1
  O2-  O192  1  -0.00050312  0.12475924  0.16362572  1
  O2-  O193  1  0.00192841  0.12588017  0.66599583  1
  O2-  O194  1  -0.00126298  0.37534033  0.15724213  1
  O2-  O195  1  0.00103634  0.37486456  0.66531432  1
  O2-  O196  1  -0.00106483  0.62540218  0.16127319  1
  O2-  O197  1  -0.00084119  0.62431925  0.66485345  1
  O2-  O198  1  -0.00086154  0.87536401  0.16510602  1
  O2-  O199  1  0.00223507  0.87428947  0.66300503  1
  O2-  O200  1  0.25145236  0.12494727  0.17133910  1
  O2-  O201  1  0.25137180  0.12446303  0.66587685  1
  O2-  O202  1  0.24842971  0.37468866  0.16765254  1
  O2-  O203  1  0.25208862  0.37451668  0.66282283  1
  O2-  O204  1  0.25030328  0.62544771  0.16671694  1
  O2-  O205  1  0.25187313  0.62461830  0.66832130  1
  O2-  O206  1  0.25109910  0.87538250  0.16968336  1
  O2-  O207  1  0.24764471  0.87595700  0.66321464  1
  O2-  O208  1  0.49969528  0.12464180  0.17078703  1
  O2-  O209  1  0.49843673  0.12490840  0.66346896  1
  O2-  O210  1  0.50354272  0.37542673  0.16744307  1
  O2-  O211  1  0.49562706  0.37495066  0.66591375  1
  O2-  O212  1  0.50311390  0.62499584  0.16719676  1
  O2-  O213  1  0.50069004  0.62547888  0.66571422  1
  O2-  O214  1  0.49983512  0.87541404  0.16811353  1
  O2-  O215  1  0.50206155  0.87365910  0.66031424  1
  O2-  O216  1  0.74946741  0.12497363  0.16459129  1
  O2-  O217  1  0.74849504  0.12507531  0.66311798  1
  O2-  O218  1  0.74944236  0.37548428  0.15867169  1
  O2-  O219  1  0.75131928  0.37586895  0.66609323  1
  O2-  O220  1  0.74778445  0.62532947  0.16251340  1
  O2-  O221  1  0.74867807  0.62396266  0.66245884  1
  O2-  O222  1  0.75057579  0.87507409  0.16548175  1
  O2-  O223  1  0.74862353  0.87435621  0.65936469  1
  O2-  O224  1  0.12513437  -0.00166353  0.35309852  1
  O2-  O225  1  0.12480962  -0.00005831  0.84721312  1
  O2-  O226  1  0.12557050  0.25059394  0.34783455  1
  O2-  O227  1  0.12439487  0.25117454  0.84797623  1
  O2-  O228  1  0.12521972  0.49897288  0.34397176  1
  O2-  O229  1  0.12454364  0.49861574  0.84950155  1
  O2-  O230  1  0.12526546  0.75261114  0.34982762  1
  O2-  O231  1  0.12435085  0.75025579  0.84762744  1
  O2-  O232  1  0.37601113  0.00106524  0.35438485  1
  O2-  O233  1  0.37547536  -0.00078876  0.84199972  1
  O2-  O234  1  0.37510982  0.25085625  0.35359578  1
  O2-  O235  1  0.37620522  0.24772629  0.84911472  1
  O2-  O236  1  0.37543648  0.49885963  0.35033689  1
  O2-  O237  1  0.37592669  0.50058887  0.85074423  1
  O2-  O238  1  0.37509704  0.75034819  0.34848600  1
  O2-  O239  1  0.37633399  0.75233565  0.84695147  1
  O2-  O240  1  0.62461651  -0.00256750  0.35422137  1
  O2-  O241  1  0.62533127  -0.00073612  0.83831323  1
  O2-  O242  1  0.62474218  0.24954180  0.34820992  1
  O2-  O243  1  0.62476286  0.25048354  0.85096107  1
  O2-  O244  1  0.62449339  0.50416683  0.34472032  1
  O2-  O245  1  0.62611378  0.49985227  0.85416657  1
  O2-  O246  1  0.62540702  0.74957544  0.34984957  1
  O2-  O247  1  0.62529939  0.74984643  0.84407625  1
  O2-  O248  1  0.87493990  -0.00143718  0.35068883  1
  O2-  O249  1  0.87405879  0.00003312  0.84145678  1
  O2-  O250  1  0.87509063  0.25167964  0.34567169  1
  O2-  O251  1  0.87397745  0.25094267  0.84851216  1
  O2-  O252  1  0.87486260  0.50051528  0.33786184  1
  O2-  O253  1  0.87272589  0.49847656  0.85221651  1
  O2-  O254  1  0.87452800  0.74958440  0.34525702  1
  O2-  O255  1  0.87394589  0.75024821  0.84330610  1
  O2-  O256  1  0.00214272  0.12493276  0.34754098  1
  O2-  O257  1  -0.00294825  0.12510185  0.84691960  1
  O2-  O258  1  0.00019911  0.37495129  0.33813744  1
  O2-  O259  1  -0.00214181  0.37509100  0.84868290  1
  O2-  O260  1  -0.00141283  0.62540104  0.34286848  1
  O2-  O261  1  -0.00236135  0.62447630  0.84748148  1
  O2-  O262  1  0.00116264  0.87494974  0.34743241  1
  O2-  O263  1  -0.00229109  0.87504288  0.84552186  1
  O2-  O264  1  0.25213007  0.12499497  0.35414513  1
  O2-  O265  1  0.25165738  0.12463591  0.84953547  1
  O2-  O266  1  0.25048610  0.37511959  0.35083424  1
  O2-  O267  1  0.24822695  0.37414834  0.84632819  1
  O2-  O268  1  0.25048297  0.62493599  0.35102462  1
  O2-  O269  1  0.24987330  0.62576266  0.85004424  1
  O2-  O270  1  0.24854753  0.87575595  0.35224435  1
  O2-  O271  1  0.25120107  0.87546947  0.84720789  1
  O2-  O272  1  0.49755506  0.12569852  0.35385560  1
  O2-  O273  1  0.50127425  0.12444832  0.84510125  1
  O2-  O274  1  0.49688213  0.37590482  0.35166733  1
  O2-  O275  1  0.50347959  0.37508225  0.84950936  1
  O2-  O276  1  0.50146214  0.62553793  0.35242040  1
  O2-  O277  1  0.50388578  0.62496277  0.84826500  1
  O2-  O278  1  0.50123081  0.87381429  0.35167246  1
  O2-  O279  1  0.50094698  0.87539830  0.84223851  1
  O2-  O280  1  0.74871863  0.12531547  0.34913301  1
  O2-  O281  1  0.74999959  0.12531651  0.84231175  1
  O2-  O282  1  0.75225483  0.37600969  0.34200411  1
  O2-  O283  1  0.74978462  0.37477814  0.85032923  1
  O2-  O284  1  0.74955713  0.62501523  0.34556221  1
  O2-  O285  1  0.74825234  0.62505758  0.84602696  1
  O2-  O286  1  0.74944523  0.87423653  0.34870829  1
  O2-  O287  1  0.75024518  0.87456683  0.84011616  1
