# generated using pymatgen
data_BaYFeCuO5
_symmetry_space_group_name_H-M   'P 1'
_cell_length_a   15.66307781
_cell_length_b   15.66772035
_cell_length_c   15.46916902
_cell_angle_alpha   90.00473176
_cell_angle_beta   89.99692539
_cell_angle_gamma   89.99630545
_symmetry_Int_Tables_number   1
_chemical_formula_structural   BaYFeCuO5
_chemical_formula_sum   'Ba32 Y32 Fe32 Cu32 O160'
_cell_volume   3796.20711261
_cell_formula_units_Z   32
loop_
 _symmetry_equiv_pos_site_id
 _symmetry_equiv_pos_as_xyz
  1  'x, y, z'
loop_
 _atom_type_symbol
 _atom_type_oxidation_number
  Ba2+  2.0
  Y3+  3.0
  Fe3+  3.0
  Cu2+  2.0
  O2-  -2.0
loop_
 _atom_site_type_symbol
 _atom_site_label
 _atom_site_symmetry_multiplicity
 _atom_site_fract_x
 _atom_site_fract_y
 _atom_site_fract_z
 _atom_site_occupancy
  Ba2+  Ba0  1  0.00116358  0.00084141  0.00681179  1
  Ba2+  Ba1  1  -0.00059009  0.00130450  0.51308240  1
  Ba2+  Ba2  1  0.00554218  0.24449322  0.01276289  1
  Ba2+  Ba3  1  -0.00104830  0.23847292  0.51167953  1
  Ba2+  Ba4  1  0.00520096  0.49526037  0.01187251  1
  Ba2+  Ba5  1  -0.00175930  0.51052066  0.50164015  1
  Ba2+  Ba6  1  -0.00017061  0.75953829  0.00669498  1
  Ba2+  Ba7  1  -0.00122465  0.75064369  0.49981105  1
  Ba2+  Ba8  1  0.25478853  0.00123802  0.01476709  1
  Ba2+  Ba9  1  0.25084957  0.00256208  0.52220495  1
  Ba2+  Ba10  1  0.25601446  0.24822273  0.01516431  1
  Ba2+  Ba11  1  0.25626276  0.24298693  0.51549926  1
  Ba2+  Ba12  1  0.25833021  0.49357737  0.01501929  1
  Ba2+  Ba13  1  0.24939125  0.49954662  0.50555113  1
  Ba2+  Ba14  1  0.25724571  0.75740667  0.01491339  1
  Ba2+  Ba15  1  0.24407090  0.75632158  0.51250683  1
  Ba2+  Ba16  1  0.49661654  0.00058741  0.01657162  1
  Ba2+  Ba17  1  0.49655241  0.00966308  0.50996782  1
  Ba2+  Ba18  1  0.49681167  0.25156169  0.01047397  1
  Ba2+  Ba19  1  0.49997701  0.24426754  0.51646485  1
  Ba2+  Ba20  1  0.49931532  0.49470588  0.01602259  1
  Ba2+  Ba21  1  0.49972604  0.48959568  0.51705572  1
  Ba2+  Ba22  1  0.49880171  0.75214832  0.02240077  1
  Ba2+  Ba23  1  0.49511426  0.75605482  0.51071215  1
  Ba2+  Ba24  1  0.74890661  -0.00012308  0.00566094  1
  Ba2+  Ba25  1  0.75403351  0.00819748  0.50263440  1
  Ba2+  Ba26  1  0.74098266  0.24763803  0.00761422  1
  Ba2+  Ba27  1  0.74472518  0.24152968  0.51222336  1
  Ba2+  Ba28  1  0.73682935  0.49805372  0.01157164  1
  Ba2+  Ba29  1  0.75200604  0.50104241  0.51247156  1
  Ba2+  Ba30  1  0.74349547  0.75505773  0.01388798  1
  Ba2+  Ba31  1  0.76081872  0.74944829  0.50286898  1
  Y3+  Y32  1  -0.00017076  0.00094415  0.25815561  1
  Y3+  Y33  1  -0.00132127  0.00171964  0.75745713  1
  Y3+  Y34  1  0.00112466  0.24863150  0.25736430  1
  Y3+  Y35  1  -0.00196401  0.24651909  0.75675342  1
  Y3+  Y36  1  0.00073823  0.50104888  0.25896882  1
  Y3+  Y37  1  -0.00147688  0.50019905  0.75657768  1
  Y3+  Y38  1  -0.00042556  0.74982600  0.25919712  1
  Y3+  Y39  1  -0.00097846  0.75134423  0.75661003  1
  Y3+  Y40  1  0.25187858  0.00188105  0.25265782  1
  Y3+  Y41  1  0.25348905  0.00071424  0.75887982  1
  Y3+  Y42  1  0.25241400  0.24810035  0.25357904  1
  Y3+  Y43  1  0.25531203  0.24813152  0.75852812  1
  Y3+  Y44  1  0.25134853  0.49892883  0.25476019  1
  Y3+  Y45  1  0.25257281  0.49762769  0.75743299  1
  Y3+  Y46  1  0.25066097  0.75146428  0.25477655  1
  Y3+  Y47  1  0.25141092  0.75380514  0.75775315  1
  Y3+  Y48  1  0.49959641  0.00376593  0.25721156  1
  Y3+  Y49  1  0.49667461  0.00249085  0.75682406  1
  Y3+  Y50  1  0.49972284  0.24697152  0.25559813  1
  Y3+  Y51  1  0.49905435  0.24985479  0.75843341  1
  Y3+  Y52  1  0.50008299  0.49797448  0.25349250  1
  Y3+  Y53  1  0.50012401  0.49398166  0.75926145  1
  Y3+  Y54  1  0.49974873  0.75136133  0.25616955  1
  Y3+  Y55  1  0.49758052  0.75288938  0.75600467  1
  Y3+  Y56  1  0.74888218  0.00304668  0.26085671  1
  Y3+  Y57  1  0.75143367  0.00293372  0.75619265  1
  Y3+  Y58  1  0.74689681  0.24753335  0.25913329  1
  Y3+  Y59  1  0.74753985  0.24818774  0.75655132  1
  Y3+  Y60  1  0.74828255  0.49974641  0.25739444  1
  Y3+  Y61  1  0.74851825  0.49838943  0.75721227  1
  Y3+  Y62  1  0.75039621  0.74987492  0.26027626  1
  Y3+  Y63  1  0.75199090  0.74990544  0.75664684  1
  Fe3+  Fe64  1  0.62351759  0.62439030  0.37983611  1
  Fe3+  Fe65  1  0.12566514  0.87582438  0.87665303  1
  Fe3+  Fe66  1  0.62494318  0.87623684  0.38018528  1
  Fe3+  Fe67  1  0.37602279  0.62528252  0.87695543  1
  Fe3+  Fe68  1  0.62394948  0.87524254  0.87459931  1
  Fe3+  Fe69  1  0.87419405  0.37385044  0.88041123  1
  Fe3+  Fe70  1  0.37478014  0.62503625  0.37866450  1
  Fe3+  Fe71  1  0.87482895  0.37364080  0.37988889  1
  Fe3+  Fe72  1  0.12630899  0.12520109  0.87598592  1
  Fe3+  Fe73  1  0.12597538  0.37402233  0.87592877  1
  Fe3+  Fe74  1  0.12718139  0.12449134  0.37567617  1
  Fe3+  Fe75  1  0.37390399  0.87708604  0.37664360  1
  Fe3+  Fe76  1  0.62409328  0.37396743  0.37782349  1
  Fe3+  Fe77  1  0.37525620  0.37327318  0.37668108  1
  Fe3+  Fe78  1  0.12583863  0.87679277  0.37498709  1
  Fe3+  Fe79  1  0.62296436  0.62572131  0.87528802  1
  Fe3+  Fe80  1  0.12644822  0.62496296  0.88057015  1
  Fe3+  Fe81  1  0.87434194  0.62477359  0.88158862  1
  Fe3+  Fe82  1  0.12561286  0.37395437  0.37941165  1
  Fe3+  Fe83  1  0.62365825  0.12433893  0.87640866  1
  Fe3+  Fe84  1  0.87526074  0.37436723  0.63473452  1
  Fe3+  Fe85  1  0.62554075  0.87646362  0.63327393  1
  Fe3+  Fe86  1  0.87437827  0.87595027  0.14004974  1
  Fe3+  Fe87  1  0.87411541  0.37427416  0.13531003  1
  Fe3+  Fe88  1  0.87525295  0.87524001  0.63848291  1
  Fe3+  Fe89  1  0.87418477  0.12515466  0.13737752  1
  Fe3+  Fe90  1  0.37448642  0.62465602  0.63376503  1
  Fe3+  Fe91  1  0.62485758  0.62577731  0.63354235  1
  Fe3+  Fe92  1  0.12474536  0.37394125  0.63375726  1
  Fe3+  Fe93  1  0.12459920  0.62547583  0.63850481  1
  Fe3+  Fe94  1  0.12569653  0.62587657  0.13465369  1
  Fe3+  Fe95  1  0.87422983  0.62475685  0.13480365  1
  Cu2+  Cu96  1  0.12687664  0.62534694  0.36135292  1
  Cu2+  Cu97  1  0.87618680  0.12629809  0.37186905  1
  Cu2+  Cu98  1  0.87533705  0.87627745  0.36383880  1
  Cu2+  Cu99  1  0.87425948  0.87517972  0.86375919  1
  Cu2+  Cu100  1  0.62334510  0.12561662  0.37256190  1
  Cu2+  Cu101  1  0.37403083  0.12517922  0.37017773  1
  Cu2+  Cu102  1  0.37644223  0.87554159  0.87283541  1
  Cu2+  Cu103  1  0.87426621  0.62370364  0.37125520  1
  Cu2+  Cu104  1  0.37524242  0.37434198  0.87205423  1
  Cu2+  Cu105  1  0.37554567  0.12467521  0.87262307  1
  Cu2+  Cu106  1  0.62467061  0.37432867  0.87140801  1
  Cu2+  Cu107  1  0.87457633  0.12559901  0.86704147  1
  Cu2+  Cu108  1  0.37583429  0.37390313  0.14406406  1
  Cu2+  Cu109  1  0.62571249  0.12444601  0.14978931  1
  Cu2+  Cu110  1  0.37592307  0.87604557  0.14404636  1
  Cu2+  Cu111  1  0.87555781  0.62521796  0.64319686  1
  Cu2+  Cu112  1  0.62615329  0.87633391  0.15668838  1
  Cu2+  Cu113  1  0.37450715  0.37471421  0.64921600  1
  Cu2+  Cu114  1  0.12548071  0.12517356  0.65288997  1
  Cu2+  Cu115  1  0.87444407  0.12479846  0.64339180  1
  Cu2+  Cu116  1  0.62540343  0.37422383  0.64925891  1
  Cu2+  Cu117  1  0.37547339  0.12506480  0.64453553  1
  Cu2+  Cu118  1  0.12457684  0.37481683  0.15185692  1
  Cu2+  Cu119  1  0.62519592  0.62548307  0.15358618  1
  Cu2+  Cu120  1  0.62459320  0.12399464  0.64407144  1
  Cu2+  Cu121  1  0.12450928  0.87574368  0.65274270  1
  Cu2+  Cu122  1  0.37608225  0.12509112  0.14163971  1
  Cu2+  Cu123  1  0.37491111  0.87532000  0.64827763  1
  Cu2+  Cu124  1  0.12444078  0.12450439  0.14965545  1
  Cu2+  Cu125  1  0.37546836  0.62500767  0.15090877  1
  Cu2+  Cu126  1  0.12406946  0.87529547  0.15006185  1
  Cu2+  Cu127  1  0.62531501  0.37318909  0.14312238  1
  O2-  O128  1  0.12525981  0.12534842  -0.00360173  1
  O2-  O129  1  0.12648620  0.12376754  0.49604504  1
  O2-  O130  1  0.12510654  0.37478412  -0.00358111  1
  O2-  O131  1  0.12420326  0.37500580  0.50626960  1
  O2-  O132  1  0.12628205  0.62485801  0.00657022  1
  O2-  O133  1  0.12422766  0.62573775  0.51784050  1
  O2-  O134  1  0.12516551  0.87495528  -0.00299949  1
  O2-  O135  1  0.12517999  0.87654659  0.49542618  1
  O2-  O136  1  0.37570082  0.12484113  0.00800808  1
  O2-  O137  1  0.37370220  0.12516387  0.50807018  1
  O2-  O138  1  0.37520627  0.37538311  0.00746210  1
  O2-  O139  1  0.37398760  0.37500559  0.49731210  1
  O2-  O140  1  0.37697998  0.62552726  -0.00271652  1
  O2-  O141  1  0.37303416  0.62488724  0.50598575  1
  O2-  O142  1  0.37695414  0.87437919  0.00720600  1
  O2-  O143  1  0.37178431  0.87512784  0.49709382  1
  O2-  O144  1  0.62469225  0.12269120  -0.00262264  1
  O2-  O145  1  0.62428594  0.12404936  0.50742980  1
  O2-  O146  1  0.62523034  0.37471223  0.00740932  1
  O2-  O147  1  0.62560375  0.37563753  0.49818446  1
  O2-  O148  1  0.62275214  0.62754374  -0.00462544  1
  O2-  O149  1  0.62502461  0.62421360  0.50601807  1
  O2-  O150  1  0.62393583  0.87401960  -0.00497092  1
  O2-  O151  1  0.62584387  0.87553039  0.50656356  1
  O2-  O152  1  0.87453664  0.12469227  0.01699501  1
  O2-  O153  1  0.87622342  0.12572599  0.50763987  1
  O2-  O154  1  0.87476367  0.37501969  0.00775557  1
  O2-  O155  1  0.87580459  0.37454763  0.50687577  1
  O2-  O156  1  0.87355492  0.62453280  0.00814705  1
  O2-  O157  1  0.87577914  0.62487964  0.50721081  1
  O2-  O158  1  0.87340556  0.87506248  0.01946643  1
  O2-  O159  1  0.87676138  0.87453031  0.51772184  1
  O2-  O160  1  0.12401067  -0.00039828  0.16190362  1
  O2-  O161  1  0.12440084  0.00041525  0.66416302  1
  O2-  O162  1  0.12318147  0.25033206  0.16445812  1
  O2-  O163  1  0.12391394  0.25164292  0.66032630  1
  O2-  O164  1  0.12441528  0.50230588  0.16476554  1
  O2-  O165  1  0.12433436  0.49829847  0.66516114  1
  O2-  O166  1  0.12392603  0.74799109  0.16331905  1
  O2-  O167  1  0.12592895  0.74953571  0.66763161  1
  O2-  O168  1  0.37544152  0.00030577  0.16453606  1
  O2-  O169  1  0.37490017  -0.00139582  0.66567339  1
  O2-  O170  1  0.37530845  0.24954640  0.16452245  1
  O2-  O171  1  0.37499093  0.25154988  0.66590412  1
  O2-  O172  1  0.37490820  0.50077021  0.16584454  1
  O2-  O173  1  0.37544875  0.50159792  0.66268482  1
  O2-  O174  1  0.37593210  0.74937757  0.16699888  1
  O2-  O175  1  0.37357137  0.74811686  0.66155778  1
  O2-  O176  1  0.62674706  0.00031386  0.16689648  1
  O2-  O177  1  0.62479979  -0.00334706  0.66360596  1
  O2-  O178  1  0.62610933  0.24786022  0.16522622  1
  O2-  O179  1  0.62556689  0.25056754  0.66501845  1
  O2-  O180  1  0.62600439  0.50106146  0.16564632  1
  O2-  O181  1  0.62430733  0.50193409  0.66283183  1
  O2-  O182  1  0.62571923  0.75040914  0.16813022  1
  O2-  O183  1  0.62524767  0.75024163  0.65927459  1
  O2-  O184  1  0.87443855  0.00064876  0.16857372  1
  O2-  O185  1  0.87535895  -0.00156069  0.66708769  1
  O2-  O186  1  0.87609128  0.25108188  0.16476786  1
  O2-  O187  1  0.87513403  0.25291012  0.66421172  1
  O2-  O188  1  0.87491564  0.50050682  0.16269417  1
  O2-  O189  1  0.87551820  0.49674780  0.66541391  1
  O2-  O190  1  0.87478045  0.74799342  0.16571643  1
  O2-  O191  1  0.87494507  0.75160981  0.66907624  1
  O2-  O192  1  -0.00096217  0.12547026  0.16531205  1
  O2-  O193  1  0.00103896  0.12542052  0.66607976  1
  O2-  O194  1  -0.00257563  0.37669000  0.16475501  1
  O2-  O195  1  0.00023404  0.37515167  0.66444243  1
  O2-  O196  1  -0.00055655  0.62398078  0.16114455  1
  O2-  O197  1  0.00216077  0.62458892  0.67257748  1
  O2-  O198  1  -0.00140525  0.87413072  0.16641270  1
  O2-  O199  1  -0.00012833  0.87441740  0.66806361  1
  O2-  O200  1  0.24808341  0.12547807  0.16179044  1
  O2-  O201  1  0.24942280  0.12529021  0.66546957  1
  O2-  O202  1  0.24865262  0.37553830  0.16581875  1
  O2-  O203  1  0.24787890  0.37590558  0.66120990  1
  O2-  O204  1  0.24837731  0.62496599  0.16238225  1
  O2-  O205  1  0.25101082  0.62370045  0.66454873  1
  O2-  O206  1  0.24835747  0.87366603  0.16202995  1
  O2-  O207  1  0.24953970  0.87471487  0.66357641  1
  O2-  O208  1  0.50227097  0.12421687  0.16553009  1
  O2-  O209  1  0.49989590  0.12521605  0.66463235  1
  O2-  O210  1  0.50070775  0.37523148  0.16571895  1
  O2-  O211  1  0.49993708  0.37530123  0.66245107  1
  O2-  O212  1  0.50070624  0.62534040  0.16731130  1
  O2-  O213  1  0.49957049  0.62635858  0.65549461  1
  O2-  O214  1  0.50243360  0.87503467  0.16825744  1
  O2-  O215  1  0.50124413  0.87283654  0.65825414  1
  O2-  O216  1  0.75098496  0.12560837  0.16787291  1
  O2-  O217  1  0.74955877  0.12517295  0.66611002  1
  O2-  O218  1  0.75335015  0.37535543  0.16609082  1
  O2-  O219  1  0.75169176  0.37620732  0.66412865  1
  O2-  O220  1  0.75192882  0.62483912  0.16465384  1
  O2-  O221  1  0.74660989  0.62436328  0.66418440  1
  O2-  O222  1  0.75112844  0.87378046  0.17042109  1
  O2-  O223  1  0.74902390  0.87409009  0.66540120  1
  O2-  O224  1  0.12491346  0.00010414  0.34326344  1
  O2-  O225  1  0.12403883  0.00028054  0.84629963  1
  O2-  O226  1  0.12538450  0.25177524  0.34829334  1
  O2-  O227  1  0.12367678  0.25008317  0.84300506  1
  O2-  O228  1  0.12485312  0.49826666  0.35092741  1
  O2-  O229  1  0.12443934  0.50142269  0.84739001  1
  O2-  O230  1  0.12520092  0.75079085  0.34729051  1
  O2-  O231  1  0.12381294  0.74824096  0.84964231  1
  O2-  O232  1  0.37517360  -0.00113032  0.34616047  1
  O2-  O233  1  0.37511200  0.00023243  0.84921360  1
  O2-  O234  1  0.37384426  0.25152808  0.34626131  1
  O2-  O235  1  0.37510226  0.24949247  0.84965230  1
  O2-  O236  1  0.37505968  0.50070614  0.34889611  1
  O2-  O237  1  0.37454157  0.50169192  0.84561509  1
  O2-  O238  1  0.37481469  0.74940993  0.34972442  1
  O2-  O239  1  0.37521516  0.74819909  0.84410452  1
  O2-  O240  1  0.62488949  -0.00241604  0.35112551  1
  O2-  O241  1  0.62664551  -0.00000880  0.84447706  1
  O2-  O242  1  0.62505112  0.25198318  0.34722866  1
  O2-  O243  1  0.62596938  0.24812517  0.84797164  1
  O2-  O244  1  0.62412049  0.50058912  0.34847945  1
  O2-  O245  1  0.62562229  0.50183811  0.84609893  1
  O2-  O246  1  0.62537951  0.74993686  0.35341823  1
  O2-  O247  1  0.62514742  0.74943993  0.84051319  1
  O2-  O248  1  0.87546175  0.00003395  0.35009541  1
  O2-  O249  1  0.87432148  -0.00005051  0.85028188  1
  O2-  O250  1  0.87577212  0.25369307  0.34752350  1
  O2-  O251  1  0.87540782  0.25245815  0.84901744  1
  O2-  O252  1  0.87587674  0.49589279  0.34742073  1
  O2-  O253  1  0.87514559  0.50040066  0.85042530  1
  O2-  O254  1  0.87506703  0.75077680  0.34917380  1
  O2-  O255  1  0.87555723  0.74702949  0.85180574  1
  O2-  O256  1  0.00296776  0.12647627  0.34662545  1
  O2-  O257  1  0.00011563  0.12551402  0.84921524  1
  O2-  O258  1  0.00102396  0.37583500  0.35070711  1
  O2-  O259  1  -0.00131770  0.37638890  0.84865432  1
  O2-  O260  1  0.00185113  0.62435243  0.34625270  1
  O2-  O261  1  0.00000850  0.62356594  0.85605541  1
  O2-  O262  1  0.00047104  0.87415110  0.34805055  1
  O2-  O263  1  -0.00015576  0.87429747  0.85051803  1
  O2-  O264  1  0.24866648  0.12530076  0.34330725  1
  O2-  O265  1  0.24898539  0.12537377  0.84743624  1
  O2-  O266  1  0.24890098  0.37676614  0.34904576  1
  O2-  O267  1  0.24817185  0.37553356  0.84427264  1
  O2-  O268  1  0.25265436  0.62428483  0.34750809  1
  O2-  O269  1  0.24877332  0.62486151  0.84723005  1
  O2-  O270  1  0.25013278  0.87441597  0.34278884  1
  O2-  O271  1  0.24816785  0.87406158  0.84669696  1
  O2-  O272  1  0.49883796  0.12535160  0.34918475  1
  O2-  O273  1  0.50130581  0.12463299  0.84630965  1
  O2-  O274  1  0.49971582  0.37570397  0.34678425  1
  O2-  O275  1  0.50031771  0.37492885  0.84747268  1
  O2-  O276  1  0.49966764  0.62593665  0.35202273  1
  O2-  O277  1  0.49984500  0.62486199  0.83855846  1
  O2-  O278  1  0.50071209  0.87362735  0.35161446  1
  O2-  O279  1  0.50228922  0.87486466  0.84085997  1
  O2-  O280  1  0.74997915  0.12593277  0.35086745  1
  O2-  O281  1  0.74968441  0.12537967  0.84876157  1
  O2-  O282  1  0.75027758  0.37612790  0.34950541  1
  O2-  O283  1  0.75290697  0.37600994  0.84943223  1
  O2-  O284  1  0.74570802  0.62393879  0.34942106  1
  O2-  O285  1  0.75103069  0.62464796  0.84813714  1
  O2-  O286  1  0.74887553  0.87433597  0.35365520  1
  O2-  O287  1  0.74970222  0.87334553  0.84739955  1
