# generated using pymatgen
data_BaYFeCuO5
_symmetry_space_group_name_H-M   'P 1'
_cell_length_a   15.65012045
_cell_length_b   15.64810681
_cell_length_c   15.44534989
_cell_angle_alpha   90.00275433
_cell_angle_beta   89.99377612
_cell_angle_gamma   90.00146955
_symmetry_Int_Tables_number   1
_chemical_formula_structural   BaYFeCuO5
_chemical_formula_sum   'Ba32 Y32 Fe32 Cu32 O160'
_cell_volume   3782.48517102
_cell_formula_units_Z   32
loop_
 _symmetry_equiv_pos_site_id
 _symmetry_equiv_pos_as_xyz
  1  'x, y, z'
loop_
 _atom_type_symbol
 _atom_type_oxidation_number
  Ba2+  2.0
  Y3+  3.0
  Fe3+  3.0
  Cu2+  2.0
  O2-  -2.0
loop_
 _atom_site_type_symbol
 _atom_site_label
 _atom_site_symmetry_multiplicity
 _atom_site_fract_x
 _atom_site_fract_y
 _atom_site_fract_z
 _atom_site_occupancy
  Ba2+  Ba0  1  -0.00345200  0.00935374  0.00138193  1
  Ba2+  Ba1  1  0.00905983  0.00370199  0.51060556  1
  Ba2+  Ba2  1  -0.00703093  0.24557720  -0.00339180  1
  Ba2+  Ba3  1  0.00424984  0.24974729  0.51667235  1
  Ba2+  Ba4  1  -0.00203537  0.50561630  0.00690387  1
  Ba2+  Ba5  1  0.00155349  0.49799512  0.52145972  1
  Ba2+  Ba6  1  0.00177566  0.74044853  0.01156525  1
  Ba2+  Ba7  1  0.00621768  0.74820362  0.51700368  1
  Ba2+  Ba8  1  0.25124540  -0.00177138  0.00745125  1
  Ba2+  Ba9  1  0.24825658  -0.00307021  0.51142502  1
  Ba2+  Ba10  1  0.24530512  0.24569454  0.00201566  1
  Ba2+  Ba11  1  0.24079154  0.24521660  0.51051431  1
  Ba2+  Ba12  1  0.24725367  0.51029473  0.00174457  1
  Ba2+  Ba13  1  0.24307389  0.50266575  0.51712867  1
  Ba2+  Ba14  1  0.25297947  0.74473965  0.00545856  1
  Ba2+  Ba15  1  0.25071644  0.75578577  0.51553638  1
  Ba2+  Ba16  1  0.50633318  -0.00737871  0.01575825  1
  Ba2+  Ba17  1  0.49809210  -0.00225001  0.51569547  1
  Ba2+  Ba18  1  0.50517520  0.24495959  0.01231674  1
  Ba2+  Ba19  1  0.50170104  0.23846748  0.51098114  1
  Ba2+  Ba20  1  0.50045246  0.50980035  0.00660931  1
  Ba2+  Ba21  1  0.50177281  0.51136823  0.51107959  1
  Ba2+  Ba22  1  0.50259091  0.75406256  0.01280917  1
  Ba2+  Ba23  1  0.49863443  0.75250466  0.51622049  1
  Ba2+  Ba24  1  0.74591073  0.00299040  0.01270272  1
  Ba2+  Ba25  1  0.74393605  0.00510094  0.51567995  1
  Ba2+  Ba26  1  0.75644571  0.24341471  0.00661398  1
  Ba2+  Ba27  1  0.75406110  0.24449936  0.51616742  1
  Ba2+  Ba28  1  0.75430009  0.50461976  0.01249084  1
  Ba2+  Ba29  1  0.75370917  0.50618411  0.51612807  1
  Ba2+  Ba30  1  0.74337856  0.74922215  0.01708154  1
  Ba2+  Ba31  1  0.74414317  0.74470792  0.51466366  1
  Y3+  Y32  1  0.00116291  0.00049676  0.25884220  1
  Y3+  Y33  1  0.00037100  0.00251957  0.75598052  1
  Y3+  Y34  1  0.00105910  0.24913171  0.25997681  1
  Y3+  Y35  1  -0.00135028  0.24877142  0.75615611  1
  Y3+  Y36  1  0.00171610  0.50047105  0.25595491  1
  Y3+  Y37  1  0.00004193  0.49948190  0.75761023  1
  Y3+  Y38  1  0.00172538  0.74960591  0.25602775  1
  Y3+  Y39  1  0.00221088  0.74933364  0.75691498  1
  Y3+  Y40  1  0.24932611  -0.00315466  0.26198861  1
  Y3+  Y41  1  0.24927649  -0.00058679  0.75361873  1
  Y3+  Y42  1  0.24710811  0.25030116  0.26120150  1
  Y3+  Y43  1  0.24708733  0.24841541  0.75490921  1
  Y3+  Y44  1  0.24781349  0.50007488  0.25761541  1
  Y3+  Y45  1  0.24822752  0.50290124  0.75770758  1
  Y3+  Y46  1  0.25022747  0.75260227  0.25840621  1
  Y3+  Y47  1  0.25021075  0.74960191  0.75562466  1
  Y3+  Y48  1  0.50146395  -0.00236279  0.25875212  1
  Y3+  Y49  1  0.50103848  -0.00245776  0.75411381  1
  Y3+  Y50  1  0.50183538  0.24805262  0.25939742  1
  Y3+  Y51  1  0.50044324  0.24807519  0.75508835  1
  Y3+  Y52  1  0.50146934  0.50184897  0.25968074  1
  Y3+  Y53  1  0.49927253  0.50315703  0.75510971  1
  Y3+  Y54  1  0.50100941  0.75230729  0.25898875  1
  Y3+  Y55  1  0.49965817  0.75125404  0.75491660  1
  Y3+  Y56  1  0.74871327  0.00127029  0.25555557  1
  Y3+  Y57  1  0.74873051  0.00051142  0.75761502  1
  Y3+  Y58  1  0.75050788  0.24666706  0.25716917  1
  Y3+  Y59  1  0.75364916  0.24830219  0.75655463  1
  Y3+  Y60  1  0.74943432  0.50236384  0.25846850  1
  Y3+  Y61  1  0.75210311  0.50009376  0.75462164  1
  Y3+  Y62  1  0.74770174  0.74916883  0.25683216  1
  Y3+  Y63  1  0.74725185  0.75133000  0.75491622  1
  Fe3+  Fe64  1  0.12432664  0.87504856  0.87918578  1
  Fe3+  Fe65  1  0.87528752  0.87468460  0.38041760  1
  Fe3+  Fe66  1  0.87377588  0.62629162  0.87423271  1
  Fe3+  Fe67  1  0.12397066  0.37511737  0.87863284  1
  Fe3+  Fe68  1  0.87547304  0.12417855  0.37804094  1
  Fe3+  Fe69  1  0.37571523  0.37514844  0.88009322  1
  Fe3+  Fe70  1  0.87598956  0.62562865  0.37667139  1
  Fe3+  Fe71  1  0.62441601  0.12403041  0.87541297  1
  Fe3+  Fe72  1  0.62589524  0.37532503  0.87892178  1
  Fe3+  Fe73  1  0.87572926  0.37538814  0.37877791  1
  Fe3+  Fe74  1  0.37462947  0.37538823  0.38128987  1
  Fe3+  Fe75  1  0.62612536  0.37471018  0.38086218  1
  Fe3+  Fe76  1  0.37559762  0.12394310  0.87880080  1
  Fe3+  Fe77  1  0.37458948  0.12370620  0.37692475  1
  Fe3+  Fe78  1  0.62491325  0.62610642  0.87473699  1
  Fe3+  Fe79  1  0.37428792  0.62620530  0.37855599  1
  Fe3+  Fe80  1  0.62566920  0.87523407  0.37804778  1
  Fe3+  Fe81  1  0.37586280  0.87479211  0.87670307  1
  Fe3+  Fe82  1  0.12492402  0.62525196  0.37658589  1
  Fe3+  Fe83  1  0.87356456  0.87456551  0.87932662  1
  Fe3+  Fe84  1  0.87523786  0.87552663  0.63466830  1
  Fe3+  Fe85  1  0.62559380  0.37522428  0.13443757  1
  Fe3+  Fe86  1  0.37472179  0.12409201  0.13561681  1
  Fe3+  Fe87  1  0.37516837  0.62568418  0.13926677  1
  Fe3+  Fe88  1  0.87555438  0.37451871  0.13634117  1
  Fe3+  Fe89  1  0.37440067  0.37457085  0.63518628  1
  Fe3+  Fe90  1  0.12466393  0.12514441  0.13750353  1
  Fe3+  Fe91  1  0.12492534  0.37479340  0.13341930  1
  Fe3+  Fe92  1  0.37483403  0.37482964  0.13402559  1
  Fe3+  Fe93  1  0.62509636  0.37484710  0.63490384  1
  Fe3+  Fe94  1  0.87570926  0.87518122  0.13416672  1
  Fe3+  Fe95  1  0.12532026  0.87494453  0.13394268  1
  Cu2+  Cu96  1  0.37571092  0.62579298  0.86140485  1
  Cu2+  Cu97  1  0.37525024  0.87462501  0.37300430  1
  Cu2+  Cu98  1  0.62550789  0.12434612  0.37232908  1
  Cu2+  Cu99  1  0.87396747  0.37569070  0.86488735  1
  Cu2+  Cu100  1  0.12439431  0.62593184  0.87108506  1
  Cu2+  Cu101  1  0.62522969  0.62551759  0.37298352  1
  Cu2+  Cu102  1  0.62502007  0.87474384  0.87141242  1
  Cu2+  Cu103  1  0.12415422  0.87398852  0.37285516  1
  Cu2+  Cu104  1  0.12402583  0.37592426  0.37461495  1
  Cu2+  Cu105  1  0.87373834  0.12362547  0.86938220  1
  Cu2+  Cu106  1  0.12490950  0.12456226  0.37119206  1
  Cu2+  Cu107  1  0.12558395  0.12435082  0.86320896  1
  Cu2+  Cu108  1  0.37439114  0.12512173  0.65091048  1
  Cu2+  Cu109  1  0.87513901  0.62518662  0.15156493  1
  Cu2+  Cu110  1  0.12514452  0.37472334  0.64519172  1
  Cu2+  Cu111  1  0.12487904  0.62527093  0.65314581  1
  Cu2+  Cu112  1  0.12646782  0.62488220  0.14178968  1
  Cu2+  Cu113  1  0.62414532  0.62427795  0.15253492  1
  Cu2+  Cu114  1  0.12497335  0.12450203  0.64475782  1
  Cu2+  Cu115  1  0.12430684  0.87527918  0.64403880  1
  Cu2+  Cu116  1  0.37461797  0.87538170  0.14992337  1
  Cu2+  Cu117  1  0.87548799  0.12382306  0.64953854  1
  Cu2+  Cu118  1  0.87521098  0.37470760  0.64911542  1
  Cu2+  Cu119  1  0.62570269  0.87487872  0.14321773  1
  Cu2+  Cu120  1  0.87576701  0.62619074  0.65107124  1
  Cu2+  Cu121  1  0.37399872  0.62500006  0.64913035  1
  Cu2+  Cu122  1  0.62538794  0.87523563  0.64835105  1
  Cu2+  Cu123  1  0.37433756  0.87535031  0.64245892  1
  Cu2+  Cu124  1  0.62493155  0.12528113  0.64340523  1
  Cu2+  Cu125  1  0.62478279  0.12557571  0.15144238  1
  Cu2+  Cu126  1  0.87619000  0.12506167  0.14286041  1
  Cu2+  Cu127  1  0.62462113  0.62493040  0.64274392  1
  O2-  O128  1  0.12502020  0.12580261  0.01683145  1
  O2-  O129  1  0.12534619  0.12485284  0.50845406  1
  O2-  O130  1  0.12472349  0.37443943  0.00707110  1
  O2-  O131  1  0.12502707  0.37609664  0.50831826  1
  O2-  O132  1  0.12518092  0.62492539  0.00612243  1
  O2-  O133  1  0.12410421  0.62452189  0.49752838  1
  O2-  O134  1  0.12489611  0.87515223  0.00673151  1
  O2-  O135  1  0.12382110  0.87399218  0.50783548  1
  O2-  O136  1  0.37584037  0.12473234  0.00666136  1
  O2-  O137  1  0.37397557  0.12501020  0.49764514  1
  O2-  O138  1  0.37588926  0.37528493  0.00730313  1
  O2-  O139  1  0.37478562  0.37479438  0.50783663  1
  O2-  O140  1  0.37609101  0.62452959  0.01786023  1
  O2-  O141  1  0.37286533  0.62496987  0.49933954  1
  O2-  O142  1  0.37544686  0.87524086  -0.00261660  1
  O2-  O143  1  0.37525904  0.87519660  0.50782022  1
  O2-  O144  1  0.62387264  0.12527131  -0.00351993  1
  O2-  O145  1  0.62548669  0.12585461  0.50728166  1
  O2-  O146  1  0.62536829  0.37544644  0.00657358  1
  O2-  O147  1  0.62500994  0.37500262  0.50760458  1
  O2-  O148  1  0.62559250  0.62471291  -0.00427931  1
  O2-  O149  1  0.62546051  0.62430964  0.50711936  1
  O2-  O150  1  0.62582237  0.87417872  0.00751844  1
  O2-  O151  1  0.62599908  0.87504346  0.49892200  1
  O2-  O152  1  0.87422295  0.12432671  0.00646843  1
  O2-  O153  1  0.87556558  0.12397731  0.49862465  1
  O2-  O154  1  0.87403028  0.37491908  0.01575201  1
  O2-  O155  1  0.87550989  0.37577965  0.49925347  1
  O2-  O156  1  0.87250889  0.62653660  -0.00486690  1
  O2-  O157  1  0.87737402  0.62538436  0.49696340  1
  O2-  O158  1  0.87464367  0.87417643  0.00650845  1
  O2-  O159  1  0.87525829  0.87506004  0.50638679  1
  O2-  O160  1  0.12569322  -0.00108195  0.16455001  1
  O2-  O161  1  0.12463224  0.00014672  0.66754107  1
  O2-  O162  1  0.12579249  0.25159037  0.16642683  1
  O2-  O163  1  0.12513337  0.24980847  0.66721849  1
  O2-  O164  1  0.12660186  0.49661338  0.16220831  1
  O2-  O165  1  0.12507127  0.50117190  0.66696328  1
  O2-  O166  1  0.12521598  0.75288166  0.16150105  1
  O2-  O167  1  0.12479947  0.74872773  0.66614947  1
  O2-  O168  1  0.37453284  0.00167236  0.16139510  1
  O2-  O169  1  0.37477129  0.00156054  0.66602147  1
  O2-  O170  1  0.37568755  0.25034428  0.16176393  1
  O2-  O171  1  0.37545857  0.25171663  0.66681219  1
  O2-  O172  1  0.37564105  0.49766496  0.16622879  1
  O2-  O173  1  0.37487652  0.49820884  0.66469843  1
  O2-  O174  1  0.37553080  0.75045340  0.16485994  1
  O2-  O175  1  0.37435164  0.74881136  0.66470067  1
  O2-  O176  1  0.62525355  0.00183647  0.16394683  1
  O2-  O177  1  0.62513234  -0.00082817  0.66487972  1
  O2-  O178  1  0.62439128  0.25218129  0.16387225  1
  O2-  O179  1  0.62438268  0.25344889  0.66558409  1
  O2-  O180  1  0.62403328  0.49775686  0.16385866  1
  O2-  O181  1  0.62435014  0.49653649  0.66483057  1
  O2-  O182  1  0.62457073  0.74804157  0.16408794  1
  O2-  O183  1  0.62491608  0.75109545  0.66381441  1
  O2-  O184  1  0.87570148  -0.00274500  0.16329070  1
  O2-  O185  1  0.87472936  -0.00175765  0.66458102  1
  O2-  O186  1  0.87489095  0.25190656  0.16724083  1
  O2-  O187  1  0.87517780  0.24891400  0.66448520  1
  O2-  O188  1  0.87447956  0.49966708  0.16400777  1
  O2-  O189  1  0.87552485  0.50103086  0.66429771  1
  O2-  O190  1  0.87602341  0.75102279  0.16185948  1
  O2-  O191  1  0.87491407  0.75189118  0.66193588  1
  O2-  O192  1  0.00261057  0.12491338  0.16730061  1
  O2-  O193  1  -0.00120263  0.12485899  0.66651474  1
  O2-  O194  1  0.00159148  0.37553363  0.16297910  1
  O2-  O195  1  -0.00121431  0.37491203  0.66788981  1
  O2-  O196  1  -0.00016626  0.62444201  0.16156370  1
  O2-  O197  1  0.00032722  0.62543508  0.66566233  1
  O2-  O198  1  0.00075672  0.87483974  0.16245462  1
  O2-  O199  1  -0.00294141  0.87474944  0.66685344  1
  O2-  O200  1  0.25079030  0.12633070  0.16368714  1
  O2-  O201  1  0.25097212  0.12578919  0.66850891  1
  O2-  O202  1  0.25057070  0.37389739  0.16260652  1
  O2-  O203  1  0.25294143  0.37493820  0.66819563  1
  O2-  O204  1  0.25238480  0.62438426  0.16655243  1
  O2-  O205  1  0.24912126  0.62421435  0.66639641  1
  O2-  O206  1  0.24816051  0.87565087  0.16365451  1
  O2-  O207  1  0.24926289  0.87515476  0.66708850  1
  O2-  O208  1  0.49821418  0.12627204  0.16262603  1
  O2-  O209  1  0.49881849  0.12610391  0.66508524  1
  O2-  O210  1  0.49978199  0.37411109  0.16290733  1
  O2-  O211  1  0.49937137  0.37483043  0.66413716  1
  O2-  O212  1  0.49906835  0.62349827  0.16728594  1
  O2-  O213  1  0.49868446  0.62417226  0.66399863  1
  O2-  O214  1  0.49918062  0.87553557  0.16509826  1
  O2-  O215  1  0.50126121  0.87520732  0.66335882  1
  O2-  O216  1  0.74891988  0.12562594  0.16348886  1
  O2-  O217  1  0.75121203  0.12523414  0.66413354  1
  O2-  O218  1  0.74874968  0.37558389  0.16481836  1
  O2-  O219  1  0.74897680  0.37494579  0.66235450  1
  O2-  O220  1  0.74924306  0.62446563  0.16406936  1
  O2-  O221  1  0.75126978  0.62449657  0.66232722  1
  O2-  O222  1  0.75324097  0.87425534  0.16409932  1
  O2-  O223  1  0.75156791  0.87528379  0.66300615  1
  O2-  O224  1  0.12444800  -0.00032538  0.34795321  1
  O2-  O225  1  0.12482166  -0.00183452  0.85162663  1
  O2-  O226  1  0.12543357  0.24999509  0.34929936  1
  O2-  O227  1  0.12558796  0.25155665  0.85137634  1
  O2-  O228  1  0.12505122  0.50237473  0.34419818  1
  O2-  O229  1  0.12552709  0.49713231  0.85051167  1
  O2-  O230  1  0.12472020  0.74764532  0.34405535  1
  O2-  O231  1  0.12472983  0.75349393  0.84973288  1
  O2-  O232  1  0.37497730  0.00078442  0.34552040  1
  O2-  O233  1  0.37457670  0.00109361  0.84919005  1
  O2-  O234  1  0.37555841  0.25162131  0.34687091  1
  O2-  O235  1  0.37529219  0.25023865  0.85253376  1
  O2-  O236  1  0.37583827  0.49893820  0.34890377  1
  O2-  O237  1  0.37545060  0.49800839  0.85065782  1
  O2-  O238  1  0.37481520  0.74838124  0.34705423  1
  O2-  O239  1  0.37458270  0.75069606  0.84803789  1
  O2-  O240  1  0.62595391  -0.00196894  0.34612699  1
  O2-  O241  1  0.62430442  0.00139496  0.84739951  1
  O2-  O242  1  0.62462236  0.25307405  0.34846975  1
  O2-  O243  1  0.62370280  0.25119531  0.84904039  1
  O2-  O244  1  0.62466554  0.49656977  0.34841793  1
  O2-  O245  1  0.62404550  0.49897245  0.84794503  1
  O2-  O246  1  0.62611335  0.75215974  0.34663007  1
  O2-  O247  1  0.62467815  0.74859629  0.84613190  1
  O2-  O248  1  0.87544894  -0.00135632  0.34676355  1
  O2-  O249  1  0.87497983  -0.00323899  0.84910844  1
  O2-  O250  1  0.87458438  0.24978418  0.34746831  1
  O2-  O251  1  0.87433603  0.25080548  0.84955327  1
  O2-  O252  1  0.87475041  0.50032476  0.34479102  1
  O2-  O253  1  0.87391638  0.50104201  0.84791851  1
  O2-  O254  1  0.87502566  0.75102352  0.34584295  1
  O2-  O255  1  0.87479124  0.75137158  0.84527182  1
  O2-  O256  1  -0.00166994  0.12455919  0.34746085  1
  O2-  O257  1  0.00109972  0.12465585  0.85044857  1
  O2-  O258  1  -0.00252532  0.37525617  0.34446281  1
  O2-  O259  1  0.00104406  0.37493932  0.85286777  1
  O2-  O260  1  -0.00009393  0.62541781  0.34298035  1
  O2-  O261  1  -0.00219135  0.62523921  0.84835344  1
  O2-  O262  1  -0.00339819  0.87435759  0.34692526  1
  O2-  O263  1  -0.00030871  0.87522959  0.85224936  1
  O2-  O264  1  0.25142463  0.12560225  0.34552322  1
  O2-  O265  1  0.25208000  0.12585034  0.85294423  1
  O2-  O266  1  0.25350619  0.37517802  0.34811630  1
  O2-  O267  1  0.25066826  0.37448953  0.85425279  1
  O2-  O268  1  0.25012687  0.62409435  0.34558718  1
  O2-  O269  1  0.25144708  0.62464172  0.85101220  1
  O2-  O270  1  0.24965705  0.87466183  0.34881339  1
  O2-  O271  1  0.24911609  0.87560050  0.85050731  1
  O2-  O272  1  0.49832372  0.12600571  0.34617832  1
  O2-  O273  1  0.49842351  0.12623891  0.84758270  1
  O2-  O274  1  0.49981837  0.37470198  0.34978590  1
  O2-  O275  1  0.49995010  0.37474314  0.85034091  1
  O2-  O276  1  0.49831490  0.62387356  0.34888802  1
  O2-  O277  1  0.50056575  0.62393270  0.84672283  1
  O2-  O278  1  0.50195615  0.87508180  0.34818410  1
  O2-  O279  1  0.49822838  0.87517429  0.84645033  1
  O2-  O280  1  0.75235486  0.12465816  0.34621220  1
  O2-  O281  1  0.74753446  0.12554575  0.84634268  1
  O2-  O282  1  0.74969804  0.37499182  0.34816248  1
  O2-  O283  1  0.74739648  0.37499106  0.84782160  1
  O2-  O284  1  0.75208015  0.62492739  0.34727013  1
  O2-  O285  1  0.74932448  0.62468635  0.84289865  1
  O2-  O286  1  0.75185519  0.87508303  0.34721635  1
  O2-  O287  1  0.75203893  0.87468032  0.84762606  1
