# generated using pymatgen
data_BaYFeCuO5
_symmetry_space_group_name_H-M   'P 1'
_cell_length_a   15.67168553
_cell_length_b   15.66578448
_cell_length_c   15.47943449
_cell_angle_alpha   89.99970091
_cell_angle_beta   90.00780274
_cell_angle_gamma   89.99359060
_symmetry_Int_Tables_number   1
_chemical_formula_structural   BaYFeCuO5
_chemical_formula_sum   'Ba32 Y32 Fe32 Cu32 O160'
_cell_volume   3800.34426005
_cell_formula_units_Z   32
loop_
 _symmetry_equiv_pos_site_id
 _symmetry_equiv_pos_as_xyz
  1  'x, y, z'
loop_
 _atom_type_symbol
 _atom_type_oxidation_number
  Ba2+  2.0
  Y3+  3.0
  Fe3+  3.0
  Cu2+  2.0
  O2-  -2.0
loop_
 _atom_site_type_symbol
 _atom_site_label
 _atom_site_symmetry_multiplicity
 _atom_site_fract_x
 _atom_site_fract_y
 _atom_site_fract_z
 _atom_site_occupancy
  Ba2+  Ba0  1  -0.00061322  0.00009093  0.01772968  1
  Ba2+  Ba1  1  -0.00645838  -0.00254847  0.51565555  1
  Ba2+  Ba2  1  -0.00654403  0.24138672  0.00551265  1
  Ba2+  Ba3  1  0.00161590  0.25100909  0.50705807  1
  Ba2+  Ba4  1  0.00296146  0.50253491  0.00238344  1
  Ba2+  Ba5  1  0.00643316  0.50525865  0.51331595  1
  Ba2+  Ba6  1  0.00761599  0.75603190  0.00949614  1
  Ba2+  Ba7  1  -0.00038313  0.74789389  0.52264684  1
  Ba2+  Ba8  1  0.24836716  -0.00164802  0.02172307  1
  Ba2+  Ba9  1  0.25365672  -0.00503869  0.51106517  1
  Ba2+  Ba10  1  0.25339508  0.24271080  0.01355525  1
  Ba2+  Ba11  1  0.25300562  0.25966551  0.50252355  1
  Ba2+  Ba12  1  0.24641836  0.50295077  0.00279481  1
  Ba2+  Ba13  1  0.24910717  0.49743068  0.51869116  1
  Ba2+  Ba14  1  0.24195268  0.75571042  0.00869443  1
  Ba2+  Ba15  1  0.24938955  0.74760447  0.52737151  1
  Ba2+  Ba16  1  0.50037451  0.00136400  0.02846631  1
  Ba2+  Ba17  1  0.50306531  -0.00161794  0.50080746  1
  Ba2+  Ba18  1  0.49779972  0.24169749  0.01367913  1
  Ba2+  Ba19  1  0.49625980  0.25242783  0.50205044  1
  Ba2+  Ba20  1  0.49578843  0.49424824  0.00209046  1
  Ba2+  Ba21  1  0.49187787  0.49510249  0.51732626  1
  Ba2+  Ba22  1  0.49896640  0.76174377  0.01642869  1
  Ba2+  Ba23  1  0.49754682  0.75606485  0.51604775  1
  Ba2+  Ba24  1  0.75204514  0.00265743  0.02456977  1
  Ba2+  Ba25  1  0.74947605  -0.00111835  0.50575271  1
  Ba2+  Ba26  1  0.75512917  0.24004971  0.00605807  1
  Ba2+  Ba27  1  0.74922925  0.24323926  0.50636471  1
  Ba2+  Ba28  1  0.75477116  0.49385487  0.00148391  1
  Ba2+  Ba29  1  0.75387735  0.50356832  0.51152861  1
  Ba2+  Ba30  1  0.75108508  0.76190891  0.01751218  1
  Ba2+  Ba31  1  0.75488177  0.75456704  0.51108858  1
  Y3+  Y32  1  -0.00086974  0.00149694  0.25632202  1
  Y3+  Y33  1  -0.00159178  -0.00063010  0.75632635  1
  Y3+  Y34  1  0.00017569  0.24814822  0.26013608  1
  Y3+  Y35  1  -0.00217705  0.24848017  0.75662130  1
  Y3+  Y36  1  0.00182675  0.50146124  0.25884941  1
  Y3+  Y37  1  0.00130253  0.50074488  0.75731851  1
  Y3+  Y38  1  0.00118445  0.74973797  0.25321677  1
  Y3+  Y39  1  0.00217621  0.75025538  0.75959346  1
  Y3+  Y40  1  0.24975772  0.00112449  0.25652198  1
  Y3+  Y41  1  0.24799327  -0.00286632  0.75563130  1
  Y3+  Y42  1  0.25046639  0.25020397  0.26182900  1
  Y3+  Y43  1  0.25022992  0.25254712  0.75561430  1
  Y3+  Y44  1  0.24774898  0.49872550  0.25787570  1
  Y3+  Y45  1  0.24915434  0.49863233  0.75795628  1
  Y3+  Y46  1  0.24718458  0.75081808  0.24961083  1
  Y3+  Y47  1  0.24682755  0.75047752  0.76121373  1
  Y3+  Y48  1  0.50147741  0.00113578  0.26204824  1
  Y3+  Y49  1  0.50080730  -0.00213788  0.75041668  1
  Y3+  Y50  1  0.49856765  0.24752759  0.26140259  1
  Y3+  Y51  1  0.49858620  0.25214577  0.75614248  1
  Y3+  Y52  1  0.49865533  0.49933043  0.25784188  1
  Y3+  Y53  1  0.49753834  0.49710929  0.75678891  1
  Y3+  Y54  1  0.50144283  0.75303368  0.25791910  1
  Y3+  Y55  1  0.49939643  0.75181532  0.75421038  1
  Y3+  Y56  1  0.75010746  0.00150921  0.26181784  1
  Y3+  Y57  1  0.75212336  0.00040516  0.75153515  1
  Y3+  Y58  1  0.75133542  0.24560714  0.26015212  1
  Y3+  Y59  1  0.75226345  0.24820805  0.75692142  1
  Y3+  Y60  1  0.75237737  0.50214657  0.25967686  1
  Y3+  Y61  1  0.75114459  0.49922555  0.75600185  1
  Y3+  Y62  1  0.75078974  0.75192992  0.26040749  1
  Y3+  Y63  1  0.75105612  0.75154384  0.75276375  1
  Fe3+  Fe64  1  0.12549073  0.12385326  0.38017264  1
  Fe3+  Fe65  1  0.62529766  0.37262994  0.87932177  1
  Fe3+  Fe66  1  0.12618546  0.62705350  0.37561902  1
  Fe3+  Fe67  1  0.37555968  0.12300522  0.87502010  1
  Fe3+  Fe68  1  0.87415515  0.62671502  0.87921172  1
  Fe3+  Fe69  1  0.62460736  0.12181523  0.87618104  1
  Fe3+  Fe70  1  0.12512650  0.87339420  0.37742838  1
  Fe3+  Fe71  1  0.37567453  0.62627102  0.87884925  1
  Fe3+  Fe72  1  0.62531170  0.37647564  0.37784751  1
  Fe3+  Fe73  1  0.37348505  0.62607885  0.37576206  1
  Fe3+  Fe74  1  0.87745388  0.87396622  0.37527968  1
  Fe3+  Fe75  1  0.62417542  0.62560171  0.37994011  1
  Fe3+  Fe76  1  0.12516351  0.12324669  0.87624856  1
  Fe3+  Fe77  1  0.87434518  0.87687971  0.87585411  1
  Fe3+  Fe78  1  0.12454733  0.37243646  0.87950834  1
  Fe3+  Fe79  1  0.87623405  0.37619030  0.38063177  1
  Fe3+  Fe80  1  0.62509445  0.62667489  0.87986683  1
  Fe3+  Fe81  1  0.37557200  0.87764017  0.87614351  1
  Fe3+  Fe82  1  0.62539182  0.87725560  0.87518433  1
  Fe3+  Fe83  1  0.37279094  0.87290665  0.37456389  1
  Fe3+  Fe84  1  0.37486966  0.37456522  0.13702970  1
  Fe3+  Fe85  1  0.62422776  0.12610830  0.63561146  1
  Fe3+  Fe86  1  0.62603625  0.37364222  0.13513199  1
  Fe3+  Fe87  1  0.12539535  0.12513128  0.63406586  1
  Fe3+  Fe88  1  0.12411179  0.37343825  0.13518688  1
  Fe3+  Fe89  1  0.87527114  0.62542828  0.13394964  1
  Fe3+  Fe90  1  0.37446884  0.12497413  0.63445127  1
  Fe3+  Fe91  1  0.87538481  0.37495670  0.63669276  1
  Fe3+  Fe92  1  0.87516927  0.37431982  0.13866230  1
  Fe3+  Fe93  1  0.62420711  0.62421738  0.63584629  1
  Fe3+  Fe94  1  0.37498335  0.62566480  0.13265563  1
  Fe3+  Fe95  1  0.62520313  0.62460623  0.13315672  1
  Cu2+  Cu96  1  0.87645706  0.12436926  0.37487390  1
  Cu2+  Cu97  1  0.62534509  0.87414039  0.37293702  1
  Cu2+  Cu98  1  0.62485854  0.12563181  0.36647504  1
  Cu2+  Cu99  1  0.37385436  0.12426716  0.36820441  1
  Cu2+  Cu100  1  0.12472137  0.37648538  0.37344427  1
  Cu2+  Cu101  1  0.12477861  0.62522785  0.87296489  1
  Cu2+  Cu102  1  0.37455195  0.37349893  0.86790435  1
  Cu2+  Cu103  1  0.87711768  0.62644267  0.37364300  1
  Cu2+  Cu104  1  0.87422641  0.12256302  0.86983127  1
  Cu2+  Cu105  1  0.37465987  0.37734986  0.37030192  1
  Cu2+  Cu106  1  0.12431179  0.87745351  0.87133292  1
  Cu2+  Cu107  1  0.87512154  0.37427692  0.86349053  1
  Cu2+  Cu108  1  0.87553101  0.87450591  0.65094932  1
  Cu2+  Cu109  1  0.37493229  0.87556320  0.15241503  1
  Cu2+  Cu110  1  0.62535659  0.37438505  0.64980995  1
  Cu2+  Cu111  1  0.87529093  0.12560799  0.14575149  1
  Cu2+  Cu112  1  0.12410257  0.87667009  0.14202703  1
  Cu2+  Cu113  1  0.62539451  0.12592457  0.15595590  1
  Cu2+  Cu114  1  0.37419614  0.87508822  0.65064930  1
  Cu2+  Cu115  1  0.62577405  0.87563043  0.15639021  1
  Cu2+  Cu116  1  0.12553056  0.62484831  0.65732802  1
  Cu2+  Cu117  1  0.87507415  0.12537692  0.63956610  1
  Cu2+  Cu118  1  0.12422527  0.37399664  0.64329533  1
  Cu2+  Cu119  1  0.12440783  0.87540202  0.64873372  1
  Cu2+  Cu120  1  0.37497979  0.12542037  0.15752977  1
  Cu2+  Cu121  1  0.12473254  0.62344481  0.13850750  1
  Cu2+  Cu122  1  0.37414800  0.37391245  0.64482650  1
  Cu2+  Cu123  1  0.12488729  0.12690677  0.15337141  1
  Cu2+  Cu124  1  0.62549287  0.87525255  0.63767596  1
  Cu2+  Cu125  1  0.37456740  0.62485893  0.65523243  1
  Cu2+  Cu126  1  0.87521953  0.87516117  0.15289870  1
  Cu2+  Cu127  1  0.87522064  0.62458449  0.64228416  1
  O2-  O128  1  0.12567055  0.12418796  -0.00328451  1
  O2-  O129  1  0.12612071  0.12443818  0.50709603  1
  O2-  O130  1  0.12453202  0.37157314  0.00786957  1
  O2-  O131  1  0.12450054  0.37716203  0.50825376  1
  O2-  O132  1  0.12464551  0.62377074  0.00579878  1
  O2-  O133  1  0.12713916  0.62732759  0.49592109  1
  O2-  O134  1  0.12490949  0.87869187  0.00657061  1
  O2-  O135  1  0.12595169  0.87092883  0.49727955  1
  O2-  O136  1  0.37605675  0.12179263  -0.00455882  1
  O2-  O137  1  0.37440705  0.12584453  0.51422470  1
  O2-  O138  1  0.37593303  0.37192478  0.01668892  1
  O2-  O139  1  0.37449566  0.37724569  0.50695336  1
  O2-  O140  1  0.37736286  0.62616471  0.00567015  1
  O2-  O141  1  0.37339594  0.62598587  0.49551799  1
  O2-  O142  1  0.37737713  0.87954068  -0.00393228  1
  O2-  O143  1  0.37186472  0.87052559  0.49504761  1
  O2-  O144  1  0.62433523  0.12130961  -0.00360448  1
  O2-  O145  1  0.62324093  0.12723727  0.51510642  1
  O2-  O146  1  0.62559279  0.37269269  0.00747967  1
  O2-  O147  1  0.62441108  0.37852515  0.49790405  1
  O2-  O148  1  0.62546910  0.62644782  0.00629408  1
  O2-  O149  1  0.62346360  0.62397893  0.50701457  1
  O2-  O150  1  0.62490607  0.87816061  -0.00491956  1
  O2-  O151  1  0.62476203  0.87308904  0.50561469  1
  O2-  O152  1  0.87425578  0.12306031  0.00851893  1
  O2-  O153  1  0.87551899  0.12540042  0.50735685  1
  O2-  O154  1  0.87409150  0.37299655  0.01835077  1
  O2-  O155  1  0.87571346  0.37680501  0.50820010  1
  O2-  O156  1  0.87263093  0.62568701  0.00661359  1
  O2-  O157  1  0.87589534  0.62517722  0.50752370  1
  O2-  O158  1  0.87319700  0.87772123  -0.00382461  1
  O2-  O159  1  0.87785687  0.87222880  0.49605362  1
  O2-  O160  1  0.12481099  0.00305415  0.16743368  1
  O2-  O161  1  0.12506699  0.00109386  0.65907598  1
  O2-  O162  1  0.12515481  0.25229174  0.16828893  1
  O2-  O163  1  0.12483916  0.24666964  0.66520166  1
  O2-  O164  1  0.12465020  0.49583665  0.16248664  1
  O2-  O165  1  0.12498269  0.50088933  0.66908255  1
  O2-  O166  1  0.12484076  0.74974038  0.15879726  1
  O2-  O167  1  0.12498748  0.75009851  0.66746273  1
  O2-  O168  1  0.37529721  0.00068732  0.16694958  1
  O2-  O169  1  0.37447225  0.00003496  0.65942092  1
  O2-  O170  1  0.37547365  0.25103977  0.16832129  1
  O2-  O171  1  0.37441490  0.24792994  0.66708144  1
  O2-  O172  1  0.37684289  0.50061377  0.16121619  1
  O2-  O173  1  0.37484920  0.50039054  0.66951188  1
  O2-  O174  1  0.37623179  0.74886934  0.15753869  1
  O2-  O175  1  0.37508287  0.75021548  0.66647331  1
  O2-  O176  1  0.62523934  0.00055819  0.16802698  1
  O2-  O177  1  0.62472032  0.00196693  0.66019453  1
  O2-  O178  1  0.62549252  0.25203452  0.16463121  1
  O2-  O179  1  0.62500057  0.24961782  0.66891220  1
  O2-  O180  1  0.62503736  0.50017392  0.15971575  1
  O2-  O181  1  0.62433642  0.50110883  0.66894540  1
  O2-  O182  1  0.62533840  0.74799075  0.16128063  1
  O2-  O183  1  0.62437086  0.74700779  0.66398984  1
  O2-  O184  1  0.87503178  -0.00092151  0.16679126  1
  O2-  O185  1  0.87522711  -0.00212680  0.65953460  1
  O2-  O186  1  0.87451373  0.25218126  0.17133333  1
  O2-  O187  1  0.87480813  0.25273019  0.66543667  1
  O2-  O188  1  0.87406409  0.50111690  0.16529042  1
  O2-  O189  1  0.87454252  0.49745054  0.66790022  1
  O2-  O190  1  0.87374357  0.74846133  0.15957789  1
  O2-  O191  1  0.87486790  0.75127047  0.66594923  1
  O2-  O192  1  0.00096586  0.12682762  0.16673896  1
  O2-  O193  1  0.00251577  0.12484027  0.66272050  1
  O2-  O194  1  0.00053560  0.37478178  0.16665803  1
  O2-  O195  1  -0.00265646  0.37537581  0.66606082  1
  O2-  O196  1  -0.00309498  0.62388899  0.16135390  1
  O2-  O197  1  0.00178809  0.62445425  0.66782691  1
  O2-  O198  1  -0.00144560  0.87552426  0.16350147  1
  O2-  O199  1  -0.00089617  0.87423913  0.66457319  1
  O2-  O200  1  0.25015159  0.12648588  0.16492798  1
  O2-  O201  1  0.24911599  0.12412305  0.66420990  1
  O2-  O202  1  0.24953899  0.37455583  0.16366941  1
  O2-  O203  1  0.24942066  0.37529106  0.66752471  1
  O2-  O204  1  0.25328146  0.62391953  0.15871828  1
  O2-  O205  1  0.25016917  0.62447157  0.66788794  1
  O2-  O206  1  0.25101420  0.87608562  0.16187079  1
  O2-  O207  1  0.24978049  0.87424667  0.66544078  1
  O2-  O208  1  0.50039545  0.12598529  0.16656916  1
  O2-  O209  1  0.49924360  0.12569786  0.66573970  1
  O2-  O210  1  0.50149793  0.37544838  0.16374020  1
  O2-  O211  1  0.50068240  0.37548019  0.66664714  1
  O2-  O212  1  0.50066397  0.62502011  0.16173841  1
  O2-  O213  1  0.50076847  0.62377984  0.66468966  1
  O2-  O214  1  0.50049044  0.87482410  0.16544736  1
  O2-  O215  1  0.49817893  0.87378813  0.66174573  1
  O2-  O216  1  0.74918325  0.12557765  0.16798462  1
  O2-  O217  1  0.74846289  0.12604807  0.66415825  1
  O2-  O218  1  0.74887308  0.37659496  0.16728208  1
  O2-  O219  1  0.75170606  0.37606575  0.66433929  1
  O2-  O220  1  0.74954281  0.62449480  0.16424095  1
  O2-  O221  1  0.74663443  0.62362085  0.66486118  1
  O2-  O222  1  0.75025618  0.87433416  0.16612872  1
  O2-  O223  1  0.75240825  0.87388464  0.66179416  1
  O2-  O224  1  0.12592123  -0.00005078  0.35086795  1
  O2-  O225  1  0.12473925  0.00196384  0.84113131  1
  O2-  O226  1  0.12525215  0.24775376  0.35319071  1
  O2-  O227  1  0.12451913  0.25009450  0.84738218  1
  O2-  O228  1  0.12514038  0.50258998  0.34495467  1
  O2-  O229  1  0.12442562  0.49632806  0.85331963  1
  O2-  O230  1  0.12544453  0.75052522  0.33930115  1
  O2-  O231  1  0.12479156  0.75058652  0.85160066  1
  O2-  O232  1  0.37425610  -0.00142610  0.35055020  1
  O2-  O233  1  0.37548377  -0.00015121  0.83837973  1
  O2-  O234  1  0.37506126  0.24952023  0.35171002  1
  O2-  O235  1  0.37537261  0.24883307  0.84844634  1
  O2-  O236  1  0.37519363  0.50329961  0.34176776  1
  O2-  O237  1  0.37606321  0.50074388  0.85464680  1
  O2-  O238  1  0.37508616  0.74939709  0.33816955  1
  O2-  O239  1  0.37675014  0.74983522  0.84983578  1
  O2-  O240  1  0.62486889  0.00146987  0.35267368  1
  O2-  O241  1  0.62484230  -0.00080642  0.83860178  1
  O2-  O242  1  0.62536494  0.25140375  0.34867229  1
  O2-  O243  1  0.62506209  0.24996844  0.85160724  1
  O2-  O244  1  0.62541333  0.50206209  0.34337693  1
  O2-  O245  1  0.62557814  0.50026514  0.85608216  1
  O2-  O246  1  0.62471720  0.74669661  0.34626553  1
  O2-  O247  1  0.62473616  0.74920908  0.84764329  1
  O2-  O248  1  0.87584228  -0.00183732  0.34936455  1
  O2-  O249  1  0.87413417  -0.00178732  0.84121160  1
  O2-  O250  1  0.87505773  0.25283901  0.35399636  1
  O2-  O251  1  0.87440775  0.25019438  0.84933199  1
  O2-  O252  1  0.87494425  0.49818227  0.34834971  1
  O2-  O253  1  0.87346506  0.50154250  0.85284382  1
  O2-  O254  1  0.87571657  0.75171696  0.34191811  1
  O2-  O255  1  0.87327489  0.74942528  0.84856457  1
  O2-  O256  1  0.00343825  0.12516247  0.35004127  1
  O2-  O257  1  0.00076223  0.12542853  0.84644138  1
  O2-  O258  1  -0.00235282  0.37578370  0.34968859  1
  O2-  O259  1  0.00116700  0.37415506  0.85084502  1
  O2-  O260  1  0.00293559  0.62529273  0.34381787  1
  O2-  O261  1  -0.00384533  0.62449307  0.85144194  1
  O2-  O262  1  0.00174685  0.87497314  0.34352912  1
  O2-  O263  1  -0.00213407  0.87484533  0.84732030  1
  O2-  O264  1  0.24783711  0.12517093  0.34939188  1
  O2-  O265  1  0.25042740  0.12538585  0.84468544  1
  O2-  O266  1  0.24983325  0.37588719  0.34688320  1
  O2-  O267  1  0.24784587  0.37423791  0.85138329  1
  O2-  O268  1  0.24964718  0.62562522  0.33965023  1
  O2-  O269  1  0.25361028  0.62464071  0.85212822  1
  O2-  O270  1  0.24896129  0.87459507  0.34199626  1
  O2-  O271  1  0.25184620  0.87502209  0.84825100  1
  O2-  O272  1  0.49951291  0.12550191  0.35115555  1
  O2-  O273  1  0.50031942  0.12515255  0.84407541  1
  O2-  O274  1  0.50187059  0.37643348  0.34604091  1
  O2-  O275  1  0.50250430  0.37546218  0.85065792  1
  O2-  O276  1  0.50072366  0.62481045  0.34612328  1
  O2-  O277  1  0.50084414  0.62381015  0.84986323  1
  O2-  O278  1  0.49797655  0.87424350  0.34870510  1
  O2-  O279  1  0.50060037  0.87430977  0.84235060  1
  O2-  O280  1  0.74965917  0.12544456  0.35178063  1
  O2-  O281  1  0.74791851  0.12514509  0.84574397  1
  O2-  O282  1  0.75140861  0.37664064  0.34982748  1
  O2-  O283  1  0.74790303  0.37539251  0.84935518  1
  O2-  O284  1  0.74730738  0.62471915  0.35048585  1
  O2-  O285  1  0.74910809  0.62422271  0.84939282  1
  O2-  O286  1  0.75199752  0.87418607  0.34942161  1
  O2-  O287  1  0.74927251  0.87389938  0.84249272  1
