# generated using pymatgen
data_BaYFeCuO5
_symmetry_space_group_name_H-M   'P 1'
_cell_length_a   15.68194725
_cell_length_b   15.68003406
_cell_length_c   15.50938079
_cell_angle_alpha   89.99938686
_cell_angle_beta   90.00842780
_cell_angle_gamma   90.00372192
_symmetry_Int_Tables_number   1
_chemical_formula_structural   BaYFeCuO5
_chemical_formula_sum   'Ba32 Y32 Fe32 Cu32 O160'
_cell_volume   3813.65536484
_cell_formula_units_Z   32
loop_
 _symmetry_equiv_pos_site_id
 _symmetry_equiv_pos_as_xyz
  1  'x, y, z'
loop_
 _atom_type_symbol
 _atom_type_oxidation_number
  Ba2+  2.0
  Y3+  3.0
  Fe3+  3.0
  Cu2+  2.0
  O2-  -2.0
loop_
 _atom_site_type_symbol
 _atom_site_label
 _atom_site_symmetry_multiplicity
 _atom_site_fract_x
 _atom_site_fract_y
 _atom_site_fract_z
 _atom_site_occupancy
  Ba2+  Ba0  1  0.00055635  -0.00062846  0.00673406  1
  Ba2+  Ba1  1  0.00617875  0.00791502  0.51525364  1
  Ba2+  Ba2  1  -0.00182339  0.25126075  0.00196108  1
  Ba2+  Ba3  1  0.00243963  0.25062013  0.52303804  1
  Ba2+  Ba4  1  -0.00731119  0.49651132  0.01016438  1
  Ba2+  Ba5  1  0.00035796  0.49889688  0.52374567  1
  Ba2+  Ba6  1  -0.00600268  0.75313791  0.01778507  1
  Ba2+  Ba7  1  0.00324947  0.74273321  0.51667500  1
  Ba2+  Ba8  1  0.25302940  0.00187958  0.01273570  1
  Ba2+  Ba9  1  0.24298933  0.00806784  0.51515685  1
  Ba2+  Ba10  1  0.25220330  0.24666369  0.01165227  1
  Ba2+  Ba11  1  0.24823446  0.25163360  0.51759514  1
  Ba2+  Ba12  1  0.25321389  0.49569245  0.01239591  1
  Ba2+  Ba13  1  0.24992503  0.49445973  0.51129607  1
  Ba2+  Ba14  1  0.25351579  0.75600758  0.01415998  1
  Ba2+  Ba15  1  0.24328384  0.74485010  0.51239461  1
  Ba2+  Ba16  1  0.49707416  0.00151432  0.01394582  1
  Ba2+  Ba17  1  0.49913604  0.01086943  0.50630687  1
  Ba2+  Ba18  1  0.49438517  0.24342531  0.01668033  1
  Ba2+  Ba19  1  0.49628449  0.25441568  0.51180381  1
  Ba2+  Ba20  1  0.49750672  0.50500353  0.01215507  1
  Ba2+  Ba21  1  0.49301811  0.49107421  0.50584124  1
  Ba2+  Ba22  1  0.50129636  0.75205234  0.00491219  1
  Ba2+  Ba23  1  0.49462382  0.74413896  0.50265915  1
  Ba2+  Ba24  1  0.74842679  -0.00153355  0.00667900  1
  Ba2+  Ba25  1  0.75181886  0.01047765  0.50633974  1
  Ba2+  Ba26  1  0.75605688  0.24834315  0.00673717  1
  Ba2+  Ba27  1  0.75170518  0.25306232  0.52001902  1
  Ba2+  Ba28  1  0.75762845  0.50419889  0.01085280  1
  Ba2+  Ba29  1  0.75740418  0.49506846  0.51782910  1
  Ba2+  Ba30  1  0.75187805  0.74778628  0.01373163  1
  Ba2+  Ba31  1  0.75782746  0.74227111  0.50611556  1
  Y3+  Y32  1  0.00174014  0.00015894  0.25792801  1
  Y3+  Y33  1  0.00234618  0.00343454  0.75660741  1
  Y3+  Y34  1  0.00145368  0.25192307  0.25303962  1
  Y3+  Y35  1  -0.00007406  0.24851965  0.76065061  1
  Y3+  Y36  1  -0.00261086  0.49921190  0.25212467  1
  Y3+  Y37  1  -0.00255741  0.50042334  0.76103970  1
  Y3+  Y38  1  -0.00230706  0.74907339  0.25680534  1
  Y3+  Y39  1  0.00007337  0.74776615  0.75613533  1
  Y3+  Y40  1  0.24938403  0.00152184  0.25658009  1
  Y3+  Y41  1  0.24858333  0.00464561  0.75749413  1
  Y3+  Y42  1  0.25046228  0.25099685  0.25605545  1
  Y3+  Y43  1  0.25038634  0.24761048  0.75798400  1
  Y3+  Y44  1  0.25120894  0.49640518  0.25711086  1
  Y3+  Y45  1  0.24971098  0.49870066  0.75695416  1
  Y3+  Y46  1  0.24918152  0.75084107  0.25782555  1
  Y3+  Y47  1  0.24855772  0.74988917  0.75645951  1
  Y3+  Y48  1  0.49940872  0.00353949  0.25729059  1
  Y3+  Y49  1  0.49881366  0.00185500  0.75823538  1
  Y3+  Y50  1  0.49806388  0.24951791  0.25665244  1
  Y3+  Y51  1  0.49705675  0.25050612  0.75663416  1
  Y3+  Y52  1  0.49785105  0.49811271  0.25882826  1
  Y3+  Y53  1  0.49919755  0.49784258  0.75574899  1
  Y3+  Y54  1  0.49977801  0.74873032  0.25966232  1
  Y3+  Y55  1  0.49989197  0.74978283  0.75636760  1
  Y3+  Y56  1  0.74897583  0.00170248  0.25869360  1
  Y3+  Y57  1  0.75059793  0.00075872  0.75701436  1
  Y3+  Y58  1  0.74943449  0.25029062  0.25411233  1
  Y3+  Y59  1  0.75283724  0.25177229  0.76061916  1
  Y3+  Y60  1  0.75311737  0.50104236  0.25414249  1
  Y3+  Y61  1  0.75416583  0.49938113  0.76005761  1
  Y3+  Y62  1  0.75300743  0.74665558  0.25857528  1
  Y3+  Y63  1  0.75213743  0.74783341  0.75654371  1
  Fe3+  Fe64  1  0.37572607  0.37479499  0.87733213  1
  Fe3+  Fe65  1  0.87481105  0.87463361  0.87406274  1
  Fe3+  Fe66  1  0.12399168  0.62232980  0.37412276  1
  Fe3+  Fe67  1  0.37362284  0.87574831  0.38060996  1
  Fe3+  Fe68  1  0.62426425  0.12493366  0.87770347  1
  Fe3+  Fe69  1  0.62556217  0.62199967  0.38008098  1
  Fe3+  Fe70  1  0.12357984  0.37405811  0.37490401  1
  Fe3+  Fe71  1  0.62483153  0.37521434  0.88024574  1
  Fe3+  Fe72  1  0.62506200  0.62514266  0.87558763  1
  Fe3+  Fe73  1  0.87618160  0.87538402  0.38073191  1
  Fe3+  Fe74  1  0.37300470  0.12674970  0.37681602  1
  Fe3+  Fe75  1  0.62633492  0.37394814  0.37565935  1
  Fe3+  Fe76  1  0.62529076  0.87527964  0.38220237  1
  Fe3+  Fe77  1  0.12430808  0.87565831  0.37750794  1
  Fe3+  Fe78  1  0.87615996  0.37482435  0.37507774  1
  Fe3+  Fe79  1  0.12551335  0.62560587  0.88047789  1
  Fe3+  Fe80  1  0.12504725  0.87529355  0.87578887  1
  Fe3+  Fe81  1  0.87654439  0.12795996  0.37702796  1
  Fe3+  Fe82  1  0.37505197  0.87569288  0.87399444  1
  Fe3+  Fe83  1  0.12572098  0.37465007  0.87766605  1
  Fe3+  Fe84  1  0.37535037  0.62610586  0.13952352  1
  Fe3+  Fe85  1  0.12502892  0.62487191  0.13361066  1
  Fe3+  Fe86  1  0.87485692  0.12370443  0.13717195  1
  Fe3+  Fe87  1  0.12461284  0.12509410  0.13657298  1
  Fe3+  Fe88  1  0.62504560  0.87428834  0.14176695  1
  Fe3+  Fe89  1  0.37405703  0.87616086  0.63340462  1
  Fe3+  Fe90  1  0.37441453  0.62411543  0.63780657  1
  Fe3+  Fe91  1  0.62516509  0.62276891  0.63397343  1
  Fe3+  Fe92  1  0.62507607  0.87468649  0.63296298  1
  Fe3+  Fe93  1  0.87602417  0.87600677  0.63380352  1
  Fe3+  Fe94  1  0.62486763  0.37544493  0.13338778  1
  Fe3+  Fe95  1  0.62494747  0.12673043  0.63898754  1
  Cu2+  Cu96  1  0.37528424  0.12483998  0.87211251  1
  Cu2+  Cu97  1  0.87483808  0.12357806  0.86328610  1
  Cu2+  Cu98  1  0.87502605  0.37498254  0.87312009  1
  Cu2+  Cu99  1  0.37376704  0.37368731  0.37065990  1
  Cu2+  Cu100  1  0.37336132  0.62419800  0.36456407  1
  Cu2+  Cu101  1  0.62522100  0.87478517  0.85921075  1
  Cu2+  Cu102  1  0.12437152  0.12689556  0.37043128  1
  Cu2+  Cu103  1  0.62535116  0.12687082  0.36361935  1
  Cu2+  Cu104  1  0.37453225  0.62517630  0.86264668  1
  Cu2+  Cu105  1  0.12546334  0.12494617  0.86789983  1
  Cu2+  Cu106  1  0.87591406  0.62666859  0.87254513  1
  Cu2+  Cu107  1  0.87711346  0.62247690  0.37321263  1
  Cu2+  Cu108  1  0.12548237  0.62374611  0.65533038  1
  Cu2+  Cu109  1  0.62456726  0.62479206  0.15411571  1
  Cu2+  Cu110  1  0.12521601  0.37502955  0.14362578  1
  Cu2+  Cu111  1  0.12477366  0.87505178  0.15104894  1
  Cu2+  Cu112  1  0.87469841  0.12525172  0.65374799  1
  Cu2+  Cu113  1  0.62510979  0.12500088  0.14982310  1
  Cu2+  Cu114  1  0.87528236  0.62452060  0.64281930  1
  Cu2+  Cu115  1  0.12464274  0.37522464  0.65642963  1
  Cu2+  Cu116  1  0.62535254  0.37526003  0.65324132  1
  Cu2+  Cu117  1  0.12502379  0.87536427  0.64919552  1
  Cu2+  Cu118  1  0.87448792  0.37357730  0.13966245  1
  Cu2+  Cu119  1  0.87604510  0.37443933  0.65703504  1
  Cu2+  Cu120  1  0.37546266  0.37494222  0.14972937  1
  Cu2+  Cu121  1  0.37578372  0.87478418  0.15649929  1
  Cu2+  Cu122  1  0.12508777  0.12677945  0.64457441  1
  Cu2+  Cu123  1  0.37411674  0.37471807  0.64283389  1
  Cu2+  Cu124  1  0.87411756  0.87636933  0.15563807  1
  Cu2+  Cu125  1  0.37523507  0.12520950  0.65082415  1
  Cu2+  Cu126  1  0.87505494  0.62553227  0.14169827  1
  Cu2+  Cu127  1  0.37433031  0.12435059  0.14366531  1
  O2-  O128  1  0.12467295  0.12288554  0.01603134  1
  O2-  O129  1  0.12431296  0.12771809  0.50892906  1
  O2-  O130  1  0.12714341  0.37505354  -0.00215409  1
  O2-  O131  1  0.12258987  0.37585180  0.49488904  1
  O2-  O132  1  0.12586818  0.62743286  0.00651889  1
  O2-  O133  1  0.12450226  0.62146885  0.49444294  1
  O2-  O134  1  0.12537490  0.87424372  -0.00464435  1
  O2-  O135  1  0.12431576  0.87444885  0.49723611  1
  O2-  O136  1  0.37547615  0.12283594  0.00751149  1
  O2-  O137  1  0.37365728  0.12716831  0.49727852  1
  O2-  O138  1  0.37685106  0.37574432  -0.00253033  1
  O2-  O139  1  0.37340980  0.37397021  0.50772548  1
  O2-  O140  1  0.37682349  0.62862907  0.01931098  1
  O2-  O141  1  0.37317822  0.62347245  0.51764469  1
  O2-  O142  1  0.37618479  0.87478175  -0.00570694  1
  O2-  O143  1  0.37345596  0.87576103  0.50671137  1
  O2-  O144  1  0.62389646  0.12235616  -0.00217016  1
  O2-  O145  1  0.62603024  0.12776844  0.51832874  1
  O2-  O146  1  0.62359645  0.37607046  0.00579980  1
  O2-  O147  1  0.62731942  0.37447961  0.49574818  1
  O2-  O148  1  0.62415863  0.62740601  -0.00435083  1
  O2-  O149  1  0.62527092  0.62108161  0.50711871  1
  O2-  O150  1  0.62494798  0.87364067  0.02160498  1
  O2-  O151  1  0.62526694  0.87564745  0.50797939  1
  O2-  O152  1  0.87452978  0.12050142  0.01693150  1
  O2-  O153  1  0.87585680  0.12936037  0.49731567  1
  O2-  O154  1  0.87368056  0.37393931  0.00593213  1
  O2-  O155  1  0.87676227  0.37406205  0.49503743  1
  O2-  O156  1  0.87507463  0.62801055  0.00687072  1
  O2-  O157  1  0.87669857  0.62256424  0.50737363  1
  O2-  O158  1  0.87313730  0.87508086  -0.00569666  1
  O2-  O159  1  0.87677917  0.87553516  0.50672523  1
  O2-  O160  1  0.12492293  -0.00033738  0.16714428  1
  O2-  O161  1  0.12530722  -0.00017997  0.66502683  1
  O2-  O162  1  0.12536913  0.24978147  0.16184973  1
  O2-  O163  1  0.12490841  0.25234415  0.66795933  1
  O2-  O164  1  0.12590669  0.50158087  0.15786185  1
  O2-  O165  1  0.12506219  0.49879389  0.66767034  1
  O2-  O166  1  0.12540190  0.74924371  0.16356651  1
  O2-  O167  1  0.12521669  0.74951862  0.66275159  1
  O2-  O168  1  0.37582227  -0.00166493  0.16778010  1
  O2-  O169  1  0.37574674  -0.00156730  0.66115674  1
  O2-  O170  1  0.37538947  0.25120056  0.16223949  1
  O2-  O171  1  0.37500401  0.24885266  0.66610798  1
  O2-  O172  1  0.37534994  0.50076469  0.16467474  1
  O2-  O173  1  0.37501390  0.50170882  0.66800864  1
  O2-  O174  1  0.37540453  0.74968679  0.17142816  1
  O2-  O175  1  0.37531675  0.75122044  0.66217431  1
  O2-  O176  1  0.62436199  -0.00055645  0.17044541  1
  O2-  O177  1  0.62467650  -0.00144263  0.66347867  1
  O2-  O178  1  0.62436944  0.25142549  0.15866777  1
  O2-  O179  1  0.62572351  0.25057105  0.66915101  1
  O2-  O180  1  0.62435816  0.49942053  0.16065787  1
  O2-  O181  1  0.62485953  0.50070845  0.66414378  1
  O2-  O182  1  0.62498556  0.74960692  0.17349119  1
  O2-  O183  1  0.62491131  0.74968858  0.65863035  1
  O2-  O184  1  0.87416826  0.00077049  0.17087395  1
  O2-  O185  1  0.87437578  -0.00143857  0.66084240  1
  O2-  O186  1  0.87422110  0.24727450  0.16200619  1
  O2-  O187  1  0.87470318  0.25010279  0.66769851  1
  O2-  O188  1  0.87425717  0.49968210  0.16101579  1
  O2-  O189  1  0.87555636  0.49861438  0.66787352  1
  O2-  O190  1  0.87408636  0.75193247  0.16776010  1
  O2-  O191  1  0.87503947  0.75310912  0.66110571  1
  O2-  O192  1  0.00035042  0.12367868  0.16620439  1
  O2-  O193  1  -0.00164366  0.12552215  0.66682184  1
  O2-  O194  1  0.00050472  0.37494795  0.16051433  1
  O2-  O195  1  0.00083275  0.37513588  0.66638585  1
  O2-  O196  1  0.00276397  0.62627002  0.16068210  1
  O2-  O197  1  0.00172698  0.62471931  0.66634730  1
  O2-  O198  1  -0.00123675  0.87493119  0.16326145  1
  O2-  O199  1  -0.00110827  0.87538955  0.66137775  1
  O2-  O200  1  0.24797788  0.12406169  0.16537919  1
  O2-  O201  1  0.25171982  0.12535338  0.66545157  1
  O2-  O202  1  0.25079372  0.37523115  0.16334330  1
  O2-  O203  1  0.24754494  0.37552999  0.66499222  1
  O2-  O204  1  0.24895235  0.62618766  0.16328678  1
  O2-  O205  1  0.25031859  0.62541031  0.66731745  1
  O2-  O206  1  0.25099625  0.87453644  0.16377165  1
  O2-  O207  1  0.25154983  0.87447653  0.66080980  1
  O2-  O208  1  0.50066534  0.12450117  0.16630589  1
  O2-  O209  1  0.50048404  0.12507019  0.66477205  1
  O2-  O210  1  0.50188291  0.37564116  0.16512064  1
  O2-  O211  1  0.50083973  0.37495033  0.66464979  1
  O2-  O212  1  0.49911452  0.62515466  0.17111262  1
  O2-  O213  1  0.50129173  0.62538179  0.66341348  1
  O2-  O214  1  0.50088481  0.87430041  0.17292206  1
  O2-  O215  1  0.50014746  0.87431599  0.66035834  1
  O2-  O216  1  0.75017996  0.12381119  0.16648056  1
  O2-  O217  1  0.74944097  0.12494190  0.66633401  1
  O2-  O218  1  0.74665907  0.37515069  0.16235627  1
  O2-  O219  1  0.75113855  0.37531418  0.66641010  1
  O2-  O220  1  0.74900239  0.62599216  0.16662088  1
  O2-  O221  1  0.74698202  0.62454978  0.66266697  1
  O2-  O222  1  0.74904856  0.87476463  0.17235642  1
  O2-  O223  1  0.74963143  0.87501046  0.66028362  1
  O2-  O224  1  0.12477278  -0.00116174  0.34888587  1
  O2-  O225  1  0.12514317  -0.00005696  0.84756199  1
  O2-  O226  1  0.12449924  0.25169994  0.34256766  1
  O2-  O227  1  0.12519088  0.24984376  0.85095614  1
  O2-  O228  1  0.12503462  0.49876625  0.33958349  1
  O2-  O229  1  0.12598188  0.50123294  0.85105958  1
  O2-  O230  1  0.12505291  0.75030924  0.34632427  1
  O2-  O231  1  0.12559150  0.74944521  0.84564160  1
  O2-  O232  1  0.37561076  -0.00102619  0.35065142  1
  O2-  O233  1  0.37549822  -0.00163260  0.84384189  1
  O2-  O234  1  0.37503764  0.24843073  0.34410936  1
  O2-  O235  1  0.37568353  0.25193734  0.84834647  1
  O2-  O236  1  0.37478693  0.50038489  0.34786579  1
  O2-  O237  1  0.37572005  0.49951275  0.84932125  1
  O2-  O238  1  0.37489523  0.75197182  0.35444921  1
  O2-  O239  1  0.37544367  0.75094570  0.84400120  1
  O2-  O240  1  0.62493675  -0.00144012  0.35445136  1
  O2-  O241  1  0.62527169  -0.00010461  0.84584817  1
  O2-  O242  1  0.62512389  0.25119668  0.34167204  1
  O2-  O243  1  0.62520668  0.25160402  0.85144713  1
  O2-  O244  1  0.62452553  0.50027984  0.34447005  1
  O2-  O245  1  0.62439496  0.49888758  0.84790872  1
  O2-  O246  1  0.62426649  0.74942945  0.35718420  1
  O2-  O247  1  0.62443883  0.74964231  0.84217096  1
  O2-  O248  1  0.87386614  -0.00087833  0.35274988  1
  O2-  O249  1  0.87433005  -0.00125609  0.84380991  1
  O2-  O250  1  0.87463171  0.25083847  0.34075225  1
  O2-  O251  1  0.87467066  0.24776088  0.85223809  1
  O2-  O252  1  0.87500499  0.49762237  0.34243210  1
  O2-  O253  1  0.87502013  0.50096115  0.85124413  1
  O2-  O254  1  0.87491682  0.75252783  0.35222825  1
  O2-  O255  1  0.87524419  0.75194405  0.84247613  1
  O2-  O256  1  -0.00177679  0.12448249  0.34513192  1
  O2-  O257  1  -0.00040045  0.12400754  0.85087120  1
  O2-  O258  1  -0.00037015  0.37504138  0.34051460  1
  O2-  O259  1  0.00196702  0.37497798  0.84942149  1
  O2-  O260  1  0.00207620  0.62504571  0.34163401  1
  O2-  O261  1  0.00374874  0.62589589  0.84977762  1
  O2-  O262  1  -0.00115616  0.87503699  0.34630918  1
  O2-  O263  1  0.00067536  0.87546609  0.84368423  1
  O2-  O264  1  0.25072808  0.12444563  0.34609370  1
  O2-  O265  1  0.24953478  0.12478766  0.84882829  1
  O2-  O266  1  0.24822089  0.37508057  0.34616504  1
  O2-  O267  1  0.25060335  0.37540426  0.84631552  1
  O2-  O268  1  0.24879082  0.62521381  0.34471114  1
  O2-  O269  1  0.24864990  0.62586510  0.85051229  1
  O2-  O270  1  0.25083771  0.87496782  0.34741516  1
  O2-  O271  1  0.24958702  0.87484052  0.84300377  1
  O2-  O272  1  0.49953277  0.12507327  0.34966182  1
  O2-  O273  1  0.50204859  0.12469506  0.84541634  1
  O2-  O274  1  0.50114803  0.37507653  0.34896007  1
  O2-  O275  1  0.50122887  0.37562901  0.84653993  1
  O2-  O276  1  0.50113715  0.62473202  0.35477829  1
  O2-  O277  1  0.50028514  0.62576372  0.84525616  1
  O2-  O278  1  0.49993358  0.87422793  0.35639057  1
  O2-  O279  1  0.49986182  0.87426884  0.84371342  1
  O2-  O280  1  0.75091050  0.12507895  0.34816578  1
  O2-  O281  1  0.74876890  0.12417575  0.84808504  1
  O2-  O282  1  0.75062612  0.37520258  0.34306568  1
  O2-  O283  1  0.74721621  0.37537711  0.85045210  1
  O2-  O284  1  0.74728147  0.62472129  0.35098831  1
  O2-  O285  1  0.74843210  0.62580883  0.84514426  1
  O2-  O286  1  0.74971446  0.87451701  0.35550755  1
  O2-  O287  1  0.75015359  0.87461022  0.84339515  1
