# generated using pymatgen
data_BaYFeCuO5
_symmetry_space_group_name_H-M   'P 1'
_cell_length_a   15.68478492
_cell_length_b   15.68371370
_cell_length_c   15.53704488
_cell_angle_alpha   89.99563367
_cell_angle_beta   90.00614025
_cell_angle_gamma   89.99574301
_symmetry_Int_Tables_number   1
_chemical_formula_structural   BaYFeCuO5
_chemical_formula_sum   'Ba32 Y32 Fe32 Cu32 O160'
_cell_volume   3822.04581668
_cell_formula_units_Z   32
loop_
 _symmetry_equiv_pos_site_id
 _symmetry_equiv_pos_as_xyz
  1  'x, y, z'
loop_
 _atom_type_symbol
 _atom_type_oxidation_number
  Ba2+  2.0
  Y3+  3.0
  Fe3+  3.0
  Cu2+  2.0
  O2-  -2.0
loop_
 _atom_site_type_symbol
 _atom_site_label
 _atom_site_symmetry_multiplicity
 _atom_site_fract_x
 _atom_site_fract_y
 _atom_site_fract_z
 _atom_site_occupancy
  Ba2+  Ba0  1  0.00081713  0.00085434  0.01767554  1
  Ba2+  Ba1  1  0.00840137  0.00193463  0.51619304  1
  Ba2+  Ba2  1  0.00174665  0.25115162  -0.00008923  1
  Ba2+  Ba3  1  0.00649937  0.24419717  0.51336362  1
  Ba2+  Ba4  1  0.00604588  0.49339956  0.00704042  1
  Ba2+  Ba5  1  0.01170793  0.49906252  0.49554689  1
  Ba2+  Ba6  1  0.00392602  0.75489577  0.02426371  1
  Ba2+  Ba7  1  0.01301072  0.75297193  0.50249554  1
  Ba2+  Ba8  1  0.25410419  0.00047542  0.01409734  1
  Ba2+  Ba9  1  0.25062307  -0.00128566  0.52372343  1
  Ba2+  Ba10  1  0.24962964  0.24916844  0.01656625  1
  Ba2+  Ba11  1  0.25105723  0.24972068  0.50487106  1
  Ba2+  Ba12  1  0.24829023  0.49727188  0.01239342  1
  Ba2+  Ba13  1  0.25203343  0.50003995  0.48568972  1
  Ba2+  Ba14  1  0.25286770  0.75295386  0.01102931  1
  Ba2+  Ba15  1  0.25085558  0.75220155  0.49892133  1
  Ba2+  Ba16  1  0.49564773  0.00058137  0.01294912  1
  Ba2+  Ba17  1  0.49822672  -0.00033768  0.52772704  1
  Ba2+  Ba18  1  0.50044524  0.24932509  0.01680433  1
  Ba2+  Ba19  1  0.49326297  0.24436491  0.51378827  1
  Ba2+  Ba20  1  0.50193446  0.49767360  0.01224420  1
  Ba2+  Ba21  1  0.49168221  0.50413171  0.49942125  1
  Ba2+  Ba22  1  0.49742210  0.75305139  0.01066592  1
  Ba2+  Ba23  1  0.49648275  0.75191475  0.51986924  1
  Ba2+  Ba24  1  0.74929682  0.00096653  0.01671654  1
  Ba2+  Ba25  1  0.74411305  0.00400640  0.52078509  1
  Ba2+  Ba26  1  0.74874126  0.25142654  -0.00119050  1
  Ba2+  Ba27  1  0.74903248  0.24027384  0.51700339  1
  Ba2+  Ba28  1  0.74401502  0.49333052  0.00660028  1
  Ba2+  Ba29  1  0.74359222  0.50425800  0.51202331  1
  Ba2+  Ba30  1  0.74556272  0.75440142  0.02272059  1
  Ba2+  Ba31  1  0.73876981  0.75232971  0.51633232  1
  Y3+  Y32  1  0.00258011  -0.00153743  0.25715118  1
  Y3+  Y33  1  0.00109424  0.00166638  0.75443418  1
  Y3+  Y34  1  0.00340266  0.25014956  0.25662917  1
  Y3+  Y35  1  -0.00019047  0.24955324  0.75906180  1
  Y3+  Y36  1  0.00402954  0.49975341  0.25571796  1
  Y3+  Y37  1  0.00059104  0.49773471  0.76145213  1
  Y3+  Y38  1  0.00386878  0.75184922  0.26013004  1
  Y3+  Y39  1  0.00170316  0.75102287  0.75419274  1
  Y3+  Y40  1  0.25030784  -0.00073376  0.25175296  1
  Y3+  Y41  1  0.25230481  -0.00048961  0.76037137  1
  Y3+  Y42  1  0.25069176  0.25075058  0.25364575  1
  Y3+  Y43  1  0.24992314  0.24807234  0.76116569  1
  Y3+  Y44  1  0.24925408  0.49817360  0.25407046  1
  Y3+  Y45  1  0.25030825  0.49983744  0.76547429  1
  Y3+  Y46  1  0.24909469  0.75143433  0.25634725  1
  Y3+  Y47  1  0.25197034  0.75258353  0.75932837  1
  Y3+  Y48  1  0.49850003  0.00058779  0.24820893  1
  Y3+  Y49  1  0.49646101  0.00009543  0.76098455  1
  Y3+  Y50  1  0.49854911  0.25031193  0.25318135  1
  Y3+  Y51  1  0.49891949  0.24868325  0.76079662  1
  Y3+  Y52  1  0.49949870  0.49809215  0.25427836  1
  Y3+  Y53  1  0.49977819  0.50071005  0.76118628  1
  Y3+  Y54  1  0.49898709  0.75122008  0.25342572  1
  Y3+  Y55  1  0.49716570  0.75071373  0.75994963  1
  Y3+  Y56  1  0.74898437  -0.00047248  0.25447346  1
  Y3+  Y57  1  0.75025733  0.00223426  0.75606426  1
  Y3+  Y58  1  0.74746351  0.24995506  0.25601506  1
  Y3+  Y59  1  0.75075363  0.24977324  0.75845410  1
  Y3+  Y60  1  0.74763584  0.49952023  0.25645287  1
  Y3+  Y61  1  0.74900629  0.49845640  0.75910471  1
  Y3+  Y62  1  0.74899856  0.75122745  0.25664821  1
  Y3+  Y63  1  0.74855284  0.74945870  0.75476081  1
  Fe3+  Fe64  1  0.37534342  0.37425888  0.88039211  1
  Fe3+  Fe65  1  0.87510240  0.87469554  0.87582750  1
  Fe3+  Fe66  1  0.87497517  0.12431403  0.37803356  1
  Fe3+  Fe67  1  0.37554940  0.12293669  0.37386267  1
  Fe3+  Fe68  1  0.87443600  0.87620963  0.38007140  1
  Fe3+  Fe69  1  0.62467170  0.12430792  0.87633731  1
  Fe3+  Fe70  1  0.12389740  0.87535284  0.87644332  1
  Fe3+  Fe71  1  0.12722788  0.12371749  0.37453538  1
  Fe3+  Fe72  1  0.12507173  0.12372880  0.87708327  1
  Fe3+  Fe73  1  0.62257762  0.87697232  0.37515514  1
  Fe3+  Fe74  1  0.37622163  0.87707258  0.37457517  1
  Fe3+  Fe75  1  0.62301790  0.62642839  0.37536121  1
  Fe3+  Fe76  1  0.87523196  0.62649479  0.88118462  1
  Fe3+  Fe77  1  0.87463051  0.62556755  0.37996355  1
  Fe3+  Fe78  1  0.62286205  0.12359970  0.37497354  1
  Fe3+  Fe79  1  0.87473645  0.37403778  0.38207857  1
  Fe3+  Fe80  1  0.62590967  0.87536887  0.87516961  1
  Fe3+  Fe81  1  0.62512719  0.62601917  0.87724690  1
  Fe3+  Fe82  1  0.12461448  0.62677506  0.88059347  1
  Fe3+  Fe83  1  0.62383644  0.37343466  0.38090037  1
  Fe3+  Fe84  1  0.12730604  0.37603195  0.63982175  1
  Fe3+  Fe85  1  0.87548631  0.62415933  0.13598433  1
  Fe3+  Fe86  1  0.87541946  0.87482773  0.63238491  1
  Fe3+  Fe87  1  0.62268238  0.37503743  0.63506821  1
  Fe3+  Fe88  1  0.37323820  0.37607469  0.63929022  1
  Fe3+  Fe89  1  0.37269892  0.62355267  0.64060655  1
  Fe3+  Fe90  1  0.37464800  0.62466297  0.13771722  1
  Fe3+  Fe91  1  0.87510356  0.37424332  0.13904243  1
  Fe3+  Fe92  1  0.87604151  0.37556680  0.63479239  1
  Fe3+  Fe93  1  0.87648340  0.62421486  0.63300247  1
  Fe3+  Fe94  1  0.12744485  0.62361302  0.63871309  1
  Fe3+  Fe95  1  0.87551731  0.12650066  0.13775523  1
  Cu2+  Cu96  1  0.12737627  0.87774042  0.37177467  1
  Cu2+  Cu97  1  0.87480500  0.37540069  0.86288788  1
  Cu2+  Cu98  1  0.37466110  0.12511229  0.87416760  1
  Cu2+  Cu99  1  0.12608730  0.62520327  0.35921493  1
  Cu2+  Cu100  1  0.37575382  0.62599910  0.35751585  1
  Cu2+  Cu101  1  0.37593604  0.37367633  0.35969775  1
  Cu2+  Cu102  1  0.87525519  0.12360391  0.86256153  1
  Cu2+  Cu103  1  0.62383315  0.37439954  0.87145005  1
  Cu2+  Cu104  1  0.37489626  0.62516970  0.87070181  1
  Cu2+  Cu105  1  0.12551490  0.37312363  0.36021899  1
  Cu2+  Cu106  1  0.37489735  0.87506289  0.87374168  1
  Cu2+  Cu107  1  0.12587619  0.37391045  0.87476115  1
  Cu2+  Cu108  1  0.62594313  0.37428518  0.14238041  1
  Cu2+  Cu109  1  0.62444352  0.87533880  0.65384427  1
  Cu2+  Cu110  1  0.62510790  0.62474313  0.14973414  1
  Cu2+  Cu111  1  0.12635265  0.87399006  0.64180780  1
  Cu2+  Cu112  1  0.12502598  0.62520056  0.14970885  1
  Cu2+  Cu113  1  0.87539835  0.87488028  0.15428905  1
  Cu2+  Cu114  1  0.37457527  0.87452168  0.65544111  1
  Cu2+  Cu115  1  0.37462358  0.87417234  0.14016045  1
  Cu2+  Cu116  1  0.12420735  0.37407742  0.14252837  1
  Cu2+  Cu117  1  0.62592516  0.12563531  0.14766573  1
  Cu2+  Cu118  1  0.87605289  0.12549984  0.65060304  1
  Cu2+  Cu119  1  0.37395594  0.12595815  0.65534533  1
  Cu2+  Cu120  1  0.62461234  0.87548402  0.14929288  1
  Cu2+  Cu121  1  0.37490051  0.37534309  0.14951303  1
  Cu2+  Cu122  1  0.12549987  0.87539002  0.15127815  1
  Cu2+  Cu123  1  0.12414254  0.12509287  0.14887126  1
  Cu2+  Cu124  1  0.62350402  0.62366445  0.65219470  1
  Cu2+  Cu125  1  0.37453627  0.12560518  0.13965871  1
  Cu2+  Cu126  1  0.62362197  0.12633074  0.65495309  1
  Cu2+  Cu127  1  0.12638035  0.12597321  0.65452706  1
  O2-  O128  1  0.12253695  0.12342914  -0.00303790  1
  O2-  O129  1  0.12814167  0.12453115  0.49480362  1
  O2-  O130  1  0.12391370  0.37398361  0.00832196  1
  O2-  O131  1  0.12812183  0.37614977  0.52002426  1
  O2-  O132  1  0.12098717  0.62799669  0.00011943  1
  O2-  O133  1  0.12879488  0.62214222  0.51906745  1
  O2-  O134  1  0.12114256  0.87513145  -0.00376506  1
  O2-  O135  1  0.12747304  0.87593875  0.50673279  1
  O2-  O136  1  0.37510775  0.12600636  0.00708889  1
  O2-  O137  1  0.37534640  0.12182737  0.49392123  1
  O2-  O138  1  0.37637158  0.37459143  0.00066389  1
  O2-  O139  1  0.37316898  0.37689188  0.51951732  1
  O2-  O140  1  0.37513197  0.62505115  0.01735160  1
  O2-  O141  1  0.37219796  0.62394308  0.52097821  1
  O2-  O142  1  0.37526488  0.87375453  0.00666427  1
  O2-  O143  1  0.37704547  0.87736894  0.49457149  1
  O2-  O144  1  0.62753298  0.12470606  -0.00372423  1
  O2-  O145  1  0.62178785  0.12367153  0.49474244  1
  O2-  O146  1  0.62613651  0.37437660  0.00707025  1
  O2-  O147  1  0.62263043  0.37445857  0.50726044  1
  O2-  O148  1  0.62854161  0.62633689  -0.00319994  1
  O2-  O149  1  0.62240326  0.62637618  0.49556790  1
  O2-  O150  1  0.62871280  0.87494090  -0.00521433  1
  O2-  O151  1  0.62163155  0.87662287  0.49468948  1
  O2-  O152  1  0.87524842  0.12677922  0.01798323  1
  O2-  O153  1  0.87454175  0.12384369  0.49783138  1
  O2-  O154  1  0.87453923  0.37476772  0.01929517  1
  O2-  O155  1  0.87568383  0.37537459  0.50847175  1
  O2-  O156  1  0.87487035  0.62597266  0.00725050  1
  O2-  O157  1  0.87541324  0.62496719  0.50661771  1
  O2-  O158  1  0.87466685  0.87393760  -0.00482619  1
  O2-  O159  1  0.87409866  0.87522566  0.50561568  1
  O2-  O160  1  0.12328685  -0.00025384  0.16093067  1
  O2-  O161  1  0.12416744  0.00155566  0.66220744  1
  O2-  O162  1  0.12429881  0.24861742  0.16590433  1
  O2-  O163  1  0.12501288  0.25118371  0.66625427  1
  O2-  O164  1  0.12379633  0.50056529  0.16568211  1
  O2-  O165  1  0.12366402  0.49983591  0.67470667  1
  O2-  O166  1  0.12374165  0.75082470  0.16692052  1
  O2-  O167  1  0.12438075  0.74728936  0.66532340  1
  O2-  O168  1  0.37503904  -0.00027617  0.15888655  1
  O2-  O169  1  0.37532697  0.00032079  0.66540526  1
  O2-  O170  1  0.37489069  0.25158443  0.16522394  1
  O2-  O171  1  0.37434010  0.25088572  0.66512529  1
  O2-  O172  1  0.37510683  0.50044991  0.16721803  1
  O2-  O173  1  0.37533982  0.49958582  0.67382420  1
  O2-  O174  1  0.37492874  0.74814616  0.16640435  1
  O2-  O175  1  0.37499655  0.74921658  0.66665745  1
  O2-  O176  1  0.62651021  0.00020065  0.15930350  1
  O2-  O177  1  0.62504811  0.00111126  0.66295252  1
  O2-  O178  1  0.62580139  0.24876819  0.16820067  1
  O2-  O179  1  0.62544405  0.25257235  0.66246744  1
  O2-  O180  1  0.62625440  0.50085536  0.16830614  1
  O2-  O181  1  0.62568310  0.49721394  0.66498427  1
  O2-  O182  1  0.62670977  0.75040722  0.16348862  1
  O2-  O183  1  0.62611452  0.74936883  0.66147770  1
  O2-  O184  1  0.87533024  0.00022576  0.16420537  1
  O2-  O185  1  0.87525258  -0.00137939  0.66015922  1
  O2-  O186  1  0.87491118  0.24995164  0.17212408  1
  O2-  O187  1  0.87483294  0.25246350  0.66299373  1
  O2-  O188  1  0.87501753  0.50140162  0.16890873  1
  O2-  O189  1  0.87463600  0.50000687  0.66535866  1
  O2-  O190  1  0.87491046  0.74834659  0.16527657  1
  O2-  O191  1  0.87361550  0.74902982  0.66046275  1
  O2-  O192  1  -0.00067713  0.12476471  0.16818150  1
  O2-  O193  1  0.00122279  0.12640366  0.66300498  1
  O2-  O194  1  -0.00231206  0.37559295  0.17053043  1
  O2-  O195  1  -0.00077443  0.37534224  0.66539566  1
  O2-  O196  1  -0.00177904  0.62554728  0.16658027  1
  O2-  O197  1  -0.00128536  0.62474131  0.66462153  1
  O2-  O198  1  0.00037117  0.87410624  0.16802103  1
  O2-  O199  1  -0.00316222  0.87334015  0.65989889  1
  O2-  O200  1  0.24785289  0.12520572  0.16182815  1
  O2-  O201  1  0.25015065  0.12486033  0.66750447  1
  O2-  O202  1  0.25052313  0.37540175  0.16361546  1
  O2-  O203  1  0.24992263  0.37546633  0.67405688  1
  O2-  O204  1  0.24981230  0.62452244  0.16457496  1
  O2-  O205  1  0.24987216  0.62433449  0.67596156  1
  O2-  O206  1  0.24847502  0.87447384  0.16288126  1
  O2-  O207  1  0.25133426  0.87528707  0.66861473  1
  O2-  O208  1  0.50187065  0.12598461  0.16041724  1
  O2-  O209  1  0.49904326  0.12637009  0.66579093  1
  O2-  O210  1  0.49948398  0.37527921  0.16483590  1
  O2-  O211  1  0.50003805  0.37464269  0.66512367  1
  O2-  O212  1  0.50018413  0.62416034  0.16318046  1
  O2-  O213  1  0.49877591  0.62469508  0.66786977  1
  O2-  O214  1  0.50156509  0.87428067  0.16025785  1
  O2-  O215  1  0.50005241  0.87428559  0.66606535  1
  O2-  O216  1  0.75110705  0.12490123  0.16720260  1
  O2-  O217  1  0.74947086  0.12575982  0.66196986  1
  O2-  O218  1  0.75253760  0.37574181  0.17181286  1
  O2-  O219  1  0.75026871  0.37587092  0.65899479  1
  O2-  O220  1  0.75196995  0.62500892  0.16535957  1
  O2-  O221  1  0.75171413  0.62345359  0.65985113  1
  O2-  O222  1  0.74982278  0.87449629  0.16617347  1
  O2-  O223  1  0.75144049  0.87474006  0.65880880  1
  O2-  O224  1  0.12532916  0.00231107  0.34231014  1
  O2-  O225  1  0.12358526  -0.00070160  0.84344442  1
  O2-  O226  1  0.12496820  0.24902283  0.34783701  1
  O2-  O227  1  0.12345464  0.24784944  0.84742224  1
  O2-  O228  1  0.12466769  0.49894577  0.34984277  1
  O2-  O229  1  0.12348064  0.50241341  0.85316128  1
  O2-  O230  1  0.12501756  0.74955664  0.35103852  1
  O2-  O231  1  0.12337688  0.75018118  0.84411462  1
  O2-  O232  1  0.37568301  0.00034956  0.33814482  1
  O2-  O233  1  0.37473634  -0.00008424  0.84952546  1
  O2-  O234  1  0.37585486  0.24892708  0.34838553  1
  O2-  O235  1  0.37517472  0.25142188  0.84691442  1
  O2-  O236  1  0.37586349  0.49989426  0.35052028  1
  O2-  O237  1  0.37530505  0.49967119  0.85265640  1
  O2-  O238  1  0.37591471  0.75086865  0.34765605  1
  O2-  O239  1  0.37526460  0.74879744  0.84935424  1
  O2-  O240  1  0.62551265  0.00002996  0.34028888  1
  O2-  O241  1  0.62652156  -0.00033170  0.84416246  1
  O2-  O242  1  0.62522163  0.25083692  0.34982713  1
  O2-  O243  1  0.62617314  0.24793198  0.84508226  1
  O2-  O244  1  0.62588922  0.49864580  0.35141558  1
  O2-  O245  1  0.62656193  0.50233893  0.84727431  1
  O2-  O246  1  0.62553370  0.75090817  0.34464974  1
  O2-  O247  1  0.62591637  0.74989600  0.84298379  1
  O2-  O248  1  0.87427304  -0.00096744  0.34630618  1
  O2-  O249  1  0.87474921  -0.00190237  0.84344242  1
  O2-  O250  1  0.87433863  0.25117206  0.35195391  1
  O2-  O251  1  0.87458871  0.25009916  0.84863228  1
  O2-  O252  1  0.87414156  0.50015689  0.35400331  1
  O2-  O253  1  0.87427819  0.50289293  0.85107667  1
  O2-  O254  1  0.87476378  0.74996714  0.35102885  1
  O2-  O255  1  0.87496802  0.74837761  0.84333688  1
  O2-  O256  1  -0.00023064  0.12515107  0.34823765  1
  O2-  O257  1  -0.00019761  0.12452771  0.84596727  1
  O2-  O258  1  -0.00214983  0.37559478  0.35286641  1
  O2-  O259  1  -0.00133942  0.37539259  0.84848146  1
  O2-  O260  1  -0.00182833  0.62464143  0.35169608  1
  O2-  O261  1  -0.00193475  0.62496891  0.84651172  1
  O2-  O262  1  -0.00273068  0.87489195  0.35210416  1
  O2-  O263  1  -0.00052293  0.87445374  0.84033492  1
  O2-  O264  1  0.25107637  0.12594734  0.34229744  1
  O2-  O265  1  0.24817475  0.12444627  0.84933932  1
  O2-  O266  1  0.25066214  0.37458461  0.34800035  1
  O2-  O267  1  0.25192764  0.37525737  0.85207940  1
  O2-  O268  1  0.25081662  0.62501372  0.34785989  1
  O2-  O269  1  0.24907940  0.62557786  0.85514072  1
  O2-  O270  1  0.25296260  0.87483505  0.34463949  1
  O2-  O271  1  0.24751746  0.87432153  0.85024086  1
  O2-  O272  1  0.50020113  0.12532560  0.34049548  1
  O2-  O273  1  0.50137795  0.12447483  0.84811566  1
  O2-  O274  1  0.50240568  0.37545337  0.34901171  1
  O2-  O275  1  0.49805477  0.37562373  0.84638230  1
  O2-  O276  1  0.50092414  0.62399030  0.34460543  1
  O2-  O277  1  0.50056080  0.62509769  0.85006772  1
  O2-  O278  1  0.50021671  0.87534637  0.33968836  1
  O2-  O279  1  0.50226867  0.87476617  0.84868369  1
  O2-  O280  1  0.74955633  0.12526362  0.34724498  1
  O2-  O281  1  0.75031792  0.12516710  0.84557114  1
  O2-  O282  1  0.74944208  0.37542183  0.35409058  1
  O2-  O283  1  0.75114046  0.37524714  0.84470975  1
  O2-  O284  1  0.75054796  0.62514559  0.34874178  1
  O2-  O285  1  0.75205344  0.62524979  0.84413195  1
  O2-  O286  1  0.75038218  0.87459389  0.34869994  1
  O2-  O287  1  0.75058906  0.87405184  0.83977350  1
