# generated using pymatgen
data_BaYFeCuO5
_symmetry_space_group_name_H-M   'P 1'
_cell_length_a   15.67476762
_cell_length_b   15.67257876
_cell_length_c   15.48767541
_cell_angle_alpha   90.00578590
_cell_angle_beta   89.99066990
_cell_angle_gamma   90.01094305
_symmetry_Int_Tables_number   1
_chemical_formula_structural   BaYFeCuO5
_chemical_formula_sum   'Ba32 Y32 Fe32 Cu32 O160'
_cell_volume   3804.76461763
_cell_formula_units_Z   32
loop_
 _symmetry_equiv_pos_site_id
 _symmetry_equiv_pos_as_xyz
  1  'x, y, z'
loop_
 _atom_type_symbol
 _atom_type_oxidation_number
  Ba2+  2.0
  Y3+  3.0
  Fe3+  3.0
  Cu2+  2.0
  O2-  -2.0
loop_
 _atom_site_type_symbol
 _atom_site_label
 _atom_site_symmetry_multiplicity
 _atom_site_fract_x
 _atom_site_fract_y
 _atom_site_fract_z
 _atom_site_occupancy
  Ba2+  Ba0  1  0.00591846  0.00540099  0.00707974  1
  Ba2+  Ba1  1  -0.00432744  0.00620039  0.51332216  1
  Ba2+  Ba2  1  0.00917421  0.24901652  0.00233131  1
  Ba2+  Ba3  1  -0.00114881  0.25274311  0.52347658  1
  Ba2+  Ba4  1  0.00567349  0.50538235  0.00637465  1
  Ba2+  Ba5  1  -0.00083391  0.49670240  0.52312546  1
  Ba2+  Ba6  1  0.00120824  0.73981969  0.01219501  1
  Ba2+  Ba7  1  -0.00356840  0.74371041  0.51383393  1
  Ba2+  Ba8  1  0.25747199  0.00296831  0.01280609  1
  Ba2+  Ba9  1  0.25151705  0.01205698  0.51147666  1
  Ba2+  Ba10  1  0.24676494  0.24343906  0.00635722  1
  Ba2+  Ba11  1  0.25119222  0.25071417  0.52313946  1
  Ba2+  Ba12  1  0.24688014  0.50615095  -0.00203785  1
  Ba2+  Ba13  1  0.24786731  0.49724850  0.52766900  1
  Ba2+  Ba14  1  0.25666131  0.74729396  0.00139866  1
  Ba2+  Ba15  1  0.24920154  0.73946007  0.51876325  1
  Ba2+  Ba16  1  0.49672580  -0.00233925  0.01491161  1
  Ba2+  Ba17  1  0.50500072  0.00730696  0.50674186  1
  Ba2+  Ba18  1  0.50346314  0.24475996  0.02393208  1
  Ba2+  Ba19  1  0.50234596  0.24758337  0.50964252  1
  Ba2+  Ba20  1  0.50442655  0.50431855  0.01323413  1
  Ba2+  Ba21  1  0.49694271  0.49208041  0.51617451  1
  Ba2+  Ba22  1  0.49785932  0.75403752  -0.00225930  1
  Ba2+  Ba23  1  0.50261059  0.75290360  0.51041214  1
  Ba2+  Ba24  1  0.73882977  -0.00106432  0.00667161  1
  Ba2+  Ba25  1  0.74484056  0.00221464  0.50665986  1
  Ba2+  Ba26  1  0.74032530  0.25014731  0.01872603  1
  Ba2+  Ba27  1  0.74824678  0.25173902  0.51031843  1
  Ba2+  Ba28  1  0.74444192  0.50437963  0.02374063  1
  Ba2+  Ba29  1  0.75548457  0.49084168  0.50948097  1
  Ba2+  Ba30  1  0.74366287  0.74530162  0.01507424  1
  Ba2+  Ba31  1  0.75236356  0.75658867  0.50568812  1
  Y3+  Y32  1  0.00096477  -0.00007110  0.25583698  1
  Y3+  Y33  1  0.00082343  0.00274128  0.75994314  1
  Y3+  Y34  1  0.00032397  0.25066953  0.25420533  1
  Y3+  Y35  1  0.00152269  0.25042867  0.75976489  1
  Y3+  Y36  1  -0.00062527  0.50051596  0.25427437  1
  Y3+  Y37  1  0.00125424  0.49928453  0.75946121  1
  Y3+  Y38  1  0.00013701  0.74855668  0.25559659  1
  Y3+  Y39  1  0.00052095  0.74764706  0.75934155  1
  Y3+  Y40  1  0.25245933  0.00174352  0.25581084  1
  Y3+  Y41  1  0.25161223  0.00207062  0.75937785  1
  Y3+  Y42  1  0.25069299  0.24692410  0.25474957  1
  Y3+  Y43  1  0.24878834  0.24946622  0.75909382  1
  Y3+  Y44  1  0.24866345  0.50071647  0.25272877  1
  Y3+  Y45  1  0.24882166  0.50085354  0.76093476  1
  Y3+  Y46  1  0.25013628  0.75057402  0.25455912  1
  Y3+  Y47  1  0.25205251  0.74838290  0.76088216  1
  Y3+  Y48  1  0.49889895  0.00190655  0.26282785  1
  Y3+  Y49  1  0.50062633  -0.00062778  0.75310810  1
  Y3+  Y50  1  0.50176375  0.24790204  0.26288298  1
  Y3+  Y51  1  0.50046408  0.24940184  0.74929533  1
  Y3+  Y52  1  0.50215245  0.49761062  0.25893687  1
  Y3+  Y53  1  0.49908144  0.49906960  0.75417270  1
  Y3+  Y54  1  0.49959701  0.75235248  0.25992849  1
  Y3+  Y55  1  0.49925864  0.75245889  0.75508374  1
  Y3+  Y56  1  0.74751196  -0.00075610  0.26230488  1
  Y3+  Y57  1  0.74660436  0.00063647  0.75329681  1
  Y3+  Y58  1  0.74746555  0.25195883  0.26243205  1
  Y3+  Y59  1  0.74935071  0.25029968  0.75109124  1
  Y3+  Y60  1  0.74977338  0.49793125  0.26079236  1
  Y3+  Y61  1  0.75114011  0.49735989  0.75153073  1
  Y3+  Y62  1  0.74993363  0.75038773  0.26116270  1
  Y3+  Y63  1  0.74830898  0.75182900  0.75433329  1
  Fe3+  Fe64  1  0.87357663  0.87480449  0.88162569  1
  Fe3+  Fe65  1  0.87625097  0.12625393  0.37541955  1
  Fe3+  Fe66  1  0.37201773  0.37508719  0.37572807  1
  Fe3+  Fe67  1  0.12485762  0.37509003  0.37617063  1
  Fe3+  Fe68  1  0.87256583  0.12551683  0.88015332  1
  Fe3+  Fe69  1  0.62478519  0.37443041  0.87546143  1
  Fe3+  Fe70  1  0.12576176  0.87494029  0.87998988  1
  Fe3+  Fe71  1  0.87640154  0.62360847  0.37624003  1
  Fe3+  Fe72  1  0.12468417  0.87480939  0.38130512  1
  Fe3+  Fe73  1  0.87215242  0.62430588  0.87615598  1
  Fe3+  Fe74  1  0.37267549  0.87515168  0.38150628  1
  Fe3+  Fe75  1  0.37347801  0.62327720  0.37838415  1
  Fe3+  Fe76  1  0.62351122  0.12572156  0.87385116  1
  Fe3+  Fe77  1  0.62453816  0.62406227  0.38062650  1
  Fe3+  Fe78  1  0.87294076  0.37503197  0.88052186  1
  Fe3+  Fe79  1  0.12536030  0.62316243  0.37661491  1
  Fe3+  Fe80  1  0.62547533  0.62431401  0.87203723  1
  Fe3+  Fe81  1  0.37781443  0.12562809  0.87522366  1
  Fe3+  Fe82  1  0.37701480  0.37408600  0.87930807  1
  Fe3+  Fe83  1  0.12458371  0.12690688  0.37634083  1
  Fe3+  Fe84  1  0.87593235  0.87589943  0.63929743  1
  Fe3+  Fe85  1  0.37552277  0.37459283  0.13296729  1
  Fe3+  Fe86  1  0.12622775  0.37528443  0.13361809  1
  Fe3+  Fe87  1  0.12643563  0.87460149  0.13433897  1
  Fe3+  Fe88  1  0.37682479  0.62569097  0.13738103  1
  Fe3+  Fe89  1  0.12505122  0.87536634  0.63602792  1
  Fe3+  Fe90  1  0.87346312  0.12469214  0.13363365  1
  Fe3+  Fe91  1  0.87426638  0.87492669  0.13470523  1
  Fe3+  Fe92  1  0.62344955  0.87457778  0.14158338  1
  Fe3+  Fe93  1  0.87478666  0.37509807  0.13325264  1
  Fe3+  Fe94  1  0.62586579  0.62470733  0.63331306  1
  Fe3+  Fe95  1  0.37381329  0.87589783  0.63485770  1
  Cu2+  Cu96  1  0.37331765  0.12664800  0.37359010  1
  Cu2+  Cu97  1  0.37606430  0.87669751  0.87171529  1
  Cu2+  Cu98  1  0.62552142  0.12557596  0.37197275  1
  Cu2+  Cu99  1  0.62460362  0.37558214  0.37399683  1
  Cu2+  Cu100  1  0.37744552  0.62424261  0.86064720  1
  Cu2+  Cu101  1  0.87799199  0.37435422  0.37091779  1
  Cu2+  Cu102  1  0.12602316  0.12407177  0.87202467  1
  Cu2+  Cu103  1  0.12540105  0.37518213  0.86696612  1
  Cu2+  Cu104  1  0.87723037  0.87532766  0.36290974  1
  Cu2+  Cu105  1  0.12486848  0.62632540  0.87111111  1
  Cu2+  Cu106  1  0.62517671  0.87555728  0.86025776  1
  Cu2+  Cu107  1  0.62452882  0.87472738  0.37521192  1
  Cu2+  Cu108  1  0.62576346  0.12351085  0.15736209  1
  Cu2+  Cu109  1  0.62449372  0.37485317  0.15449239  1
  Cu2+  Cu110  1  0.62377649  0.62607572  0.15848203  1
  Cu2+  Cu111  1  0.62487665  0.87519362  0.64007871  1
  Cu2+  Cu112  1  0.12447135  0.62546666  0.65610410  1
  Cu2+  Cu113  1  0.12503278  0.37482719  0.65774209  1
  Cu2+  Cu114  1  0.87406863  0.62493969  0.15077757  1
  Cu2+  Cu115  1  0.12485859  0.12454004  0.65453140  1
  Cu2+  Cu116  1  0.37496694  0.12504730  0.64198793  1
  Cu2+  Cu117  1  0.37564754  0.62509503  0.65230798  1
  Cu2+  Cu118  1  0.12498480  0.12440438  0.14064181  1
  Cu2+  Cu119  1  0.37391593  0.37478183  0.65497078  1
  Cu2+  Cu120  1  0.62501475  0.37506097  0.63957203  1
  Cu2+  Cu121  1  0.87531002  0.12477940  0.65379501  1
  Cu2+  Cu122  1  0.62546315  0.12517968  0.64066270  1
  Cu2+  Cu123  1  0.87582418  0.37419264  0.64440948  1
  Cu2+  Cu124  1  0.37626429  0.12540604  0.15311014  1
  Cu2+  Cu125  1  0.12649317  0.62548246  0.14045169  1
  Cu2+  Cu126  1  0.87457938  0.62529139  0.65180525  1
  Cu2+  Cu127  1  0.37600463  0.87460240  0.14348357  1
  O2-  O128  1  0.12563961  0.12321055  0.00662767  1
  O2-  O129  1  0.12290364  0.12778874  0.49630803  1
  O2-  O130  1  0.12647749  0.37601601  0.01319025  1
  O2-  O131  1  0.12492409  0.37487473  0.49601508  1
  O2-  O132  1  0.12609080  0.62693446  0.00599773  1
  O2-  O133  1  0.12444965  0.62239052  0.49646285  1
  O2-  O134  1  0.12625345  0.87442085  0.00721297  1
  O2-  O135  1  0.12409499  0.87489722  0.50775192  1
  O2-  O136  1  0.37942603  0.12531265  -0.00424965  1
  O2-  O137  1  0.37306059  0.12686460  0.50679105  1
  O2-  O138  1  0.37831129  0.37429711  0.00591049  1
  O2-  O139  1  0.36960469  0.37627785  0.49573082  1
  O2-  O140  1  0.37934351  0.62650458  0.01688553  1
  O2-  O141  1  0.37072834  0.62103893  0.49811374  1
  O2-  O142  1  0.37668788  0.87518416  0.00736280  1
  O2-  O143  1  0.37093796  0.87504940  0.50800413  1
  O2-  O144  1  0.62318369  0.12525914  -0.00578943  1
  O2-  O145  1  0.62695367  0.12598673  0.50659461  1
  O2-  O146  1  0.62455948  0.37510555  -0.00454305  1
  O2-  O147  1  0.62437681  0.37621493  0.50637355  1
  O2-  O148  1  0.62511105  0.62462508  -0.00753431  1
  O2-  O149  1  0.62561870  0.62403713  0.50639672  1
  O2-  O150  1  0.62360446  0.87365379  0.02074087  1
  O2-  O151  1  0.62570828  0.87382618  0.50756738  1
  O2-  O152  1  0.87144875  0.12461641  0.00653772  1
  O2-  O153  1  0.87786267  0.12670414  0.49559813  1
  O2-  O154  1  0.87146030  0.37607152  0.00635604  1
  O2-  O155  1  0.87887003  0.37393932  0.50633271  1
  O2-  O156  1  0.86983548  0.62456073  -0.00373084  1
  O2-  O157  1  0.87831349  0.62320816  0.49619515  1
  O2-  O158  1  0.87221539  0.87405160  0.00808228  1
  O2-  O159  1  0.87911388  0.87568216  0.51889680  1
  O2-  O160  1  0.12421961  -0.00334455  0.16626449  1
  O2-  O161  1  0.12497032  -0.00179832  0.66409730  1
  O2-  O162  1  0.12509314  0.25206138  0.16209943  1
  O2-  O163  1  0.12433309  0.24949301  0.66669700  1
  O2-  O164  1  0.12487730  0.49797800  0.16316134  1
  O2-  O165  1  0.12498269  0.50066418  0.66689794  1
  O2-  O166  1  0.12486548  0.75320942  0.16696590  1
  O2-  O167  1  0.12394991  0.75167083  0.66326740  1
  O2-  O168  1  0.37564349  0.00189011  0.16733880  1
  O2-  O169  1  0.37275098  -0.00268514  0.66382945  1
  O2-  O170  1  0.37530520  0.25117276  0.15987878  1
  O2-  O171  1  0.37362342  0.25122370  0.66567259  1
  O2-  O172  1  0.37648850  0.49837822  0.16122002  1
  O2-  O173  1  0.37395239  0.49989448  0.66727601  1
  O2-  O174  1  0.37580601  0.74837368  0.17084591  1
  O2-  O175  1  0.37410792  0.75191960  0.66312855  1
  O2-  O176  1  0.62566363  -0.00096311  0.16851002  1
  O2-  O177  1  0.62542159  0.00003946  0.66426244  1
  O2-  O178  1  0.62589694  0.24870483  0.16405855  1
  O2-  O179  1  0.62538265  0.25037456  0.66252299  1
  O2-  O180  1  0.62470704  0.50080031  0.16386187  1
  O2-  O181  1  0.62537241  0.50264996  0.66241809  1
  O2-  O182  1  0.62529456  0.75078602  0.17143959  1
  O2-  O183  1  0.62494526  0.74724344  0.66282402  1
  O2-  O184  1  0.87525771  -0.00090166  0.16159069  1
  O2-  O185  1  0.87670499  -0.00034737  0.67040873  1
  O2-  O186  1  0.87385736  0.25044321  0.15780703  1
  O2-  O187  1  0.87675421  0.24815815  0.66905990  1
  O2-  O188  1  0.87417723  0.49821348  0.16101269  1
  O2-  O189  1  0.87569806  0.50124203  0.66559098  1
  O2-  O190  1  0.87460809  0.75175658  0.16356339  1
  O2-  O191  1  0.87651861  0.75086348  0.66720681  1
  O2-  O192  1  -0.00421382  0.12449663  0.15953229  1
  O2-  O193  1  0.00058491  0.12409277  0.66890555  1
  O2-  O194  1  -0.00136698  0.37493929  0.15886400  1
  O2-  O195  1  0.00136005  0.37498725  0.67052495  1
  O2-  O196  1  -0.00114748  0.62602671  0.16002043  1
  O2-  O197  1  -0.00031748  0.62533738  0.66721484  1
  O2-  O198  1  -0.00060646  0.87453037  0.15937008  1
  O2-  O199  1  0.00197681  0.87554978  0.67066332  1
  O2-  O200  1  0.25162361  0.12389747  0.16246513  1
  O2-  O201  1  0.24847921  0.12495805  0.66664893  1
  O2-  O202  1  0.25203783  0.37511906  0.16040053  1
  O2-  O203  1  0.24939891  0.37525907  0.66848730  1
  O2-  O204  1  0.25288002  0.62541869  0.16409612  1
  O2-  O205  1  0.24983593  0.62614872  0.66691790  1
  O2-  O206  1  0.24824479  0.87537347  0.16395966  1
  O2-  O207  1  0.24900365  0.87404169  0.66467510  1
  O2-  O208  1  0.50110747  0.12465374  0.16800612  1
  O2-  O209  1  0.49975778  0.12474550  0.66054829  1
  O2-  O210  1  0.49899876  0.37451325  0.16449447  1
  O2-  O211  1  0.49780766  0.37589593  0.66195191  1
  O2-  O212  1  0.49966415  0.62444725  0.17111173  1
  O2-  O213  1  0.50144070  0.62477416  0.65923256  1
  O2-  O214  1  0.50134639  0.87575794  0.17190654  1
  O2-  O215  1  0.49645958  0.87489440  0.66062008  1
  O2-  O216  1  0.75187998  0.12397279  0.16370319  1
  O2-  O217  1  0.75161403  0.12460050  0.66487133  1
  O2-  O218  1  0.75085146  0.37526275  0.16490917  1
  O2-  O219  1  0.75106864  0.37452750  0.66327541  1
  O2-  O220  1  0.74869881  0.62555931  0.16658801  1
  O2-  O221  1  0.74919167  0.62582904  0.65963312  1
  O2-  O222  1  0.75102142  0.87439411  0.16679658  1
  O2-  O223  1  0.75217909  0.87508989  0.66696896  1
  O2-  O224  1  0.12423308  -0.00118317  0.35034565  1
  O2-  O225  1  0.12402735  -0.00325114  0.84839015  1
  O2-  O226  1  0.12456198  0.25014656  0.34152277  1
  O2-  O227  1  0.12510989  0.25058902  0.85106824  1
  O2-  O228  1  0.12504178  0.50042224  0.34204219  1
  O2-  O229  1  0.12469451  0.49980784  0.85080087  1
  O2-  O230  1  0.12469634  0.75056517  0.35013043  1
  O2-  O231  1  0.12503280  0.75339641  0.84742747  1
  O2-  O232  1  0.37296526  -0.00277041  0.35184841  1
  O2-  O233  1  0.37621328  0.00249786  0.84535992  1
  O2-  O234  1  0.37361280  0.25216153  0.34267663  1
  O2-  O235  1  0.37540603  0.25110689  0.84771641  1
  O2-  O236  1  0.37403778  0.50040387  0.34077034  1
  O2-  O237  1  0.37650900  0.49815963  0.85198347  1
  O2-  O238  1  0.37306224  0.75033319  0.35216444  1
  O2-  O239  1  0.37624683  0.74895312  0.84769698  1
  O2-  O240  1  0.62517673  -0.00030576  0.35109924  1
  O2-  O241  1  0.62514382  0.00049047  0.84727088  1
  O2-  O242  1  0.62516999  0.25026827  0.34874657  1
  O2-  O243  1  0.62576621  0.25017257  0.84297895  1
  O2-  O244  1  0.62502666  0.50330675  0.34777182  1
  O2-  O245  1  0.62512074  0.49892451  0.84278503  1
  O2-  O246  1  0.62538343  0.74668492  0.35309353  1
  O2-  O247  1  0.62552930  0.75049320  0.84621009  1
  O2-  O248  1  0.87690806  0.00061231  0.34557973  1
  O2-  O249  1  0.87533669  0.00001808  0.85450785  1
  O2-  O250  1  0.87643689  0.24808941  0.34064378  1
  O2-  O251  1  0.87421394  0.25007819  0.85371686  1
  O2-  O252  1  0.87567679  0.50181828  0.34338018  1
  O2-  O253  1  0.87414159  0.49836891  0.84797163  1
  O2-  O254  1  0.87633913  0.74921131  0.34777739  1
  O2-  O255  1  0.87379495  0.75142240  0.84916319  1
  O2-  O256  1  0.00133762  0.12434931  0.33973528  1
  O2-  O257  1  -0.00361148  0.12481961  0.85363339  1
  O2-  O258  1  0.00305552  0.37533552  0.33953550  1
  O2-  O259  1  -0.00256701  0.37475163  0.85453981  1
  O2-  O260  1  0.00121509  0.62553314  0.34162547  1
  O2-  O261  1  -0.00343534  0.62586014  0.85015879  1
  O2-  O262  1  0.00334551  0.87471905  0.34455976  1
  O2-  O263  1  -0.00106919  0.87483156  0.85516905  1
  O2-  O264  1  0.24677517  0.12429131  0.34467549  1
  O2-  O265  1  0.25272365  0.12469122  0.84911025  1
  O2-  O266  1  0.24841080  0.37540423  0.33936055  1
  O2-  O267  1  0.25268255  0.37551212  0.85304224  1
  O2-  O268  1  0.24929828  0.62557735  0.34275266  1
  O2-  O269  1  0.25258984  0.62566695  0.85151310  1
  O2-  O270  1  0.24846133  0.87466300  0.34849310  1
  O2-  O271  1  0.24793105  0.87513485  0.84998037  1
  O2-  O272  1  0.49955316  0.12526118  0.35241108  1
  O2-  O273  1  0.50099387  0.12554957  0.84012651  1
  O2-  O274  1  0.49714624  0.37561627  0.34846750  1
  O2-  O275  1  0.49969180  0.37501396  0.84432546  1
  O2-  O276  1  0.49956496  0.62539831  0.35261691  1
  O2-  O277  1  0.50201772  0.62562405  0.84220230  1
  O2-  O278  1  0.49553058  0.87384228  0.35426684  1
  O2-  O279  1  0.50186705  0.87458569  0.84447950  1
  O2-  O280  1  0.75213077  0.12464903  0.34664617  1
  O2-  O281  1  0.75023237  0.12427232  0.84737468  1
  O2-  O282  1  0.75095130  0.37532269  0.35034791  1
  O2-  O283  1  0.75070857  0.37468028  0.84492135  1
  O2-  O284  1  0.74977021  0.62527889  0.35059605  1
  O2-  O285  1  0.74959659  0.62522834  0.83958165  1
  O2-  O286  1  0.75219823  0.87465638  0.35041779  1
  O2-  O287  1  0.75165542  0.87614419  0.85042772  1
