# generated using pymatgen
data_BaYFeCuO5
_symmetry_space_group_name_H-M   'P 1'
_cell_length_a   15.67848966
_cell_length_b   15.68039736
_cell_length_c   15.51291037
_cell_angle_alpha   90.00313196
_cell_angle_beta   89.99478541
_cell_angle_gamma   89.99775673
_symmetry_Int_Tables_number   1
_chemical_formula_structural   BaYFeCuO5
_chemical_formula_sum   'Ba32 Y32 Fe32 Cu32 O160'
_cell_volume   3813.77061744
_cell_formula_units_Z   32
loop_
 _symmetry_equiv_pos_site_id
 _symmetry_equiv_pos_as_xyz
  1  'x, y, z'
loop_
 _atom_type_symbol
 _atom_type_oxidation_number
  Ba2+  2.0
  Y3+  3.0
  Fe3+  3.0
  Cu2+  2.0
  O2-  -2.0
loop_
 _atom_site_type_symbol
 _atom_site_label
 _atom_site_symmetry_multiplicity
 _atom_site_fract_x
 _atom_site_fract_y
 _atom_site_fract_z
 _atom_site_occupancy
  Ba2+  Ba0  1  -0.00653805  -0.00568362  0.01058065  1
  Ba2+  Ba1  1  -0.00457690  0.00574388  0.52246126  1
  Ba2+  Ba2  1  -0.01099721  0.25005779  0.00638545  1
  Ba2+  Ba3  1  0.00001786  0.24909208  0.51938384  1
  Ba2+  Ba4  1  -0.00456255  0.50758791  -0.00318285  1
  Ba2+  Ba5  1  0.00468838  0.49490199  0.51326044  1
  Ba2+  Ba6  1  0.00029501  0.74769973  0.00049890  1
  Ba2+  Ba7  1  -0.00031024  0.74993845  0.51638962  1
  Ba2+  Ba8  1  0.25823151  -0.00816217  0.01480494  1
  Ba2+  Ba9  1  0.24974205  0.00073861  0.51628288  1
  Ba2+  Ba10  1  0.25598858  0.24542024  0.01021653  1
  Ba2+  Ba11  1  0.24528327  0.25465358  0.52445896  1
  Ba2+  Ba12  1  0.24888729  0.51193855  0.01127297  1
  Ba2+  Ba13  1  0.25016513  0.49913487  0.52031589  1
  Ba2+  Ba14  1  0.25177561  0.75087778  0.01724896  1
  Ba2+  Ba15  1  0.25528708  0.74464456  0.51123208  1
  Ba2+  Ba16  1  0.50177010  -0.00653197  0.01705222  1
  Ba2+  Ba17  1  0.50608941  -0.00569935  0.50612925  1
  Ba2+  Ba18  1  0.50646457  0.24458851  0.02370720  1
  Ba2+  Ba19  1  0.50539798  0.25718747  0.50664146  1
  Ba2+  Ba20  1  0.50597810  0.50635921  0.02396439  1
  Ba2+  Ba21  1  0.50409940  0.50126583  0.50624666  1
  Ba2+  Ba22  1  0.50098978  0.75449432  0.01811924  1
  Ba2+  Ba23  1  0.50497474  0.74837555  0.50692585  1
  Ba2+  Ba24  1  0.74501041  -0.00273027  0.01381431  1
  Ba2+  Ba25  1  0.74874810  -0.00190870  0.51228936  1
  Ba2+  Ba26  1  0.74742425  0.24870796  0.01892545  1
  Ba2+  Ba27  1  0.74894608  0.25231205  0.50054452  1
  Ba2+  Ba28  1  0.74960417  0.50124425  0.00575939  1
  Ba2+  Ba29  1  0.74210862  0.49660192  0.50308996  1
  Ba2+  Ba30  1  0.74724930  0.75255510  -0.00158897  1
  Ba2+  Ba31  1  0.74194832  0.75291417  0.51089080  1
  Y3+  Y32  1  -0.00048906  -0.00068157  0.25461567  1
  Y3+  Y33  1  -0.00258275  -0.00074603  0.75696226  1
  Y3+  Y34  1  -0.00263409  0.24993523  0.25535271  1
  Y3+  Y35  1  -0.00121426  0.24967306  0.75870747  1
  Y3+  Y36  1  0.00015983  0.50101126  0.25662146  1
  Y3+  Y37  1  -0.00003496  0.50226443  0.75987098  1
  Y3+  Y38  1  0.00220456  0.74942024  0.25601400  1
  Y3+  Y39  1  -0.00135325  0.74930247  0.75884185  1
  Y3+  Y40  1  0.25179778  -0.00223607  0.25346193  1
  Y3+  Y41  1  0.25293631  -0.00198997  0.75764128  1
  Y3+  Y42  1  0.25152823  0.24823272  0.25320774  1
  Y3+  Y43  1  0.25034925  0.25098580  0.75847425  1
  Y3+  Y44  1  0.25029750  0.50458943  0.25418929  1
  Y3+  Y45  1  0.24845352  0.50175482  0.75966849  1
  Y3+  Y46  1  0.25114155  0.74936718  0.25402455  1
  Y3+  Y47  1  0.25161304  0.74981443  0.75960180  1
  Y3+  Y48  1  0.50242746  -0.00225518  0.25701335  1
  Y3+  Y49  1  0.50068392  -0.00545434  0.75692282  1
  Y3+  Y50  1  0.50327427  0.24920016  0.25983609  1
  Y3+  Y51  1  0.50102699  0.25234021  0.75316982  1
  Y3+  Y52  1  0.50264987  0.50274822  0.26166642  1
  Y3+  Y53  1  0.50258801  0.49960498  0.75174409  1
  Y3+  Y54  1  0.50178130  0.74993787  0.25970672  1
  Y3+  Y55  1  0.50160899  0.75376590  0.75571854  1
  Y3+  Y56  1  0.74624213  -0.00009009  0.25915657  1
  Y3+  Y57  1  0.74874562  -0.00394266  0.75649272  1
  Y3+  Y58  1  0.74753419  0.24994648  0.25962198  1
  Y3+  Y59  1  0.74956707  0.25110810  0.75567092  1
  Y3+  Y60  1  0.74694514  0.49920455  0.26174855  1
  Y3+  Y61  1  0.74855428  0.50047070  0.75522519  1
  Y3+  Y62  1  0.74545840  0.75047544  0.26148775  1
  Y3+  Y63  1  0.74775484  0.75276912  0.75455738  1
  Fe3+  Fe64  1  0.12484325  0.37476863  0.88043013  1
  Fe3+  Fe65  1  0.62445714  0.37460574  0.87754844  1
  Fe3+  Fe66  1  0.37412636  0.87438181  0.37781508  1
  Fe3+  Fe67  1  0.87201504  0.12413921  0.87619850  1
  Fe3+  Fe68  1  0.37255299  0.37583341  0.37514389  1
  Fe3+  Fe69  1  0.12560829  0.12522459  0.37475325  1
  Fe3+  Fe70  1  0.12534790  0.12348071  0.87891350  1
  Fe3+  Fe71  1  0.12568484  0.62486007  0.37761184  1
  Fe3+  Fe72  1  0.12595116  0.37388056  0.37295371  1
  Fe3+  Fe73  1  0.37457421  0.12537992  0.37903668  1
  Fe3+  Fe74  1  0.87563920  0.62442272  0.38226410  1
  Fe3+  Fe75  1  0.87566023  0.12485579  0.37552902  1
  Fe3+  Fe76  1  0.62400930  0.12425972  0.87540167  1
  Fe3+  Fe77  1  0.37751859  0.37628526  0.88062487  1
  Fe3+  Fe78  1  0.62355827  0.62557302  0.87450017  1
  Fe3+  Fe79  1  0.87610790  0.87510479  0.37942585  1
  Fe3+  Fe80  1  0.12579750  0.87535872  0.87646235  1
  Fe3+  Fe81  1  0.12484790  0.87584674  0.37969885  1
  Fe3+  Fe82  1  0.37787661  0.12435250  0.87634438  1
  Fe3+  Fe83  1  0.37755158  0.62587647  0.87742743  1
  Fe3+  Fe84  1  0.37620722  0.62494987  0.63851320  1
  Fe3+  Fe85  1  0.87432381  0.37518428  0.63857641  1
  Fe3+  Fe86  1  0.12431823  0.37565875  0.13136995  1
  Fe3+  Fe87  1  0.87367529  0.37641043  0.13900658  1
  Fe3+  Fe88  1  0.37654263  0.12521538  0.63380788  1
  Fe3+  Fe89  1  0.12423747  0.12400072  0.13143156  1
  Fe3+  Fe90  1  0.62564734  0.12536101  0.63519997  1
  Fe3+  Fe91  1  0.87338244  0.87313654  0.13909301  1
  Fe3+  Fe92  1  0.12572179  0.87438513  0.63562936  1
  Fe3+  Fe93  1  0.87410356  0.62467146  0.63579288  1
  Fe3+  Fe94  1  0.87292329  0.62621270  0.14056647  1
  Fe3+  Fe95  1  0.37630848  0.37613011  0.13427448  1
  Cu2+  Cu96  1  0.62442765  0.12446784  0.36805764  1
  Cu2+  Cu97  1  0.62511726  0.87534992  0.37266138  1
  Cu2+  Cu98  1  0.37605132  0.87425997  0.87223428  1
  Cu2+  Cu99  1  0.62427963  0.37476173  0.37111561  1
  Cu2+  Cu100  1  0.87427705  0.87520117  0.86163453  1
  Cu2+  Cu101  1  0.37411597  0.62505963  0.36292403  1
  Cu2+  Cu102  1  0.12586877  0.62672221  0.87303813  1
  Cu2+  Cu103  1  0.87340493  0.37494232  0.86338231  1
  Cu2+  Cu104  1  0.62426598  0.87516405  0.87190300  1
  Cu2+  Cu105  1  0.87269257  0.62572549  0.85898979  1
  Cu2+  Cu106  1  0.62485094  0.62563746  0.37424255  1
  Cu2+  Cu107  1  0.87666566  0.37505311  0.36424351  1
  Cu2+  Cu108  1  0.62452707  0.87532883  0.64179936  1
  Cu2+  Cu109  1  0.37480899  0.37569219  0.65186847  1
  Cu2+  Cu110  1  0.62676328  0.62565018  0.15559867  1
  Cu2+  Cu111  1  0.62514451  0.37576798  0.15383290  1
  Cu2+  Cu112  1  0.37652064  0.87388374  0.14541694  1
  Cu2+  Cu113  1  0.62601312  0.37494036  0.64112259  1
  Cu2+  Cu114  1  0.87365833  0.12541902  0.65335408  1
  Cu2+  Cu115  1  0.12285329  0.62554072  0.14041120  1
  Cu2+  Cu116  1  0.37611244  0.12446959  0.15136090  1
  Cu2+  Cu117  1  0.37673371  0.62516826  0.15247619  1
  Cu2+  Cu118  1  0.12480016  0.62566011  0.65246736  1
  Cu2+  Cu119  1  0.87399769  0.12427047  0.15103266  1
  Cu2+  Cu120  1  0.37490903  0.87458156  0.64599211  1
  Cu2+  Cu121  1  0.62625902  0.87365308  0.14463506  1
  Cu2+  Cu122  1  0.12552930  0.12441747  0.65593613  1
  Cu2+  Cu123  1  0.62548143  0.62508272  0.64158970  1
  Cu2+  Cu124  1  0.87515411  0.87464100  0.64887405  1
  Cu2+  Cu125  1  0.12386344  0.37549203  0.65923926  1
  Cu2+  Cu126  1  0.62526630  0.12397963  0.15594032  1
  Cu2+  Cu127  1  0.12415664  0.87474767  0.14853506  1
  O2-  O128  1  0.12518568  0.12277904  0.00446610  1
  O2-  O129  1  0.12556215  0.12723847  0.49431322  1
  O2-  O130  1  0.12358639  0.37530644  0.00578454  1
  O2-  O131  1  0.12634098  0.37280070  0.49291509  1
  O2-  O132  1  0.12353564  0.62608645  0.00639057  1
  O2-  O133  1  0.12590634  0.62324134  0.49742231  1
  O2-  O134  1  0.12489469  0.87612050  -0.00318222  1
  O2-  O135  1  0.12496229  0.87624644  0.50562539  1
  O2-  O136  1  0.37823847  0.12515976  -0.00363549  1
  O2-  O137  1  0.37247991  0.12677905  0.50540775  1
  O2-  O138  1  0.37861666  0.37552065  0.00577930  1
  O2-  O139  1  0.36919538  0.37423403  0.49498896  1
  O2-  O140  1  0.37826467  0.62564472  -0.00234537  1
  O2-  O141  1  0.37345092  0.62220510  0.51807640  1
  O2-  O142  1  0.37588698  0.87388817  0.00767330  1
  O2-  O143  1  0.37178213  0.87627701  0.49796044  1
  O2-  O144  1  0.62441185  0.12494397  -0.00472357  1
  O2-  O145  1  0.62554381  0.12580317  0.51479974  1
  O2-  O146  1  0.62351414  0.37482698  -0.00273248  1
  O2-  O147  1  0.62516540  0.37401208  0.50592775  1
  O2-  O148  1  0.62483207  0.62495782  -0.00525888  1
  O2-  O149  1  0.62511183  0.62472380  0.50695105  1
  O2-  O150  1  0.62585386  0.87440255  0.00837651  1
  O2-  O151  1  0.62532151  0.87619800  0.50761344  1
  O2-  O152  1  0.87176724  0.12434936  -0.00376759  1
  O2-  O153  1  0.87872162  0.12631026  0.49532287  1
  O2-  O154  1  0.87295530  0.37679732  0.01888290  1
  O2-  O155  1  0.87777275  0.37426209  0.51864168  1
  O2-  O156  1  0.87265200  0.62629408  0.02049203  1
  O2-  O157  1  0.87705634  0.62334737  0.50902399  1
  O2-  O158  1  0.87381075  0.87203054  0.01880363  1
  O2-  O159  1  0.87918485  0.87777279  0.49935614  1
  O2-  O160  1  0.12469494  0.00174684  0.16287717  1
  O2-  O161  1  0.12544846  -0.00149898  0.66138537  1
  O2-  O162  1  0.12616912  0.24983304  0.15668739  1
  O2-  O163  1  0.12487518  0.24943513  0.66849079  1
  O2-  O164  1  0.12494390  0.49633940  0.16336857  1
  O2-  O165  1  0.12448896  0.50045759  0.66678990  1
  O2-  O166  1  0.12486787  0.75128785  0.16804802  1
  O2-  O167  1  0.12495880  0.75192425  0.66048574  1
  O2-  O168  1  0.37522067  0.00075747  0.16646369  1
  O2-  O169  1  0.37427412  0.00175963  0.66132768  1
  O2-  O170  1  0.37482807  0.25175367  0.16151761  1
  O2-  O171  1  0.37344974  0.24943062  0.66453332  1
  O2-  O172  1  0.37505240  0.49870933  0.16226920  1
  O2-  O173  1  0.37331373  0.49993953  0.66847172  1
  O2-  O174  1  0.37554716  0.74824224  0.16781084  1
  O2-  O175  1  0.37372831  0.74954795  0.66483923  1
  O2-  O176  1  0.62485886  0.00057428  0.16599068  1
  O2-  O177  1  0.62430765  0.00219824  0.66533696  1
  O2-  O178  1  0.62475519  0.24931632  0.16492327  1
  O2-  O179  1  0.62483340  0.24842457  0.66576686  1
  O2-  O180  1  0.62560145  0.50079408  0.16689560  1
  O2-  O181  1  0.62566200  0.49975561  0.66371571  1
  O2-  O182  1  0.62557163  0.74852873  0.16978566  1
  O2-  O183  1  0.62522064  0.75046864  0.66348814  1
  O2-  O184  1  0.87597143  -0.00047847  0.16393173  1
  O2-  O185  1  0.87597883  0.00072362  0.66302408  1
  O2-  O186  1  0.87434495  0.25021016  0.16389941  1
  O2-  O187  1  0.87645318  0.25022571  0.66727453  1
  O2-  O188  1  0.87437739  0.49983558  0.17215144  1
  O2-  O189  1  0.87641238  0.50122184  0.66682387  1
  O2-  O190  1  0.87453607  0.74992937  0.17490745  1
  O2-  O191  1  0.87605026  0.74827245  0.66217140  1
  O2-  O192  1  0.00184424  0.12573915  0.15898241  1
  O2-  O193  1  -0.00007799  0.12499773  0.66685252  1
  O2-  O194  1  0.00075719  0.37377327  0.16328540  1
  O2-  O195  1  -0.00066207  0.37486381  0.66979916  1
  O2-  O196  1  -0.00286880  0.62498737  0.16878820  1
  O2-  O197  1  -0.00119200  0.62513614  0.66466229  1
  O2-  O198  1  -0.00112522  0.87482726  0.16649371  1
  O2-  O199  1  0.00226332  0.87553891  0.66417976  1
  O2-  O200  1  0.24832046  0.12451562  0.15941649  1
  O2-  O201  1  0.25229089  0.12579728  0.66463371  1
  O2-  O202  1  0.25027229  0.37437806  0.15393508  1
  O2-  O203  1  0.24827390  0.37467451  0.66848199  1
  O2-  O204  1  0.25105169  0.62525158  0.16104621  1
  O2-  O205  1  0.24994367  0.62445861  0.66687268  1
  O2-  O206  1  0.24914002  0.87512955  0.16367478  1
  O2-  O207  1  0.24829870  0.87573158  0.66302903  1
  O2-  O208  1  0.50048714  0.12529363  0.16808676  1
  O2-  O209  1  0.49863874  0.12672958  0.65984654  1
  O2-  O210  1  0.49930504  0.37498726  0.16366721  1
  O2-  O211  1  0.49920277  0.37477267  0.66160020  1
  O2-  O212  1  0.50201042  0.62455915  0.16596290  1
  O2-  O213  1  0.49910166  0.62444196  0.66329406  1
  O2-  O214  1  0.50108617  0.87449199  0.16684395  1
  O2-  O215  1  0.49843377  0.87523616  0.66382657  1
  O2-  O216  1  0.74944570  0.12455424  0.16681707  1
  O2-  O217  1  0.74947029  0.12496383  0.66379314  1
  O2-  O218  1  0.74949276  0.37468616  0.16848558  1
  O2-  O219  1  0.75196260  0.37499536  0.66715581  1
  O2-  O220  1  0.75021584  0.62440386  0.17205538  1
  O2-  O221  1  0.75270765  0.62500332  0.66321518  1
  O2-  O222  1  0.75128965  0.87536863  0.17033958  1
  O2-  O223  1  0.75125770  0.87548087  0.66416218  1
  O2-  O224  1  0.12587078  -0.00086724  0.34631846  1
  O2-  O225  1  0.12527578  0.00168666  0.84462370  1
  O2-  O226  1  0.12570815  0.24909583  0.33796611  1
  O2-  O227  1  0.12546927  0.24923571  0.85307156  1
  O2-  O228  1  0.12535771  0.49999816  0.34441657  1
  O2-  O229  1  0.12455203  0.49688774  0.85124486  1
  O2-  O230  1  0.12458763  0.75162295  0.35141511  1
  O2-  O231  1  0.12423364  0.75254831  0.84395404  1
  O2-  O232  1  0.37327518  0.00120057  0.34947274  1
  O2-  O233  1  0.37475378  0.00188634  0.84454255  1
  O2-  O234  1  0.37372057  0.24840991  0.34472958  1
  O2-  O235  1  0.37445702  0.25183560  0.84804403  1
  O2-  O236  1  0.37334489  0.50031219  0.34534336  1
  O2-  O237  1  0.37427156  0.49827811  0.84982678  1
  O2-  O238  1  0.37318621  0.75006201  0.35107207  1
  O2-  O239  1  0.37546398  0.74836769  0.84592821  1
  O2-  O240  1  0.62442352  0.00045394  0.34918505  1
  O2-  O241  1  0.62464903  0.00106742  0.84620495  1
  O2-  O242  1  0.62434205  0.24909385  0.34904368  1
  O2-  O243  1  0.62437735  0.25034498  0.84471515  1
  O2-  O244  1  0.62453616  0.49991186  0.35069529  1
  O2-  O245  1  0.62516891  0.49935586  0.84441515  1
  O2-  O246  1  0.62478415  0.75061800  0.35223334  1
  O2-  O247  1  0.62531694  0.74917298  0.84570066  1
  O2-  O248  1  0.87622443  -0.00007219  0.34456989  1
  O2-  O249  1  0.87531896  0.00072553  0.84589595  1
  O2-  O250  1  0.87611044  0.24966009  0.34587581  1
  O2-  O251  1  0.87514374  0.24887176  0.84831824  1
  O2-  O252  1  0.87732380  0.50094666  0.35397616  1
  O2-  O253  1  0.87497201  0.50003086  0.85006618  1
  O2-  O254  1  0.87771396  0.74895079  0.35536002  1
  O2-  O255  1  0.87490135  0.75059842  0.84720031  1
  O2-  O256  1  0.00113909  0.12481411  0.34041316  1
  O2-  O257  1  0.00101144  0.12507195  0.85100053  1
  O2-  O258  1  0.00226372  0.37442512  0.34338770  1
  O2-  O259  1  0.00089661  0.37401435  0.85350321  1
  O2-  O260  1  0.00024056  0.62451474  0.34898361  1
  O2-  O261  1  -0.00265870  0.62559020  0.84943389  1
  O2-  O262  1  0.00207051  0.87571755  0.34714467  1
  O2-  O263  1  0.00022283  0.87583393  0.84801551  1
  O2-  O264  1  0.25092524  0.12485649  0.34245200  1
  O2-  O265  1  0.24936927  0.12583106  0.84881448  1
  O2-  O266  1  0.24944565  0.37444756  0.33500024  1
  O2-  O267  1  0.25053022  0.37368662  0.85353822  1
  O2-  O268  1  0.24815324  0.62572383  0.34396960  1
  O2-  O269  1  0.25297782  0.62455998  0.84808580  1
  O2-  O270  1  0.24822573  0.87529607  0.34645231  1
  O2-  O271  1  0.24882742  0.87599421  0.84550178  1
  O2-  O272  1  0.49749737  0.12525119  0.35277485  1
  O2-  O273  1  0.50019512  0.12599557  0.83981411  1
  O2-  O274  1  0.49642226  0.37460426  0.34715175  1
  O2-  O275  1  0.49902660  0.37496312  0.84354283  1
  O2-  O276  1  0.49839461  0.62498157  0.35049363  1
  O2-  O277  1  0.50030766  0.62382735  0.84160848  1
  O2-  O278  1  0.49755963  0.87550408  0.34952661  1
  O2-  O279  1  0.50012634  0.87527491  0.84700461  1
  O2-  O280  1  0.75066731  0.12542052  0.35025661  1
  O2-  O281  1  0.74881957  0.12505979  0.84369588  1
  O2-  O282  1  0.75179150  0.37461557  0.35182467  1
  O2-  O283  1  0.74876720  0.37512293  0.84789675  1
  O2-  O284  1  0.75395221  0.62460823  0.35368933  1
  O2-  O285  1  0.74856158  0.62489360  0.84586753  1
  O2-  O286  1  0.75261272  0.87499807  0.35118392  1
  O2-  O287  1  0.75093718  0.87482935  0.84808638  1
