# generated using pymatgen
data_BaYFeCuO5
_symmetry_space_group_name_H-M   'P 1'
_cell_length_a   15.65175811
_cell_length_b   15.65313103
_cell_length_c   15.43565478
_cell_angle_alpha   90.00510298
_cell_angle_beta   90.00415511
_cell_angle_gamma   89.99739454
_symmetry_Int_Tables_number   1
_chemical_formula_structural   BaYFeCuO5
_chemical_formula_sum   'Ba32 Y32 Fe32 Cu32 O160'
_cell_volume   3781.72027380
_cell_formula_units_Z   32
loop_
 _symmetry_equiv_pos_site_id
 _symmetry_equiv_pos_as_xyz
  1  'x, y, z'
loop_
 _atom_type_symbol
 _atom_type_oxidation_number
  Ba2+  2.0
  Y3+  3.0
  Fe3+  3.0
  Cu2+  2.0
  O2-  -2.0
loop_
 _atom_site_type_symbol
 _atom_site_label
 _atom_site_symmetry_multiplicity
 _atom_site_fract_x
 _atom_site_fract_y
 _atom_site_fract_z
 _atom_site_occupancy
  Ba2+  Ba0  1  -0.00003676  -0.01055674  0.01767471  1
  Ba2+  Ba1  1  0.00254500  0.00101483  0.51152225  1
  Ba2+  Ba2  1  0.00449840  0.25469943  0.01179844  1
  Ba2+  Ba3  1  0.01312204  0.25201349  0.50750960  1
  Ba2+  Ba4  1  0.00257029  0.51024025  0.01011762  1
  Ba2+  Ba5  1  0.00820338  0.50556169  0.50662366  1
  Ba2+  Ba6  1  -0.00092254  0.74543450  0.01551154  1
  Ba2+  Ba7  1  -0.00144567  0.74053368  0.51107964  1
  Ba2+  Ba8  1  0.25578179  -0.00434134  0.01219008  1
  Ba2+  Ba9  1  0.24985153  -0.00046819  0.50668283  1
  Ba2+  Ba10  1  0.25642164  0.25369639  0.01229077  1
  Ba2+  Ba11  1  0.24552060  0.25823600  0.50707299  1
  Ba2+  Ba12  1  0.24484155  0.49885393  0.01689280  1
  Ba2+  Ba13  1  0.24630774  0.49801232  0.51226310  1
  Ba2+  Ba14  1  0.24381006  0.75152866  0.01678389  1
  Ba2+  Ba15  1  0.25168416  0.74400486  0.51235768  1
  Ba2+  Ba16  1  0.50082605  -0.00045906  0.01953575  1
  Ba2+  Ba17  1  0.49911897  0.00021950  0.50672315  1
  Ba2+  Ba18  1  0.50216688  0.25249775  0.01244175  1
  Ba2+  Ba19  1  0.49710926  0.25109331  0.50712366  1
  Ba2+  Ba20  1  0.50782218  0.49654741  0.01090117  1
  Ba2+  Ba21  1  0.48800642  0.49790734  0.51174038  1
  Ba2+  Ba22  1  0.50623810  0.75200447  0.01710797  1
  Ba2+  Ba23  1  0.48939393  0.75176919  0.51062079  1
  Ba2+  Ba24  1  0.74461406  -0.00601128  0.02318228  1
  Ba2+  Ba25  1  0.74801698  0.00109438  0.51028868  1
  Ba2+  Ba26  1  0.73856772  0.25241956  0.01172855  1
  Ba2+  Ba27  1  0.74339917  0.24457689  0.50692546  1
  Ba2+  Ba28  1  0.74432364  0.50780210  0.00577255  1
  Ba2+  Ba29  1  0.75760052  0.50620638  0.50708537  1
  Ba2+  Ba30  1  0.75088652  0.74574863  0.01595838  1
  Ba2+  Ba31  1  0.76114262  0.74801945  0.51184036  1
  Y3+  Y32  1  0.00148880  -0.00120182  0.25874141  1
  Y3+  Y33  1  0.00052926  -0.00042063  0.75435186  1
  Y3+  Y34  1  0.00341291  0.25200111  0.25970748  1
  Y3+  Y35  1  0.00244172  0.25048745  0.75544113  1
  Y3+  Y36  1  0.00233188  0.50338817  0.25792897  1
  Y3+  Y37  1  0.00125373  0.50431288  0.75756066  1
  Y3+  Y38  1  0.00015026  0.74597876  0.25627892  1
  Y3+  Y39  1  -0.00085389  0.74533948  0.75727199  1
  Y3+  Y40  1  0.25044745  -0.00179902  0.26033549  1
  Y3+  Y41  1  0.25087895  0.00048938  0.75418514  1
  Y3+  Y42  1  0.24921975  0.25372875  0.26138399  1
  Y3+  Y43  1  0.25010742  0.25081190  0.75382044  1
  Y3+  Y44  1  0.24710820  0.49844642  0.25955840  1
  Y3+  Y45  1  0.24883566  0.50110021  0.75481542  1
  Y3+  Y46  1  0.24853294  0.74994297  0.25804648  1
  Y3+  Y47  1  0.24975848  0.74753954  0.75549408  1
  Y3+  Y48  1  0.50007092  -0.00069664  0.26160006  1
  Y3+  Y49  1  0.49833523  0.00104142  0.75272727  1
  Y3+  Y50  1  0.50062378  0.25192824  0.25916288  1
  Y3+  Y51  1  0.49950477  0.25027229  0.75632271  1
  Y3+  Y52  1  0.49981077  0.49798520  0.25513233  1
  Y3+  Y53  1  0.49995431  0.49963424  0.75899949  1
  Y3+  Y54  1  0.49960292  0.75096357  0.25700150  1
  Y3+  Y55  1  0.49854097  0.74887159  0.75560118  1
  Y3+  Y56  1  0.74793182  -0.00008025  0.25970519  1
  Y3+  Y57  1  0.74980727  0.00001510  0.75230690  1
  Y3+  Y58  1  0.74671998  0.25033113  0.25798770  1
  Y3+  Y59  1  0.74744396  0.25045878  0.75707633  1
  Y3+  Y60  1  0.75042462  0.50273595  0.25460092  1
  Y3+  Y61  1  0.75004167  0.50275417  0.76143303  1
  Y3+  Y62  1  0.75185194  0.74736206  0.25541956  1
  Y3+  Y63  1  0.75263176  0.74659449  0.75776046  1
  Fe3+  Fe64  1  0.37439186  0.62417184  0.37466467  1
  Fe3+  Fe65  1  0.62459000  0.62514719  0.38003422  1
  Fe3+  Fe66  1  0.87458644  0.12412750  0.88079590  1
  Fe3+  Fe67  1  0.12468962  0.87301725  0.37909670  1
  Fe3+  Fe68  1  0.62396490  0.12300117  0.87541329  1
  Fe3+  Fe69  1  0.62503893  0.87502807  0.87341236  1
  Fe3+  Fe70  1  0.37578263  0.87526450  0.87584777  1
  Fe3+  Fe71  1  0.12500432  0.87431757  0.87522582  1
  Fe3+  Fe72  1  0.37455162  0.62532147  0.88047916  1
  Fe3+  Fe73  1  0.62541348  0.87312152  0.37935567  1
  Fe3+  Fe74  1  0.62504211  0.37686462  0.38027448  1
  Fe3+  Fe75  1  0.37509302  0.37502514  0.87665839  1
  Fe3+  Fe76  1  0.12540793  0.37570808  0.87706523  1
  Fe3+  Fe77  1  0.37395299  0.12607868  0.37872889  1
  Fe3+  Fe78  1  0.87433512  0.87506785  0.87567295  1
  Fe3+  Fe79  1  0.87591700  0.12587374  0.37838545  1
  Fe3+  Fe80  1  0.12607933  0.12397593  0.88015424  1
  Fe3+  Fe81  1  0.87575996  0.37581071  0.37997948  1
  Fe3+  Fe82  1  0.87480346  0.37531027  0.88016051  1
  Fe3+  Fe83  1  0.87581039  0.87416325  0.37715835  1
  Fe3+  Fe84  1  0.37401679  0.12596346  0.63493199  1
  Fe3+  Fe85  1  0.87463168  0.12544689  0.13510126  1
  Fe3+  Fe86  1  0.87593092  0.37578065  0.63485328  1
  Fe3+  Fe87  1  0.87551848  0.12644586  0.63445680  1
  Fe3+  Fe88  1  0.62445808  0.62462449  0.63400395  1
  Fe3+  Fe89  1  0.62525895  0.87367195  0.63323545  1
  Fe3+  Fe90  1  0.62508426  0.37609258  0.63493644  1
  Fe3+  Fe91  1  0.12445477  0.87351542  0.63485504  1
  Fe3+  Fe92  1  0.37504410  0.62453313  0.13520725  1
  Fe3+  Fe93  1  0.37547774  0.12554557  0.14049277  1
  Fe3+  Fe94  1  0.12599325  0.12473794  0.13593364  1
  Fe3+  Fe95  1  0.87484588  0.37603760  0.13546692  1
  Cu2+  Cu96  1  0.12641408  0.62580053  0.87226020  1
  Cu2+  Cu97  1  0.37439384  0.87385833  0.37349130  1
  Cu2+  Cu98  1  0.12443066  0.37686477  0.37105916  1
  Cu2+  Cu99  1  0.62437513  0.12502461  0.37416860  1
  Cu2+  Cu100  1  0.62486659  0.37493930  0.87083440  1
  Cu2+  Cu101  1  0.37497016  0.12471542  0.86330409  1
  Cu2+  Cu102  1  0.87545161  0.62549215  0.87355870  1
  Cu2+  Cu103  1  0.87540018  0.62473659  0.37108959  1
  Cu2+  Cu104  1  0.12571617  0.62570179  0.37135454  1
  Cu2+  Cu105  1  0.37478029  0.37627572  0.37259012  1
  Cu2+  Cu106  1  0.12539466  0.12449321  0.37286104  1
  Cu2+  Cu107  1  0.62340072  0.62675731  0.87098172  1
  Cu2+  Cu108  1  0.87490270  0.87503984  0.15342777  1
  Cu2+  Cu109  1  0.62573659  0.37548216  0.14490814  1
  Cu2+  Cu110  1  0.37436325  0.37508618  0.64196634  1
  Cu2+  Cu111  1  0.12440346  0.37454325  0.15090481  1
  Cu2+  Cu112  1  0.87520941  0.62423744  0.14295163  1
  Cu2+  Cu113  1  0.12530208  0.62479796  0.64250413  1
  Cu2+  Cu114  1  0.12505781  0.87564065  0.15383407  1
  Cu2+  Cu115  1  0.62439306  0.12490924  0.15536266  1
  Cu2+  Cu116  1  0.12551807  0.12509168  0.64074964  1
  Cu2+  Cu117  1  0.12592594  0.62502954  0.14386385  1
  Cu2+  Cu118  1  0.37507989  0.87491579  0.15314879  1
  Cu2+  Cu119  1  0.87509157  0.62311100  0.64390047  1
  Cu2+  Cu120  1  0.62505513  0.87471617  0.15738311  1
  Cu2+  Cu121  1  0.37535153  0.62402381  0.65143933  1
  Cu2+  Cu122  1  0.12430598  0.37612376  0.64577341  1
  Cu2+  Cu123  1  0.62414765  0.62488787  0.14391338  1
  Cu2+  Cu124  1  0.37489088  0.37508192  0.15166856  1
  Cu2+  Cu125  1  0.62416119  0.12549373  0.63919405  1
  Cu2+  Cu126  1  0.87558603  0.87439422  0.64667876  1
  Cu2+  Cu127  1  0.37403497  0.87500394  0.63935711  1
  O2-  O128  1  0.12591269  0.12348427  0.00771955  1
  O2-  O129  1  0.12470526  0.12382590  0.50669958  1
  O2-  O130  1  0.12584001  0.37314109  -0.00218830  1
  O2-  O131  1  0.12387636  0.37686458  0.50716833  1
  O2-  O132  1  0.12641210  0.62674995  0.00816576  1
  O2-  O133  1  0.12638101  0.62614322  0.50771535  1
  O2-  O134  1  0.12561654  0.87673555  -0.00415389  1
  O2-  O135  1  0.12397006  0.87332842  0.50643271  1
  O2-  O136  1  0.37642996  0.12434820  0.01950707  1
  O2-  O137  1  0.37316143  0.12600980  0.50687485  1
  O2-  O138  1  0.37604758  0.37412900  -0.00263918  1
  O2-  O139  1  0.37459647  0.37484406  0.50700269  1
  O2-  O140  1  0.37537683  0.62578411  0.00686272  1
  O2-  O141  1  0.37437435  0.62431576  0.49612909  1
  O2-  O142  1  0.37727809  0.87617014  -0.00359921  1
  O2-  O143  1  0.37431003  0.87510167  0.50625096  1
  O2-  O144  1  0.62473664  0.12154340  -0.00393653  1
  O2-  O145  1  0.62522508  0.12498599  0.50636335  1
  O2-  O146  1  0.62558675  0.37433400  0.00691316  1
  O2-  O147  1  0.62520769  0.37659587  0.50747690  1
  O2-  O148  1  0.62349087  0.62727332  0.00735344  1
  O2-  O149  1  0.62453000  0.62466664  0.50679382  1
  O2-  O150  1  0.62464329  0.87638181  -0.00644617  1
  O2-  O151  1  0.62578294  0.87294556  0.50566177  1
  O2-  O152  1  0.87342742  0.12318717  0.00661234  1
  O2-  O153  1  0.87630970  0.12688841  0.50608008  1
  O2-  O154  1  0.87402380  0.37452476  0.00762453  1
  O2-  O155  1  0.87609674  0.37408864  0.50743912  1
  O2-  O156  1  0.87476529  0.62572679  0.00793455  1
  O2-  O157  1  0.87504904  0.62341841  0.50736775  1
  O2-  O158  1  0.87297520  0.87704441  -0.00385782  1
  O2-  O159  1  0.87617853  0.87617926  0.49744298  1
  O2-  O160  1  0.12455155  0.00217014  0.16626771  1
  O2-  O161  1  0.12418059  -0.00299292  0.66217436  1
  O2-  O162  1  0.12440264  0.24751188  0.16453640  1
  O2-  O163  1  0.12409114  0.25051972  0.66645241  1
  O2-  O164  1  0.12472611  0.49823032  0.16529725  1
  O2-  O165  1  0.12473548  0.50040541  0.66654048  1
  O2-  O166  1  0.12525065  0.75211240  0.16568721  1
  O2-  O167  1  0.12434409  0.75177397  0.66315926  1
  O2-  O168  1  0.37536424  0.00020838  0.16924539  1
  O2-  O169  1  0.37430371  0.00271711  0.66150567  1
  O2-  O170  1  0.37494911  0.24997775  0.16849080  1
  O2-  O171  1  0.37508895  0.24800625  0.66372572  1
  O2-  O172  1  0.37533585  0.50026818  0.16100743  1
  O2-  O173  1  0.37536741  0.50079307  0.66645035  1
  O2-  O174  1  0.37530180  0.74963914  0.16160045  1
  O2-  O175  1  0.37542527  0.74826662  0.66390203  1
  O2-  O176  1  0.62520089  -0.00039581  0.16758924  1
  O2-  O177  1  0.62614309  -0.00296542  0.65868824  1
  O2-  O178  1  0.62514776  0.24921814  0.16730141  1
  O2-  O179  1  0.62547940  0.25324529  0.66370481  1
  O2-  O180  1  0.62517124  0.49981064  0.16788791  1
  O2-  O181  1  0.62554863  0.50014834  0.66389332  1
  O2-  O182  1  0.62491812  0.75133742  0.16697960  1
  O2-  O183  1  0.62456607  0.74891574  0.65966761  1
  O2-  O184  1  0.87481671  0.00248828  0.16502018  1
  O2-  O185  1  0.87493263  0.00207195  0.65992649  1
  O2-  O186  1  0.87519814  0.24926505  0.16292556  1
  O2-  O187  1  0.87488228  0.25069079  0.66574189  1
  O2-  O188  1  0.87520526  0.49716217  0.16561165  1
  O2-  O189  1  0.87360481  0.49659124  0.66689756  1
  O2-  O190  1  0.87494358  0.75118158  0.16464955  1
  O2-  O191  1  0.87506468  0.74984959  0.66324695  1
  O2-  O192  1  0.00002895  0.12493866  0.16016297  1
  O2-  O193  1  -0.00317233  0.12540605  0.66667852  1
  O2-  O194  1  -0.00189550  0.37299723  0.16358366  1
  O2-  O195  1  -0.00276874  0.37433102  0.66607267  1
  O2-  O196  1  0.00083027  0.62484676  0.16504033  1
  O2-  O197  1  -0.00050931  0.62399325  0.66617476  1
  O2-  O198  1  -0.00015297  0.87690596  0.16389212  1
  O2-  O199  1  0.00097816  0.87590209  0.66248642  1
  O2-  O200  1  0.24888707  0.12453192  0.16519777  1
  O2-  O201  1  0.25224774  0.12505522  0.66604451  1
  O2-  O202  1  0.24920314  0.37398125  0.16445775  1
  O2-  O203  1  0.24927141  0.37497585  0.66493548  1
  O2-  O204  1  0.25301208  0.62523433  0.16317612  1
  O2-  O205  1  0.25190039  0.62502952  0.66527913  1
  O2-  O206  1  0.24979730  0.87649741  0.16525254  1
  O2-  O207  1  0.24703712  0.87475790  0.66281049  1
  O2-  O208  1  0.49997910  0.12476349  0.16921046  1
  O2-  O209  1  0.49714268  0.12509306  0.66137651  1
  O2-  O210  1  0.49934599  0.37421821  0.16750242  1
  O2-  O211  1  0.50286860  0.37575903  0.66177143  1
  O2-  O212  1  0.49674748  0.62522244  0.16550806  1
  O2-  O213  1  0.50179055  0.62423545  0.66213970  1
  O2-  O214  1  0.50050755  0.87569237  0.16727424  1
  O2-  O215  1  0.50271119  0.87473544  0.65993339  1
  O2-  O216  1  0.75088647  0.12538675  0.16501778  1
  O2-  O217  1  0.75294565  0.12616607  0.66222941  1
  O2-  O218  1  0.75330105  0.37362136  0.16862356  1
  O2-  O219  1  0.75001482  0.37410542  0.66134978  1
  O2-  O220  1  0.74980341  0.62478016  0.16653292  1
  O2-  O221  1  0.74678693  0.62444405  0.66349205  1
  O2-  O222  1  0.74992050  0.87598120  0.16655829  1
  O2-  O223  1  0.74888020  0.87435250  0.65934164  1
  O2-  O224  1  0.12417006  -0.00356102  0.35071464  1
  O2-  O225  1  0.12444654  0.00114664  0.84525692  1
  O2-  O226  1  0.12430564  0.25071076  0.34908012  1
  O2-  O227  1  0.12455465  0.24831591  0.84945896  1
  O2-  O228  1  0.12446618  0.50119445  0.34881968  1
  O2-  O229  1  0.12470921  0.49843898  0.84899933  1
  O2-  O230  1  0.12445260  0.75202571  0.34918348  1
  O2-  O231  1  0.12563253  0.75207211  0.84530784  1
  O2-  O232  1  0.37484865  0.00233156  0.35255676  1
  O2-  O233  1  0.37472356  -0.00038350  0.84440291  1
  O2-  O234  1  0.37503802  0.24871614  0.35173516  1
  O2-  O235  1  0.37450498  0.24988520  0.84721337  1
  O2-  O236  1  0.37601374  0.50161863  0.34456711  1
  O2-  O237  1  0.37534326  0.50075909  0.84974793  1
  O2-  O238  1  0.37600278  0.74767279  0.34523941  1
  O2-  O239  1  0.37486188  0.74986235  0.84722818  1
  O2-  O240  1  0.62584417  -0.00349073  0.35217752  1
  O2-  O241  1  0.62523948  -0.00010460  0.83896034  1
  O2-  O242  1  0.62594518  0.25371828  0.35156925  1
  O2-  O243  1  0.62566535  0.24704218  0.84668256  1
  O2-  O244  1  0.62615154  0.50046531  0.35150053  1
  O2-  O245  1  0.62470420  0.50046415  0.84847019  1
  O2-  O246  1  0.62499220  0.74922133  0.35093165  1
  O2-  O247  1  0.62465179  0.75268313  0.84185043  1
  O2-  O248  1  0.87511427  0.00076805  0.34921521  1
  O2-  O249  1  0.87544814  0.00184666  0.84342803  1
  O2-  O250  1  0.87475072  0.25087823  0.34915625  1
  O2-  O251  1  0.87511468  0.24869157  0.85157568  1
  O2-  O252  1  0.87392692  0.49730148  0.35027071  1
  O2-  O253  1  0.87518768  0.49740553  0.85153703  1
  O2-  O254  1  0.87476165  0.75117419  0.34782995  1
  O2-  O255  1  0.87490456  0.75201198  0.84630816  1
  O2-  O256  1  -0.00303215  0.12544214  0.34559249  1
  O2-  O257  1  0.00005143  0.12509126  0.85205106  1
  O2-  O258  1  -0.00293512  0.37460983  0.34846867  1
  O2-  O259  1  -0.00084614  0.37282206  0.84970501  1
  O2-  O260  1  0.00014330  0.62497533  0.34876570  1
  O2-  O261  1  0.00099275  0.62533941  0.84999822  1
  O2-  O262  1  0.00065566  0.87549141  0.34752992  1
  O2-  O263  1  -0.00026801  0.87652180  0.84455398  1
  O2-  O264  1  0.25238334  0.12477990  0.34817588  1
  O2-  O265  1  0.24808338  0.12424165  0.85090457  1
  O2-  O266  1  0.24952761  0.37561725  0.34903754  1
  O2-  O267  1  0.24993893  0.37407750  0.84591377  1
  O2-  O268  1  0.25119716  0.62546077  0.34555407  1
  O2-  O269  1  0.25316023  0.62539099  0.84875632  1
  O2-  O270  1  0.24715885  0.87471520  0.34974228  1
  O2-  O271  1  0.25044091  0.87630064  0.84458192  1
  O2-  O272  1  0.49708400  0.12524339  0.35235414  1
  O2-  O273  1  0.50033005  0.12446072  0.84412031  1
  O2-  O274  1  0.50336529  0.37592375  0.35161649  1
  O2-  O275  1  0.49797079  0.37426591  0.84441765  1
  O2-  O276  1  0.50199435  0.62462254  0.34850483  1
  O2-  O277  1  0.49619288  0.62573336  0.84638309  1
  O2-  O278  1  0.50294701  0.87436333  0.35167644  1
  O2-  O279  1  0.49955369  0.87553073  0.84089490  1
  O2-  O280  1  0.75327398  0.12559158  0.35023082  1
  O2-  O281  1  0.75145427  0.12458640  0.84532337  1
  O2-  O282  1  0.75004927  0.37454722  0.35334886  1
  O2-  O283  1  0.75325678  0.37394929  0.84626691  1
  O2-  O284  1  0.74700506  0.62489910  0.35063628  1
  O2-  O285  1  0.74973425  0.62513342  0.84787910  1
  O2-  O286  1  0.74949493  0.87492638  0.34998812  1
  O2-  O287  1  0.75031027  0.87626087  0.84077023  1
