# generated using pymatgen
data_BaYFeCuO5
_symmetry_space_group_name_H-M   'P 1'
_cell_length_a   15.65473138
_cell_length_b   15.65702370
_cell_length_c   15.44933664
_cell_angle_alpha   90.00338662
_cell_angle_beta   90.00380199
_cell_angle_gamma   90.00019656
_symmetry_Int_Tables_number   1
_chemical_formula_structural   BaYFeCuO5
_chemical_formula_sum   'Ba32 Y32 Fe32 Cu32 O160'
_cell_volume   3786.73281889
_cell_formula_units_Z   32
loop_
 _symmetry_equiv_pos_site_id
 _symmetry_equiv_pos_as_xyz
  1  'x, y, z'
loop_
 _atom_type_symbol
 _atom_type_oxidation_number
  Ba2+  2.0
  Y3+  3.0
  Fe3+  3.0
  Cu2+  2.0
  O2-  -2.0
loop_
 _atom_site_type_symbol
 _atom_site_label
 _atom_site_symmetry_multiplicity
 _atom_site_fract_x
 _atom_site_fract_y
 _atom_site_fract_z
 _atom_site_occupancy
  Ba2+  Ba0  1  -0.00809503  0.00100625  0.01827963  1
  Ba2+  Ba1  1  -0.00230353  0.01120926  0.51070554  1
  Ba2+  Ba2  1  -0.00485439  0.25444554  0.01271686  1
  Ba2+  Ba3  1  -0.00517616  0.25222698  0.51512273  1
  Ba2+  Ba4  1  0.00519382  0.49726959  0.00463751  1
  Ba2+  Ba5  1  -0.00312151  0.49658478  0.52074025  1
  Ba2+  Ba6  1  0.00274079  0.74550021  0.01048657  1
  Ba2+  Ba7  1  -0.00085488  0.74029194  0.51799608  1
  Ba2+  Ba8  1  0.25938636  -0.00153652  0.01117214  1
  Ba2+  Ba9  1  0.25545733  0.00515355  0.51169611  1
  Ba2+  Ba10  1  0.25446518  0.25420183  0.01261793  1
  Ba2+  Ba11  1  0.25292550  0.25344293  0.51188953  1
  Ba2+  Ba12  1  0.24401528  0.49799805  0.00536579  1
  Ba2+  Ba13  1  0.24863297  0.49331087  0.51697065  1
  Ba2+  Ba14  1  0.25001385  0.74888026  0.00631631  1
  Ba2+  Ba15  1  0.25106667  0.74947892  0.51823925  1
  Ba2+  Ba16  1  0.49190083  -0.00082588  0.01232332  1
  Ba2+  Ba17  1  0.50332944  0.00350202  0.51254266  1
  Ba2+  Ba18  1  0.49897840  0.25606170  0.01853156  1
  Ba2+  Ba19  1  0.50319332  0.25232317  0.50151663  1
  Ba2+  Ba20  1  0.50611746  0.49261965  0.00655167  1
  Ba2+  Ba21  1  0.50630652  0.49340947  0.50721535  1
  Ba2+  Ba22  1  0.49769179  0.75147147  0.00218026  1
  Ba2+  Ba23  1  0.50600501  0.75194645  0.51811789  1
  Ba2+  Ba24  1  0.75663552  0.00167172  0.01849934  1
  Ba2+  Ba25  1  0.74597470  0.00946156  0.51020932  1
  Ba2+  Ba26  1  0.75132429  0.25654089  0.01941061  1
  Ba2+  Ba27  1  0.74907487  0.25177952  0.50639457  1
  Ba2+  Ba28  1  0.74446512  0.49240486  0.00629054  1
  Ba2+  Ba29  1  0.74731287  0.49587512  0.51183397  1
  Ba2+  Ba30  1  0.74988828  0.74868813  0.00660442  1
  Ba2+  Ba31  1  0.74375397  0.74266478  0.51551470  1
  Y3+  Y32  1  -0.00287479  0.00130226  0.25877053  1
  Y3+  Y33  1  -0.00042607  0.00351372  0.75395512  1
  Y3+  Y34  1  -0.00474257  0.25066792  0.26013159  1
  Y3+  Y35  1  -0.00043495  0.25131475  0.75278431  1
  Y3+  Y36  1  -0.00086496  0.49898063  0.25582986  1
  Y3+  Y37  1  0.00102350  0.49901355  0.75663333  1
  Y3+  Y38  1  0.00016777  0.74855770  0.25393333  1
  Y3+  Y39  1  0.00111210  0.74635435  0.75836610  1
  Y3+  Y40  1  0.25331786  0.00041169  0.25576037  1
  Y3+  Y41  1  0.25168850  -0.00044177  0.75787685  1
  Y3+  Y42  1  0.25469719  0.25093650  0.25935744  1
  Y3+  Y43  1  0.24853837  0.25232660  0.75477041  1
  Y3+  Y44  1  0.25150959  0.49913152  0.25696975  1
  Y3+  Y45  1  0.24748585  0.49880253  0.75735278  1
  Y3+  Y46  1  0.25076140  0.74886590  0.25296292  1
  Y3+  Y47  1  0.25066772  0.74987707  0.76068473  1
  Y3+  Y48  1  0.49834916  0.00238513  0.25807464  1
  Y3+  Y49  1  0.50059875  -0.00099057  0.75709623  1
  Y3+  Y50  1  0.50015897  0.25186048  0.26141543  1
  Y3+  Y51  1  0.50279608  0.25272116  0.75419012  1
  Y3+  Y52  1  0.50153621  0.49636855  0.26089894  1
  Y3+  Y53  1  0.50379635  0.49813051  0.75580688  1
  Y3+  Y54  1  0.49972027  0.74911307  0.25716895  1
  Y3+  Y55  1  0.50119289  0.75066393  0.75826537  1
  Y3+  Y56  1  0.75153142  0.00317448  0.26047144  1
  Y3+  Y57  1  0.74812678  0.00288739  0.75282236  1
  Y3+  Y58  1  0.75010942  0.25181412  0.26310128  1
  Y3+  Y59  1  0.74865903  0.25158578  0.75192972  1
  Y3+  Y60  1  0.74793831  0.49632910  0.26091025  1
  Y3+  Y61  1  0.74718223  0.49852128  0.75482811  1
  Y3+  Y62  1  0.74956758  0.74871460  0.25776988  1
  Y3+  Y63  1  0.74710835  0.74728097  0.75596725  1
  Fe3+  Fe64  1  0.12452001  0.12589570  0.88036104  1
  Fe3+  Fe65  1  0.87392099  0.12599211  0.87580976  1
  Fe3+  Fe66  1  0.87496449  0.87591551  0.87494660  1
  Fe3+  Fe67  1  0.12503291  0.87469354  0.37946607  1
  Fe3+  Fe68  1  0.62520748  0.87498863  0.37632741  1
  Fe3+  Fe69  1  0.37571413  0.62469429  0.38061494  1
  Fe3+  Fe70  1  0.37591361  0.62330474  0.87810344  1
  Fe3+  Fe71  1  0.37591638  0.12653079  0.87700134  1
  Fe3+  Fe72  1  0.12596148  0.12604877  0.37647373  1
  Fe3+  Fe73  1  0.12384959  0.87684405  0.87872914  1
  Fe3+  Fe74  1  0.62612991  0.87674829  0.87939639  1
  Fe3+  Fe75  1  0.62544924  0.12668017  0.88140259  1
  Fe3+  Fe76  1  0.87514197  0.87387550  0.38010632  1
  Fe3+  Fe77  1  0.87439313  0.37408142  0.87494783  1
  Fe3+  Fe78  1  0.12440306  0.37529438  0.37722764  1
  Fe3+  Fe79  1  0.12551994  0.62461096  0.37696407  1
  Fe3+  Fe80  1  0.87484859  0.62401999  0.37658961  1
  Fe3+  Fe81  1  0.37500572  0.87413563  0.37782095  1
  Fe3+  Fe82  1  0.87396012  0.62365172  0.87799206  1
  Fe3+  Fe83  1  0.37538045  0.37452417  0.87542424  1
  Fe3+  Fe84  1  0.87397493  0.87473181  0.63374811  1
  Fe3+  Fe85  1  0.37594084  0.62281318  0.13417476  1
  Fe3+  Fe86  1  0.62458466  0.62369765  0.13655503  1
  Fe3+  Fe87  1  0.87408418  0.62262937  0.13370583  1
  Fe3+  Fe88  1  0.37605921  0.62379126  0.63687177  1
  Fe3+  Fe89  1  0.62498900  0.12604282  0.13660001  1
  Fe3+  Fe90  1  0.12525593  0.12585792  0.13473999  1
  Fe3+  Fe91  1  0.12501332  0.37425829  0.13864008  1
  Fe3+  Fe92  1  0.37621050  0.12642745  0.63867507  1
  Fe3+  Fe93  1  0.12494708  0.87552891  0.13474707  1
  Fe3+  Fe94  1  0.12468414  0.87589456  0.63485601  1
  Fe3+  Fe95  1  0.62515294  0.87508272  0.13509179  1
  Cu2+  Cu96  1  0.37427457  0.37583472  0.37479473  1
  Cu2+  Cu97  1  0.37496231  0.12484737  0.36486083  1
  Cu2+  Cu98  1  0.62501966  0.62434805  0.86727554  1
  Cu2+  Cu99  1  0.12485330  0.62447216  0.87336766  1
  Cu2+  Cu100  1  0.87584805  0.37627524  0.37381092  1
  Cu2+  Cu101  1  0.62450298  0.62541603  0.37361408  1
  Cu2+  Cu102  1  0.37513667  0.87563515  0.87269621  1
  Cu2+  Cu103  1  0.62553972  0.37295920  0.87098832  1
  Cu2+  Cu104  1  0.62447290  0.12475693  0.37118982  1
  Cu2+  Cu105  1  0.87498614  0.12577997  0.37336021  1
  Cu2+  Cu106  1  0.62543986  0.37491888  0.37017554  1
  Cu2+  Cu107  1  0.12440377  0.37314297  0.86227498  1
  Cu2+  Cu108  1  0.87363551  0.37544990  0.64232946  1
  Cu2+  Cu109  1  0.12474298  0.37482370  0.65038106  1
  Cu2+  Cu110  1  0.37544374  0.12611945  0.15092335  1
  Cu2+  Cu111  1  0.37530199  0.87484978  0.65110064  1
  Cu2+  Cu112  1  0.62389554  0.62389696  0.64322851  1
  Cu2+  Cu113  1  0.87412771  0.62466407  0.65303470  1
  Cu2+  Cu114  1  0.87391083  0.12594071  0.64149988  1
  Cu2+  Cu115  1  0.87440864  0.87354400  0.15167400  1
  Cu2+  Cu116  1  0.37599676  0.37538464  0.64181345  1
  Cu2+  Cu117  1  0.87467790  0.12644724  0.15349840  1
  Cu2+  Cu118  1  0.62477635  0.37454500  0.64423150  1
  Cu2+  Cu119  1  0.87469570  0.37607347  0.15241072  1
  Cu2+  Cu120  1  0.62535181  0.87547071  0.65185470  1
  Cu2+  Cu121  1  0.12547719  0.62360019  0.13974457  1
  Cu2+  Cu122  1  0.37529517  0.37606277  0.15252236  1
  Cu2+  Cu123  1  0.62376871  0.12629547  0.64244489  1
  Cu2+  Cu124  1  0.12597382  0.62506905  0.65238502  1
  Cu2+  Cu125  1  0.37583360  0.87362209  0.14175468  1
  Cu2+  Cu126  1  0.62509676  0.37485424  0.14620557  1
  Cu2+  Cu127  1  0.12611766  0.12530107  0.64933205  1
  O2-  O128  1  0.12406068  0.12465946  0.00702411  1
  O2-  O129  1  0.12703440  0.12456548  0.49710548  1
  O2-  O130  1  0.12500906  0.37312481  0.01722836  1
  O2-  O131  1  0.12414500  0.37546755  0.49801538  1
  O2-  O132  1  0.12472387  0.62537012  0.00600024  1
  O2-  O133  1  0.12568150  0.62623886  0.49695817  1
  O2-  O134  1  0.12311267  0.87701764  0.00632414  1
  O2-  O135  1  0.12546620  0.87447036  0.50551963  1
  O2-  O136  1  0.37517262  0.12658892  -0.00208820  1
  O2-  O137  1  0.37515764  0.12482938  0.51738067  1
  O2-  O138  1  0.37465320  0.37535452  -0.00351859  1
  O2-  O139  1  0.37387818  0.37615330  0.50740629  1
  O2-  O140  1  0.37583666  0.62290408  0.00645464  1
  O2-  O141  1  0.37486040  0.62613222  0.50773608  1
  O2-  O142  1  0.37501084  0.87428667  0.00694994  1
  O2-  O143  1  0.37400079  0.87341360  0.49793236  1
  O2-  O144  1  0.62602087  0.12587563  0.00770651  1
  O2-  O145  1  0.62306226  0.12459234  0.50641134  1
  O2-  O146  1  0.62527048  0.37289123  0.00826620  1
  O2-  O147  1  0.62570706  0.37433577  0.50763058  1
  O2-  O148  1  0.62500526  0.62449751  0.01606881  1
  O2-  O149  1  0.62346613  0.62598912  0.50749829  1
  O2-  O150  1  0.62673600  0.87607999  0.00697676  1
  O2-  O151  1  0.62530892  0.87486553  0.49683736  1
  O2-  O152  1  0.87471198  0.12518465  -0.00351531  1
  O2-  O153  1  0.87553675  0.12463731  0.50674688  1
  O2-  O154  1  0.87496049  0.37450865  -0.00412997  1
  O2-  O155  1  0.87586338  0.37674591  0.50739981  1
  O2-  O156  1  0.87413821  0.62375728  0.00562673  1
  O2-  O157  1  0.87605447  0.62564022  0.49705191  1
  O2-  O158  1  0.87508306  0.87619412  -0.00454650  1
  O2-  O159  1  0.87492220  0.87327652  0.50633157  1
  O2-  O160  1  0.12436218  0.00069198  0.16201960  1
  O2-  O161  1  0.12462245  -0.00204451  0.66425184  1
  O2-  O162  1  0.12504914  0.24825459  0.16386948  1
  O2-  O163  1  0.12536407  0.24994243  0.66456296  1
  O2-  O164  1  0.12540157  0.49762250  0.16517635  1
  O2-  O165  1  0.12519340  0.50051241  0.66483047  1
  O2-  O166  1  0.12470176  0.75244616  0.16174293  1
  O2-  O167  1  0.12497760  0.75227576  0.66502674  1
  O2-  O168  1  0.37490114  0.00052689  0.16423373  1
  O2-  O169  1  0.37491278  -0.00012188  0.66589903  1
  O2-  O170  1  0.37501107  0.25105141  0.16490967  1
  O2-  O171  1  0.37426392  0.24953217  0.66574019  1
  O2-  O172  1  0.37549908  0.50138621  0.16552307  1
  O2-  O173  1  0.37439830  0.50232901  0.66417665  1
  O2-  O174  1  0.37526786  0.74628796  0.16300259  1
  O2-  O175  1  0.37460620  0.74899664  0.66525179  1
  O2-  O176  1  0.62576578  0.00057351  0.15955290  1
  O2-  O177  1  0.62443039  -0.00095367  0.66655310  1
  O2-  O178  1  0.62507996  0.24753920  0.16508801  1
  O2-  O179  1  0.62456134  0.25118482  0.66515840  1
  O2-  O180  1  0.62484108  0.50130419  0.16768135  1
  O2-  O181  1  0.62460724  0.49885041  0.66524654  1
  O2-  O182  1  0.62521004  0.75013166  0.16239117  1
  O2-  O183  1  0.62461618  0.75110582  0.66754923  1
  O2-  O184  1  0.87530048  -0.00069410  0.16464550  1
  O2-  O185  1  0.87533376  -0.00292784  0.66233846  1
  O2-  O186  1  0.87499016  0.25129775  0.16511013  1
  O2-  O187  1  0.87502745  0.25038878  0.66394903  1
  O2-  O188  1  0.87465219  0.50132172  0.16220540  1
  O2-  O189  1  0.87510367  0.50166901  0.66694138  1
  O2-  O190  1  0.87506906  0.74750583  0.16122505  1
  O2-  O191  1  0.87541413  0.75150587  0.66500538  1
  O2-  O192  1  0.00092394  0.12433075  0.16248506  1
  O2-  O193  1  0.00146960  0.12471219  0.66447451  1
  O2-  O194  1  -0.00000066  0.37456904  0.16460186  1
  O2-  O195  1  0.00102800  0.37560266  0.66469302  1
  O2-  O196  1  -0.00281250  0.62520701  0.16099290  1
  O2-  O197  1  0.00048518  0.62614776  0.66471961  1
  O2-  O198  1  0.00156083  0.87542392  0.16444799  1
  O2-  O199  1  -0.00021336  0.87454132  0.66003474  1
  O2-  O200  1  0.24869378  0.12440664  0.16147801  1
  O2-  O201  1  0.25129831  0.12380906  0.66804331  1
  O2-  O202  1  0.25001887  0.37463654  0.16540561  1
  O2-  O203  1  0.24842334  0.37556706  0.66519872  1
  O2-  O204  1  0.25296052  0.62482542  0.16284237  1
  O2-  O205  1  0.25184683  0.62638547  0.66533434  1
  O2-  O206  1  0.24713998  0.87525317  0.16347646  1
  O2-  O207  1  0.24758539  0.87483348  0.66460352  1
  O2-  O208  1  0.50144595  0.12444697  0.16306791  1
  O2-  O209  1  0.49838408  0.12431575  0.66968238  1
  O2-  O210  1  0.49881452  0.37515063  0.16683367  1
  O2-  O211  1  0.50127396  0.37554155  0.66558914  1
  O2-  O212  1  0.49957401  0.62501412  0.16545315  1
  O2-  O213  1  0.49741471  0.62619102  0.66726722  1
  O2-  O214  1  0.50383033  0.87509927  0.16334365  1
  O2-  O215  1  0.50072132  0.87450750  0.66719958  1
  O2-  O216  1  0.74910868  0.12438227  0.16433410  1
  O2-  O217  1  0.74890291  0.12459173  0.66499213  1
  O2-  O218  1  0.75125013  0.37507425  0.16697514  1
  O2-  O219  1  0.74852750  0.37557218  0.66443619  1
  O2-  O220  1  0.75039062  0.62571812  0.16395114  1
  O2-  O221  1  0.75003037  0.62575493  0.66633117  1
  O2-  O222  1  0.74780889  0.87475520  0.16383300  1
  O2-  O223  1  0.75163227  0.87439335  0.66336689  1
  O2-  O224  1  0.12511751  -0.00217377  0.34664302  1
  O2-  O225  1  0.12428517  0.00101400  0.84889204  1
  O2-  O226  1  0.12571476  0.25034910  0.34521538  1
  O2-  O227  1  0.12441339  0.24720651  0.84926503  1
  O2-  O228  1  0.12553530  0.50112588  0.34500418  1
  O2-  O229  1  0.12495436  0.49770232  0.84970415  1
  O2-  O230  1  0.12519763  0.75127633  0.34512591  1
  O2-  O231  1  0.12427394  0.75367055  0.85005384  1
  O2-  O232  1  0.37410452  -0.00142034  0.34773123  1
  O2-  O233  1  0.37456174  0.00265783  0.84796298  1
  O2-  O234  1  0.37481859  0.24882094  0.35050138  1
  O2-  O235  1  0.37437249  0.24985354  0.84530519  1
  O2-  O236  1  0.37457393  0.50344941  0.34971460  1
  O2-  O237  1  0.37492263  0.50024902  0.84733348  1
  O2-  O238  1  0.37377921  0.74924242  0.34580389  1
  O2-  O239  1  0.37498070  0.74737568  0.85064849  1
  O2-  O240  1  0.62510003  -0.00279172  0.34273420  1
  O2-  O241  1  0.62582102  0.00087966  0.85084269  1
  O2-  O242  1  0.62468031  0.25100933  0.34920246  1
  O2-  O243  1  0.62524731  0.24665987  0.84790648  1
  O2-  O244  1  0.62463971  0.49902585  0.35035939  1
  O2-  O245  1  0.62497472  0.49985380  0.84967164  1
  O2-  O246  1  0.62502420  0.75277699  0.34301280  1
  O2-  O247  1  0.62563138  0.75221079  0.85258171  1
  O2-  O248  1  0.87604694  -0.00366188  0.35004846  1
  O2-  O249  1  0.87506328  0.00089916  0.84340281  1
  O2-  O250  1  0.87528225  0.25075892  0.35019100  1
  O2-  O251  1  0.87551414  0.24913677  0.84463253  1
  O2-  O252  1  0.87568940  0.50222109  0.34458334  1
  O2-  O253  1  0.87499040  0.50045603  0.84977662  1
  O2-  O254  1  0.87613788  0.75107462  0.34496586  1
  O2-  O255  1  0.87498420  0.74941553  0.84907595  1
  O2-  O256  1  0.00253792  0.12390379  0.34564443  1
  O2-  O257  1  0.00062588  0.12401459  0.84827538  1
  O2-  O258  1  0.00235633  0.37566835  0.34545180  1
  O2-  O259  1  -0.00075544  0.37462065  0.84781623  1
  O2-  O260  1  0.00091121  0.62654145  0.34274771  1
  O2-  O261  1  -0.00350443  0.62545679  0.84948879  1
  O2-  O262  1  0.00053639  0.87442134  0.34987885  1
  O2-  O263  1  0.00037328  0.87587854  0.84417081  1
  O2-  O264  1  0.24954861  0.12356915  0.34495481  1
  O2-  O265  1  0.24853962  0.12434335  0.85101636  1
  O2-  O266  1  0.24784384  0.37554532  0.34690306  1
  O2-  O267  1  0.25008941  0.37459657  0.84822649  1
  O2-  O268  1  0.25092924  0.62657909  0.34604780  1
  O2-  O269  1  0.25298709  0.62530995  0.84990382  1
  O2-  O270  1  0.24872850  0.87452812  0.34686160  1
  O2-  O271  1  0.24675147  0.87576964  0.84988521  1
  O2-  O272  1  0.49842228  0.12420184  0.34784645  1
  O2-  O273  1  0.50161509  0.12408742  0.85136783  1
  O2-  O274  1  0.50082970  0.37504974  0.35087374  1
  O2-  O275  1  0.49880164  0.37486328  0.84768059  1
  O2-  O276  1  0.49693915  0.62650126  0.34898783  1
  O2-  O277  1  0.49893579  0.62533245  0.85136588  1
  O2-  O278  1  0.49892170  0.87460911  0.34503613  1
  O2-  O279  1  0.50356334  0.87546145  0.85213179  1
  O2-  O280  1  0.74974332  0.12407990  0.34871320  1
  O2-  O281  1  0.74892061  0.12389082  0.84779303  1
  O2-  O282  1  0.74927950  0.37549599  0.35097778  1
  O2-  O283  1  0.75155573  0.37469042  0.84643906  1
  O2-  O284  1  0.75152248  0.62645816  0.34643156  1
  O2-  O285  1  0.75125145  0.62574413  0.85068451  1
  O2-  O286  1  0.75216434  0.87441900  0.34776713  1
  O2-  O287  1  0.74935533  0.87522091  0.84716615  1
