# generated using pymatgen
data_BaYFeCuO5
_symmetry_space_group_name_H-M   'P 1'
_cell_length_a   15.66410714
_cell_length_b   15.66449918
_cell_length_c   15.47078607
_cell_angle_alpha   89.99377301
_cell_angle_beta   89.99874107
_cell_angle_gamma   89.99798746
_symmetry_Int_Tables_number   1
_chemical_formula_structural   BaYFeCuO5
_chemical_formula_sum   'Ba32 Y32 Fe32 Cu32 O160'
_cell_volume   3796.07283960
_cell_formula_units_Z   32
loop_
 _symmetry_equiv_pos_site_id
 _symmetry_equiv_pos_as_xyz
  1  'x, y, z'
loop_
 _atom_type_symbol
 _atom_type_oxidation_number
  Ba2+  2.0
  Y3+  3.0
  Fe3+  3.0
  Cu2+  2.0
  O2-  -2.0
loop_
 _atom_site_type_symbol
 _atom_site_label
 _atom_site_symmetry_multiplicity
 _atom_site_fract_x
 _atom_site_fract_y
 _atom_site_fract_z
 _atom_site_occupancy
  Ba2+  Ba0  1  -0.00344364  0.00528660  0.01103154  1
  Ba2+  Ba1  1  -0.00690881  0.00658413  0.51662683  1
  Ba2+  Ba2  1  0.00313931  0.25449783  0.01157644  1
  Ba2+  Ba3  1  -0.00970490  0.24660736  0.51047411  1
  Ba2+  Ba4  1  -0.00075974  0.49891630  0.01736759  1
  Ba2+  Ba5  1  -0.00398896  0.49624023  0.50217345  1
  Ba2+  Ba6  1  -0.00671679  0.74308601  0.01608859  1
  Ba2+  Ba7  1  -0.00117806  0.75048578  0.50700039  1
  Ba2+  Ba8  1  0.25607408  0.00334362  0.01671191  1
  Ba2+  Ba9  1  0.24911387  0.00700166  0.50645347  1
  Ba2+  Ba10  1  0.24801858  0.25265308  0.02104050  1
  Ba2+  Ba11  1  0.24961990  0.24292057  0.50581512  1
  Ba2+  Ba12  1  0.24849417  0.49709004  0.02109722  1
  Ba2+  Ba13  1  0.25020889  0.50659071  0.50605008  1
  Ba2+  Ba14  1  0.25691832  0.74709081  0.01710973  1
  Ba2+  Ba15  1  0.25013428  0.74256403  0.50635982  1
  Ba2+  Ba16  1  0.49842805  -0.00184096  0.01137519  1
  Ba2+  Ba17  1  0.50213047  0.00813877  0.50605546  1
  Ba2+  Ba18  1  0.50132390  0.25218180  0.02032572  1
  Ba2+  Ba19  1  0.50669248  0.24763990  0.51238540  1
  Ba2+  Ba20  1  0.50448465  0.50005820  0.01545455  1
  Ba2+  Ba21  1  0.50498229  0.50272935  0.51150064  1
  Ba2+  Ba22  1  0.50203191  0.74921510  0.00561313  1
  Ba2+  Ba23  1  0.50101891  0.74176585  0.50678071  1
  Ba2+  Ba24  1  0.74884358  -0.00019424  0.00602401  1
  Ba2+  Ba25  1  0.75533757  0.00684665  0.51664209  1
  Ba2+  Ba26  1  0.74707609  0.25397703  0.01140011  1
  Ba2+  Ba27  1  0.75386729  0.24989052  0.51716531  1
  Ba2+  Ba28  1  0.74762922  0.50199130  0.01133605  1
  Ba2+  Ba29  1  0.74896026  0.49183428  0.50808565  1
  Ba2+  Ba30  1  0.74871174  0.74377543  0.00640791  1
  Ba2+  Ba31  1  0.75020299  0.75032304  0.50740272  1
  Y3+  Y32  1  -0.00191139  0.00126761  0.25643242  1
  Y3+  Y33  1  -0.00198783  0.00258779  0.75675008  1
  Y3+  Y34  1  -0.00214658  0.25193326  0.25769330  1
  Y3+  Y35  1  -0.00208755  0.25003497  0.75668432  1
  Y3+  Y36  1  -0.00130027  0.49912933  0.25616575  1
  Y3+  Y37  1  -0.00156875  0.49768156  0.75986003  1
  Y3+  Y38  1  -0.00112128  0.74754263  0.25581879  1
  Y3+  Y39  1  -0.00213713  0.74944819  0.75883277  1
  Y3+  Y40  1  0.25184850  0.00114277  0.25499500  1
  Y3+  Y41  1  0.25027018  -0.00050166  0.75842075  1
  Y3+  Y42  1  0.24986691  0.24952816  0.25540820  1
  Y3+  Y43  1  0.24732835  0.25090749  0.75692405  1
  Y3+  Y44  1  0.24846781  0.50028724  0.25579090  1
  Y3+  Y45  1  0.24926483  0.49913587  0.75698992  1
  Y3+  Y46  1  0.25041695  0.74880504  0.25550354  1
  Y3+  Y47  1  0.25201301  0.75041038  0.75805796  1
  Y3+  Y48  1  0.49891496  0.00169709  0.25495402  1
  Y3+  Y49  1  0.50051648  -0.00161534  0.75967071  1
  Y3+  Y50  1  0.50064660  0.24974905  0.25475461  1
  Y3+  Y51  1  0.50385109  0.25194222  0.75738426  1
  Y3+  Y52  1  0.50247467  0.50016811  0.25349590  1
  Y3+  Y53  1  0.50328242  0.49989268  0.75999662  1
  Y3+  Y54  1  0.50031181  0.74828294  0.25387740  1
  Y3+  Y55  1  0.50067730  0.75005689  0.76119982  1
  Y3+  Y56  1  0.75109241  0.00149384  0.25634649  1
  Y3+  Y57  1  0.75185030  0.00206142  0.75749904  1
  Y3+  Y58  1  0.75142644  0.25213969  0.25742981  1
  Y3+  Y59  1  0.75102064  0.25122546  0.75681567  1
  Y3+  Y60  1  0.74999615  0.49912151  0.25429852  1
  Y3+  Y61  1  0.74920819  0.49836226  0.76172829  1
  Y3+  Y62  1  0.75042363  0.74737482  0.25446517  1
  Y3+  Y63  1  0.74984542  0.74889467  0.76198232  1
  Fe3+  Fe64  1  0.12499723  0.12588985  0.87721966  1
  Fe3+  Fe65  1  0.87378956  0.62414957  0.37874486  1
  Fe3+  Fe66  1  0.37579685  0.37432179  0.37872857  1
  Fe3+  Fe67  1  0.12520447  0.87446519  0.88077561  1
  Fe3+  Fe68  1  0.37473537  0.37443694  0.87687975  1
  Fe3+  Fe69  1  0.37597060  0.62389215  0.37409136  1
  Fe3+  Fe70  1  0.37515054  0.12674669  0.87689764  1
  Fe3+  Fe71  1  0.37463101  0.62336197  0.87664126  1
  Fe3+  Fe72  1  0.37551037  0.87531052  0.37966570  1
  Fe3+  Fe73  1  0.12455427  0.87511605  0.37872656  1
  Fe3+  Fe74  1  0.87447055  0.87598836  0.37694213  1
  Fe3+  Fe75  1  0.62507352  0.87475776  0.38032337  1
  Fe3+  Fe76  1  0.62515314  0.37503147  0.37587614  1
  Fe3+  Fe77  1  0.12496776  0.62423954  0.87850787  1
  Fe3+  Fe78  1  0.87549309  0.87542996  0.87778297  1
  Fe3+  Fe79  1  0.87518425  0.37453637  0.87807779  1
  Fe3+  Fe80  1  0.12342055  0.12465108  0.37529058  1
  Fe3+  Fe81  1  0.62521255  0.12573325  0.87728058  1
  Fe3+  Fe82  1  0.12473221  0.37468400  0.37911290  1
  Fe3+  Fe83  1  0.62651502  0.12541940  0.37552532  1
  Fe3+  Fe84  1  0.62591432  0.87517405  0.13863544  1
  Fe3+  Fe85  1  0.62546709  0.87529320  0.63541368  1
  Fe3+  Fe86  1  0.12443886  0.37437132  0.63321400  1
  Fe3+  Fe87  1  0.37553266  0.12531155  0.63767805  1
  Fe3+  Fe88  1  0.37552493  0.37584050  0.63274276  1
  Fe3+  Fe89  1  0.12436907  0.62479714  0.63676024  1
  Fe3+  Fe90  1  0.37562799  0.87438096  0.63357464  1
  Fe3+  Fe91  1  0.62589501  0.62491684  0.63965433  1
  Fe3+  Fe92  1  0.12411821  0.87504057  0.13516833  1
  Fe3+  Fe93  1  0.12460863  0.87540715  0.63402775  1
  Fe3+  Fe94  1  0.87412363  0.12626625  0.13671312  1
  Fe3+  Fe95  1  0.87446337  0.62429822  0.63598457  1
  Cu2+  Cu96  1  0.62497176  0.62432187  0.87301314  1
  Cu2+  Cu97  1  0.62563274  0.87572133  0.86304991  1
  Cu2+  Cu98  1  0.12425805  0.62500184  0.36338565  1
  Cu2+  Cu99  1  0.62466321  0.37444214  0.87356711  1
  Cu2+  Cu100  1  0.87418864  0.12518908  0.36954168  1
  Cu2+  Cu101  1  0.37551085  0.12548405  0.36235872  1
  Cu2+  Cu102  1  0.37429508  0.87535572  0.87477842  1
  Cu2+  Cu103  1  0.62556484  0.62477709  0.36303695  1
  Cu2+  Cu104  1  0.12543767  0.37512297  0.87222443  1
  Cu2+  Cu105  1  0.87539933  0.62388227  0.87310736  1
  Cu2+  Cu106  1  0.87415824  0.37439336  0.37248175  1
  Cu2+  Cu107  1  0.87499186  0.12601304  0.86699055  1
  Cu2+  Cu108  1  0.87523104  0.37635805  0.64259945  1
  Cu2+  Cu109  1  0.87457126  0.87389974  0.65109368  1
  Cu2+  Cu110  1  0.62519325  0.37546224  0.65131002  1
  Cu2+  Cu111  1  0.12528062  0.12504353  0.65041906  1
  Cu2+  Cu112  1  0.12417765  0.37494858  0.14445021  1
  Cu2+  Cu113  1  0.62579303  0.12485575  0.14896517  1
  Cu2+  Cu114  1  0.62460473  0.12487190  0.65268482  1
  Cu2+  Cu115  1  0.37592708  0.87452495  0.14234281  1
  Cu2+  Cu116  1  0.87405407  0.62395237  0.14387931  1
  Cu2+  Cu117  1  0.12464345  0.62502849  0.15058897  1
  Cu2+  Cu118  1  0.12386482  0.12503690  0.15098949  1
  Cu2+  Cu119  1  0.62566986  0.37488966  0.14231101  1
  Cu2+  Cu120  1  0.87452594  0.87493226  0.14857652  1
  Cu2+  Cu121  1  0.87467138  0.12596166  0.64567418  1
  Cu2+  Cu122  1  0.37559133  0.62482537  0.65129593  1
  Cu2+  Cu123  1  0.37535164  0.12571794  0.15119771  1
  Cu2+  Cu124  1  0.62530476  0.62541963  0.14306822  1
  Cu2+  Cu125  1  0.37549137  0.62435017  0.15090137  1
  Cu2+  Cu126  1  0.37510385  0.37543329  0.15267146  1
  Cu2+  Cu127  1  0.87473537  0.37491776  0.14948806  1
  O2-  O128  1  0.12668640  0.12523449  -0.00259597  1
  O2-  O129  1  0.12430707  0.12341602  0.49591884  1
  O2-  O130  1  0.12583653  0.37524664  0.00750941  1
  O2-  O131  1  0.12522831  0.37442599  0.50623657  1
  O2-  O132  1  0.12634625  0.62517313  -0.00111330  1
  O2-  O133  1  0.12405605  0.62637864  0.51652388  1
  O2-  O134  1  0.12554030  0.87435157  0.00651918  1
  O2-  O135  1  0.12467422  0.87539533  0.50612384  1
  O2-  O136  1  0.37461131  0.12733080  -0.00301503  1
  O2-  O137  1  0.37544264  0.12384319  0.51655173  1
  O2-  O138  1  0.37367843  0.37433141  -0.00315015  1
  O2-  O139  1  0.37597632  0.37508897  0.50548765  1
  O2-  O140  1  0.37355898  0.62269665  -0.00314487  1
  O2-  O141  1  0.37595235  0.62478538  0.49518114  1
  O2-  O142  1  0.37424391  0.87527986  0.00704113  1
  O2-  O143  1  0.37530494  0.87498285  0.50667553  1
  O2-  O144  1  0.62353150  0.12440589  -0.00222854  1
  O2-  O145  1  0.62611620  0.12547948  0.49623153  1
  O2-  O146  1  0.62398659  0.37429342  0.00702658  1
  O2-  O147  1  0.62372926  0.37438568  0.49646910  1
  O2-  O148  1  0.62408392  0.62601310  0.00799756  1
  O2-  O149  1  0.62651979  0.62550662  0.51881678  1
  O2-  O150  1  0.62476757  0.87553483  0.01811633  1
  O2-  O151  1  0.62478370  0.87499564  0.50771991  1
  O2-  O152  1  0.87466850  0.12573657  0.01574369  1
  O2-  O153  1  0.87378452  0.12476061  0.50889134  1
  O2-  O154  1  0.87590628  0.37481386  -0.00103434  1
  O2-  O155  1  0.87499165  0.37565222  0.50750118  1
  O2-  O156  1  0.87531091  0.62385975  0.00770350  1
  O2-  O157  1  0.87405676  0.62519683  0.50762689  1
  O2-  O158  1  0.87666947  0.87551399  -0.00185933  1
  O2-  O159  1  0.87524163  0.87554839  0.49713755  1
  O2-  O160  1  0.12481949  -0.00151758  0.16258233  1
  O2-  O161  1  0.12526873  -0.00220401  0.66334604  1
  O2-  O162  1  0.12490229  0.24866282  0.16670972  1
  O2-  O163  1  0.12651510  0.25144706  0.66046740  1
  O2-  O164  1  0.12490088  0.50125953  0.16776616  1
  O2-  O165  1  0.12569133  0.49925120  0.66244240  1
  O2-  O166  1  0.12468369  0.75140143  0.16509002  1
  O2-  O167  1  0.12571066  0.75132256  0.66461609  1
  O2-  O168  1  0.37461255  0.00159343  0.16617129  1
  O2-  O169  1  0.37521522  -0.00207659  0.66441335  1
  O2-  O170  1  0.37457812  0.25015048  0.16606172  1
  O2-  O171  1  0.37439918  0.25181692  0.66035695  1
  O2-  O172  1  0.37421744  0.50002409  0.16618380  1
  O2-  O173  1  0.37470030  0.49822969  0.65930758  1
  O2-  O174  1  0.37458187  0.74825874  0.16707142  1
  O2-  O175  1  0.37463650  0.75208343  0.66217929  1
  O2-  O176  1  0.62531062  -0.00011817  0.16773107  1
  O2-  O177  1  0.62409209  -0.00201910  0.66204606  1
  O2-  O178  1  0.62454443  0.24861176  0.16403879  1
  O2-  O179  1  0.62460560  0.25029582  0.66217164  1
  O2-  O180  1  0.62510263  0.49995054  0.16505917  1
  O2-  O181  1  0.62465640  0.50087459  0.66630998  1
  O2-  O182  1  0.62531322  0.75156509  0.16961882  1
  O2-  O183  1  0.62504719  0.75140675  0.66604119  1
  O2-  O184  1  0.87518006  0.00089399  0.16471773  1
  O2-  O185  1  0.87547509  -0.00135998  0.66563226  1
  O2-  O186  1  0.87542790  0.25009703  0.16639677  1
  O2-  O187  1  0.87489180  0.25107376  0.66468176  1
  O2-  O188  1  0.87541081  0.49822761  0.16734789  1
  O2-  O189  1  0.87574717  0.50319653  0.66346203  1
  O2-  O190  1  0.87532208  0.75079153  0.16711965  1
  O2-  O191  1  0.87499548  0.74776934  0.66339179  1
  O2-  O192  1  -0.00121330  0.12469818  0.16528262  1
  O2-  O193  1  0.00177077  0.12490372  0.66560312  1
  O2-  O194  1  -0.00122675  0.37540462  0.16735146  1
  O2-  O195  1  0.00362741  0.37518991  0.66378512  1
  O2-  O196  1  0.00028580  0.62481984  0.16729981  1
  O2-  O197  1  -0.00057448  0.62631120  0.66452281  1
  O2-  O198  1  0.00130001  0.87464956  0.16387190  1
  O2-  O199  1  0.00156020  0.87413486  0.66228863  1
  O2-  O200  1  0.24941743  0.12473582  0.16498946  1
  O2-  O201  1  0.25120158  0.12378023  0.66387354  1
  O2-  O202  1  0.25091352  0.37499942  0.16869192  1
  O2-  O203  1  0.24985604  0.37554860  0.65908432  1
  O2-  O204  1  0.25024757  0.62531592  0.16551633  1
  O2-  O205  1  0.24972071  0.62562730  0.66239868  1
  O2-  O206  1  0.24690281  0.87487341  0.16633926  1
  O2-  O207  1  0.25047003  0.87508431  0.66043344  1
  O2-  O208  1  0.50030702  0.12465176  0.16451952  1
  O2-  O209  1  0.49911947  0.12495097  0.66481123  1
  O2-  O210  1  0.49881455  0.37494362  0.16541436  1
  O2-  O211  1  0.49858557  0.37510362  0.66151907  1
  O2-  O212  1  0.49901533  0.62508395  0.16491625  1
  O2-  O213  1  0.50049124  0.62573154  0.66514130  1
  O2-  O214  1  0.50200517  0.87552757  0.17010189  1
  O2-  O215  1  0.49975404  0.87447376  0.66197406  1
  O2-  O216  1  0.75083943  0.12521957  0.16526842  1
  O2-  O217  1  0.74796272  0.12457747  0.66612017  1
  O2-  O218  1  0.75101781  0.37489064  0.16507897  1
  O2-  O219  1  0.74868554  0.37599109  0.66575916  1
  O2-  O220  1  0.75004223  0.62492460  0.16726441  1
  O2-  O221  1  0.75096980  0.62554974  0.66723318  1
  O2-  O222  1  0.74984436  0.87519356  0.16805694  1
  O2-  O223  1  0.74833109  0.87493233  0.66257727  1
  O2-  O224  1  0.12548671  -0.00174783  0.34625650  1
  O2-  O225  1  0.12510346  -0.00082854  0.84765055  1
  O2-  O226  1  0.12604442  0.25092048  0.34956724  1
  O2-  O227  1  0.12478500  0.24824449  0.84399655  1
  O2-  O228  1  0.12529960  0.49817555  0.35265506  1
  O2-  O229  1  0.12539195  0.50172071  0.84419779  1
  O2-  O230  1  0.12542630  0.75228185  0.35062233  1
  O2-  O231  1  0.12481981  0.75088119  0.84725466  1
  O2-  O232  1  0.37493431  -0.00226583  0.35061534  1
  O2-  O233  1  0.37447810  0.00271129  0.84643200  1
  O2-  O234  1  0.37428912  0.25206700  0.35093714  1
  O2-  O235  1  0.37479978  0.24971449  0.84084501  1
  O2-  O236  1  0.37443623  0.49827284  0.34945693  1
  O2-  O237  1  0.37440438  0.49965415  0.84178757  1
  O2-  O238  1  0.37454833  0.75140268  0.34977903  1
  O2-  O239  1  0.37460675  0.74781069  0.84615676  1
  O2-  O240  1  0.62410334  -0.00163585  0.34970284  1
  O2-  O241  1  0.62519985  0.00113655  0.84589765  1
  O2-  O242  1  0.62430618  0.25022094  0.34517408  1
  O2-  O243  1  0.62515673  0.24809862  0.84531385  1
  O2-  O244  1  0.62450348  0.50001764  0.34832580  1
  O2-  O245  1  0.62497496  0.49965457  0.84916707  1
  O2-  O246  1  0.62436783  0.75131259  0.35369104  1
  O2-  O247  1  0.62489943  0.75156983  0.84910681  1
  O2-  O248  1  0.87521134  -0.00155685  0.34591965  1
  O2-  O249  1  0.87582772  -0.00013402  0.84858517  1
  O2-  O250  1  0.87482955  0.24982499  0.34908622  1
  O2-  O251  1  0.87551776  0.25040109  0.84709831  1
  O2-  O252  1  0.87519584  0.50252040  0.35169463  1
  O2-  O253  1  0.87525458  0.49775919  0.84575475  1
  O2-  O254  1  0.87532530  0.74921782  0.35022139  1
  O2-  O255  1  0.87580879  0.75204413  0.84679555  1
  O2-  O256  1  0.00099985  0.12451473  0.34658465  1
  O2-  O257  1  0.00034615  0.12430617  0.84855693  1
  O2-  O258  1  0.00259996  0.37489123  0.35134021  1
  O2-  O259  1  -0.00161084  0.37462812  0.84666525  1
  O2-  O260  1  -0.00183380  0.62590908  0.35222724  1
  O2-  O261  1  0.00194788  0.62543341  0.84572193  1
  O2-  O262  1  0.00099576  0.87434670  0.34788703  1
  O2-  O263  1  0.00194249  0.87541547  0.84656844  1
  O2-  O264  1  0.24941986  0.12400725  0.34872848  1
  O2-  O265  1  0.24990863  0.12494980  0.84365134  1
  O2-  O266  1  0.25001246  0.37505049  0.35348922  1
  O2-  O267  1  0.25184466  0.37474853  0.84162891  1
  O2-  O268  1  0.25055453  0.62561688  0.34883861  1
  O2-  O269  1  0.24955109  0.62532588  0.84279683  1
  O2-  O270  1  0.25029548  0.87513659  0.35239045  1
  O2-  O271  1  0.24565502  0.87483505  0.84467304  1
  O2-  O272  1  0.50084358  0.12464819  0.34816866  1
  O2-  O273  1  0.49991305  0.12473452  0.84488719  1
  O2-  O274  1  0.49900915  0.37502020  0.34811181  1
  O2-  O275  1  0.49800991  0.37489830  0.84478826  1
  O2-  O276  1  0.49974102  0.62539932  0.34772432  1
  O2-  O277  1  0.49848568  0.62500760  0.84731834  1
  O2-  O278  1  0.49976088  0.87473532  0.35419391  1
  O2-  O279  1  0.50196730  0.87544209  0.84696408  1
  O2-  O280  1  0.74847461  0.12415351  0.34572761  1
  O2-  O281  1  0.75017111  0.12439795  0.84922771  1
  O2-  O282  1  0.74806152  0.37570321  0.34736200  1
  O2-  O283  1  0.75172442  0.37425949  0.84897069  1
  O2-  O284  1  0.75125333  0.62599055  0.35125650  1
  O2-  O285  1  0.74997031  0.62571313  0.84996900  1
  O2-  O286  1  0.74853280  0.87425472  0.35014464  1
  O2-  O287  1  0.75092049  0.87574535  0.84760324  1
