# generated using pymatgen
data_BaYFeCuO5
_symmetry_space_group_name_H-M   'P 1'
_cell_length_a   15.66724817
_cell_length_b   15.67184880
_cell_length_c   15.47926989
_cell_angle_alpha   89.99813017
_cell_angle_beta   89.99727883
_cell_angle_gamma   90.00120727
_symmetry_Int_Tables_number   1
_chemical_formula_structural   BaYFeCuO5
_chemical_formula_sum   'Ba32 Y32 Fe32 Cu32 O160'
_cell_volume   3800.69856940
_cell_formula_units_Z   32
loop_
 _symmetry_equiv_pos_site_id
 _symmetry_equiv_pos_as_xyz
  1  'x, y, z'
loop_
 _atom_type_symbol
 _atom_type_oxidation_number
  Ba2+  2.0
  Y3+  3.0
  Fe3+  3.0
  Cu2+  2.0
  O2-  -2.0
loop_
 _atom_site_type_symbol
 _atom_site_label
 _atom_site_symmetry_multiplicity
 _atom_site_fract_x
 _atom_site_fract_y
 _atom_site_fract_z
 _atom_site_occupancy
  Ba2+  Ba0  1  -0.00907778  -0.00166555  0.00675134  1
  Ba2+  Ba1  1  -0.00051032  -0.00659625  0.51745549  1
  Ba2+  Ba2  1  -0.00465791  0.25607100  0.01282116  1
  Ba2+  Ba3  1  -0.00194627  0.25682375  0.51705073  1
  Ba2+  Ba4  1  0.00317344  0.50386361  0.01318487  1
  Ba2+  Ba5  1  0.00317582  0.50328595  0.51075095  1
  Ba2+  Ba6  1  -0.00098785  0.74179555  0.00775621  1
  Ba2+  Ba7  1  0.00434781  0.74669497  0.51134137  1
  Ba2+  Ba8  1  0.25513489  -0.00611670  0.00131621  1
  Ba2+  Ba9  1  0.25463093  -0.00694124  0.50670200  1
  Ba2+  Ba10  1  0.25141050  0.26220211  0.00170328  1
  Ba2+  Ba11  1  0.24944720  0.24994772  0.50594179  1
  Ba2+  Ba12  1  0.24877909  0.50155729  -0.00428828  1
  Ba2+  Ba13  1  0.24054228  0.50412976  0.51135272  1
  Ba2+  Ba14  1  0.25210031  0.74161146  -0.00465750  1
  Ba2+  Ba15  1  0.24505163  0.75189011  0.51217179  1
  Ba2+  Ba16  1  0.50632696  -0.00516385  0.01405717  1
  Ba2+  Ba17  1  0.49103564  0.00382779  0.51070509  1
  Ba2+  Ba18  1  0.49793173  0.25314020  0.01149601  1
  Ba2+  Ba19  1  0.50215031  0.24305868  0.51828088  1
  Ba2+  Ba20  1  0.49205848  0.50231524  0.00552636  1
  Ba2+  Ba21  1  0.50069393  0.49837330  0.51607798  1
  Ba2+  Ba22  1  0.50002066  0.74843800  0.00704407  1
  Ba2+  Ba23  1  0.48921191  0.75319899  0.51137762  1
  Ba2+  Ba24  1  0.74865078  -0.00105446  0.01626993  1
  Ba2+  Ba25  1  0.75359842  0.00586365  0.52057386  1
  Ba2+  Ba26  1  0.75393418  0.24576663  0.01899538  1
  Ba2+  Ba27  1  0.75053849  0.25029868  0.52432778  1
  Ba2+  Ba28  1  0.75460291  0.50536466  0.02256095  1
  Ba2+  Ba29  1  0.75854187  0.49731701  0.51483810  1
  Ba2+  Ba30  1  0.74867201  0.74941110  0.01896007  1
  Ba2+  Ba31  1  0.76132685  0.74811755  0.51056138  1
  Y3+  Y32  1  0.00151011  -0.00108172  0.25763416  1
  Y3+  Y33  1  -0.00074240  -0.00278943  0.75676309  1
  Y3+  Y34  1  0.00085128  0.25162573  0.25723244  1
  Y3+  Y35  1  0.00108954  0.25282154  0.75645390  1
  Y3+  Y36  1  0.00157445  0.50289662  0.26046917  1
  Y3+  Y37  1  0.00298815  0.50130099  0.75472607  1
  Y3+  Y38  1  0.00242256  0.74655720  0.26143512  1
  Y3+  Y39  1  0.00112225  0.74869856  0.75496086  1
  Y3+  Y40  1  0.25131150  -0.00120258  0.26324871  1
  Y3+  Y41  1  0.25138475  -0.00247140  0.75401449  1
  Y3+  Y42  1  0.25047680  0.25126359  0.25967754  1
  Y3+  Y43  1  0.25010653  0.25297840  0.75685686  1
  Y3+  Y44  1  0.24662704  0.50002578  0.25941306  1
  Y3+  Y45  1  0.24785481  0.50134894  0.75746289  1
  Y3+  Y46  1  0.24724096  0.74978156  0.26317400  1
  Y3+  Y47  1  0.24961346  0.74848720  0.75469652  1
  Y3+  Y48  1  0.49870060  0.00054586  0.26010825  1
  Y3+  Y49  1  0.49733043  -0.00000497  0.75417507  1
  Y3+  Y50  1  0.49754395  0.24941193  0.25608227  1
  Y3+  Y51  1  0.49890447  0.25021371  0.75713313  1
  Y3+  Y52  1  0.49911269  0.49913106  0.25537863  1
  Y3+  Y53  1  0.49749237  0.49940202  0.75754585  1
  Y3+  Y54  1  0.50011854  0.75067575  0.25974858  1
  Y3+  Y55  1  0.49559622  0.75040159  0.75565028  1
  Y3+  Y56  1  0.74841511  0.00078269  0.25426768  1
  Y3+  Y57  1  0.75191792  -0.00032418  0.75606474  1
  Y3+  Y58  1  0.75098396  0.24950003  0.25260026  1
  Y3+  Y59  1  0.74995096  0.25058557  0.75504276  1
  Y3+  Y60  1  0.75274426  0.50238388  0.25833608  1
  Y3+  Y61  1  0.75160119  0.49958718  0.75185868  1
  Y3+  Y62  1  0.75029420  0.74770693  0.25913869  1
  Y3+  Y63  1  0.75363504  0.75042122  0.75386733  1
  Fe3+  Fe64  1  0.12474330  0.12538012  0.88031344  1
  Fe3+  Fe65  1  0.87498180  0.87591331  0.37678296  1
  Fe3+  Fe66  1  0.12402049  0.12489140  0.38061364  1
  Fe3+  Fe67  1  0.37530523  0.12465283  0.87948739  1
  Fe3+  Fe68  1  0.62635836  0.37600618  0.87873827  1
  Fe3+  Fe69  1  0.62526649  0.12489423  0.87637187  1
  Fe3+  Fe70  1  0.87417118  0.62496871  0.87419517  1
  Fe3+  Fe71  1  0.62567089  0.87419057  0.87342366  1
  Fe3+  Fe72  1  0.62598905  0.12619807  0.37544569  1
  Fe3+  Fe73  1  0.62572347  0.37387546  0.37677413  1
  Fe3+  Fe74  1  0.12421162  0.87416076  0.87935021  1
  Fe3+  Fe75  1  0.62610520  0.62492321  0.87435367  1
  Fe3+  Fe76  1  0.87446554  0.37671388  0.87610268  1
  Fe3+  Fe77  1  0.87492230  0.37428053  0.37498311  1
  Fe3+  Fe78  1  0.87484433  0.12554581  0.37604090  1
  Fe3+  Fe79  1  0.62492734  0.62422236  0.38044462  1
  Fe3+  Fe80  1  0.87465011  0.12527438  0.87517795  1
  Fe3+  Fe81  1  0.37539568  0.37520828  0.38048180  1
  Fe3+  Fe82  1  0.37461750  0.62406065  0.38030507  1
  Fe3+  Fe83  1  0.62564722  0.87591454  0.38050834  1
  Fe3+  Fe84  1  0.87583139  0.87342604  0.13848523  1
  Fe3+  Fe85  1  0.62478903  0.62574149  0.63344938  1
  Fe3+  Fe86  1  0.12614026  0.87361523  0.13475950  1
  Fe3+  Fe87  1  0.37305852  0.62479909  0.14045078  1
  Fe3+  Fe88  1  0.37386193  0.37541347  0.63612111  1
  Fe3+  Fe89  1  0.12560020  0.37632965  0.13920132  1
  Fe3+  Fe90  1  0.62487526  0.37613188  0.13395381  1
  Fe3+  Fe91  1  0.12554525  0.12471943  0.63661159  1
  Fe3+  Fe92  1  0.12594923  0.12410197  0.13382122  1
  Fe3+  Fe93  1  0.37361951  0.12485777  0.13502407  1
  Fe3+  Fe94  1  0.62491698  0.87530436  0.63294474  1
  Fe3+  Fe95  1  0.37425832  0.87336035  0.13936041  1
  Cu2+  Cu96  1  0.87435334  0.87404303  0.86392211  1
  Cu2+  Cu97  1  0.87544544  0.62464560  0.37430420  1
  Cu2+  Cu98  1  0.12384333  0.62494072  0.87140372  1
  Cu2+  Cu99  1  0.12415603  0.37468073  0.37518571  1
  Cu2+  Cu100  1  0.12404140  0.87541701  0.37457001  1
  Cu2+  Cu101  1  0.37567478  0.37511520  0.87155291  1
  Cu2+  Cu102  1  0.12516515  0.62479445  0.37147659  1
  Cu2+  Cu103  1  0.12369753  0.37526481  0.86258287  1
  Cu2+  Cu104  1  0.37526190  0.87435155  0.37276518  1
  Cu2+  Cu105  1  0.37549247  0.62516485  0.85888059  1
  Cu2+  Cu106  1  0.37553705  0.87506748  0.86309306  1
  Cu2+  Cu107  1  0.37513798  0.12605051  0.37379204  1
  Cu2+  Cu108  1  0.12665946  0.62595764  0.14329887  1
  Cu2+  Cu109  1  0.62368614  0.12528061  0.14826024  1
  Cu2+  Cu110  1  0.37438311  0.62419289  0.64704992  1
  Cu2+  Cu111  1  0.87684252  0.12558098  0.65200482  1
  Cu2+  Cu112  1  0.62470793  0.12429020  0.65260620  1
  Cu2+  Cu113  1  0.87552274  0.87466671  0.65050209  1
  Cu2+  Cu114  1  0.37283661  0.12571499  0.64332371  1
  Cu2+  Cu115  1  0.37313293  0.37611669  0.14239521  1
  Cu2+  Cu116  1  0.87659018  0.62486945  0.64051566  1
  Cu2+  Cu117  1  0.62369383  0.62490508  0.15309746  1
  Cu2+  Cu118  1  0.37411834  0.87455180  0.64334668  1
  Cu2+  Cu119  1  0.62433006  0.37516579  0.64991915  1
  Cu2+  Cu120  1  0.12512180  0.87482623  0.64383833  1
  Cu2+  Cu121  1  0.87626221  0.62614687  0.15526605  1
  Cu2+  Cu122  1  0.87605892  0.37531889  0.65171525  1
  Cu2+  Cu123  1  0.62402611  0.87411424  0.15527031  1
  Cu2+  Cu124  1  0.87662308  0.12390964  0.15043708  1
  Cu2+  Cu125  1  0.12534570  0.62532300  0.64606048  1
  Cu2+  Cu126  1  0.12556584  0.37529095  0.64188377  1
  Cu2+  Cu127  1  0.87592472  0.37627555  0.15089063  1
  O2-  O128  1  0.12515670  0.12500913  0.00718750  1
  O2-  O129  1  0.12389390  0.12439020  0.50801776  1
  O2-  O130  1  0.12506447  0.37630723  0.01828568  1
  O2-  O131  1  0.12429400  0.37327966  0.50812698  1
  O2-  O132  1  0.12564287  0.62511741  0.00729696  1
  O2-  O133  1  0.12441500  0.62577612  0.50884959  1
  O2-  O134  1  0.12548281  0.87396922  0.00791942  1
  O2-  O135  1  0.12395295  0.87651592  0.50824208  1
  O2-  O136  1  0.37505524  0.12398972  0.00724172  1
  O2-  O137  1  0.37442183  0.12690721  0.50779238  1
  O2-  O138  1  0.37572731  0.37605010  0.00687468  1
  O2-  O139  1  0.37617218  0.37428422  0.50758283  1
  O2-  O140  1  0.37485143  0.62550076  0.01959451  1
  O2-  O141  1  0.37629553  0.62241566  0.50064936  1
  O2-  O142  1  0.37607008  0.87346934  0.01880896  1
  O2-  O143  1  0.37540717  0.87551021  0.50855327  1
  O2-  O144  1  0.62577538  0.12353311  -0.00380700  1
  O2-  O145  1  0.62719294  0.12681599  0.49567381  1
  O2-  O146  1  0.62620282  0.37707724  0.00507456  1
  O2-  O147  1  0.62562433  0.37234416  0.49638281  1
  O2-  O148  1  0.62661074  0.62593928  -0.00570623  1
  O2-  O149  1  0.62485673  0.62405411  0.50618759  1
  O2-  O150  1  0.62579832  0.87326591  -0.00614427  1
  O2-  O151  1  0.62600647  0.87709768  0.50611065  1
  O2-  O152  1  0.87430870  0.12469891  -0.00447641  1
  O2-  O153  1  0.87448778  0.12659189  0.49583335  1
  O2-  O154  1  0.87297137  0.37671840  -0.00378580  1
  O2-  O155  1  0.87320073  0.37177143  0.49546014  1
  O2-  O156  1  0.87229300  0.62547130  -0.00532474  1
  O2-  O157  1  0.87544645  0.62395654  0.50677915  1
  O2-  O158  1  0.87399415  0.87311634  0.01780658  1
  O2-  O159  1  0.87388163  0.87856344  0.49711051  1
  O2-  O160  1  0.12605771  -0.00051534  0.16232787  1
  O2-  O161  1  0.12447287  0.00246714  0.66787573  1
  O2-  O162  1  0.12496452  0.24816650  0.16451479  1
  O2-  O163  1  0.12513549  0.24763959  0.66556039  1
  O2-  O164  1  0.12463782  0.49933021  0.16898309  1
  O2-  O165  1  0.12544690  0.50085648  0.66432683  1
  O2-  O166  1  0.12541464  0.75333592  0.16736712  1
  O2-  O167  1  0.12528551  0.74935505  0.66647212  1
  O2-  O168  1  0.37484165  0.00065115  0.16543022  1
  O2-  O169  1  0.37425490  0.00030430  0.66644887  1
  O2-  O170  1  0.37409749  0.24726570  0.16295093  1
  O2-  O171  1  0.37491361  0.25314354  0.66615635  1
  O2-  O172  1  0.37489515  0.50138040  0.16942963  1
  O2-  O173  1  0.37590740  0.49824002  0.66307850  1
  O2-  O174  1  0.37571862  0.75027792  0.17171778  1
  O2-  O175  1  0.37461090  0.74825173  0.66497766  1
  O2-  O176  1  0.62413109  0.00019411  0.16341240  1
  O2-  O177  1  0.62533075  -0.00147917  0.66225332  1
  O2-  O178  1  0.62485442  0.25191885  0.15819378  1
  O2-  O179  1  0.62425962  0.24925908  0.66649968  1
  O2-  O180  1  0.62569213  0.49855336  0.16462402  1
  O2-  O181  1  0.62450429  0.50166227  0.66147150  1
  O2-  O182  1  0.62412439  0.74905888  0.16876077  1
  O2-  O183  1  0.62520078  0.75071195  0.65786478  1
  O2-  O184  1  0.87481500  -0.00145056  0.16416493  1
  O2-  O185  1  0.87596416  0.00032799  0.66515426  1
  O2-  O186  1  0.87629803  0.24907314  0.15951959  1
  O2-  O187  1  0.87574006  0.25061480  0.66514225  1
  O2-  O188  1  0.87482570  0.50208003  0.16495774  1
  O2-  O189  1  0.87455255  0.49857855  0.66194336  1
  O2-  O190  1  0.87479449  0.75052212  0.16921088  1
  O2-  O191  1  0.87534369  0.75080073  0.66312149  1
  O2-  O192  1  0.00294205  0.12350233  0.16229178  1
  O2-  O193  1  0.00194747  0.12518327  0.66478219  1
  O2-  O194  1  0.00049240  0.37467323  0.16538891  1
  O2-  O195  1  -0.00049991  0.37469580  0.66530268  1
  O2-  O196  1  -0.00000056  0.62604439  0.16490434  1
  O2-  O197  1  0.00122170  0.62518352  0.66594886  1
  O2-  O198  1  0.00202735  0.87607855  0.16325604  1
  O2-  O199  1  -0.00126128  0.87529918  0.66765605  1
  O2-  O200  1  0.24967084  0.12436630  0.16606991  1
  O2-  O201  1  0.24679430  0.12534825  0.66948826  1
  O2-  O202  1  0.24748331  0.37389823  0.17184897  1
  O2-  O203  1  0.25242015  0.37505407  0.66586528  1
  O2-  O204  1  0.25130968  0.62579392  0.17169925  1
  O2-  O205  1  0.25007359  0.62458486  0.66659277  1
  O2-  O206  1  0.24944596  0.87599043  0.16781969  1
  O2-  O207  1  0.24984315  0.87501799  0.66859660  1
  O2-  O208  1  0.49716913  0.12510689  0.16235119  1
  O2-  O209  1  0.50031449  0.12535332  0.66574674  1
  O2-  O210  1  0.50262076  0.37499030  0.16327036  1
  O2-  O211  1  0.49810075  0.37466965  0.66404112  1
  O2-  O212  1  0.49878749  0.62469902  0.16819684  1
  O2-  O213  1  0.50238303  0.62509913  0.66267885  1
  O2-  O214  1  0.49925363  0.87530929  0.16824477  1
  O2-  O215  1  0.50272629  0.87508507  0.66275306  1
  O2-  O216  1  0.75027621  0.12458526  0.15963810  1
  O2-  O217  1  0.75096892  0.12516057  0.66170208  1
  O2-  O218  1  0.74952704  0.37504458  0.15993520  1
  O2-  O219  1  0.75009944  0.37424034  0.66191535  1
  O2-  O220  1  0.74968142  0.62586553  0.16471739  1
  O2-  O221  1  0.74714919  0.62518909  0.65976212  1
  O2-  O222  1  0.74936112  0.87421092  0.16478614  1
  O2-  O223  1  0.74888921  0.87547158  0.65994984  1
  O2-  O224  1  0.12454348  0.00355778  0.34693380  1
  O2-  O225  1  0.12523383  0.00012438  0.85314540  1
  O2-  O226  1  0.12515788  0.24658281  0.34805199  1
  O2-  O227  1  0.12537818  0.24787495  0.85040913  1
  O2-  O228  1  0.12464308  0.50052855  0.35156877  1
  O2-  O229  1  0.12511445  0.49908433  0.84788491  1
  O2-  O230  1  0.12490904  0.74915104  0.35087979  1
  O2-  O231  1  0.12492274  0.75290818  0.85026730  1
  O2-  O232  1  0.37553394  -0.00038879  0.34891324  1
  O2-  O233  1  0.37483451  0.00234772  0.85022619  1
  O2-  O234  1  0.37519793  0.25358478  0.34687289  1
  O2-  O235  1  0.37459310  0.24635015  0.84978911  1
  O2-  O236  1  0.37669007  0.49865216  0.35014775  1
  O2-  O237  1  0.37542247  0.50100003  0.84719162  1
  O2-  O238  1  0.37607406  0.74762735  0.35166611  1
  O2-  O239  1  0.37585799  0.75000926  0.84950115  1
  O2-  O240  1  0.62520773  -0.00017164  0.34701091  1
  O2-  O241  1  0.62471338  0.00029581  0.84448091  1
  O2-  O242  1  0.62503351  0.25042912  0.33975245  1
  O2-  O243  1  0.62498699  0.25094508  0.84984872  1
  O2-  O244  1  0.62437686  0.50002535  0.34832718  1
  O2-  O245  1  0.62504122  0.49904126  0.84530311  1
  O2-  O246  1  0.62513484  0.74998631  0.35385377  1
  O2-  O247  1  0.62436254  0.74964805  0.84027932  1
  O2-  O248  1  0.87440290  0.00094279  0.34366832  1
  O2-  O249  1  0.87491234  0.00035802  0.84847114  1
  O2-  O250  1  0.87456584  0.24931744  0.34079163  1
  O2-  O251  1  0.87503214  0.25035937  0.84644503  1
  O2-  O252  1  0.87432025  0.49830709  0.34817558  1
  O2-  O253  1  0.87403092  0.50007366  0.84275209  1
  O2-  O254  1  0.87386305  0.75174700  0.35069677  1
  O2-  O255  1  0.87454157  0.74946596  0.84569375  1
  O2-  O256  1  0.00025110  0.12504324  0.34599413  1
  O2-  O257  1  0.00115865  0.12445206  0.84865579  1
  O2-  O258  1  -0.00179928  0.37379283  0.34665332  1
  O2-  O259  1  -0.00091856  0.37442321  0.84838997  1
  O2-  O260  1  0.00130732  0.62512236  0.34929280  1
  O2-  O261  1  -0.00223828  0.62505379  0.84782235  1
  O2-  O262  1  -0.00228458  0.87603564  0.34512987  1
  O2-  O263  1  0.00129604  0.87623485  0.85239576  1
  O2-  O264  1  0.24734022  0.12516799  0.35154616  1
  O2-  O265  1  0.24957179  0.12448747  0.85446306  1
  O2-  O266  1  0.25264070  0.37467186  0.35390209  1
  O2-  O267  1  0.24811887  0.37426002  0.85026076  1
  O2-  O268  1  0.25127867  0.62409276  0.35172338  1
  O2-  O269  1  0.25136057  0.62515934  0.85071638  1
  O2-  O270  1  0.24993584  0.87572936  0.35039168  1
  O2-  O271  1  0.24910730  0.87612367  0.85346861  1
  O2-  O272  1  0.50231040  0.12587413  0.34572570  1
  O2-  O273  1  0.49929690  0.12515300  0.84870785  1
  O2-  O274  1  0.49962334  0.37471692  0.34679086  1
  O2-  O275  1  0.50368626  0.37496696  0.84857257  1
  O2-  O276  1  0.50148453  0.62446301  0.34986367  1
  O2-  O277  1  0.50068768  0.62458301  0.84605870  1
  O2-  O278  1  0.50370707  0.87531502  0.35112043  1
  O2-  O279  1  0.50028044  0.87529655  0.84531966  1
  O2-  O280  1  0.75002021  0.12533048  0.34120428  1
  O2-  O281  1  0.74985666  0.12514133  0.84340215  1
  O2-  O282  1  0.74960262  0.37482534  0.34129277  1
  O2-  O283  1  0.74884807  0.37497711  0.84398054  1
  O2-  O284  1  0.74623004  0.62467913  0.34889360  1
  O2-  O285  1  0.74988869  0.62507712  0.83940104  1
  O2-  O286  1  0.74833304  0.87549986  0.34680864  1
  O2-  O287  1  0.74914082  0.87500801  0.84222753  1
