# generated using pymatgen
data_BaYFeCuO5
_symmetry_space_group_name_H-M   'P 1'
_cell_length_a   15.65950089
_cell_length_b   15.66009926
_cell_length_c   15.46054502
_cell_angle_alpha   89.99391456
_cell_angle_beta   90.00188811
_cell_angle_gamma   89.99587371
_symmetry_Int_Tables_number   1
_chemical_formula_structural   BaYFeCuO5
_chemical_formula_sum   'Ba32 Y32 Fe32 Cu32 O160'
_cell_volume   3791.37919294
_cell_formula_units_Z   32
loop_
 _symmetry_equiv_pos_site_id
 _symmetry_equiv_pos_as_xyz
  1  'x, y, z'
loop_
 _atom_type_symbol
 _atom_type_oxidation_number
  Ba2+  2.0
  Y3+  3.0
  Fe3+  3.0
  Cu2+  2.0
  O2-  -2.0
loop_
 _atom_site_type_symbol
 _atom_site_label
 _atom_site_symmetry_multiplicity
 _atom_site_fract_x
 _atom_site_fract_y
 _atom_site_fract_z
 _atom_site_occupancy
  Ba2+  Ba0  1  -0.00163770  -0.00001538  0.00640160  1
  Ba2+  Ba1  1  -0.00614060  -0.00676842  0.50632004  1
  Ba2+  Ba2  1  -0.00220322  0.24963462  0.00644164  1
  Ba2+  Ba3  1  -0.00539208  0.25472017  0.51135321  1
  Ba2+  Ba4  1  0.00087385  0.49816209  0.01296075  1
  Ba2+  Ba5  1  0.00163814  0.50397177  0.51236791  1
  Ba2+  Ba6  1  0.00172093  0.75231742  0.01372960  1
  Ba2+  Ba7  1  0.00041090  0.74864456  0.50627211  1
  Ba2+  Ba8  1  0.23785249  -0.00229086  0.01258984  1
  Ba2+  Ba9  1  0.25586643  -0.00294002  0.50765728  1
  Ba2+  Ba10  1  0.23764345  0.25172929  0.01246888  1
  Ba2+  Ba11  1  0.25244022  0.24802417  0.51146541  1
  Ba2+  Ba12  1  0.23791729  0.49799395  0.01225680  1
  Ba2+  Ba13  1  0.24606891  0.50887724  0.51073796  1
  Ba2+  Ba14  1  0.23825657  0.75270995  0.01202286  1
  Ba2+  Ba15  1  0.24858265  0.74457022  0.50596254  1
  Ba2+  Ba16  1  0.50964310  0.00040541  0.01747017  1
  Ba2+  Ba17  1  0.49509418  0.00614827  0.51578499  1
  Ba2+  Ba18  1  0.51194735  0.25088775  0.01149231  1
  Ba2+  Ba19  1  0.50328893  0.24511735  0.51747330  1
  Ba2+  Ba20  1  0.50678282  0.49368000  0.00643732  1
  Ba2+  Ba21  1  0.50240606  0.50542155  0.51804220  1
  Ba2+  Ba22  1  0.50438261  0.75427152  0.01106717  1
  Ba2+  Ba23  1  0.49349926  0.74409738  0.51676477  1
  Ba2+  Ba24  1  0.75517647  0.00396882  0.01221584  1
  Ba2+  Ba25  1  0.75533684  0.00282308  0.51688194  1
  Ba2+  Ba26  1  0.75329267  0.24881138  0.00650533  1
  Ba2+  Ba27  1  0.74909108  0.25034586  0.51859861  1
  Ba2+  Ba28  1  0.75432930  0.49332483  0.00590119  1
  Ba2+  Ba29  1  0.75013736  0.49980591  0.51796957  1
  Ba2+  Ba30  1  0.75641303  0.75427808  0.01137952  1
  Ba2+  Ba31  1  0.75681282  0.74764471  0.51638294  1
  Y3+  Y32  1  0.00039881  -0.00136388  0.25760782  1
  Y3+  Y33  1  -0.00270377  -0.00184358  0.75866672  1
  Y3+  Y34  1  0.00005019  0.24940657  0.25507272  1
  Y3+  Y35  1  -0.00096516  0.25129872  0.76012956  1
  Y3+  Y36  1  0.00144777  0.50156340  0.25735549  1
  Y3+  Y37  1  0.00220525  0.49905766  0.75727130  1
  Y3+  Y38  1  0.00198719  0.75044355  0.26041735  1
  Y3+  Y39  1  -0.00020333  0.75131343  0.75552833  1
  Y3+  Y40  1  0.24753868  -0.00038092  0.25928870  1
  Y3+  Y41  1  0.24978433  -0.00074929  0.75647748  1
  Y3+  Y42  1  0.24905123  0.24933139  0.25817524  1
  Y3+  Y43  1  0.24821752  0.25120826  0.75646764  1
  Y3+  Y44  1  0.24749640  0.50179168  0.25907741  1
  Y3+  Y45  1  0.24700372  0.50029735  0.75511980  1
  Y3+  Y46  1  0.24600442  0.74907918  0.26022207  1
  Y3+  Y47  1  0.24866425  0.74943936  0.75502287  1
  Y3+  Y48  1  0.50063103  0.00131696  0.25811683  1
  Y3+  Y49  1  0.49788961  0.00132547  0.75409987  1
  Y3+  Y50  1  0.50114592  0.24971239  0.25647201  1
  Y3+  Y51  1  0.50154976  0.24994027  0.75694619  1
  Y3+  Y52  1  0.50002068  0.49936809  0.25601393  1
  Y3+  Y53  1  0.50114282  0.49963041  0.75779393  1
  Y3+  Y54  1  0.49969195  0.74943817  0.25715148  1
  Y3+  Y55  1  0.49786355  0.74915283  0.75551688  1
  Y3+  Y56  1  0.75148117  0.00045888  0.25644542  1
  Y3+  Y57  1  0.75493837  0.00085036  0.75706338  1
  Y3+  Y58  1  0.75036274  0.24961465  0.25316000  1
  Y3+  Y59  1  0.75089870  0.24993394  0.76082527  1
  Y3+  Y60  1  0.75139993  0.49845326  0.25470789  1
  Y3+  Y61  1  0.74912489  0.49854414  0.75937183  1
  Y3+  Y62  1  0.75246734  0.75120427  0.25781121  1
  Y3+  Y63  1  0.75297173  0.75043563  0.75496094  1
  Fe3+  Fe64  1  0.62625655  0.37513518  0.37721233  1
  Fe3+  Fe65  1  0.37397625  0.37439048  0.88008567  1
  Fe3+  Fe66  1  0.62573052  0.87483512  0.38058855  1
  Fe3+  Fe67  1  0.37583926  0.37559052  0.37950209  1
  Fe3+  Fe68  1  0.62607068  0.87564476  0.87462225  1
  Fe3+  Fe69  1  0.37611456  0.87443408  0.37565688  1
  Fe3+  Fe70  1  0.12433711  0.12434874  0.87497472  1
  Fe3+  Fe71  1  0.62541670  0.62488119  0.37564993  1
  Fe3+  Fe72  1  0.62572103  0.62605083  0.87857241  1
  Fe3+  Fe73  1  0.12398331  0.37494287  0.37879935  1
  Fe3+  Fe74  1  0.37404836  0.62484594  0.88087879  1
  Fe3+  Fe75  1  0.87437751  0.12629000  0.37660414  1
  Fe3+  Fe76  1  0.12446659  0.12461683  0.38029182  1
  Fe3+  Fe77  1  0.87597624  0.62527937  0.87726829  1
  Fe3+  Fe78  1  0.62558923  0.12365551  0.87444789  1
  Fe3+  Fe79  1  0.87430631  0.62346772  0.37580911  1
  Fe3+  Fe80  1  0.62568264  0.12530905  0.37612485  1
  Fe3+  Fe81  1  0.12410015  0.62574005  0.87591712  1
  Fe3+  Fe82  1  0.37455980  0.12506318  0.88100383  1
  Fe3+  Fe83  1  0.37451472  0.87551675  0.88030990  1
  Fe3+  Fe84  1  0.12497846  0.87511597  0.63670664  1
  Fe3+  Fe85  1  0.37470208  0.37577702  0.63576442  1
  Fe3+  Fe86  1  0.62685189  0.62504346  0.13342139  1
  Fe3+  Fe87  1  0.37426403  0.12512141  0.13366049  1
  Fe3+  Fe88  1  0.87615864  0.37483729  0.13887368  1
  Fe3+  Fe89  1  0.87503005  0.37564746  0.64084837  1
  Fe3+  Fe90  1  0.37420784  0.37480179  0.13420824  1
  Fe3+  Fe91  1  0.87611645  0.87520825  0.14021271  1
  Fe3+  Fe92  1  0.62452433  0.87519737  0.63438585  1
  Fe3+  Fe93  1  0.37402531  0.62489738  0.13289986  1
  Fe3+  Fe94  1  0.37428402  0.87511835  0.13459225  1
  Fe3+  Fe95  1  0.12340121  0.12480100  0.63478880  1
  Cu2+  Cu96  1  0.12495471  0.87530446  0.36856894  1
  Cu2+  Cu97  1  0.87399023  0.87485922  0.37338947  1
  Cu2+  Cu98  1  0.62515472  0.37433863  0.87245967  1
  Cu2+  Cu99  1  0.87575397  0.37588537  0.86421936  1
  Cu2+  Cu100  1  0.12439868  0.87470568  0.87144156  1
  Cu2+  Cu101  1  0.87456768  0.37483824  0.36285038  1
  Cu2+  Cu102  1  0.37557412  0.12591586  0.37208199  1
  Cu2+  Cu103  1  0.12493287  0.37526408  0.87218880  1
  Cu2+  Cu104  1  0.37581317  0.62406600  0.37065961  1
  Cu2+  Cu105  1  0.87511563  0.87416348  0.86338024  1
  Cu2+  Cu106  1  0.12439384  0.62465474  0.37163202  1
  Cu2+  Cu107  1  0.87558728  0.12476083  0.87339327  1
  Cu2+  Cu108  1  0.12470282  0.12451844  0.15242212  1
  Cu2+  Cu109  1  0.37403473  0.87446872  0.65105517  1
  Cu2+  Cu110  1  0.87540542  0.62410439  0.65283121  1
  Cu2+  Cu111  1  0.62550122  0.12490015  0.15079542  1
  Cu2+  Cu112  1  0.62493377  0.37476357  0.65312708  1
  Cu2+  Cu113  1  0.12478752  0.62536999  0.15193279  1
  Cu2+  Cu114  1  0.87575769  0.87473097  0.64135904  1
  Cu2+  Cu115  1  0.37391033  0.62402206  0.64513962  1
  Cu2+  Cu116  1  0.12400681  0.62577525  0.64257801  1
  Cu2+  Cu117  1  0.87628628  0.12588194  0.65269597  1
  Cu2+  Cu118  1  0.12427200  0.87528099  0.14500170  1
  Cu2+  Cu119  1  0.87577615  0.62530743  0.14889333  1
  Cu2+  Cu120  1  0.62548951  0.87466022  0.15197693  1
  Cu2+  Cu121  1  0.87627372  0.12477911  0.14205975  1
  Cu2+  Cu122  1  0.12438731  0.37462299  0.14459299  1
  Cu2+  Cu123  1  0.12483041  0.37478109  0.64635496  1
  Cu2+  Cu124  1  0.37334898  0.12601422  0.64332783  1
  Cu2+  Cu125  1  0.62547763  0.62561360  0.65364177  1
  Cu2+  Cu126  1  0.62590740  0.37522638  0.14099209  1
  Cu2+  Cu127  1  0.62588554  0.12433644  0.65258847  1
  O2-  O128  1  0.12444959  0.12470357  -0.00366168  1
  O2-  O129  1  0.12463879  0.12472369  0.50709545  1
  O2-  O130  1  0.12366527  0.37472564  0.00742268  1
  O2-  O131  1  0.12541946  0.37475497  0.49924509  1
  O2-  O132  1  0.12385765  0.62544697  -0.00304001  1
  O2-  O133  1  0.12433692  0.62574577  0.50719496  1
  O2-  O134  1  0.12372608  0.87532685  0.00810724  1
  O2-  O135  1  0.12617544  0.87546356  0.51604044  1
  O2-  O136  1  0.37438442  0.12505080  0.00641230  1
  O2-  O137  1  0.37532335  0.12622368  0.50657383  1
  O2-  O138  1  0.37401572  0.37381646  0.00697944  1
  O2-  O139  1  0.37648842  0.37613097  0.50694192  1
  O2-  O140  1  0.37386877  0.62494703  0.00640623  1
  O2-  O141  1  0.37632261  0.62372224  0.50626718  1
  O2-  O142  1  0.37511121  0.87601227  0.00677409  1
  O2-  O143  1  0.37775897  0.87463149  0.49637462  1
  O2-  O144  1  0.62542756  0.12261273  -0.00463336  1
  O2-  O145  1  0.62535582  0.12579548  0.49647206  1
  O2-  O146  1  0.62603122  0.37513288  0.00630955  1
  O2-  O147  1  0.62434834  0.37554905  0.49745135  1
  O2-  O148  1  0.62599818  0.62641268  0.00500771  1
  O2-  O149  1  0.62513159  0.62494505  0.49594064  1
  O2-  O150  1  0.62576799  0.87540189  -0.00482410  1
  O2-  O151  1  0.62386911  0.87417690  0.50616382  1
  O2-  O152  1  0.87573499  0.12461574  0.00682466  1
  O2-  O153  1  0.87332254  0.12722028  0.49723215  1
  O2-  O154  1  0.87644898  0.37452485  0.01748651  1
  O2-  O155  1  0.87322420  0.37578550  0.51996653  1
  O2-  O156  1  0.87611385  0.62644152  -0.00261737  1
  O2-  O157  1  0.87251262  0.62246985  0.49661186  1
  O2-  O158  1  0.87577436  0.87532780  0.01885943  1
  O2-  O159  1  0.87310207  0.87458429  0.50771470  1
  O2-  O160  1  0.12617299  0.00089325  0.16782286  1
  O2-  O161  1  0.12541904  0.00101562  0.66461503  1
  O2-  O162  1  0.12641477  0.24862061  0.16658733  1
  O2-  O163  1  0.12558343  0.24845149  0.66224353  1
  O2-  O164  1  0.12624599  0.50126421  0.16403969  1
  O2-  O165  1  0.12496008  0.49907603  0.66485454  1
  O2-  O166  1  0.12545948  0.74908419  0.16608836  1
  O2-  O167  1  0.12556653  0.75203461  0.66650566  1
  O2-  O168  1  0.37562871  0.00045042  0.16058457  1
  O2-  O169  1  0.37452983  -0.00042907  0.66599198  1
  O2-  O170  1  0.37459626  0.24932152  0.16234685  1
  O2-  O171  1  0.37472993  0.25368634  0.66548455  1
  O2-  O172  1  0.37499468  0.50048846  0.16033998  1
  O2-  O173  1  0.37574885  0.49692582  0.66762715  1
  O2-  O174  1  0.37591311  0.74961022  0.15894041  1
  O2-  O175  1  0.37505519  0.75016737  0.66794676  1
  O2-  O176  1  0.62391481  -0.00043257  0.16501331  1
  O2-  O177  1  0.62331492  -0.00151917  0.65965487  1
  O2-  O178  1  0.62401634  0.24910616  0.16301625  1
  O2-  O179  1  0.62473972  0.24880562  0.66479918  1
  O2-  O180  1  0.62402296  0.50327471  0.16154111  1
  O2-  O181  1  0.62439964  0.50089460  0.66677041  1
  O2-  O182  1  0.62384480  0.74792866  0.16245453  1
  O2-  O183  1  0.62385043  0.75187416  0.66337891  1
  O2-  O184  1  0.87482063  -0.00129622  0.16714413  1
  O2-  O185  1  0.87565058  0.00199656  0.66485912  1
  O2-  O186  1  0.87578437  0.25076268  0.16529095  1
  O2-  O187  1  0.87476851  0.25074279  0.66768112  1
  O2-  O188  1  0.87550334  0.50052641  0.16370325  1
  O2-  O189  1  0.87417982  0.49985331  0.66831074  1
  O2-  O190  1  0.87501179  0.75016647  0.16617690  1
  O2-  O191  1  0.87465285  0.74761764  0.66409372  1
  O2-  O192  1  0.00186235  0.12439275  0.16784737  1
  O2-  O193  1  0.00175540  0.12590420  0.66309800  1
  O2-  O194  1  -0.00101215  0.37538622  0.16906660  1
  O2-  O195  1  -0.00027818  0.37476696  0.66593116  1
  O2-  O196  1  0.00086437  0.62511390  0.16561326  1
  O2-  O197  1  -0.00153301  0.62452466  0.66361561  1
  O2-  O198  1  -0.00113357  0.87477137  0.16991355  1
  O2-  O199  1  0.00165034  0.87534048  0.66600064  1
  O2-  O200  1  0.25196737  0.12471427  0.16418040  1
  O2-  O201  1  0.24627583  0.12548986  0.66492184  1
  O2-  O202  1  0.25315451  0.37473664  0.16464168  1
  O2-  O203  1  0.25111751  0.37514754  0.66334789  1
  O2-  O204  1  0.25195801  0.62534456  0.16367298  1
  O2-  O205  1  0.24946952  0.62444549  0.66680416  1
  O2-  O206  1  0.25319596  0.87512311  0.16419290  1
  O2-  O207  1  0.24962856  0.87571582  0.66737264  1
  O2-  O208  1  0.49816460  0.12514485  0.16038112  1
  O2-  O209  1  0.50054168  0.12557809  0.66606240  1
  O2-  O210  1  0.49645383  0.37497808  0.16204855  1
  O2-  O211  1  0.49937114  0.37507737  0.66484309  1
  O2-  O212  1  0.49928672  0.62512450  0.15807222  1
  O2-  O213  1  0.50070533  0.62471910  0.66857231  1
  O2-  O214  1  0.49806606  0.87479730  0.16106504  1
  O2-  O215  1  0.50057811  0.87459562  0.66385106  1
  O2-  O216  1  0.74877795  0.12448037  0.16278133  1
  O2-  O217  1  0.75084603  0.12457341  0.66446299  1
  O2-  O218  1  0.75205183  0.37537775  0.16544226  1
  O2-  O219  1  0.74941332  0.37524607  0.66756508  1
  O2-  O220  1  0.74872227  0.62578291  0.16005075  1
  O2-  O221  1  0.75027505  0.62499392  0.66551968  1
  O2-  O222  1  0.75034497  0.87440110  0.16644261  1
  O2-  O223  1  0.74718754  0.87507122  0.66259003  1
  O2-  O224  1  0.12522127  0.00178424  0.35169088  1
  O2-  O225  1  0.12613724  0.00097952  0.84637950  1
  O2-  O226  1  0.12536881  0.24888923  0.34954342  1
  O2-  O227  1  0.12605361  0.24823199  0.84587826  1
  O2-  O228  1  0.12531826  0.49793014  0.34706576  1
  O2-  O229  1  0.12635342  0.50228452  0.84743524  1
  O2-  O230  1  0.12538048  0.75097579  0.35024682  1
  O2-  O231  1  0.12573703  0.74862345  0.84754811  1
  O2-  O232  1  0.37555930  -0.00198647  0.34449263  1
  O2-  O233  1  0.37499468  0.00062456  0.85053293  1
  O2-  O234  1  0.37517314  0.25403508  0.34694964  1
  O2-  O235  1  0.37484316  0.24903302  0.85061878  1
  O2-  O236  1  0.37553062  0.49610627  0.34470876  1
  O2-  O237  1  0.37549326  0.50062643  0.85283895  1
  O2-  O238  1  0.37599447  0.75182112  0.34298206  1
  O2-  O239  1  0.37619644  0.74960444  0.85290312  1
  O2-  O240  1  0.62444634  -0.00095212  0.34880510  1
  O2-  O241  1  0.62404674  -0.00054894  0.84153677  1
  O2-  O242  1  0.62499487  0.25052749  0.34454898  1
  O2-  O243  1  0.62380210  0.24757317  0.84777589  1
  O2-  O244  1  0.62482232  0.49943864  0.34286326  1
  O2-  O245  1  0.62400977  0.50340204  0.85147901  1
  O2-  O246  1  0.62462022  0.75102558  0.34611444  1
  O2-  O247  1  0.62360857  0.74911913  0.84701468  1
  O2-  O248  1  0.87474413  0.00227792  0.34854128  1
  O2-  O249  1  0.87491727  -0.00232351  0.84908880  1
  O2-  O250  1  0.87493279  0.24964424  0.34668985  1
  O2-  O251  1  0.87541912  0.25261031  0.85092702  1
  O2-  O252  1  0.87427991  0.49967288  0.34554931  1
  O2-  O253  1  0.87428548  0.50034969  0.85035397  1
  O2-  O254  1  0.87382323  0.74803702  0.34810440  1
  O2-  O255  1  0.87432970  0.74927060  0.84698175  1
  O2-  O256  1  0.00104076  0.12528444  0.35077419  1
  O2-  O257  1  0.00122889  0.12476231  0.84624317  1
  O2-  O258  1  -0.00011230  0.37416365  0.35111928  1
  O2-  O259  1  -0.00109489  0.37543813  0.84884518  1
  O2-  O260  1  -0.00184866  0.62458278  0.34900149  1
  O2-  O261  1  -0.00007762  0.62502026  0.84487029  1
  O2-  O262  1  0.00080395  0.87510707  0.35273940  1
  O2-  O263  1  -0.00147739  0.87473923  0.84869088  1
  O2-  O264  1  0.24687137  0.12539343  0.34932064  1
  O2-  O265  1  0.25181874  0.12507059  0.84778119  1
  O2-  O266  1  0.25031978  0.37451069  0.34866171  1
  O2-  O267  1  0.25335807  0.37486465  0.84769284  1
  O2-  O268  1  0.24975039  0.62460567  0.34831648  1
  O2-  O269  1  0.25161033  0.62538861  0.84910651  1
  O2-  O270  1  0.25044679  0.87520425  0.34796307  1
  O2-  O271  1  0.25373344  0.87481992  0.85047951  1
  O2-  O272  1  0.50267099  0.12548327  0.34322979  1
  O2-  O273  1  0.49795571  0.12445985  0.84872524  1
  O2-  O274  1  0.50036287  0.37513021  0.34520132  1
  O2-  O275  1  0.49611408  0.37502612  0.84982603  1
  O2-  O276  1  0.50297063  0.62448767  0.34076280  1
  O2-  O277  1  0.49933440  0.62531652  0.85309340  1
  O2-  O278  1  0.50251094  0.87483308  0.34418457  1
  O2-  O279  1  0.49822179  0.87496835  0.84785537  1
  O2-  O280  1  0.74952756  0.12512854  0.34389026  1
  O2-  O281  1  0.74910211  0.12431175  0.84781443  1
  O2-  O282  1  0.74968549  0.37515835  0.34660579  1
  O2-  O283  1  0.75167667  0.37527128  0.85068600  1
  O2-  O284  1  0.74906646  0.62454391  0.34160440  1
  O2-  O285  1  0.74905944  0.62571377  0.84921773  1
  O2-  O286  1  0.74651783  0.87503397  0.34868821  1
  O2-  O287  1  0.74957012  0.87408058  0.84579304  1
