# generated using pymatgen
data_La7(Ru4O11)2
_symmetry_space_group_name_H-M   'P 1'
_cell_length_a   23.99191382
_cell_length_b   16.83198203
_cell_length_c   15.42848656
_cell_angle_alpha   89.99999536
_cell_angle_beta   90.00101672
_cell_angle_gamma   90.00041769
_symmetry_Int_Tables_number   1
_chemical_formula_structural   La7(Ru4O11)2
_chemical_formula_sum   'La84 Ru96 O264'
_cell_volume   6230.50828933
_cell_formula_units_Z   12
loop_
 _symmetry_equiv_pos_site_id
 _symmetry_equiv_pos_as_xyz
  1  'x, y, z'
loop_
 _atom_type_symbol
 _atom_type_oxidation_number
  La3+  3.0
  Ru4+  4.0
  O2-  -2.0
loop_
 _atom_site_type_symbol
 _atom_site_label
 _atom_site_symmetry_multiplicity
 _atom_site_fract_x
 _atom_site_fract_y
 _atom_site_fract_z
 _atom_site_occupancy
  La3+  La0  1  0.13981558  -0.00078547  0.12413628  1
  La3+  La1  1  0.14168003  -0.00122469  0.37622543  1
  La3+  La2  1  0.13930210  0.00426981  0.62680639  1
  La3+  La3  1  0.14091500  0.00297014  0.87474395  1
  La3+  La4  1  0.14045489  0.33437268  0.12415943  1
  La3+  La5  1  0.13998924  0.33475274  0.37490562  1
  La3+  La6  1  0.14224707  0.32970942  0.62790440  1
  La3+  La7  1  0.14358403  0.33110823  0.87665016  1
  La3+  La8  1  0.14336189  0.66291567  0.12522430  1
  La3+  La9  1  0.14144469  0.66560884  0.37212246  1
  La3+  La10  1  0.14099645  0.66682921  0.62386188  1
  La3+  La11  1  0.13800543  0.66339355  0.87321786  1
  La3+  La12  1  0.64228131  0.00062931  0.13120997  1
  La3+  La13  1  0.63535661  0.00149831  0.37135327  1
  La3+  La14  1  0.64131494  0.00100276  0.62592098  1
  La3+  La15  1  0.64017097  0.00027938  0.87146453  1
  La3+  La16  1  0.64012511  0.33673120  0.12593365  1
  La3+  La17  1  0.63910178  0.33757952  0.37649158  1
  La3+  La18  1  0.63716180  0.33489274  0.62504246  1
  La3+  La19  1  0.64680674  0.33458828  0.87593323  1
  La3+  La20  1  0.63622856  0.66565226  0.12492769  1
  La3+  La21  1  0.63890038  0.66521464  0.37610017  1
  La3+  La22  1  0.63916661  0.66559836  0.62896913  1
  La3+  La23  1  0.64263041  0.66293086  0.87352663  1
  La3+  La24  1  0.35981074  -0.00142628  0.12378402  1
  La3+  La25  1  0.36334271  -0.00112325  0.38040462  1
  La3+  La26  1  0.36009329  0.00447867  0.62175745  1
  La3+  La27  1  0.35575715  0.00286114  0.87420892  1
  La3+  La28  1  0.36369297  0.33401469  0.12366347  1
  La3+  La29  1  0.36457209  0.33399700  0.37418238  1
  La3+  La30  1  0.36415906  0.32997320  0.63207474  1
  La3+  La31  1  0.35810564  0.33053437  0.87636708  1
  La3+  La32  1  0.35264204  0.66791962  0.12961591  1
  La3+  La33  1  0.35458884  0.66466246  0.37661176  1
  La3+  La34  1  0.37156592  0.67753902  0.63727186  1
  La3+  La35  1  0.37153655  0.67183758  0.87010371  1
  La3+  La36  1  0.86189734  -0.00103811  0.13164812  1
  La3+  La37  1  0.86464319  -0.00164532  0.36776088  1
  La3+  La38  1  0.86102752  0.00234997  0.62414307  1
  La3+  La39  1  0.86402447  0.00054094  0.87314861  1
  La3+  La40  1  0.86151435  0.33399708  0.12396417  1
  La3+  La41  1  0.86314562  0.33324099  0.37671787  1
  La3+  La42  1  0.85656876  0.32904354  0.62685536  1
  La3+  La43  1  0.85295653  0.33346711  0.87572104  1
  La3+  La44  1  0.86574292  0.66713578  0.12631648  1
  La3+  La45  1  0.86125720  0.66390078  0.37479405  1
  La3+  La46  1  0.85903200  0.66950356  0.63011345  1
  La3+  La47  1  0.85956494  0.66870788  0.87069438  1
  La3+  La48  1  -0.00677912  0.82818200  0.87723036  1
  La3+  La49  1  0.49708740  0.82250886  0.86355136  1
  La3+  La50  1  0.49589343  0.17277231  0.86324707  1
  La3+  La51  1  0.49970784  0.83544645  0.10608541  1
  La3+  La52  1  0.00215456  0.50500916  0.62059690  1
  La3+  La53  1  0.49446562  0.17464836  0.88400941  1
  La3+  La54  1  0.00010054  0.16663108  0.12890298  1
  La3+  La55  1  0.49421285  0.49898681  0.38699727  1
  La3+  La56  1  0.49868294  0.15925409  0.63286470  1
  La3+  La57  1  0.00540829  0.48814428  0.36723366  1
  La3+  La58  1  0.00103554  0.83057652  0.63053724  1
  La3+  La59  1  0.49909096  0.16863116  0.12234632  1
  La3+  La60  1  0.50142483  0.16994759  0.61417157  1
  La3+  La61  1  0.50680236  0.83741313  0.12522499  1
  La3+  La62  1  -0.00086989  0.16033332  0.88152980  1
  La3+  La63  1  0.00381588  0.15668499  0.37211122  1
  La3+  La64  1  0.50113245  0.49950810  0.36713715  1
  La3+  La65  1  -0.00578870  0.84417112  0.38925670  1
  La3+  La66  1  0.48980686  0.84165428  0.62753196  1
  La3+  La67  1  -0.00747781  0.84208302  0.37227661  1
  La3+  La68  1  0.49778553  0.83686005  0.37019965  1
  La3+  La69  1  0.49803090  0.16510910  0.13916605  1
  La3+  La70  1  -0.00193268  0.50110940  0.64208158  1
  La3+  La71  1  0.00604463  0.49773495  0.13592363  1
  La3+  La72  1  0.74977806  0.54880376  0.26660501  1
  La3+  La73  1  0.75005520  0.82929085  0.76956274  1
  La3+  La74  1  0.75008542  0.13560109  0.47979482  1
  La3+  La75  1  0.24931998  0.12983358  0.50970004  1
  La3+  La76  1  0.24988369  0.45348053  0.48410185  1
  La3+  La77  1  0.75046765  0.49967519  0.52765961  1
  La3+  La78  1  0.75036843  0.21822208  0.02221939  1
  La3+  La79  1  0.75118687  0.84082553  0.44968053  1
  La3+  La80  1  0.25044068  0.87460507  0.71129358  1
  La3+  La81  1  0.24983537  0.17825498  0.19825084  1
  La3+  La82  1  0.75109697  0.81828247  0.01438412  1
  La3+  La83  1  0.25043126  0.50129785  -0.01704149  1
  Ru4+  Ru84  1  -0.00113843  -0.00459725  0.00101209  1
  Ru4+  Ru85  1  0.00397804  0.00348687  0.25334855  1
  Ru4+  Ru86  1  -0.00021448  0.00734164  0.49322377  1
  Ru4+  Ru87  1  -0.00128450  0.01001579  0.75724398  1
  Ru4+  Ru88  1  0.00491504  0.34358723  0.00192726  1
  Ru4+  Ru89  1  0.00226278  0.32711377  0.24483049  1
  Ru4+  Ru90  1  0.00280015  0.32310777  0.49741387  1
  Ru4+  Ru91  1  -0.00755056  0.33706892  0.75211375  1
  Ru4+  Ru92  1  -0.00697937  0.66151384  -0.00308581  1
  Ru4+  Ru93  1  -0.00238117  0.67009426  0.25027965  1
  Ru4+  Ru94  1  0.00020572  0.66627096  0.49617359  1
  Ru4+  Ru95  1  0.00576866  0.66280947  0.75358442  1
  Ru4+  Ru96  1  0.49649387  0.00160336  -0.00582467  1
  Ru4+  Ru97  1  0.50062597  0.00263184  0.25734504  1
  Ru4+  Ru98  1  0.50227065  -0.00385306  0.48931246  1
  Ru4+  Ru99  1  0.49787459  -0.00480568  0.74410260  1
  Ru4+  Ru100  1  0.50277176  0.33027610  0.00410326  1
  Ru4+  Ru101  1  0.49679629  0.33533061  0.24243704  1
  Ru4+  Ru102  1  0.49585376  0.32976209  0.50586581  1
  Ru4+  Ru103  1  0.50324826  0.34215409  0.75172026  1
  Ru4+  Ru104  1  0.49941530  0.66154579  0.00924264  1
  Ru4+  Ru105  1  0.49885787  0.66722264  0.24867692  1
  Ru4+  Ru106  1  0.49730189  0.67087033  0.50877838  1
  Ru4+  Ru107  1  0.49804687  0.67356758  0.74427359  1
  Ru4+  Ru108  1  0.11522305  0.16448324  -0.00152331  1
  Ru4+  Ru109  1  0.10745652  0.17250432  0.24981827  1
  Ru4+  Ru110  1  0.10772626  0.17015978  0.50448698  1
  Ru4+  Ru111  1  0.11431988  0.16290856  0.74997273  1
  Ru4+  Ru112  1  0.10812800  0.49389670  -0.00078809  1
  Ru4+  Ru113  1  0.11422586  0.50391213  0.25141308  1
  Ru4+  Ru114  1  0.11089152  0.49705245  0.50014193  1
  Ru4+  Ru115  1  0.11523808  0.50183918  0.75096724  1
  Ru4+  Ru116  1  0.11293196  0.83300652  0.00277593  1
  Ru4+  Ru117  1  0.11243266  0.83129094  0.24671832  1
  Ru4+  Ru118  1  0.11327340  0.82593045  0.49748284  1
  Ru4+  Ru119  1  0.11405311  0.82864030  0.75156316  1
  Ru4+  Ru120  1  0.60961464  0.17112456  0.00067509  1
  Ru4+  Ru121  1  0.61395922  0.16615046  0.25336891  1
  Ru4+  Ru122  1  0.61165956  0.16737337  0.49650223  1
  Ru4+  Ru123  1  0.61484692  0.17199411  0.75237058  1
  Ru4+  Ru124  1  0.61475046  0.49717568  -0.00004516  1
  Ru4+  Ru125  1  0.61476012  0.50511817  0.24629462  1
  Ru4+  Ru126  1  0.61507050  0.50447926  0.50278375  1
  Ru4+  Ru127  1  0.61281251  0.49750869  0.75322328  1
  Ru4+  Ru128  1  0.61237946  0.83096809  0.00002480  1
  Ru4+  Ru129  1  0.61199506  0.83605775  0.25132360  1
  Ru4+  Ru130  1  0.60949622  0.83361136  0.49837305  1
  Ru4+  Ru131  1  0.60999535  0.82917128  0.75183443  1
  Ru4+  Ru132  1  0.38689112  0.16634883  -0.00009325  1
  Ru4+  Ru133  1  0.38340380  0.15854960  0.25283959  1
  Ru4+  Ru134  1  0.38434334  0.17062933  0.49752406  1
  Ru4+  Ru135  1  0.37825076  0.16457867  0.75290568  1
  Ru4+  Ru136  1  0.38941902  0.50686313  0.00094290  1
  Ru4+  Ru137  1  0.38387525  0.50253235  0.24659357  1
  Ru4+  Ru138  1  0.38659466  0.50200114  0.50599771  1
  Ru4+  Ru139  1  0.38649788  0.50309122  0.75040137  1
  Ru4+  Ru140  1  0.38807459  0.83398159  -0.00582937  1
  Ru4+  Ru141  1  0.38614506  0.83265867  0.25367821  1
  Ru4+  Ru142  1  0.38740721  0.83022470  0.50285221  1
  Ru4+  Ru143  1  0.38937031  0.83424461  0.75051264  1
  Ru4+  Ru144  1  0.89101633  0.16653741  0.00012348  1
  Ru4+  Ru145  1  0.88819844  0.16756049  0.24927373  1
  Ru4+  Ru146  1  0.89212195  0.16761497  0.50668726  1
  Ru4+  Ru147  1  0.88752059  0.17163436  0.74830462  1
  Ru4+  Ru148  1  0.88958774  0.50213284  -0.00208390  1
  Ru4+  Ru149  1  0.88883944  0.50231227  0.24947938  1
  Ru4+  Ru150  1  0.88810189  0.50403061  0.49967378  1
  Ru4+  Ru151  1  0.89059224  0.49637269  0.75121137  1
  Ru4+  Ru152  1  0.89022672  0.83228541  0.00240631  1
  Ru4+  Ru153  1  0.88211595  0.82924551  0.24774640  1
  Ru4+  Ru154  1  0.88854708  0.83630813  0.50200678  1
  Ru4+  Ru155  1  0.88453584  0.84017697  0.74882654  1
  Ru4+  Ru156  1  0.74999664  0.70850269  0.49747534  1
  Ru4+  Ru157  1  0.75039640  0.68445023  0.00584449  1
  Ru4+  Ru158  1  0.75036444  0.42425382  0.76358823  1
  Ru4+  Ru159  1  0.74980832  0.23689431  0.25254525  1
  Ru4+  Ru160  1  0.24961634  0.41335443  0.75682819  1
  Ru4+  Ru161  1  0.74993986  0.97323815  0.47987955  1
  Ru4+  Ru162  1  0.25025690  0.74591291  0.01007215  1
  Ru4+  Ru163  1  0.24933725  0.05725576  0.26160193  1
  Ru4+  Ru164  1  0.74999619  0.55365288  0.00657384  1
  Ru4+  Ru165  1  0.75013989  0.09347011  0.75410202  1
  Ru4+  Ru166  1  0.24999494  0.92015116  -0.00173042  1
  Ru4+  Ru167  1  0.24967115  0.30616393  0.26622852  1
  Ru4+  Ru168  1  0.24960590  0.44425784  0.24307710  1
  Ru4+  Ru169  1  0.24941624  0.74953821  0.25850220  1
  Ru4+  Ru170  1  0.74999446  0.57381068  0.76119106  1
  Ru4+  Ru171  1  0.25006833  0.27225473  0.51893339  1
  Ru4+  Ru172  1  0.75028787  0.27414170  0.51008770  1
  Ru4+  Ru173  1  0.25020967  0.60710617  0.50116282  1
  Ru4+  Ru174  1  0.74990878  0.08417877  -0.01570490  1
  Ru4+  Ru175  1  0.74904974  0.75732261  0.24258570  1
  Ru4+  Ru176  1  0.24945461  0.72634583  0.75582426  1
  Ru4+  Ru177  1  0.75012248  0.95245049  0.00718890  1
  Ru4+  Ru178  1  0.75047279  0.40573679  0.25238176  1
  Ru4+  Ru179  1  0.24956197  0.90493114  0.49910009  1
  O2-  O180  1  0.16657523  0.08372742  0.00131784  1
  O2-  O181  1  0.16339940  0.08007294  0.24992530  1
  O2-  O182  1  0.16105160  0.08174827  0.49841254  1
  O2-  O183  1  0.16654623  0.08131877  0.75194875  1
  O2-  O184  1  0.16848551  0.41495415  -0.00404911  1
  O2-  O185  1  0.16948299  0.41618492  0.24953689  1
  O2-  O186  1  0.16020663  0.41024257  0.50311952  1
  O2-  O187  1  0.16459425  0.41341388  0.75184696  1
  O2-  O188  1  0.16517716  0.74913629  -0.00231569  1
  O2-  O189  1  0.17174558  0.74990773  0.25057437  1
  O2-  O190  1  0.16704659  0.74791886  0.49776918  1
  O2-  O191  1  0.16812597  0.74721209  0.75050798  1
  O2-  O192  1  0.66530619  0.07962048  -0.00060669  1
  O2-  O193  1  0.66427755  0.08027246  0.24979090  1
  O2-  O194  1  0.66322266  0.07691672  0.49895852  1
  O2-  O195  1  0.66809274  0.08054658  0.75208597  1
  O2-  O196  1  0.66308570  0.41643435  0.00042123  1
  O2-  O197  1  0.66754005  0.41512499  0.25084552  1
  O2-  O198  1  0.66782773  0.41463852  0.50530860  1
  O2-  O199  1  0.67094799  0.41459806  0.74692792  1
  O2-  O200  1  0.66695060  0.74273666  0.00007880  1
  O2-  O201  1  0.66707236  0.74532127  0.24911790  1
  O2-  O202  1  0.66449755  0.74386904  0.50059489  1
  O2-  O203  1  0.66851881  0.74873218  0.74507201  1
  O2-  O204  1  0.33404567  0.25344014  0.00268468  1
  O2-  O205  1  0.33248989  0.25381350  0.24855096  1
  O2-  O206  1  0.33289347  0.25422434  0.50016644  1
  O2-  O207  1  0.33433603  0.25057911  0.75135494  1
  O2-  O208  1  0.32947494  0.58210032  -0.00718438  1
  O2-  O209  1  0.33460969  0.58464015  0.24932761  1
  O2-  O210  1  0.33163370  0.58614399  0.50164309  1
  O2-  O211  1  0.33837902  0.58506460  0.74878959  1
  O2-  O212  1  0.33512043  0.91930124  0.00184806  1
  O2-  O213  1  0.33576161  0.91644009  0.24951581  1
  O2-  O214  1  0.33232746  0.91853101  0.50075390  1
  O2-  O215  1  0.33773409  0.92130801  0.75068709  1
  O2-  O216  1  0.84140178  0.25512577  -0.00097930  1
  O2-  O217  1  0.83254460  0.25289219  0.25128081  1
  O2-  O218  1  0.83065002  0.25223614  0.49470252  1
  O2-  O219  1  0.83281953  0.25038348  0.75197719  1
  O2-  O220  1  0.83139437  0.58492517  0.00260008  1
  O2-  O221  1  0.83644163  0.59154986  0.25128954  1
  O2-  O222  1  0.82987815  0.58463891  0.49676166  1
  O2-  O223  1  0.83419410  0.58132877  0.75053026  1
  O2-  O224  1  0.83311604  0.92216332  0.00125767  1
  O2-  O225  1  0.83343099  0.91778063  0.24986994  1
  O2-  O226  1  0.83238241  0.92238557  0.49816373  1
  O2-  O227  1  0.83322296  0.92157696  0.75130806  1
  O2-  O228  1  0.16512126  0.25192476  -0.00009480  1
  O2-  O229  1  0.16918686  0.25537322  0.25015657  1
  O2-  O230  1  0.16794225  0.25280134  0.49974555  1
  O2-  O231  1  0.16030978  0.25000120  0.75215047  1
  O2-  O232  1  0.16372141  0.58480411  -0.00566001  1
  O2-  O233  1  0.16628096  0.58398530  0.24821579  1
  O2-  O234  1  0.16813326  0.58753243  0.49859539  1
  O2-  O235  1  0.16732293  0.58672896  0.75332768  1
  O2-  O236  1  0.16851859  0.91836337  -0.00107770  1
  O2-  O237  1  0.16318355  0.91466754  0.24965902  1
  O2-  O238  1  0.16413725  0.91792386  0.50093765  1
  O2-  O239  1  0.16441615  0.92199359  0.75061113  1
  O2-  O240  1  0.66052562  0.25572702  -0.00000482  1
  O2-  O241  1  0.66936095  0.25110692  0.24935806  1
  O2-  O242  1  0.66751900  0.25464995  0.50214888  1
  O2-  O243  1  0.66528698  0.25413954  0.74694247  1
  O2-  O244  1  0.66615824  0.58509106  0.00373124  1
  O2-  O245  1  0.66169647  0.59381432  0.24820065  1
  O2-  O246  1  0.66687043  0.58686437  0.50133253  1
  O2-  O247  1  0.66592455  0.58278046  0.74779512  1
  O2-  O248  1  0.66397200  0.92278560  -0.00146124  1
  O2-  O249  1  0.66438236  0.92023424  0.25004505  1
  O2-  O250  1  0.66538225  0.92141749  0.49888968  1
  O2-  O251  1  0.66422950  0.91854357  0.75224377  1
  O2-  O252  1  0.33673832  0.08084248  0.00110650  1
  O2-  O253  1  0.33292538  0.07524469  0.24980945  1
  O2-  O254  1  0.33605990  0.08004585  0.49724720  1
  O2-  O255  1  0.33405407  0.07663258  0.75172453  1
  O2-  O256  1  0.33171272  0.41591690  -0.00244091  1
  O2-  O257  1  0.32975149  0.41432240  0.24914479  1
  O2-  O258  1  0.33757340  0.41001514  0.50262637  1
  O2-  O259  1  0.33179714  0.41407040  0.74831722  1
  O2-  O260  1  0.33125100  0.74608771  -0.00098559  1
  O2-  O261  1  0.33012243  0.75096813  0.24979497  1
  O2-  O262  1  0.33837578  0.74788154  0.50177007  1
  O2-  O263  1  0.32795268  0.74520402  0.74890751  1
  O2-  O264  1  0.83265182  0.08068439  -0.00014306  1
  O2-  O265  1  0.83712935  0.07976232  0.25057441  1
  O2-  O266  1  0.83674518  0.07990931  0.49772899  1
  O2-  O267  1  0.83189235  0.08347126  0.75153039  1
  O2-  O268  1  0.83967503  0.41816887  0.00097952  1
  O2-  O269  1  0.83465873  0.41265108  0.25131353  1
  O2-  O270  1  0.83413061  0.41541451  0.49998638  1
  O2-  O271  1  0.82903259  0.41604757  0.75195029  1
  O2-  O272  1  0.83314086  0.74257083  -0.00076920  1
  O2-  O273  1  0.82940594  0.74642760  0.24995453  1
  O2-  O274  1  0.83528349  0.74378842  0.49741612  1
  O2-  O275  1  0.83412878  0.74862680  0.75051704  1
  O2-  O276  1  0.54814503  0.10030069  0.48807165  1
  O2-  O277  1  0.53372220  0.21861653  0.25497311  1
  O2-  O278  1  0.95584200  0.76788144  0.50913392  1
  O2-  O279  1  0.45106331  0.23795687  0.50379799  1
  O2-  O280  1  0.54506651  0.09874548  0.99152924  1
  O2-  O281  1  0.95217055  0.42939088  0.24062448  1
  O2-  O282  1  0.46428882  0.45441904  0.75848341  1
  O2-  O283  1  0.95501288  0.42597673  0.51553841  1
  O2-  O284  1  0.04935637  0.90439694  0.73128294  1
  O2-  O285  1  0.54758516  0.57428173  0.48736323  1
  O2-  O286  1  0.03397659  0.44714645  0.95416474  1
  O2-  O287  1  0.54674689  0.90694905  0.76889297  1
  O2-  O288  1  0.45299018  0.90738714  0.24102036  1
  O2-  O289  1  0.54478616  0.77375847  0.69818643  1
  O2-  O290  1  0.54841719  0.09381200  0.76802142  1
  O2-  O291  1  0.96096036  0.54673895  0.03447082  1
  O2-  O292  1  0.44463146  0.75700001  0.72957415  1
  O2-  O293  1  0.45989393  0.42574857  0.96826864  1
  O2-  O294  1  0.54932235  0.57397527  0.23312318  1
  O2-  O295  1  0.55029042  0.09246485  0.25376177  1
  O2-  O296  1  0.54589611  0.90018942  0.48951386  1
  O2-  O297  1  0.05136310  0.57071505  0.48603987  1
  O2-  O298  1  0.04041064  0.88968858  0.96452606  1
  O2-  O299  1  0.46256686  0.55201577  0.96526536  1
  O2-  O300  1  0.55353546  0.43033585  0.48372332  1
  O2-  O301  1  0.45134715  0.76594716  0.75428353  1
  O2-  O302  1  0.44366951  0.23290913  0.23567103  1
  O2-  O303  1  0.54540212  0.75799625  0.48476927  1
  O2-  O304  1  0.54235126  0.42694505  0.51874936  1
  O2-  O305  1  0.54806055  0.42128821  0.25839885  1
  O2-  O306  1  0.03648579  0.77873600  0.28188517  1
  O2-  O307  1  0.45519655  0.23237640  0.73860990  1
  O2-  O308  1  0.04438780  0.90779373  0.76977320  1
  O2-  O309  1  0.95522376  0.09538152  0.23600639  1
  O2-  O310  1  0.95215398  0.75528548  0.77179967  1
  O2-  O311  1  0.45021164  0.09850497  0.25851049  1
  O2-  O312  1  0.47236317  0.55775062  0.00000356  1
  O2-  O313  1  0.05097281  0.76094638  0.76673112  1
  O2-  O314  1  0.45261559  0.08933194  0.51283735  1
  O2-  O315  1  0.54752238  0.90504244  0.00422110  1
  O2-  O316  1  0.96800434  0.44972824  0.79613589  1
  O2-  O317  1  0.44999808  0.56915981  0.26392855  1
  O2-  O318  1  0.95790113  0.55889399  0.45031696  1
  O2-  O319  1  0.95555714  0.90548175  0.26176383  1
  O2-  O320  1  0.96104721  0.21616842  0.46533803  1
  O2-  O321  1  0.94605701  0.24649223  0.23443996  1
  O2-  O322  1  0.94773415  0.76917797  0.73624715  1
  O2-  O323  1  0.46228721  0.77411589  0.22237354  1
  O2-  O324  1  0.43703200  0.25139993  0.72107208  1
  O2-  O325  1  0.41044211  0.62127935  0.05299298  1
  O2-  O326  1  0.93923584  0.07451443  0.03214324  1
  O2-  O327  1  0.43501267  0.92038087  0.47596272  1
  O2-  O328  1  0.56727038  0.41099791  0.28116144  1
  O2-  O329  1  0.93544565  0.74617844  0.02340623  1
  O2-  O330  1  0.93937794  0.92566634  0.53545275  1
  O2-  O331  1  0.94162963  0.25085259  0.22922698  1
  O2-  O332  1  0.92824772  0.39633055  0.68538866  1
  O2-  O333  1  0.05889973  0.59331915  0.28471296  1
  O2-  O334  1  0.93405884  0.92281469  0.97717460  1
  O2-  O335  1  0.08323182  0.72999752  0.19548977  1
  O2-  O336  1  0.57972098  0.73062907  0.80857357  1
  O2-  O337  1  0.42478916  0.73229457  0.77724573  1
  O2-  O338  1  0.42349128  0.39651032  0.78191811  1
  O2-  O339  1  0.94057522  0.25364447  0.72429664  1
  O2-  O340  1  0.92979739  0.61349660  0.93439345  1
  O2-  O341  1  0.43394455  0.40862637  0.47237393  1
  O2-  O342  1  0.93621651  0.91457727  0.28496757  1
  O2-  O343  1  0.93355377  0.74254590  0.22648758  1
  O2-  O344  1  0.06162534  0.26347279  0.57364517  1
  O2-  O345  1  0.92655426  0.28011204  0.55784821  1
  O2-  O346  1  0.43642724  0.74773378  0.97100171  1
  O2-  O347  1  0.43127891  0.07721526  0.52909825  1
  O2-  O348  1  0.06323598  0.25647587  0.17465817  1
  O2-  O349  1  0.93703197  0.07398152  0.53717331  1
  O2-  O350  1  0.06145637  0.26038067  0.31104890  1
  O2-  O351  1  0.05995253  0.73677308  0.42452295  1
  O2-  O352  1  0.06477427  0.40937202  0.22464627  1
  O2-  O353  1  0.06025955  0.07467703  0.96403554  1
  O2-  O354  1  0.43301678  0.26444591  0.22654599  1
  O2-  O355  1  0.56596304  0.40281209  0.78045706  1
  O2-  O356  1  0.07837471  0.93656541  0.05118281  1
  O2-  O357  1  0.92098125  0.60494044  0.55336525  1
  O2-  O358  1  0.06416774  0.58907283  0.73139602  1
  O2-  O359  1  0.06456533  0.26056446  0.43934158  1
  O2-  O360  1  0.06151118  0.07098704  0.71956410  1
  O2-  O361  1  0.93888313  0.59032432  0.22746861  1
  O2-  O362  1  0.42527728  0.40250779  0.03373689  1
  O2-  O363  1  0.06174623  0.06979967  0.53121106  1
  O2-  O364  1  0.93613304  0.07963140  0.77358065  1
  O2-  O365  1  0.06880946  0.75616452  0.56600240  1
  O2-  O366  1  0.56362430  0.73427452  0.03229621  1
  O2-  O367  1  0.42798739  0.71712278  0.31955594  1
  O2-  O368  1  0.43752482  0.59828312  0.53118322  1
  O2-  O369  1  0.43175571  0.40885720  0.27689698  1
  O2-  O370  1  0.58358506  0.27865396  0.28302863  1
  O2-  O371  1  0.07140829  0.38641046  0.05713955  1
  O2-  O372  1  0.25048097  0.01073124  0.07755998  1
  O2-  O373  1  0.24948821  -0.00579307  0.59489891  1
  O2-  O374  1  0.25000171  0.33913131  0.65105826  1
  O2-  O375  1  0.25017163  -0.02606170  0.34283973  1
  O2-  O376  1  0.74945521  0.64043781  0.59635310  1
  O2-  O377  1  0.74983680  0.33853630  0.07279495  1
  O2-  O378  1  0.24946443  0.33615665  0.84659717  1
  O2-  O379  1  0.24994380  -0.00456306  0.90458070  1
  O2-  O380  1  0.24995698  0.00419835  0.42864759  1
  O2-  O381  1  0.74918571  -0.00374982  0.88329225  1
  O2-  O382  1  0.24993358  -0.01976899  0.16237293  1
  O2-  O383  1  0.75026021  0.33673431  0.88969868  1
  O2-  O384  1  0.25031767  0.33323412  0.39926435  1
  O2-  O385  1  0.24978568  0.67232293  0.34114683  1
  O2-  O386  1  0.74971860  0.00637447  0.11584865  1
  O2-  O387  1  0.74993812  0.66497707  0.84636055  1
  O2-  O388  1  0.74983283  -0.00295124  0.68181594  1
  O2-  O389  1  0.24944936  0.66953532  0.09812095  1
  O2-  O390  1  0.25015306  0.66861439  0.59990366  1
  O2-  O391  1  0.74989490  0.66737882  0.68296875  1
  O2-  O392  1  0.74972524  0.32353326  0.16501963  1
  O2-  O393  1  0.74956792  0.32656837  0.35198178  1
  O2-  O394  1  0.74964983  0.66059732  0.38221441  1
  O2-  O395  1  0.74999908  0.01568582  0.59160998  1
  O2-  O396  1  0.24982733  0.51243870  0.60777873  1
  O2-  O397  1  0.25002363  0.17545259  0.63999231  1
  O2-  O398  1  0.74929136  0.82350386  0.57380615  1
  O2-  O399  1  0.74968154  0.16694614  0.33921414  1
  O2-  O400  1  0.74976475  0.49770044  0.13028820  1
  O2-  O401  1  0.24972863  0.48725604  0.13109793  1
  O2-  O402  1  0.74935270  0.82796792  0.14800431  1
  O2-  O403  1  0.25011488  0.50576388  0.35446592  1
  O2-  O404  1  0.24977269  0.49615090  0.83759618  1
  O2-  O405  1  0.74967670  0.15179267  0.88043417  1
  O2-  O406  1  0.25020949  0.51082513  0.69447802  1
  O2-  O407  1  0.74984790  0.17790997  0.61603894  1
  O2-  O408  1  0.74921405  0.83314173  0.32068457  1
  O2-  O409  1  0.24979422  0.83872816  0.40991796  1
  O2-  O410  1  0.74905019  0.84352753  0.88879208  1
  O2-  O411  1  0.24999922  0.16014872  0.35233346  1
  O2-  O412  1  0.74962478  0.50670489  0.90229422  1
  O2-  O413  1  0.24987122  0.82861191  0.93077964  1
  O2-  O414  1  0.25000840  0.16597653  0.84025062  1
  O2-  O415  1  0.74963132  0.48955656  0.39190363  1
  O2-  O416  1  0.24987171  0.82880992  0.58179054  1
  O2-  O417  1  0.75048360  0.83832156  0.65129275  1
  O2-  O418  1  0.24975424  0.82117352  0.84128835  1
  O2-  O419  1  0.74990439  0.16656857  0.16190584  1
  O2-  O420  1  0.46493910  0.33012507  0.12120222  1
  O2-  O421  1  0.97585049  0.66587748  0.12422076  1
  O2-  O422  1  0.03277669  0.65423207  0.10693829  1
  O2-  O423  1  0.47147667  0.32176166  0.36503265  1
  O2-  O424  1  0.02387367  0.01025894  0.13487254  1
  O2-  O425  1  0.47978683  0.67288247  0.12807908  1
  O2-  O426  1  0.46014846  0.00463765  0.37454196  1
  O2-  O427  1  0.53071074  0.65645903  0.89181683  1
  O2-  O428  1  0.97149765  0.34137355  0.37427572  1
  O2-  O429  1  0.04758662  -0.00312084  0.37446387  1
  O2-  O430  1  0.47778643  0.34068394  0.62476228  1
  O2-  O431  1  0.97637687  0.00049761  0.87771904  1
  O2-  O432  1  0.47223200  0.65802935  0.86905949  1
  O2-  O433  1  0.47937264  0.31936332  0.88054903  1
  O2-  O434  1  0.54924428  0.32977684  0.12158512  1
  O2-  O435  1  0.54658515  0.00160059  0.62200811  1
  O2-  O436  1  0.45446476  -0.01045498  0.64061492  1
  O2-  O437  1  0.95644709  0.00894836  0.38412279  1
  O2-  O438  1  0.97248528  0.33683361  0.11269159  1
  O2-  O439  1  0.54516028  -0.00754904  0.37064495  1
  O2-  O440  1  0.03481132  0.65543936  0.62432866  1
  O2-  O441  1  0.53091484  0.33214529  0.39154133  1
  O2-  O442  1  0.96068246  0.67393917  0.64347125  1
  O2-  O443  1  0.47246683  0.00525267  0.12553033  1
