# generated using pymatgen
data_La7(Ru4O11)2
_symmetry_space_group_name_H-M   'P 1'
_cell_length_a   23.98993160
_cell_length_b   16.82986766
_cell_length_c   15.42657838
_cell_angle_alpha   90.00044498
_cell_angle_beta   90.00068304
_cell_angle_gamma   90.00014377
_symmetry_Int_Tables_number   1
_chemical_formula_structural   La7(Ru4O11)2
_chemical_formula_sum   'La84 Ru96 O264'
_cell_volume   6228.44051190
_cell_formula_units_Z   12
loop_
 _symmetry_equiv_pos_site_id
 _symmetry_equiv_pos_as_xyz
  1  'x, y, z'
loop_
 _atom_type_symbol
 _atom_type_oxidation_number
  La3+  3.0
  Ru4+  4.0
  O2-  -2.0
loop_
 _atom_site_type_symbol
 _atom_site_label
 _atom_site_symmetry_multiplicity
 _atom_site_fract_x
 _atom_site_fract_y
 _atom_site_fract_z
 _atom_site_occupancy
  La3+  La0  1  0.13591477  0.00082344  0.12532442  1
  La3+  La1  1  0.13825341  0.00071511  0.37603912  1
  La3+  La2  1  0.13966372  0.00056935  0.62596163  1
  La3+  La3  1  0.13792265  0.00116244  0.87170616  1
  La3+  La4  1  0.13377191  0.33324201  0.12399941  1
  La3+  La5  1  0.13755098  0.33412671  0.37615411  1
  La3+  La6  1  0.13959881  0.33248185  0.62509038  1
  La3+  La7  1  0.13628913  0.33273783  0.87449857  1
  La3+  La8  1  0.13690873  0.66549163  0.12714060  1
  La3+  La9  1  0.13684301  0.66510899  0.37443036  1
  La3+  La10  1  0.13808130  0.66688672  0.62525551  1
  La3+  La11  1  0.13686422  0.66582000  0.87278612  1
  La3+  La12  1  0.63941108  -0.00083309  0.12547814  1
  La3+  La13  1  0.64187702  0.00039630  0.37715241  1
  La3+  La14  1  0.63838293  -0.00059263  0.62235821  1
  La3+  La15  1  0.63848703  -0.00140788  0.87569481  1
  La3+  La16  1  0.63927336  0.33396467  0.12482327  1
  La3+  La17  1  0.64154254  0.33259437  0.37654857  1
  La3+  La18  1  0.63860117  0.33420212  0.62148990  1
  La3+  La19  1  0.63722253  0.33438167  0.87515756  1
  La3+  La20  1  0.64142480  0.66775457  0.12324579  1
  La3+  La21  1  0.63900988  0.66787498  0.37638891  1
  La3+  La22  1  0.64103089  0.66689037  0.62178886  1
  La3+  La23  1  0.64041451  0.66701132  0.87737165  1
  La3+  La24  1  0.36322224  0.00127879  0.12448922  1
  La3+  La25  1  0.36332748  0.00090023  0.37637360  1
  La3+  La26  1  0.36438690  -0.00214383  0.63022206  1
  La3+  La27  1  0.36343109  -0.00211807  0.86852998  1
  La3+  La28  1  0.36075953  0.33406509  0.12421049  1
  La3+  La29  1  0.36073247  0.33267693  0.37732404  1
  La3+  La30  1  0.35826890  0.33170123  0.62599430  1
  La3+  La31  1  0.36147914  0.33220152  0.87173229  1
  La3+  La32  1  0.36109293  0.66681661  0.12658537  1
  La3+  La33  1  0.36185689  0.66700966  0.37446128  1
  La3+  La34  1  0.36091251  0.66782544  0.62665526  1
  La3+  La35  1  0.36353758  0.66656689  0.87283748  1
  La3+  La36  1  0.86084497  -0.00114199  0.12405526  1
  La3+  La37  1  0.85670249  0.00019871  0.37781443  1
  La3+  La38  1  0.86294316  -0.00082924  0.62306375  1
  La3+  La39  1  0.86199848  -0.00273054  0.87871707  1
  La3+  La40  1  0.86160043  0.33369093  0.12627803  1
  La3+  La41  1  0.85829102  0.33345799  0.37717070  1
  La3+  La42  1  0.86143449  0.33401330  0.62283536  1
  La3+  La43  1  0.86272173  0.33527720  0.87458247  1
  La3+  La44  1  0.85947969  0.66799049  0.12194048  1
  La3+  La45  1  0.86057116  0.66708423  0.37748072  1
  La3+  La46  1  0.86004771  0.66720473  0.62306196  1
  La3+  La47  1  0.86079238  0.66823674  0.87618898  1
  La3+  La48  1  0.00015605  0.83155590  0.61965338  1
  La3+  La49  1  0.49818615  0.83679429  0.88332717  1
  La3+  La50  1  0.49872511  0.49833822  0.36899247  1
  La3+  La51  1  0.00237800  0.16570340  0.11159850  1
  La3+  La52  1  0.00429111  0.49354702  0.12305983  1
  La3+  La53  1  0.49747481  0.50421234  0.11575331  1
  La3+  La54  1  0.00017513  0.50021539  0.88617367  1
  La3+  La55  1  0.00139804  0.16747164  0.36528132  1
  La3+  La56  1  0.49951212  0.50560223  0.88921858  1
  La3+  La57  1  0.50290792  0.49565157  0.63449320  1
  La3+  La58  1  -0.00059026  0.83459463  0.86762398  1
  La3+  La59  1  0.50064074  0.49469327  0.87009211  1
  La3+  La60  1  0.00111005  0.16909385  0.88374281  1
  La3+  La61  1  0.49704751  0.16900037  0.62859250  1
  La3+  La62  1  -0.00052005  0.16662312  0.38771337  1
  La3+  La63  1  0.50316442  0.50076676  0.13548917  1
  La3+  La64  1  0.49942459  0.16272952  0.36834952  1
  La3+  La65  1  0.49979314  0.16679570  0.88646225  1
  La3+  La66  1  0.00147604  0.50059885  0.36568662  1
  La3+  La67  1  0.50075520  0.50001186  0.61286233  1
  La3+  La68  1  0.50058942  0.83449814  0.11824677  1
  La3+  La69  1  0.00057052  0.83296099  0.38443077  1
  La3+  La70  1  0.00016828  0.83226898  0.36196807  1
  La3+  La71  1  0.49757158  0.83428363  0.61984791  1
  La3+  La72  1  0.74988412  0.16221599  0.00245635  1
  La3+  La73  1  0.25008842  0.82757848  0.00265269  1
  La3+  La74  1  0.75054290  0.16148368  0.76607484  1
  La3+  La75  1  0.24958502  0.79651163  0.47867885  1
  La3+  La76  1  0.24995714  0.13012564  0.00275846  1
  La3+  La77  1  0.25004642  0.16747693  0.73426429  1
  La3+  La78  1  0.24966127  0.54121249  0.04468624  1
  La3+  La79  1  0.24998689  0.16783847  0.47897542  1
  La3+  La80  1  0.24995848  0.53398571  0.25226402  1
  La3+  La81  1  0.24960847  0.79563808  0.23663383  1
  La3+  La82  1  0.24957462  0.46606232  0.70344501  1
  La3+  La83  1  0.75047841  0.79435256  0.24895852  1
  Ru4+  Ru84  1  0.00293758  -0.00700101  -0.00089000  1
  Ru4+  Ru85  1  -0.00032723  0.00017722  0.24746611  1
  Ru4+  Ru86  1  -0.00023386  0.00178948  0.50199634  1
  Ru4+  Ru87  1  0.00124439  -0.00140331  0.74810307  1
  Ru4+  Ru88  1  -0.00449123  0.33275404  0.00096697  1
  Ru4+  Ru89  1  0.00278080  0.33541141  0.24999129  1
  Ru4+  Ru90  1  0.00230690  0.33285752  0.50360029  1
  Ru4+  Ru91  1  -0.00055735  0.33306043  0.74714061  1
  Ru4+  Ru92  1  0.00083819  0.67084511  0.00311957  1
  Ru4+  Ru93  1  -0.00101250  0.67536973  0.24607760  1
  Ru4+  Ru94  1  0.00157109  0.66709707  0.50201155  1
  Ru4+  Ru95  1  -0.00172756  0.66313739  0.75113124  1
  Ru4+  Ru96  1  0.49956197  -0.00010406  0.00283586  1
  Ru4+  Ru97  1  0.49949043  -0.00005003  0.25128470  1
  Ru4+  Ru98  1  0.49857513  -0.00173523  0.50105074  1
  Ru4+  Ru99  1  0.49568158  -0.00405048  0.74633757  1
  Ru4+  Ru100  1  0.50097584  0.33147002  0.00313261  1
  Ru4+  Ru101  1  0.50142820  0.33438548  0.25009736  1
  Ru4+  Ru102  1  0.50043271  0.33275024  0.50128227  1
  Ru4+  Ru103  1  0.50000768  0.32937030  0.74896592  1
  Ru4+  Ru104  1  0.50109524  0.66730465  0.00056381  1
  Ru4+  Ru105  1  0.49978249  0.67059972  0.24951801  1
  Ru4+  Ru106  1  0.49965042  0.66846581  0.49926643  1
  Ru4+  Ru107  1  0.49938221  0.67641847  0.74708565  1
  Ru4+  Ru108  1  0.11427348  0.16216946  -0.00041144  1
  Ru4+  Ru109  1  0.11224661  0.16803491  0.25031269  1
  Ru4+  Ru110  1  0.11259043  0.16642640  0.49968158  1
  Ru4+  Ru111  1  0.11245808  0.16509635  0.75048377  1
  Ru4+  Ru112  1  0.11408855  0.50580417  -0.00037256  1
  Ru4+  Ru113  1  0.11394073  0.49487134  0.25054736  1
  Ru4+  Ru114  1  0.11160732  0.49911035  0.50072248  1
  Ru4+  Ru115  1  0.11331104  0.49593377  0.75006480  1
  Ru4+  Ru116  1  0.11004890  0.83338971  -0.00034333  1
  Ru4+  Ru117  1  0.11110802  0.83239407  0.25146584  1
  Ru4+  Ru118  1  0.11073087  0.83270314  0.50024436  1
  Ru4+  Ru119  1  0.11474436  0.83378359  0.74987841  1
  Ru4+  Ru120  1  0.61043691  0.16698578  -0.00131555  1
  Ru4+  Ru121  1  0.61571873  0.16524965  0.24969070  1
  Ru4+  Ru122  1  0.61439815  0.16600876  0.50057018  1
  Ru4+  Ru123  1  0.61444050  0.17001631  0.75104373  1
  Ru4+  Ru124  1  0.61493106  0.50367060  -0.00047644  1
  Ru4+  Ru125  1  0.61326437  0.49777031  0.25084654  1
  Ru4+  Ru126  1  0.61491155  0.50009833  0.49951089  1
  Ru4+  Ru127  1  0.61560200  0.49867174  0.74979600  1
  Ru4+  Ru128  1  0.61418483  0.83266455  -0.00019828  1
  Ru4+  Ru129  1  0.61154622  0.83111907  0.25089096  1
  Ru4+  Ru130  1  0.61463100  0.83396197  0.50019143  1
  Ru4+  Ru131  1  0.61334954  0.83299176  0.75015402  1
  Ru4+  Ru132  1  0.38854047  0.16404546  0.00039625  1
  Ru4+  Ru133  1  0.38702814  0.16430874  0.24951986  1
  Ru4+  Ru134  1  0.38781849  0.16601851  0.49950115  1
  Ru4+  Ru135  1  0.38763537  0.16662057  0.75058214  1
  Ru4+  Ru136  1  0.38668388  0.50245521  -0.00064595  1
  Ru4+  Ru137  1  0.38825862  0.50309600  0.25070919  1
  Ru4+  Ru138  1  0.38645082  0.49849225  0.49828248  1
  Ru4+  Ru139  1  0.38352754  0.49636117  0.75041066  1
  Ru4+  Ru140  1  0.38984305  0.83545693  -0.00069222  1
  Ru4+  Ru141  1  0.38960667  0.83343026  0.24931062  1
  Ru4+  Ru142  1  0.38930321  0.83332715  0.50131830  1
  Ru4+  Ru143  1  0.38793726  0.83557930  0.75049806  1
  Ru4+  Ru144  1  0.88633428  0.17004925  0.00008598  1
  Ru4+  Ru145  1  0.88388678  0.16672565  0.25066841  1
  Ru4+  Ru146  1  0.88548248  0.16633096  0.49966374  1
  Ru4+  Ru147  1  0.88983478  0.16783487  0.74979557  1
  Ru4+  Ru148  1  0.88468463  0.50002131  -0.00045045  1
  Ru4+  Ru149  1  0.88554187  0.49892004  0.25074379  1
  Ru4+  Ru150  1  0.88445212  0.50018888  0.50216197  1
  Ru4+  Ru151  1  0.88756420  0.49892026  0.74940155  1
  Ru4+  Ru152  1  0.88563221  0.83231850  0.00093527  1
  Ru4+  Ru153  1  0.88858817  0.83174327  0.25012525  1
  Ru4+  Ru154  1  0.88440298  0.83202493  0.49985380  1
  Ru4+  Ru155  1  0.88516683  0.83811883  0.74848140  1
  Ru4+  Ru156  1  0.75039351  0.03816236  0.73031876  1
  Ru4+  Ru157  1  0.75015805  0.94173149  0.25867173  1
  Ru4+  Ru158  1  0.24997723  0.25917047  -0.01116986  1
  Ru4+  Ru159  1  0.75014385  0.75729463  0.74990348  1
  Ru4+  Ru160  1  0.74990055  0.03232498  0.00290914  1
  Ru4+  Ru161  1  0.75006769  0.90716462  0.74880415  1
  Ru4+  Ru162  1  0.75003737  0.42328007  0.25138076  1
  Ru4+  Ru163  1  0.25007471  0.95874456  0.01589896  1
  Ru4+  Ru164  1  0.24979999  0.94328109  0.25350606  1
  Ru4+  Ru165  1  0.75010387  0.42376673  0.74718438  1
  Ru4+  Ru166  1  0.74996012  0.29430737  -0.00870237  1
  Ru4+  Ru167  1  0.25018838  0.24543574  0.25583860  1
  Ru4+  Ru168  1  0.24994487  0.40726822  -0.00794040  1
  Ru4+  Ru169  1  0.74986423  0.42350879  0.00150334  1
  Ru4+  Ru170  1  0.25006711  0.69812613  -0.00005991  1
  Ru4+  Ru171  1  0.24980189  0.41799924  0.50190520  1
  Ru4+  Ru172  1  0.25022206  0.39827428  0.26567121  1
  Ru4+  Ru173  1  0.74995908  0.57895229  0.74766124  1
  Ru4+  Ru174  1  0.24982222  0.60797670  0.75088232  1
  Ru4+  Ru175  1  0.24959330  0.58059850  0.50208552  1
  Ru4+  Ru176  1  0.24965031  0.08244106  0.24927763  1
  Ru4+  Ru177  1  0.75011859  0.28904753  0.74377489  1
  Ru4+  Ru178  1  0.24992860  0.94139053  0.49953175  1
  Ru4+  Ru179  1  0.74998863  0.57700178  0.24892737  1
  O2-  O180  1  0.16512701  0.07899974  0.00057799  1
  O2-  O181  1  0.16749326  0.07934046  0.24972293  1
  O2-  O182  1  0.16761726  0.08076040  0.49911537  1
  O2-  O183  1  0.16752394  0.08080431  0.74877958  1
  O2-  O184  1  0.16609307  0.41311796  -0.00030537  1
  O2-  O185  1  0.16805484  0.41355985  0.24975038  1
  O2-  O186  1  0.16801300  0.41485236  0.50038890  1
  O2-  O187  1  0.16553846  0.41401870  0.75149826  1
  O2-  O188  1  0.16562547  0.74541419  0.00030251  1
  O2-  O189  1  0.16445053  0.74596743  0.25078125  1
  O2-  O190  1  0.16503113  0.74570101  0.49895874  1
  O2-  O191  1  0.16795006  0.74697826  0.75051398  1
  O2-  O192  1  0.66550632  0.07846236  0.00088464  1
  O2-  O193  1  0.66511202  0.08198399  0.25056871  1
  O2-  O194  1  0.66518553  0.08141786  0.50095501  1
  O2-  O195  1  0.66740897  0.07945455  0.74879742  1
  O2-  O196  1  0.66758913  0.41308557  -0.00021246  1
  O2-  O197  1  0.66799826  0.41477926  0.24962410  1
  O2-  O198  1  0.66752784  0.41480715  0.49976838  1
  O2-  O199  1  0.66724725  0.41413188  0.74978707  1
  O2-  O200  1  0.66531176  0.74881746  0.00032254  1
  O2-  O201  1  0.66472251  0.74503220  0.25014721  1
  O2-  O202  1  0.66582567  0.74891086  0.49825210  1
  O2-  O203  1  0.66763661  0.74825308  0.75023782  1
  O2-  O204  1  0.33330626  0.25386112  0.00054856  1
  O2-  O205  1  0.33192198  0.25272033  0.25069239  1
  O2-  O206  1  0.33387381  0.25278688  0.49984876  1
  O2-  O207  1  0.33302260  0.25248834  0.74991810  1
  O2-  O208  1  0.33183175  0.58773171  -0.00023579  1
  O2-  O209  1  0.33389394  0.58763647  0.25163323  1
  O2-  O210  1  0.33299722  0.58641244  0.49967225  1
  O2-  O211  1  0.33224944  0.58682154  0.74954067  1
  O2-  O212  1  0.33443230  0.92092350  0.00125586  1
  O2-  O213  1  0.33305614  0.92008787  0.24987195  1
  O2-  O214  1  0.33326914  0.91962944  0.49889450  1
  O2-  O215  1  0.33173856  0.91815404  0.74859861  1
  O2-  O216  1  0.83481586  0.25483971  -0.00030674  1
  O2-  O217  1  0.83265303  0.25158852  0.24856118  1
  O2-  O218  1  0.83406692  0.25181396  0.50007366  1
  O2-  O219  1  0.83496074  0.25388123  0.75057179  1
  O2-  O220  1  0.83285641  0.58388498  0.00074492  1
  O2-  O221  1  0.83112577  0.58501494  0.25018758  1
  O2-  O222  1  0.83288194  0.58352108  0.49835863  1
  O2-  O223  1  0.83410884  0.58566232  0.75049311  1
  O2-  O224  1  0.83225008  0.91869111  0.00090343  1
  O2-  O225  1  0.83312288  0.92066242  0.24964147  1
  O2-  O226  1  0.83429355  0.91811477  0.50151074  1
  O2-  O227  1  0.83225741  0.91889670  0.74911686  1
  O2-  O228  1  0.16645554  0.25366652  0.00018822  1
  O2-  O229  1  0.16696910  0.25285573  0.25027938  1
  O2-  O230  1  0.16608369  0.25271593  0.50033214  1
  O2-  O231  1  0.16532068  0.25286907  0.75116882  1
  O2-  O232  1  0.16797463  0.58713298  -0.00128563  1
  O2-  O233  1  0.16613352  0.58663408  0.25047606  1
  O2-  O234  1  0.16849414  0.58497135  0.49949967  1
  O2-  O235  1  0.16800732  0.58736171  0.75003057  1
  O2-  O236  1  0.16555960  0.92163811  0.00105420  1
  O2-  O237  1  0.16836472  0.92130758  0.24908371  1
  O2-  O238  1  0.16806971  0.92075601  0.49904570  1
  O2-  O239  1  0.16505170  0.91783025  0.74923386  1
  O2-  O240  1  0.66672429  0.25483452  0.00001068  1
  O2-  O241  1  0.66817011  0.25176250  0.25088904  1
  O2-  O242  1  0.66571364  0.25229561  0.50016474  1
  O2-  O243  1  0.66550944  0.25499093  0.75002092  1
  O2-  O244  1  0.66607837  0.58462070  0.00043994  1
  O2-  O245  1  0.66819167  0.58641844  0.25055356  1
  O2-  O246  1  0.66587781  0.58472648  0.49812060  1
  O2-  O247  1  0.66736688  0.58610137  0.75022088  1
  O2-  O248  1  0.66662307  0.91958809  0.00048509  1
  O2-  O249  1  0.66590020  0.92021054  0.24971271  1
  O2-  O250  1  0.66571248  0.91777252  0.50105863  1
  O2-  O251  1  0.66747571  0.91881812  0.74851974  1
  O2-  O252  1  0.33421507  0.07961509  0.00186025  1
  O2-  O253  1  0.33326847  0.08050519  0.25019096  1
  O2-  O254  1  0.33203732  0.08036462  0.49848105  1
  O2-  O255  1  0.33252262  0.08059048  0.74812447  1
  O2-  O256  1  0.33374860  0.41307168  0.00075292  1
  O2-  O257  1  0.33275431  0.41192818  0.25070518  1
  O2-  O258  1  0.33205338  0.41456396  0.50060978  1
  O2-  O259  1  0.33347881  0.41369873  0.75104976  1
  O2-  O260  1  0.33403639  0.74420692  0.00000581  1
  O2-  O261  1  0.33523399  0.74508890  0.25194647  1
  O2-  O262  1  0.33499007  0.74502615  0.49933375  1
  O2-  O263  1  0.33530266  0.74781202  0.74963482  1
  O2-  O264  1  0.83376178  0.07861203  0.00029927  1
  O2-  O265  1  0.83298390  0.08214685  0.24893278  1
  O2-  O266  1  0.83458393  0.08175044  0.50081773  1
  O2-  O267  1  0.83322408  0.07944183  0.74899862  1
  O2-  O268  1  0.83269274  0.41422068  -0.00046987  1
  O2-  O269  1  0.83227620  0.41502256  0.24890714  1
  O2-  O270  1  0.83300632  0.41645203  0.49999544  1
  O2-  O271  1  0.83279615  0.41376519  0.75097271  1
  O2-  O272  1  0.83353078  0.74998294  -0.00003413  1
  O2-  O273  1  0.83606175  0.74533613  0.25067687  1
  O2-  O274  1  0.83248066  0.74890513  0.49890841  1
  O2-  O275  1  0.83302768  0.74799581  0.74998485  1
  O2-  O276  1  0.45178641  0.42764321  0.75976800  1
  O2-  O277  1  0.54543468  0.90303980  0.51270426  1
  O2-  O278  1  0.95186421  0.23774246  0.01193162  1
  O2-  O279  1  0.54641534  0.55991647  0.77844757  1
  O2-  O280  1  0.54835411  0.43035545  0.01231066  1
  O2-  O281  1  0.95465689  0.90052668  0.51091703  1
  O2-  O282  1  0.45213695  0.57168686  0.72988205  1
  O2-  O283  1  0.95454173  0.23823989  0.73533572  1
  O2-  O284  1  0.04646259  0.89947163  0.98718637  1
  O2-  O285  1  0.54673145  0.23647169  0.76449865  1
  O2-  O286  1  0.45378162  0.76412926  0.51223703  1
  O2-  O287  1  0.44773529  0.09047746  0.51798827  1
  O2-  O288  1  0.95928349  0.10515415  0.21357304  1
  O2-  O289  1  0.53802510  0.77418782  0.78109020  1
  O2-  O290  1  0.04834235  0.43231154  0.01219642  1
  O2-  O291  1  0.04441080  0.23350559  0.51337508  1
  O2-  O292  1  0.95938206  0.43488200  0.47300716  1
  O2-  O293  1  0.45675931  0.21630438  0.24268727  1
  O2-  O294  1  0.54145949  0.21682155  0.24424350  1
  O2-  O295  1  0.96286940  0.22715050  0.21515582  1
  O2-  O296  1  0.04752335  0.09591462  0.98751765  1
  O2-  O297  1  0.04814843  0.56948688  0.76672368  1
  O2-  O298  1  0.45395997  0.43020649  0.23916054  1
  O2-  O299  1  0.95562570  0.56030776  0.21819311  1
  O2-  O300  1  0.05052268  0.23490063  0.01252037  1
  O2-  O301  1  0.45080586  0.90199427  0.73537010  1
  O2-  O302  1  0.95978273  0.55955056  0.02756183  1
  O2-  O303  1  0.45750555  0.89523352  0.76129784  1
  O2-  O304  1  0.45603149  0.23709050  0.48477465  1
  O2-  O305  1  0.45134655  0.56962885  0.76891957  1
  O2-  O306  1  0.96456022  0.11121141  0.75565344  1
  O2-  O307  1  0.95897075  0.56270141  0.47433530  1
  O2-  O308  1  0.94955808  0.09820945  0.98555860  1
  O2-  O309  1  0.53629658  0.10514620  0.74995071  1
  O2-  O310  1  0.54523039  0.56961614  0.26471404  1
  O2-  O311  1  0.95508062  0.90039024  0.23615834  1
  O2-  O312  1  0.95101506  0.42969457  0.26345182  1
  O2-  O313  1  0.54222691  0.89374789  0.71801522  1
  O2-  O314  1  0.53632418  0.10516784  0.74973909  1
  O2-  O315  1  0.05338809  0.42369232  0.26620528  1
  O2-  O316  1  0.45147168  0.43013912  0.98908937  1
  O2-  O317  1  0.04869650  0.57053987  0.26933414  1
  O2-  O318  1  0.45415703  0.76685253  0.23614923  1
  O2-  O319  1  0.45335446  0.57032426  0.50997566  1
  O2-  O320  1  0.04874644  0.56697183  0.23033824  1
  O2-  O321  1  0.45425523  0.76704651  0.01297911  1
  O2-  O322  1  0.95179070  0.76461756  0.76139023  1
  O2-  O323  1  0.04892265  0.09906505  0.23909423  1
  O2-  O324  1  0.92712951  0.60105919  0.95508605  1
  O2-  O325  1  0.93690629  0.73620839  0.03203573  1
  O2-  O326  1  0.43425484  0.07651710  0.77941783  1
  O2-  O327  1  0.42638871  0.28147345  0.20925762  1
  O2-  O328  1  0.56666900  0.40393439  0.77697498  1
  O2-  O329  1  0.56568367  0.25864683  0.97214954  1
  O2-  O330  1  0.92816155  0.27651432  0.30398927  1
  O2-  O331  1  0.56955107  0.05553359  0.69087141  1
  O2-  O332  1  0.44256866  0.08217356  0.52475036  1
  O2-  O333  1  0.06641749  0.74079127  0.69790640  1
  O2-  O334  1  0.06327795  0.26204199  0.02901208  1
  O2-  O335  1  0.92888808  0.05566277  0.30507189  1
  O2-  O336  1  0.92692623  0.60191237  0.29162259  1
  O2-  O337  1  0.06262517  0.40685664  0.02900596  1
  O2-  O338  1  0.56444426  0.40539882  0.52730053  1
  O2-  O339  1  0.43329989  0.59513520  0.97277344  1
  O2-  O340  1  0.43466852  0.26042254  0.77726417  1
  O2-  O341  1  0.06497956  0.73942421  0.80876402  1
  O2-  O342  1  0.43348619  0.25793108  0.95441046  1
  O2-  O343  1  0.93717654  0.73875684  0.77680716  1
  O2-  O344  1  0.93175263  0.39438134  0.54434097  1
  O2-  O345  1  0.92665763  0.05559170  0.79136197  1
  O2-  O346  1  0.06684748  0.40662520  0.52760117  1
  O2-  O347  1  0.06158572  0.41162500  0.27572857  1
  O2-  O348  1  0.43091705  0.93206328  0.78009643  1
  O2-  O349  1  0.93098285  0.60263063  0.54561152  1
  O2-  O350  1  0.06464877  0.92876571  0.53329080  1
  O2-  O351  1  0.43455945  0.07320284  0.97369048  1
  O2-  O352  1  0.93684681  0.73873144  0.53343323  1
  O2-  O353  1  0.57449294  0.06250321  0.80592213  1
  O2-  O354  1  0.06396032  0.93005793  0.28360612  1
  O2-  O355  1  0.93872333  0.06974660  0.96813703  1
  O2-  O356  1  0.93545510  0.40241496  0.03193611  1
  O2-  O357  1  0.57646847  0.27864018  0.21460454  1
  O2-  O358  1  0.56415779  0.73550976  0.28276665  1
  O2-  O359  1  0.06536293  0.59498819  0.02641522  1
  O2-  O360  1  0.06554817  0.07237044  0.77711805  1
  O2-  O361  1  0.06675369  0.59397842  0.47141537  1
  O2-  O362  1  0.06303950  0.07007178  0.46541402  1
  O2-  O363  1  0.06213340  0.59686147  0.78047813  1
  O2-  O364  1  0.43573667  0.26247089  0.05109796  1
  O2-  O365  1  0.43646103  0.40226227  0.46631028  1
  O2-  O366  1  0.57280178  0.73304215  0.70552373  1
  O2-  O367  1  0.93600548  0.40255636  0.71898355  1
  O2-  O368  1  0.57438948  0.93159535  0.79532558  1
  O2-  O369  1  0.93516526  0.92567480  0.72165273  1
  O2-  O370  1  0.57390053  0.60174016  0.70323412  1
  O2-  O371  1  0.93672341  0.92861460  0.96714194  1
  O2-  O372  1  0.25031118  0.66427815  0.59384711  1
  O2-  O373  1  0.74988827  0.66490765  0.08197719  1
  O2-  O374  1  0.24999965  -0.00120323  0.82546015  1
  O2-  O375  1  0.75007109  0.34135288  0.63945354  1
  O2-  O376  1  0.25024737  0.66468756  0.15301821  1
  O2-  O377  1  0.75022944  0.33754974  0.85461879  1
  O2-  O378  1  0.75010056  0.66659450  0.17161507  1
  O2-  O379  1  0.74979892  0.66668776  0.83048825  1
  O2-  O380  1  0.75018139  0.33837094  0.10303812  1
  O2-  O381  1  0.75011159  0.00145465  0.15340435  1
  O2-  O382  1  0.74977439  -0.00169851  0.39859481  1
  O2-  O383  1  0.75012993  0.66792493  0.67016041  1
  O2-  O384  1  0.24999669  0.01198857  0.91249731  1
  O2-  O385  1  0.24996103  0.32725029  0.17466612  1
  O2-  O386  1  0.74985674  -0.00275940  0.85226349  1
  O2-  O387  1  0.74991455  0.33477768  0.41799039  1
  O2-  O388  1  0.24990996  0.00143019  0.59618899  1
  O2-  O389  1  0.25001321  0.33337763  0.89358739  1
  O2-  O390  1  0.74976451  0.66694944  0.91903971  1
  O2-  O391  1  0.25022552  0.33313160  0.08087188  1
  O2-  O392  1  0.25011030  0.33383649  0.40602903  1
  O2-  O393  1  0.75001580  0.66673691  0.58018047  1
  O2-  O394  1  0.75007207  0.33240274  0.32888158  1
  O2-  O395  1  0.25044792  0.33698838  0.65201830  1
  O2-  O396  1  0.74993679  0.16846130  0.88568516  1
  O2-  O397  1  0.25001756  0.83841747  0.59958575  1
  O2-  O398  1  0.24999991  0.84101745  0.12409470  1
  O2-  O399  1  0.74989384  0.49976916  0.83296642  1
  O2-  O400  1  0.24982143  0.83317696  0.68007427  1
  O2-  O401  1  0.25019005  0.49520300  0.91815177  1
  O2-  O402  1  0.74996120  0.16709770  0.19403762  1
  O2-  O403  1  0.75007025  0.16651177  0.56819963  1
  O2-  O404  1  0.74985025  0.84083440  0.12767147  1
  O2-  O405  1  0.25005592  0.16682203  0.15759137  1
  O2-  O406  1  0.74990379  0.50000789  0.65801909  1
  O2-  O407  1  0.74992011  0.84078258  0.37171673  1
  O2-  O408  1  0.74987265  0.83298385  0.84118039  1
  O2-  O409  1  0.25010039  0.50105062  0.40743690  1
  O2-  O410  1  0.25002438  0.16989456  0.86739375  1
  O2-  O411  1  0.25030136  0.50794062  0.83108193  1
  O2-  O412  1  0.24996282  0.83391089  0.88571093  1
  O2-  O413  1  0.75006345  0.16694291  0.11679285  1
  O2-  O414  1  0.24984922  0.83262651  0.80824432  1
  O2-  O415  1  0.24997187  0.16505021  0.33952155  1
  O2-  O416  1  0.24995379  0.16621103  0.60571597  1
  O2-  O417  1  0.25011018  0.84205488  0.35705268  1
  O2-  O418  1  0.75000045  0.16662246  0.64805111  1
  O2-  O419  1  0.74998212  0.50129727  0.92295160  1
  O2-  O420  1  0.02544434  0.32696140  0.38022987  1
  O2-  O421  1  0.47015613  0.34021620  0.87247850  1
  O2-  O422  1  0.02618711  0.67179972  0.12845906  1
  O2-  O423  1  0.52593591  0.32906806  0.62820106  1
  O2-  O424  1  0.97416559  0.00442659  0.62228427  1
  O2-  O425  1  0.53090913  -0.00098698  0.88900454  1
  O2-  O426  1  0.46308502  0.67295051  0.86945905  1
  O2-  O427  1  0.02576688  0.66350980  0.62009846  1
  O2-  O428  1  0.03601604  0.67338582  0.37242141  1
  O2-  O429  1  0.02540179  0.33123085  0.63127015  1
  O2-  O430  1  0.47326910  -0.00003337  0.37430226  1
  O2-  O431  1  0.47251755  0.66311787  0.12445628  1
  O2-  O432  1  0.02741616  0.33304971  0.87329392  1
  O2-  O433  1  0.53124759  0.33487718  0.87728137  1
  O2-  O434  1  0.52341175  0.66704152  0.61603466  1
  O2-  O435  1  0.47372066  -0.00303903  0.62544794  1
  O2-  O436  1  0.02819994  -0.00031046  0.12259489  1
  O2-  O437  1  0.02502771  -0.00437825  0.87544458  1
  O2-  O438  1  0.52547301  0.33798299  0.12061707  1
  O2-  O439  1  0.97693643  0.66649660  0.87475688  1
  O2-  O440  1  0.47056812  -0.00248993  0.88052379  1
  O2-  O441  1  0.53982624  0.66659370  0.87991502  1
  O2-  O442  1  0.96529031  0.67528076  0.37956353  1
  O2-  O443  1  0.02433649  0.33282704  0.13316808  1
