# generated using pymatgen
data_La7(Ru4O11)2
_symmetry_space_group_name_H-M   'P 1'
_cell_length_a   23.99457740
_cell_length_b   16.83458766
_cell_length_c   15.43032177
_cell_angle_alpha   89.99994756
_cell_angle_beta   89.99744915
_cell_angle_gamma   89.99878418
_symmetry_Int_Tables_number   1
_chemical_formula_structural   La7(Ru4O11)2
_chemical_formula_sum   'La84 Ru96 O264'
_cell_volume   6232.90590921
_cell_formula_units_Z   12
loop_
 _symmetry_equiv_pos_site_id
 _symmetry_equiv_pos_as_xyz
  1  'x, y, z'
loop_
 _atom_type_symbol
 _atom_type_oxidation_number
  La3+  3.0
  Ru4+  4.0
  O2-  -2.0
loop_
 _atom_site_type_symbol
 _atom_site_label
 _atom_site_symmetry_multiplicity
 _atom_site_fract_x
 _atom_site_fract_y
 _atom_site_fract_z
 _atom_site_occupancy
  La3+  La0  1  0.13500973  -0.00237948  0.12767915  1
  La3+  La1  1  0.14046814  0.00390048  0.37947551  1
  La3+  La2  1  0.13720695  0.00661501  0.62300113  1
  La3+  La3  1  0.13723775  0.00329172  0.87487254  1
  La3+  La4  1  0.13495415  0.34185262  0.12802294  1
  La3+  La5  1  0.13824355  0.33391756  0.37519925  1
  La3+  La6  1  0.14764656  0.32720566  0.61870878  1
  La3+  La7  1  0.14365524  0.33205524  0.87400669  1
  La3+  La8  1  0.14533585  0.66369928  0.12708575  1
  La3+  La9  1  0.13919102  0.66200162  0.37396880  1
  La3+  La10  1  0.14607690  0.65208319  0.61871616  1
  La3+  La11  1  0.15263906  0.65816259  0.88119045  1
  La3+  La12  1  0.64161034  0.00918257  0.12649314  1
  La3+  La13  1  0.64124131  0.00797594  0.36694188  1
  La3+  La14  1  0.64105295  -0.00213397  0.62947491  1
  La3+  La15  1  0.64239622  -0.00038729  0.87682148  1
  La3+  La16  1  0.63538776  0.32483911  0.12236890  1
  La3+  La17  1  0.64002438  0.33278653  0.37506856  1
  La3+  La18  1  0.64154953  0.33369348  0.62390836  1
  La3+  La19  1  0.64279821  0.33412581  0.88299447  1
  La3+  La20  1  0.64058900  0.67218624  0.12244033  1
  La3+  La21  1  0.64381196  0.66787913  0.37438139  1
  La3+  La22  1  0.64625061  0.66688203  0.62249889  1
  La3+  La23  1  0.64173295  0.66843210  0.87937888  1
  La3+  La24  1  0.35587988  -0.00608892  0.11905638  1
  La3+  La25  1  0.35013624  -0.00262046  0.38003969  1
  La3+  La26  1  0.35608810  0.01622171  0.61282359  1
  La3+  La27  1  0.36193958  -0.00134562  0.87512312  1
  La3+  La28  1  0.36261547  0.33606919  0.12274155  1
  La3+  La29  1  0.35874851  0.33878129  0.37363849  1
  La3+  La30  1  0.36612563  0.32647260  0.62397955  1
  La3+  La31  1  0.35881754  0.33359738  0.87185393  1
  La3+  La32  1  0.36001802  0.66726962  0.12267543  1
  La3+  La33  1  0.35631460  0.65978540  0.37294040  1
  La3+  La34  1  0.36403339  0.66112537  0.62485145  1
  La3+  La35  1  0.35501063  0.65807845  0.87285736  1
  La3+  La36  1  0.84757198  0.00266017  0.12361383  1
  La3+  La37  1  0.85085436  -0.00457672  0.37668567  1
  La3+  La38  1  0.85936745  0.00153858  0.62749970  1
  La3+  La39  1  0.85522881  -0.00346966  0.87398680  1
  La3+  La40  1  0.85680864  0.32411152  0.12539184  1
  La3+  La41  1  0.85500365  0.33247684  0.36920638  1
  La3+  La42  1  0.86504166  0.33073903  0.62071274  1
  La3+  La43  1  0.85545286  0.33461253  0.88191420  1
  La3+  La44  1  0.85725630  0.67087861  0.12046201  1
  La3+  La45  1  0.85580393  0.66894130  0.37756466  1
  La3+  La46  1  0.85317010  0.67042249  0.62606300  1
  La3+  La47  1  0.85662901  0.66879075  0.87514947  1
  La3+  La48  1  0.50220200  0.49741561  0.88007410  1
  La3+  La49  1  0.00359380  0.83297500  0.14691305  1
  La3+  La50  1  -0.00337503  0.16631709  0.85734479  1
  La3+  La51  1  0.50182579  0.82757960  0.64096935  1
  La3+  La52  1  0.50049723  0.84080801  0.62334177  1
  La3+  La53  1  0.49882518  0.50064361  0.61869748  1
  La3+  La54  1  -0.00363755  0.83666646  0.87321389  1
  La3+  La55  1  0.00269736  0.83478093  0.60745976  1
  La3+  La56  1  0.00216628  0.50120237  0.61262943  1
  La3+  La57  1  -0.00712394  0.50778475  0.88580356  1
  La3+  La58  1  0.00144734  0.50514823  0.90369028  1
  La3+  La59  1  -0.00122723  0.83882280  0.62315199  1
  La3+  La60  1  0.00063697  0.16419878  0.12635855  1
  La3+  La61  1  0.50458132  0.18197890  0.36897811  1
  La3+  La62  1  -0.00258552  0.84198697  0.12950862  1
  La3+  La63  1  -0.00096284  0.17647620  0.87667268  1
  La3+  La64  1  0.50116468  0.49185070  0.63881033  1
  La3+  La65  1  0.00237905  0.50140927  0.37109122  1
  La3+  La66  1  -0.00207138  0.83207991  0.88880261  1
  La3+  La67  1  -0.00788801  0.50166568  0.62879360  1
  La3+  La68  1  0.50868880  0.83235687  0.88557809  1
  La3+  La69  1  0.50411293  0.49685163  0.37569872  1
  La3+  La70  1  0.50467577  0.83674801  0.37300077  1
  La3+  La71  1  0.50456103  0.17341190  0.61671866  1
  La3+  La72  1  0.74867939  0.16749767  -0.01123213  1
  La3+  La73  1  0.24868159  0.18748318  0.24233836  1
  La3+  La74  1  0.75019656  0.20283275  0.46483220  1
  La3+  La75  1  0.24632051  0.88115512  0.51498957  1
  La3+  La76  1  0.74902593  0.53667412  0.20809110  1
  La3+  La77  1  0.25066032  0.16424234  0.71047610  1
  La3+  La78  1  0.24908554  0.87156259  0.26300062  1
  La3+  La79  1  0.24758177  0.85042496  0.80276953  1
  La3+  La80  1  0.24852920  0.82275630  0.00623340  1
  La3+  La81  1  0.75097008  0.82991437  -0.04368416  1
  La3+  La82  1  0.25147452  0.16881211  -0.02727311  1
  La3+  La83  1  0.25016651  0.46564011  0.70961038  1
  Ru4+  Ru84  1  -0.00048665  -0.00645271  -0.00029168  1
  Ru4+  Ru85  1  -0.01241861  0.02430421  0.25768279  1
  Ru4+  Ru86  1  0.00038499  0.00563737  0.50562680  1
  Ru4+  Ru87  1  -0.00393543  0.00332847  0.73412683  1
  Ru4+  Ru88  1  0.00361496  0.33589743  0.00217716  1
  Ru4+  Ru89  1  0.00071505  0.32773967  0.25736515  1
  Ru4+  Ru90  1  -0.00620672  0.31881403  0.49897085  1
  Ru4+  Ru91  1  0.01135294  0.33075009  0.74929136  1
  Ru4+  Ru92  1  -0.00331716  0.67031258  0.00441529  1
  Ru4+  Ru93  1  0.00712825  0.66725304  0.25544256  1
  Ru4+  Ru94  1  0.00126074  0.67792861  0.49305828  1
  Ru4+  Ru95  1  -0.00260879  0.67435414  0.74777996  1
  Ru4+  Ru96  1  0.50295736  0.00714200  -0.00779144  1
  Ru4+  Ru97  1  0.48769710  0.00264905  0.24653578  1
  Ru4+  Ru98  1  0.49643486  0.00811646  0.51041894  1
  Ru4+  Ru99  1  0.49480280  0.00263651  0.75940291  1
  Ru4+  Ru100  1  0.49738891  0.32162907  -0.00847927  1
  Ru4+  Ru101  1  0.48755429  0.33744857  0.25103406  1
  Ru4+  Ru102  1  0.50054651  0.33169971  0.50675442  1
  Ru4+  Ru103  1  0.50418538  0.33160839  0.75422660  1
  Ru4+  Ru104  1  0.49600882  0.66985308  0.00383204  1
  Ru4+  Ru105  1  0.50185394  0.66729035  0.24352717  1
  Ru4+  Ru106  1  0.49483617  0.65894944  0.49441134  1
  Ru4+  Ru107  1  0.50631359  0.67084175  0.74771328  1
  Ru4+  Ru108  1  0.11165294  0.17278923  0.00177989  1
  Ru4+  Ru109  1  0.10701348  0.16884401  0.25275963  1
  Ru4+  Ru110  1  0.10950906  0.16521821  0.49781629  1
  Ru4+  Ru111  1  0.10926528  0.16249675  0.74770516  1
  Ru4+  Ru112  1  0.11187241  0.48801425  0.00992619  1
  Ru4+  Ru113  1  0.11872293  0.49936895  0.25119886  1
  Ru4+  Ru114  1  0.11091937  0.49494096  0.50046104  1
  Ru4+  Ru115  1  0.11212404  0.49989939  0.74847273  1
  Ru4+  Ru116  1  0.10927582  0.84062977  -0.00195675  1
  Ru4+  Ru117  1  0.10888209  0.83134994  0.24789890  1
  Ru4+  Ru118  1  0.10500769  0.83108966  0.50392603  1
  Ru4+  Ru119  1  0.11006052  0.82723138  0.74205937  1
  Ru4+  Ru120  1  0.60719141  0.16581278  0.00304577  1
  Ru4+  Ru121  1  0.61587992  0.17543137  0.24310299  1
  Ru4+  Ru122  1  0.60967615  0.16572283  0.50423660  1
  Ru4+  Ru123  1  0.61266815  0.17004332  0.74861601  1
  Ru4+  Ru124  1  0.61381734  0.50072997  0.00031559  1
  Ru4+  Ru125  1  0.60817595  0.50080936  0.25296371  1
  Ru4+  Ru126  1  0.61326350  0.49674338  0.49779213  1
  Ru4+  Ru127  1  0.61231862  0.49947802  0.75049280  1
  Ru4+  Ru128  1  0.61233092  0.83113027  0.00541863  1
  Ru4+  Ru129  1  0.60364510  0.84036349  0.25385540  1
  Ru4+  Ru130  1  0.61514656  0.83257320  0.49652961  1
  Ru4+  Ru131  1  0.62273736  0.83359911  0.75504946  1
  Ru4+  Ru132  1  0.40123570  0.17564006  -0.00146948  1
  Ru4+  Ru133  1  0.38995674  0.17016358  0.25630655  1
  Ru4+  Ru134  1  0.38539582  0.16532205  0.49564199  1
  Ru4+  Ru135  1  0.38832759  0.15262501  0.75575771  1
  Ru4+  Ru136  1  0.38999536  0.49598778  0.00157924  1
  Ru4+  Ru137  1  0.39050092  0.48968206  0.24810782  1
  Ru4+  Ru138  1  0.38687507  0.50458397  0.49777697  1
  Ru4+  Ru139  1  0.38602306  0.49094794  0.75509706  1
  Ru4+  Ru140  1  0.38906528  0.82779928  -0.00221594  1
  Ru4+  Ru141  1  0.39707107  0.84173424  0.24883441  1
  Ru4+  Ru142  1  0.38678930  0.82806201  0.49674266  1
  Ru4+  Ru143  1  0.38909832  0.84316729  0.74920334  1
  Ru4+  Ru144  1  0.88472228  0.16776302  0.00134035  1
  Ru4+  Ru145  1  0.89398476  0.15656203  0.25428704  1
  Ru4+  Ru146  1  0.89862027  0.17989840  0.50072210  1
  Ru4+  Ru147  1  0.89018440  0.16611556  0.75200358  1
  Ru4+  Ru148  1  0.88299011  0.49829202  0.00774180  1
  Ru4+  Ru149  1  0.88662116  0.50166151  0.24674353  1
  Ru4+  Ru150  1  0.88575149  0.49503371  0.49786809  1
  Ru4+  Ru151  1  0.88258833  0.49886734  0.74837665  1
  Ru4+  Ru152  1  0.89482838  0.83520210  0.00080098  1
  Ru4+  Ru153  1  0.89009198  0.83464144  0.25079714  1
  Ru4+  Ru154  1  0.88977200  0.82909418  0.50260898  1
  Ru4+  Ru155  1  0.87895231  0.83590638  0.75138569  1
  Ru4+  Ru156  1  0.75049130  0.90535969  0.50517807  1
  Ru4+  Ru157  1  0.25093512  0.72811636  0.27136938  1
  Ru4+  Ru158  1  0.74952585  0.58083602  -0.00653674  1
  Ru4+  Ru159  1  0.74990516  0.75246484  0.26271052  1
  Ru4+  Ru160  1  0.24953548  0.04472019  0.24255720  1
  Ru4+  Ru161  1  0.25052816  0.56492761  0.01016240  1
  Ru4+  Ru162  1  0.25077677  0.43622518  0.48008608  1
  Ru4+  Ru163  1  0.75055500  0.26181861  0.75708606  1
  Ru4+  Ru164  1  0.74899296  0.58588153  0.74686167  1
  Ru4+  Ru165  1  0.25016062  0.31473363  0.01926331  1
  Ru4+  Ru166  1  0.24891827  0.32813676  0.76082780  1
  Ru4+  Ru167  1  0.74963295  0.40693037  0.75599881  1
  Ru4+  Ru168  1  0.25103759  0.73389079  0.70880709  1
  Ru4+  Ru169  1  0.25140677  0.59553595  0.75847133  1
  Ru4+  Ru170  1  0.24876251  0.02615269  0.00856835  1
  Ru4+  Ru171  1  0.75072881  0.06757564  0.53393225  1
  Ru4+  Ru172  1  0.25030155  0.24121718  0.48971934  1
  Ru4+  Ru173  1  0.74786859  0.39827024  0.25238213  1
  Ru4+  Ru174  1  0.24943704  0.98694060  0.74126018  1
  Ru4+  Ru175  1  0.75067569  0.08464877  0.74766189  1
  Ru4+  Ru176  1  0.24940943  0.72751020  0.49459285  1
  Ru4+  Ru177  1  0.75054997  0.58133324  0.50622555  1
  Ru4+  Ru178  1  0.24826268  0.33189903  0.26877227  1
  Ru4+  Ru179  1  0.74900776  0.92506113  0.24801040  1
  O2-  O180  1  0.16767746  0.07419719  -0.00133806  1
  O2-  O181  1  0.16680321  0.07909005  0.24857669  1
  O2-  O182  1  0.16334771  0.08246727  0.50226966  1
  O2-  O183  1  0.16754584  0.07806185  0.75103405  1
  O2-  O184  1  0.17208535  0.41520581  0.00594412  1
  O2-  O185  1  0.17382659  0.41360422  0.24836125  1
  O2-  O186  1  0.17134861  0.41246970  0.49504184  1
  O2-  O187  1  0.16831557  0.41153891  0.75438390  1
  O2-  O188  1  0.16230084  0.74962947  0.00416057  1
  O2-  O189  1  0.16511719  0.74573181  0.25454564  1
  O2-  O190  1  0.16700682  0.74640062  0.50004271  1
  O2-  O191  1  0.17168443  0.75023849  0.75020441  1
  O2-  O192  1  0.66632481  0.08206040  -0.00494318  1
  O2-  O193  1  0.66338793  0.08685234  0.25035131  1
  O2-  O194  1  0.66547269  0.08058443  0.50417575  1
  O2-  O195  1  0.66916590  0.08282708  0.74911242  1
  O2-  O196  1  0.66790891  0.41615134  0.00830986  1
  O2-  O197  1  0.66468462  0.41193811  0.24767704  1
  O2-  O198  1  0.66159803  0.41349874  0.49967146  1
  O2-  O199  1  0.66642005  0.41201921  0.75142475  1
  O2-  O200  1  0.66712436  0.75083133  0.00024473  1
  O2-  O201  1  0.66301373  0.75032083  0.24884224  1
  O2-  O202  1  0.66478021  0.74911017  0.49930262  1
  O2-  O203  1  0.66365292  0.74306590  0.74984554  1
  O2-  O204  1  0.33019745  0.25225765  0.00288475  1
  O2-  O205  1  0.33265500  0.25691634  0.24766347  1
  O2-  O206  1  0.33161117  0.25445585  0.49667456  1
  O2-  O207  1  0.33231187  0.24784719  0.74588638  1
  O2-  O208  1  0.33425062  0.58110278  0.00484216  1
  O2-  O209  1  0.34470605  0.58124806  0.24960399  1
  O2-  O210  1  0.33800757  0.58817663  0.49951022  1
  O2-  O211  1  0.33473345  0.58271214  0.74177528  1
  O2-  O212  1  0.33303165  0.91203237  -0.00626309  1
  O2-  O213  1  0.33683068  0.92076107  0.24965664  1
  O2-  O214  1  0.33565026  0.91860983  0.50573645  1
  O2-  O215  1  0.32170300  0.91766783  0.75993733  1
  O2-  O216  1  0.83045161  0.25352255  0.00038019  1
  O2-  O217  1  0.83759577  0.24465394  0.24864025  1
  O2-  O218  1  0.83315604  0.25185396  0.50764793  1
  O2-  O219  1  0.83337363  0.25443918  0.74802996  1
  O2-  O220  1  0.83181435  0.58523146  0.00241529  1
  O2-  O221  1  0.83653955  0.58995475  0.24987628  1
  O2-  O222  1  0.83591866  0.58806266  0.49969895  1
  O2-  O223  1  0.82959876  0.58776928  0.74988652  1
  O2-  O224  1  0.83428283  0.91932027  -0.00635451  1
  O2-  O225  1  0.83528079  0.91678898  0.24888629  1
  O2-  O226  1  0.83302822  0.91555177  0.50883191  1
  O2-  O227  1  0.83085270  0.92089033  0.74460044  1
  O2-  O228  1  0.16813272  0.25724236  0.00527237  1
  O2-  O229  1  0.16370824  0.25735218  0.24779500  1
  O2-  O230  1  0.16606611  0.24921006  0.49280079  1
  O2-  O231  1  0.17030953  0.25153319  0.74816535  1
  O2-  O232  1  0.16531372  0.57787681  0.00713341  1
  O2-  O233  1  0.16672083  0.58345448  0.25043395  1
  O2-  O234  1  0.15984295  0.58206660  0.49213548  1
  O2-  O235  1  0.16863972  0.58202312  0.74816558  1
  O2-  O236  1  0.16916409  0.92228465  -0.00377025  1
  O2-  O237  1  0.16060164  0.92353266  0.25124573  1
  O2-  O238  1  0.15478115  0.92282320  0.50171793  1
  O2-  O239  1  0.16775386  0.91938125  0.75259385  1
  O2-  O240  1  0.66604661  0.25023769  -0.00206033  1
  O2-  O241  1  0.66932402  0.25126967  0.25211524  1
  O2-  O242  1  0.66727714  0.25503226  0.50395003  1
  O2-  O243  1  0.66736254  0.25071078  0.74974806  1
  O2-  O244  1  0.66570404  0.58349112  0.00440224  1
  O2-  O245  1  0.66127160  0.58866890  0.24754990  1
  O2-  O246  1  0.66686691  0.58704862  0.49834235  1
  O2-  O247  1  0.66599887  0.58708900  0.75082325  1
  O2-  O248  1  0.66869292  0.91817764  0.00053894  1
  O2-  O249  1  0.66388287  0.91968903  0.24608022  1
  O2-  O250  1  0.66807277  0.91713401  0.50250284  1
  O2-  O251  1  0.66714116  0.92072102  0.74879590  1
  O2-  O252  1  0.33200553  0.07928987  -0.00523649  1
  O2-  O253  1  0.33075691  0.08322138  0.24671153  1
  O2-  O254  1  0.33039482  0.08933740  0.49454843  1
  O2-  O255  1  0.32778686  0.07682449  0.74810735  1
  O2-  O256  1  0.33439966  0.41529466  0.00227435  1
  O2-  O257  1  0.33093900  0.41419172  0.24951988  1
  O2-  O258  1  0.33062804  0.41484908  0.50021601  1
  O2-  O259  1  0.33129389  0.40706237  0.74486709  1
  O2-  O260  1  0.33303023  0.75183145  0.00406612  1
  O2-  O261  1  0.33810025  0.74859397  0.25220882  1
  O2-  O262  1  0.33234593  0.74447405  0.50220172  1
  O2-  O263  1  0.33510225  0.74978837  0.74453080  1
  O2-  O264  1  0.83306342  0.07999267  -0.00527208  1
  O2-  O265  1  0.83309419  0.08928360  0.24897284  1
  O2-  O266  1  0.83768274  0.08514711  0.50333186  1
  O2-  O267  1  0.83366717  0.08186320  0.74748628  1
  O2-  O268  1  0.83298708  0.41387865  0.00613551  1
  O2-  O269  1  0.82945777  0.41435660  0.24481529  1
  O2-  O270  1  0.83685944  0.41373669  0.50497702  1
  O2-  O271  1  0.83374372  0.41140247  0.74834145  1
  O2-  O272  1  0.83721013  0.74624108  -0.00099567  1
  O2-  O273  1  0.83562317  0.74603150  0.25051525  1
  O2-  O274  1  0.83769197  0.74842810  0.50029334  1
  O2-  O275  1  0.83306728  0.74526011  0.74844011  1
  O2-  O276  1  0.47166783  0.12185912  0.26476149  1
  O2-  O277  1  0.97467349  0.14293891  0.26307007  1
  O2-  O278  1  0.46249655  0.13304496  0.23123736  1
  O2-  O279  1  0.05150609  0.91633076  0.74883952  1
  O2-  O280  1  0.54211371  0.87661121  0.19872915  1
  O2-  O281  1  0.55943525  0.91067239  0.73584950  1
  O2-  O282  1  0.04038998  0.47188804  0.05608736  1
  O2-  O283  1  0.94667957  0.42579189  0.99442672  1
  O2-  O284  1  0.46688880  0.25858167  0.18566330  1
  O2-  O285  1  0.45578558  0.56900199  0.76856085  1
  O2-  O286  1  0.95007032  0.09879225  0.99244251  1
  O2-  O287  1  0.02899750  0.78463270  0.75888724  1
  O2-  O288  1  0.46530715  0.79836803  1.00790022  1
  O2-  O289  1  0.56181204  0.08926464  0.23479547  1
  O2-  O290  1  0.04961445  0.24048088  0.25850190  1
  O2-  O291  1  0.53715659  0.89324919  0.03178249  1
  O2-  O292  1  0.45526368  0.57167355  0.98807912  1
  O2-  O293  1  0.45186644  0.90654725  0.50204735  1
  O2-  O294  1  0.04580461  0.10133650  0.49857226  1
  O2-  O295  1  0.46558088  0.89144188  0.77174261  1
  O2-  O296  1  0.04278704  0.76933699  0.00904149  1
  O2-  O297  1  0.54498488  0.76404494  0.50031108  1
  O2-  O298  1  0.47467683  0.20038804  1.00817081  1
  O2-  O299  1  0.03330345  0.44714455  0.77246103  1
  O2-  O300  1  0.44889596  0.74956112  0.76905586  1
  O2-  O301  1  0.95732043  0.76288873  0.26027558  1
  O2-  O302  1  0.44211883  0.23641170  0.73446940  1
  O2-  O303  1  0.45983262  0.89860251  0.78456977  1
  O2-  O304  1  0.05272039  0.09555318  0.98316359  1
  O2-  O305  1  0.45144792  0.11086377  0.70203419  1
  O2-  O306  1  0.96491513  0.21015030  0.54558165  1
  O2-  O307  1  0.03952949  0.21934006  0.72807280  1
  O2-  O308  1  0.03020076  0.45310440  0.75500456  1
  O2-  O309  1  0.04291363  0.44857943  0.24104441  1
  O2-  O310  1  0.04714389  0.09301983  0.49515192  1
  O2-  O311  1  0.46909217  0.77747076  0.03899496  1
  O2-  O312  1  0.44963142  0.42330443  0.97683536  1
  O2-  O313  1  0.45207741  0.24472333  0.76896852  1
  O2-  O314  1  0.54605101  0.43635800  0.04001273  1
  O2-  O315  1  0.95301527  0.57119094  0.48686317  1
  O2-  O316  1  0.55878427  0.07881192  0.27159155  1
  O2-  O317  1  0.06038924  0.07724834  0.26563698  1
  O2-  O318  1  0.95501767  0.45199374  0.24622222  1
  O2-  O319  1  0.54403977  0.10527934  0.78438817  1
  O2-  O320  1  0.93753323  0.75609514  0.72228366  1
  O2-  O321  1  0.45003623  0.56879234  0.73023483  1
  O2-  O322  1  0.03056375  0.78451618  0.73961530  1
  O2-  O323  1  0.55462299  0.24672818  0.72736545  1
  O2-  O324  1  0.07692324  0.71577160  0.86155196  1
  O2-  O325  1  0.93097476  0.38708732  0.20242032  1
  O2-  O326  1  0.94007203  0.25818394  0.98587305  1
  O2-  O327  1  0.55927175  0.73512861  0.28941233  1
  O2-  O328  1  0.92539559  0.28661660  0.44576598  1
  O2-  O329  1  0.42888497  0.26131689  0.32460033  1
  O2-  O330  1  0.06241231  0.40269988  0.56477004  1
  O2-  O331  1  0.93230909  0.59852594  0.98222436  1
  O2-  O332  1  0.56529838  0.27220060  0.22494985  1
  O2-  O333  1  0.06333774  0.58913942  0.27762460  1
  O2-  O334  1  0.43831291  0.06418549  0.01605068  1
  O2-  O335  1  0.44072467  0.40763875  0.78807196  1
  O2-  O336  1  0.43873409  0.25153681  0.51796301  1
  O2-  O337  1  0.56128112  0.58792652  0.51860442  1
  O2-  O338  1  0.07862785  0.38613156  0.26958735  1
  O2-  O339  1  0.93734279  0.58904305  0.76857650  1
  O2-  O340  1  0.09262306  0.74884645  0.64656337  1
  O2-  O341  1  0.56608856  0.93756078  0.32561287  1
  O2-  O342  1  0.56129097  0.25318028  0.47415738  1
  O2-  O343  1  0.56255849  0.74053581  0.96466448  1
  O2-  O344  1  0.07829801  0.34486455  0.70109341  1
  O2-  O345  1  0.06170456  0.59243806  0.72207640  1
  O2-  O346  1  0.07525323  0.39714400  0.95089568  1
  O2-  O347  1  0.42627128  0.04862757  0.34704173  1
  O2-  O348  1  0.93296618  0.05828424  0.16151950  1
  O2-  O349  1  0.91941422  0.05278577  0.31405089  1
  O2-  O350  1  0.93412073  0.26544099  0.27487388  1
  O2-  O351  1  0.40022584  0.93748141  0.68671669  1
  O2-  O352  1  0.43640392  0.90387896  0.17337619  1
  O2-  O353  1  0.43040213  0.06019265  0.82256738  1
  O2-  O354  1  0.43754974  0.41996200  0.32676250  1
  O2-  O355  1  0.42193811  0.29108845  0.96006024  1
  O2-  O356  1  0.44041373  0.40595403  0.17565506  1
  O2-  O357  1  0.42798150  0.70042046  0.93503167  1
  O2-  O358  1  0.44023133  0.41734407  0.51523494  1
  O2-  O359  1  0.93856051  0.91692721  0.77974155  1
  O2-  O360  1  0.43099268  0.03451575  0.17253339  1
  O2-  O361  1  0.56718051  0.40639881  0.96017758  1
  O2-  O362  1  0.57083322  0.92652306  0.96088733  1
  O2-  O363  1  0.56144773  0.59232725  0.96429522  1
  O2-  O364  1  0.56770394  0.07314466  0.70767462  1
  O2-  O365  1  0.43772350  0.08336935  0.51789141  1
  O2-  O366  1  0.56417972  0.26340091  0.03233999  1
  O2-  O367  1  0.43853537  0.91157402  0.32360402  1
  O2-  O368  1  0.56228079  0.07477896  0.03526223  1
  O2-  O369  1  0.44321187  0.91690384  0.51220638  1
  O2-  O370  1  0.05626103  0.92047180  0.22984142  1
  O2-  O371  1  0.07165356  0.43000060  0.42172878  1
  O2-  O372  1  0.25037736  0.66171227  0.38831428  1
  O2-  O373  1  0.74932373  0.31225697  0.33504773  1
  O2-  O374  1  0.74802971  -0.00735301  0.14720856  1
  O2-  O375  1  0.25067498  0.33348384  0.89292990  1
  O2-  O376  1  0.25230204  0.69215677  0.82754346  1
  O2-  O377  1  0.75153575  0.66092736  0.60857196  1
  O2-  O378  1  0.25024470  0.33125351  0.14307253  1
  O2-  O379  1  0.74892554  0.32768833  0.87236797  1
  O2-  O380  1  0.24709298  -0.01689620  0.34960665  1
  O2-  O381  1  0.25046885  0.66634629  0.95049333  1
  O2-  O382  1  0.75088412  0.66925530  0.42216401  1
  O2-  O383  1  0.24825653  0.00301889  0.43880662  1
  O2-  O384  1  0.74960965  0.66780565  0.16855580  1
  O2-  O385  1  0.25117559  0.33311895  0.59970775  1
  O2-  O386  1  0.74956091  0.66402619  0.89921245  1
  O2-  O387  1  0.75051454  0.33634117  0.42313006  1
  O2-  O388  1  0.75018705  0.01421861  0.30986669  1
  O2-  O389  1  0.74933530  -0.00543909  0.43795923  1
  O2-  O390  1  0.25005337  0.66544731  0.06904465  1
  O2-  O391  1  0.74975717  0.66973568  0.07482276  1
  O2-  O392  1  0.24751004  -0.01183510  0.12985827  1
  O2-  O393  1  0.25149736  0.65319012  0.18860104  1
  O2-  O394  1  0.74976637  0.65403497  0.33096203  1
  O2-  O395  1  0.75035405  0.01121535  0.84429002  1
  O2-  O396  1  0.25081136  0.47808413  0.37742694  1
  O2-  O397  1  0.74884948  0.83171400  0.83050785  1
  O2-  O398  1  0.75046934  0.83081994  0.09198857  1
  O2-  O399  1  0.75005351  0.49132600  0.43514603  1
  O2-  O400  1  0.74936711  0.49508676  0.92033893  1
  O2-  O401  1  0.24971149  0.81247897  0.13856499  1
  O2-  O402  1  0.24860327  0.16170114  0.84217479  1
  O2-  O403  1  0.74968225  0.49146151  0.34337169  1
  O2-  O404  1  0.75024761  0.15198108  0.62298457  1
  O2-  O405  1  0.24996988  0.51748844  0.11132613  1
  O2-  O406  1  0.75038844  0.16849485  0.83185987  1
  O2-  O407  1  0.24989286  0.18234872  0.39107193  1
  O2-  O408  1  0.75005140  0.49124505  0.57493964  1
  O2-  O409  1  0.75038644  0.83115760  0.18005650  1
  O2-  O410  1  0.24902554  0.16672319  0.57052344  1
  O2-  O411  1  0.25014925  0.51917128  0.87098551  1
  O2-  O412  1  0.25003860  0.83302627  0.64782756  1
  O2-  O413  1  0.74963230  0.50175368  0.83028523  1
  O2-  O414  1  0.25036193  0.80474163  0.39050976  1
  O2-  O415  1  0.75033523  0.17122922  0.11497937  1
  O2-  O416  1  0.75033932  0.83653830  0.34668096  1
  O2-  O417  1  0.24936478  0.15769010  0.10941544  1
  O2-  O418  1  0.24946204  0.50336266  0.57144067  1
  O2-  O419  1  0.74992035  0.49437764  0.68080496  1
  O2-  O420  1  0.52325457  0.00127114  0.87633593  1
  O2-  O421  1  0.95223431  -0.00644002  0.61898636  1
  O2-  O422  1  0.47269019  0.00794720  0.63416531  1
  O2-  O423  1  0.02088703  0.67481398  0.37862568  1
  O2-  O424  1  0.46146687  0.34247830  0.64146866  1
  O2-  O425  1  0.52709983  0.32783312  0.86687160  1
  O2-  O426  1  0.55145809  0.67409026  0.65072365  1
  O2-  O427  1  0.02655852  0.00345020  0.11744861  1
  O2-  O428  1  0.98616842  -0.01668237  0.38889931  1
  O2-  O429  1  0.55580679  -0.02005777  0.58234326  1
  O2-  O430  1  0.04543879  -0.00305792  0.62601082  1
  O2-  O431  1  0.96801626  0.34834722  0.62798104  1
  O2-  O432  1  0.00891884  0.65986776  0.61597936  1
  O2-  O433  1  0.01603644  0.32251592  0.38287700  1
  O2-  O434  1  0.45460006  0.66783710  0.60776894  1
  O2-  O435  1  0.47191869  0.66101157  0.13546323  1
  O2-  O436  1  0.95278484  0.34471044  0.84863069  1
  O2-  O437  1  0.04552979  0.30080894  0.86228489  1
  O2-  O438  1  0.52477134  0.34591770  0.37087884  1
  O2-  O439  1  0.02463619  0.32069203  0.12364972  1
  O2-  O440  1  0.02403104  0.67040934  0.12729573  1
  O2-  O441  1  0.97304089  0.68986438  0.87542971  1
  O2-  O442  1  0.98090538  0.00650372  0.87308821  1
  O2-  O443  1  0.55114297  0.35060563  0.60906170  1
