# generated using pymatgen
data_La7(Ru4O11)2
_symmetry_space_group_name_H-M   'P 1'
_cell_length_a   23.99632622
_cell_length_b   16.83635751
_cell_length_c   15.43152028
_cell_angle_alpha   89.99567862
_cell_angle_beta   90.00330072
_cell_angle_gamma   90.00201492
_symmetry_Int_Tables_number   1
_chemical_formula_structural   La7(Ru4O11)2
_chemical_formula_sum   'La84 Ru96 O264'
_cell_volume   6234.49970065
_cell_formula_units_Z   12
loop_
 _symmetry_equiv_pos_site_id
 _symmetry_equiv_pos_as_xyz
  1  'x, y, z'
loop_
 _atom_type_symbol
 _atom_type_oxidation_number
  La3+  3.0
  Ru4+  4.0
  O2-  -2.0
loop_
 _atom_site_type_symbol
 _atom_site_label
 _atom_site_symmetry_multiplicity
 _atom_site_fract_x
 _atom_site_fract_y
 _atom_site_fract_z
 _atom_site_occupancy
  La3+  La0  1  0.13838650  -0.00046014  0.12208846  1
  La3+  La1  1  0.15106032  0.00164354  0.38155958  1
  La3+  La2  1  0.13887481  -0.00864484  0.61732485  1
  La3+  La3  1  0.13895589  -0.00740488  0.87364088  1
  La3+  La4  1  0.15475537  0.33286955  0.12351438  1
  La3+  La5  1  0.14078621  0.33891770  0.37163134  1
  La3+  La6  1  0.14024108  0.33850469  0.61923814  1
  La3+  La7  1  0.13722034  0.32885792  0.87585917  1
  La3+  La8  1  0.15272135  0.66548465  0.12564775  1
  La3+  La9  1  0.14694944  0.66653183  0.38212375  1
  La3+  La10  1  0.14729776  0.67152567  0.62080173  1
  La3+  La11  1  0.13652873  0.67178870  0.87679095  1
  La3+  La12  1  0.63710560  0.00477723  0.11600886  1
  La3+  La13  1  0.63632356  -0.00016759  0.36812796  1
  La3+  La14  1  0.63257916  -0.00349117  0.62702778  1
  La3+  La15  1  0.64401645  0.00501268  0.87865543  1
  La3+  La16  1  0.63645491  0.33458729  0.12652658  1
  La3+  La17  1  0.64336243  0.32801518  0.36806876  1
  La3+  La18  1  0.64841230  0.32678972  0.62045068  1
  La3+  La19  1  0.65095366  0.31815927  0.88509219  1
  La3+  La20  1  0.62926978  0.66507716  0.12023160  1
  La3+  La21  1  0.64005237  0.65227887  0.36823635  1
  La3+  La22  1  0.63756569  0.66269081  0.62235234  1
  La3+  La23  1  0.64157722  0.65881146  0.87732021  1
  La3+  La24  1  0.36563908  -0.00302044  0.12110486  1
  La3+  La25  1  0.36480800  -0.00590461  0.38291507  1
  La3+  La26  1  0.36497941  0.00033311  0.62432034  1
  La3+  La27  1  0.35427822  0.00302895  0.87251222  1
  La3+  La28  1  0.35004852  0.32875365  0.12868913  1
  La3+  La29  1  0.35031406  0.33724543  0.37316073  1
  La3+  La30  1  0.35721630  0.33295111  0.62082502  1
  La3+  La31  1  0.36155688  0.32752043  0.87766135  1
  La3+  La32  1  0.35993115  0.66506281  0.12703629  1
  La3+  La33  1  0.35465936  0.66211232  0.37646763  1
  La3+  La34  1  0.34980358  0.66733532  0.61991544  1
  La3+  La35  1  0.35990909  0.66960684  0.87531172  1
  La3+  La36  1  0.86173453  0.00222120  0.11717378  1
  La3+  La37  1  0.86190766  -0.00308088  0.37742732  1
  La3+  La38  1  0.87110107  -0.00382254  0.62359177  1
  La3+  La39  1  0.85046128  -0.00361446  0.87151306  1
  La3+  La40  1  0.85558812  0.33367329  0.11652277  1
  La3+  La41  1  0.86049513  0.33851578  0.37633369  1
  La3+  La42  1  0.86066432  0.33874112  0.62280625  1
  La3+  La43  1  0.85530366  0.32831047  0.88284647  1
  La3+  La44  1  0.86117361  0.65902121  0.12077304  1
  La3+  La45  1  0.86809658  0.66028831  0.37846761  1
  La3+  La46  1  0.85839633  0.66658792  0.62578602  1
  La3+  La47  1  0.86228423  0.66785189  0.87512124  1
  La3+  La48  1  0.48968885  0.83744359  0.61393601  1
  La3+  La49  1  -0.01136029  0.48348222  0.87419245  1
  La3+  La50  1  -0.00218730  0.84571458  0.37766056  1
  La3+  La51  1  0.00331578  0.15995805  0.38303554  1
  La3+  La52  1  -0.00515315  0.16859617  0.36754595  1
  La3+  La53  1  0.49378393  0.50641837  0.63175967  1
  La3+  La54  1  0.00231273  0.48427782  0.35762259  1
  La3+  La55  1  0.48672350  0.82912108  0.37603468  1
  La3+  La56  1  0.50610899  0.84048097  0.91026656  1
  La3+  La57  1  0.50618285  0.49051745  0.36958119  1
  La3+  La58  1  0.50196635  0.84510800  0.89605767  1
  La3+  La59  1  -0.00042195  0.16904437  0.62061662  1
  La3+  La60  1  0.50484300  0.49114609  0.11707687  1
  La3+  La61  1  0.49273260  0.50528332  0.63180271  1
  La3+  La62  1  -0.00256747  0.84621607  0.36124560  1
  La3+  La63  1  -0.00172475  0.50149025  0.61187446  1
  La3+  La64  1  0.50255975  0.16921041  0.61879962  1
  La3+  La65  1  -0.00290096  0.16128949  0.64110615  1
  La3+  La66  1  0.00257087  0.17217068  0.12432586  1
  La3+  La67  1  0.50382055  0.49857371  0.13813671  1
  La3+  La68  1  0.49487169  0.16320225  0.87434702  1
  La3+  La69  1  0.49424974  0.84437080  0.62777185  1
  La3+  La70  1  -0.00974811  0.49187522  0.85377486  1
  La3+  La71  1  0.00089456  0.83777518  0.12445479  1
  La3+  La72  1  0.75101062  0.56441299  0.73740055  1
  La3+  La73  1  0.25056464  0.43669154  -0.02449399  1
  La3+  La74  1  0.75284075  0.79406171  0.56439558  1
  La3+  La75  1  0.75164858  0.79687196  -0.02108012  1
  La3+  La76  1  0.75108614  0.49755043  -0.00500087  1
  La3+  La77  1  0.75067292  0.77570120  0.22333838  1
  La3+  La78  1  0.24763772  0.12906084  0.78085988  1
  La3+  La79  1  0.24736830  0.49597843  0.22597673  1
  La3+  La80  1  0.74964239  0.20564023  0.48220582  1
  La3+  La81  1  0.24887803  0.55629785  0.73922313  1
  La3+  La82  1  0.75153628  0.14095151  0.69803724  1
  La3+  La83  1  0.25226174  0.82537330  0.16329496  1
  Ru4+  Ru84  1  -0.00874772  0.00630270  -0.00680644  1
  Ru4+  Ru85  1  -0.00084958  0.00530857  0.23632887  1
  Ru4+  Ru86  1  0.00488071  -0.01122368  0.51423150  1
  Ru4+  Ru87  1  0.00017402  -0.01255944  0.76201212  1
  Ru4+  Ru88  1  -0.00169330  0.33680780  -0.00934641  1
  Ru4+  Ru89  1  -0.00089465  0.33736768  0.24668359  1
  Ru4+  Ru90  1  -0.00206071  0.33759832  0.50095067  1
  Ru4+  Ru91  1  -0.00067584  0.32969955  0.76116982  1
  Ru4+  Ru92  1  0.00618039  0.65683398  0.00187265  1
  Ru4+  Ru93  1  0.00810256  0.64488753  0.25930254  1
  Ru4+  Ru94  1  0.00189274  0.66455481  0.50228170  1
  Ru4+  Ru95  1  -0.01341801  0.67787957  0.75645998  1
  Ru4+  Ru96  1  0.49701228  0.00167413  0.00089596  1
  Ru4+  Ru97  1  0.50911575  -0.01229644  0.25572978  1
  Ru4+  Ru98  1  0.50458044  0.01193836  0.49122577  1
  Ru4+  Ru99  1  0.50784708  0.00509023  0.76319581  1
  Ru4+  Ru100  1  0.49680988  0.31656133  -0.01197309  1
  Ru4+  Ru101  1  0.49046152  0.31758747  0.24416090  1
  Ru4+  Ru102  1  0.50917061  0.33001506  0.48600195  1
  Ru4+  Ru103  1  0.50315447  0.33442114  0.76073004  1
  Ru4+  Ru104  1  0.49765504  0.66733205  0.00391345  1
  Ru4+  Ru105  1  0.50274954  0.67149404  0.25009958  1
  Ru4+  Ru106  1  0.50177653  0.66812079  0.48232557  1
  Ru4+  Ru107  1  0.49388547  0.67409289  0.76717172  1
  Ru4+  Ru108  1  0.11381093  0.16653001  0.00271586  1
  Ru4+  Ru109  1  0.11673584  0.17489625  0.24526184  1
  Ru4+  Ru110  1  0.11829148  0.16303150  0.50333224  1
  Ru4+  Ru111  1  0.11021603  0.16114559  0.75045720  1
  Ru4+  Ru112  1  0.10745715  0.49922698  0.01059070  1
  Ru4+  Ru113  1  0.10146330  0.50920299  0.24935938  1
  Ru4+  Ru114  1  0.11511641  0.49883463  0.50116040  1
  Ru4+  Ru115  1  0.10982900  0.50147357  0.74652965  1
  Ru4+  Ru116  1  0.11201661  0.83586135  0.00349752  1
  Ru4+  Ru117  1  0.11159883  0.83220003  0.24572998  1
  Ru4+  Ru118  1  0.10834948  0.83708038  0.49984076  1
  Ru4+  Ru119  1  0.11212847  0.84237702  0.74861365  1
  Ru4+  Ru120  1  0.60781242  0.16450551  0.00616543  1
  Ru4+  Ru121  1  0.60389466  0.15673380  0.24812121  1
  Ru4+  Ru122  1  0.60660478  0.16142753  0.49788460  1
  Ru4+  Ru123  1  0.61094209  0.16683491  0.74973780  1
  Ru4+  Ru124  1  0.61855099  0.49770981  -0.01381760  1
  Ru4+  Ru125  1  0.61908383  0.49796185  0.24887816  1
  Ru4+  Ru126  1  0.61429820  0.49758009  0.49718399  1
  Ru4+  Ru127  1  0.60262616  0.48795465  0.75417701  1
  Ru4+  Ru128  1  0.61003840  0.82696814  0.00508780  1
  Ru4+  Ru129  1  0.60544516  0.83824202  0.24182036  1
  Ru4+  Ru130  1  0.61281606  0.82661236  0.49629004  1
  Ru4+  Ru131  1  0.61062936  0.83660996  0.74397864  1
  Ru4+  Ru132  1  0.38760725  0.16810626  0.00051853  1
  Ru4+  Ru133  1  0.39320148  0.18370275  0.25553643  1
  Ru4+  Ru134  1  0.38845352  0.16459725  0.49772559  1
  Ru4+  Ru135  1  0.38629354  0.17267829  0.74345117  1
  Ru4+  Ru136  1  0.38797222  0.50002947  -0.00830204  1
  Ru4+  Ru137  1  0.38450950  0.49697390  0.25672998  1
  Ru4+  Ru138  1  0.38542762  0.49831687  0.50003690  1
  Ru4+  Ru139  1  0.38928058  0.49736636  0.75060412  1
  Ru4+  Ru140  1  0.38934745  0.84463991  0.00733627  1
  Ru4+  Ru141  1  0.39334644  0.83349551  0.24516373  1
  Ru4+  Ru142  1  0.37901304  0.83055492  0.50053189  1
  Ru4+  Ru143  1  0.38535027  0.83400336  0.74735219  1
  Ru4+  Ru144  1  0.89569098  0.15747450  -0.00800643  1
  Ru4+  Ru145  1  0.88843821  0.16177050  0.24315373  1
  Ru4+  Ru146  1  0.88260797  0.17108356  0.50258469  1
  Ru4+  Ru147  1  0.89200335  0.16793071  0.75403438  1
  Ru4+  Ru148  1  0.88994119  0.50127210  0.01112202  1
  Ru4+  Ru149  1  0.88737445  0.49825939  0.24811831  1
  Ru4+  Ru150  1  0.89105814  0.50940455  0.50393715  1
  Ru4+  Ru151  1  0.89427523  0.49885468  0.74270255  1
  Ru4+  Ru152  1  0.89204930  0.83305706  0.00742921  1
  Ru4+  Ru153  1  0.88826431  0.83334600  0.24806510  1
  Ru4+  Ru154  1  0.88965198  0.82965717  0.49960017  1
  Ru4+  Ru155  1  0.89536674  0.82713679  0.74276452  1
  Ru4+  Ru156  1  0.25170206  0.95563911  0.23824310  1
  Ru4+  Ru157  1  0.74950445  0.93616335  0.24241359  1
  Ru4+  Ru158  1  0.74894424  0.94166552  0.01006423  1
  Ru4+  Ru159  1  0.75077723  0.42448675  0.23642778  1
  Ru4+  Ru160  1  0.25027956  0.72704158  0.28323489  1
  Ru4+  Ru161  1  0.25056065  0.59279293  -0.00848943  1
  Ru4+  Ru162  1  0.25260310  0.09781485  0.24427787  1
  Ru4+  Ru163  1  0.75066877  0.24314747  0.23241364  1
  Ru4+  Ru164  1  0.75186867  0.43075322  0.50797590  1
  Ru4+  Ru165  1  0.25167428  -0.01543711  0.72865796  1
  Ru4+  Ru166  1  0.74830959  0.75647434  0.75811438  1
  Ru4+  Ru167  1  0.75131400  0.26675299  0.77049653  1
  Ru4+  Ru168  1  0.74893867  0.06431750  0.51116839  1
  Ru4+  Ru169  1  0.75028261  0.09092264  0.24855822  1
  Ru4+  Ru170  1  0.24993977  0.08678795  -0.00127799  1
  Ru4+  Ru171  1  0.25049382  0.24813596  0.48811658  1
  Ru4+  Ru172  1  0.25104564  0.41636179  0.76353729  1
  Ru4+  Ru173  1  0.75241081  0.57199768  0.24245439  1
  Ru4+  Ru174  1  0.25119987  0.76898812  -0.02894489  1
  Ru4+  Ru175  1  0.75300247  0.41109644  0.74692433  1
  Ru4+  Ru176  1  0.24916116  0.26814028  0.75282768  1
  Ru4+  Ru177  1  0.74861698  0.00925123  0.76714798  1
  Ru4+  Ru178  1  0.24850554  0.76727242  0.74794647  1
  Ru4+  Ru179  1  0.74772151  0.92959924  0.49998929  1
  O2-  O180  1  0.16548994  0.07929313  -0.00320354  1
  O2-  O181  1  0.16674209  0.08178338  0.24556845  1
  O2-  O182  1  0.16790390  0.08313774  0.50246623  1
  O2-  O183  1  0.16100681  0.07458066  0.74808851  1
  O2-  O184  1  0.15907489  0.41478698  -0.00496746  1
  O2-  O185  1  0.16179103  0.41971860  0.25119429  1
  O2-  O186  1  0.16602090  0.41532460  0.49613309  1
  O2-  O187  1  0.16791064  0.41887414  0.75087041  1
  O2-  O188  1  0.16676516  0.75199166  -0.00868761  1
  O2-  O189  1  0.16712303  0.74933613  0.25336998  1
  O2-  O190  1  0.16262774  0.75418086  0.50315068  1
  O2-  O191  1  0.16322378  0.75111236  0.75451750  1
  O2-  O192  1  0.66569197  0.08557801  -0.00272461  1
  O2-  O193  1  0.67105416  0.08477764  0.25226960  1
  O2-  O194  1  0.66423801  0.07927562  0.50196595  1
  O2-  O195  1  0.66822815  0.07892384  0.74488949  1
  O2-  O196  1  0.66773549  0.40976935  0.00323299  1
  O2-  O197  1  0.66850698  0.41086130  0.24379382  1
  O2-  O198  1  0.67191693  0.41803665  0.50539538  1
  O2-  O199  1  0.67382175  0.41887492  0.74505718  1
  O2-  O200  1  0.66782869  0.74144379  0.00825917  1
  O2-  O201  1  0.66180754  0.74801557  0.25654183  1
  O2-  O202  1  0.67534909  0.74513047  0.50978212  1
  O2-  O203  1  0.66500988  0.74762719  0.74670693  1
  O2-  O204  1  0.33954879  0.25160775  -0.00108568  1
  O2-  O205  1  0.33006447  0.24752242  0.24873056  1
  O2-  O206  1  0.33726011  0.25212353  0.49943215  1
  O2-  O207  1  0.33398876  0.25589324  0.75093927  1
  O2-  O208  1  0.33372404  0.58877456  -0.00132506  1
  O2-  O209  1  0.33593846  0.58234910  0.24910484  1
  O2-  O210  1  0.33372905  0.58473729  0.50063222  1
  O2-  O211  1  0.33794944  0.59044562  0.75520742  1
  O2-  O212  1  0.32844410  0.91826380  0.00731287  1
  O2-  O213  1  0.33304644  0.92328475  0.24538206  1
  O2-  O214  1  0.33430878  0.91799705  0.50405539  1
  O2-  O215  1  0.32673920  0.91765726  0.74049888  1
  O2-  O216  1  0.84140970  0.24405742  0.00137822  1
  O2-  O217  1  0.83813349  0.24937331  0.24700087  1
  O2-  O218  1  0.83372341  0.25993911  0.50722388  1
  O2-  O219  1  0.83583585  0.25277095  0.74638740  1
  O2-  O220  1  0.83169828  0.58496663  -0.00275800  1
  O2-  O221  1  0.83344895  0.58538230  0.24950743  1
  O2-  O222  1  0.83342545  0.58446158  0.49501096  1
  O2-  O223  1  0.84638784  0.59167184  0.75314018  1
  O2-  O224  1  0.82970183  0.91823804  -0.00102447  1
  O2-  O225  1  0.83121586  0.91972522  0.24507801  1
  O2-  O226  1  0.83112161  0.92102313  0.50937009  1
  O2-  O227  1  0.83906170  0.91521629  0.74042558  1
  O2-  O228  1  0.16052549  0.25120075  -0.00250125  1
  O2-  O229  1  0.16609227  0.25657622  0.25433908  1
  O2-  O230  1  0.16497895  0.25704824  0.49459650  1
  O2-  O231  1  0.16381421  0.25707538  0.74879108  1
  O2-  O232  1  0.16605893  0.58328030  -0.01082532  1
  O2-  O233  1  0.16429193  0.57844133  0.25216386  1
  O2-  O234  1  0.16382732  0.58423323  0.50410241  1
  O2-  O235  1  0.15887743  0.59226190  0.75682806  1
  O2-  O236  1  0.16272449  0.92067642  0.00003859  1
  O2-  O237  1  0.17062825  0.92304819  0.24337283  1
  O2-  O238  1  0.16685408  0.91463755  0.50579936  1
  O2-  O239  1  0.16998208  0.91872182  0.75259525  1
  O2-  O240  1  0.66157256  0.24545019  0.00993396  1
  O2-  O241  1  0.66241304  0.24590180  0.24198015  1
  O2-  O242  1  0.66296332  0.25179181  0.49501027  1
  O2-  O243  1  0.66664452  0.25081861  0.74736330  1
  O2-  O244  1  0.67330421  0.58508332  -0.00095508  1
  O2-  O245  1  0.67120615  0.58295485  0.24286059  1
  O2-  O246  1  0.66539344  0.58377365  0.50352962  1
  O2-  O247  1  0.65528125  0.58174469  0.74713529  1
  O2-  O248  1  0.66694036  0.91555503  -0.00369088  1
  O2-  O249  1  0.66718756  0.92097953  0.25142800  1
  O2-  O250  1  0.66268674  0.91960944  0.50153215  1
  O2-  O251  1  0.66523617  0.92302631  0.74611337  1
  O2-  O252  1  0.33432313  0.08133337  0.00251953  1
  O2-  O253  1  0.34172103  0.08619282  0.24987872  1
  O2-  O254  1  0.34119170  0.08124476  0.50073468  1
  O2-  O255  1  0.33500604  0.07873447  0.74175988  1
  O2-  O256  1  0.34326136  0.40832338  -0.00059915  1
  O2-  O257  1  0.32696280  0.41238738  0.25079013  1
  O2-  O258  1  0.33798438  0.41376902  0.50368583  1
  O2-  O259  1  0.33552158  0.41487717  0.75098167  1
  O2-  O260  1  0.33763110  0.75563038  -0.00177160  1
  O2-  O261  1  0.33244857  0.74852781  0.24815955  1
  O2-  O262  1  0.33282689  0.74396542  0.49989991  1
  O2-  O263  1  0.33120264  0.74908715  0.75367218  1
  O2-  O264  1  0.83264202  0.08922368  0.00754403  1
  O2-  O265  1  0.83144224  0.07814476  0.24724829  1
  O2-  O266  1  0.83346363  0.07914485  0.50588187  1
  O2-  O267  1  0.83286000  0.07623885  0.74251184  1
  O2-  O268  1  0.83338484  0.41545344  -0.00270701  1
  O2-  O269  1  0.83211640  0.41421875  0.24527099  1
  O2-  O270  1  0.83454180  0.42295554  0.50258515  1
  O2-  O271  1  0.83713887  0.41226264  0.74818500  1
  O2-  O272  1  0.84038869  0.74458725  0.00212458  1
  O2-  O273  1  0.84322597  0.73975535  0.25411005  1
  O2-  O274  1  0.83459166  0.74510100  0.49777283  1
  O2-  O275  1  0.83170122  0.75172311  0.75013998  1
  O2-  O276  1  0.54539800  0.23606442  0.02566512  1
  O2-  O277  1  0.44926856  0.57532289  0.51052078  1
  O2-  O278  1  0.54114634  0.23301644  0.75500102  1
  O2-  O279  1  0.45190055  0.91098434  0.25075229  1
  O2-  O280  1  0.45005029  0.56091374  0.00462461  1
  O2-  O281  1  0.94989693  0.90837402  0.73501839  1
  O2-  O282  1  0.45130241  0.91782172  0.06075342  1
  O2-  O283  1  0.05503010  0.91090863  0.56688049  1
  O2-  O284  1  0.94226649  0.91466879  0.47660535  1
  O2-  O285  1  0.98426904  0.12062373  1.00190416  1
  O2-  O286  1  0.44917595  0.57288120  0.26428005  1
  O2-  O287  1  0.44721517  0.09882376  0.72998741  1
  O2-  O288  1  0.51185009  0.44820824  0.77019777  1
  O2-  O289  1  0.46287207  0.78311121  0.78603849  1
  O2-  O290  1  0.55756849  0.07561541  0.01925480  1
  O2-  O291  1  0.04293026  0.54933664  0.96010190  1
  O2-  O292  1  0.55203330  0.09501492  0.76211270  1
  O2-  O293  1  0.55259337  0.42638560  0.23804702  1
  O2-  O294  1  0.44915657  0.91258675  0.25865814  1
  O2-  O295  1  0.55484203  0.89840610  0.31604525  1
  O2-  O296  1  0.04138899  0.57722920  0.73273389  1
  O2-  O297  1  0.46992217  0.20468405  0.23943898  1
  O2-  O298  1  0.95056123  0.24887795  0.99455154  1
  O2-  O299  1  0.93850538  0.58154386  0.26832620  1
  O2-  O300  1  0.53738202  0.76606148  0.53151164  1
  O2-  O301  1  0.51623461  0.45499458  0.76924101  1
  O2-  O302  1  0.55511608  0.59162772  0.70806576  1
  O2-  O303  1  0.54593638  0.76890645  0.04321541  1
  O2-  O304  1  0.95146378  0.09482452  0.48443344  1
  O2-  O305  1  0.95499573  0.09125571  0.76478271  1
  O2-  O306  1  0.53110934  0.43458268  0.52772671  1
  O2-  O307  1  0.04868051  0.10424333  0.24388595  1
  O2-  O308  1  0.56082302  0.58431104  0.02099162  1
  O2-  O309  1  0.04213724  0.76151789  0.45849293  1
  O2-  O310  1  0.45599419  0.89831400  0.49739836  1
  O2-  O311  1  0.02553271  0.53546326  0.21832675  1
  O2-  O312  1  0.04742006  0.23193202  0.74473997  1
  O2-  O313  1  0.95282563  0.09256647  0.52354901  1
  O2-  O314  1  0.46370119  0.91745999  0.71987549  1
  O2-  O315  1  0.45084061  0.75453317  0.24561589  1
  O2-  O316  1  0.97039245  0.54993453  0.46808868  1
  O2-  O317  1  0.05779151  0.40594784  0.23227517  1
  O2-  O318  1  0.05230634  0.24252196  0.49425268  1
  O2-  O319  1  0.96139094  0.76233146  0.24315956  1
  O2-  O320  1  0.56062481  0.57334576  0.27905179  1
  O2-  O321  1  0.55048332  0.57276889  0.49145968  1
  O2-  O322  1  0.52978980  0.13257290  0.25830573  1
  O2-  O323  1  0.44658760  0.57894112  0.74598593  1
  O2-  O324  1  0.06331919  0.40945549  0.76916797  1
  O2-  O325  1  0.94042394  0.92274364  0.47174731  1
  O2-  O326  1  0.92106847  0.03991860  0.94481571  1
  O2-  O327  1  0.59157024  0.74010372  0.43493980  1
  O2-  O328  1  0.43439444  0.71662322  0.66617564  1
  O2-  O329  1  0.55819582  0.24419956  0.47889689  1
  O2-  O330  1  0.93237697  0.40345589  0.27123398  1
  O2-  O331  1  0.58472050  0.40822233  0.42774610  1
  O2-  O332  1  0.41249891  0.93476004  0.79363917  1
  O2-  O333  1  0.56090240  0.58367602  0.02108619  1
  O2-  O334  1  0.56792287  0.92032629  0.17021737  1
  O2-  O335  1  0.43715592  0.41436629  0.22410174  1
  O2-  O336  1  0.93786580  0.92731944  0.27236810  1
  O2-  O337  1  0.93640572  0.25637294  0.47976695  1
  O2-  O338  1  0.05899364  0.40263020  0.03617464  1
  O2-  O339  1  0.54082852  0.76506080  0.03880573  1
  O2-  O340  1  0.04786260  0.89854289  0.55573344  1
  O2-  O341  1  0.93696098  0.62103577  0.57195421  1
  O2-  O342  1  0.06330128  0.93246725  0.73176785  1
  O2-  O343  1  0.93837234  0.59743658  0.03460703  1
  O2-  O344  1  0.92856461  0.08215188  0.32676711  1
  O2-  O345  1  0.58283028  0.05042036  0.21530002  1
  O2-  O346  1  0.56480204  0.74698031  0.22857061  1
  O2-  O347  1  0.93523326  0.41063012  0.48250432  1
  O2-  O348  1  0.94324248  0.91783248  0.04363442  1
  O2-  O349  1  0.41933251  0.29280975  0.30082575  1
  O2-  O350  1  0.55027812  0.07884721  0.01942920  1
  O2-  O351  1  0.06005333  0.69098539  0.57853955  1
  O2-  O352  1  0.06100960  0.07427605  0.54224629  1
  O2-  O353  1  0.06713491  0.59673206  0.34149619  1
  O2-  O354  1  0.07100358  0.65460493  0.19705115  1
  O2-  O355  1  0.43846374  0.92135589  0.48446516  1
  O2-  O356  1  0.58504968  0.41160057  0.66131066  1
  O2-  O357  1  0.55649511  0.40191692  0.20995421  1
  O2-  O358  1  0.05913319  0.41384818  0.52325981  1
  O2-  O359  1  0.41949997  0.91193667  0.91954981  1
  O2-  O360  1  0.58828664  0.76852807  0.89569960  1
  O2-  O361  1  0.93411479  0.75365717  0.81823677  1
  O2-  O362  1  0.93946233  0.40615189  0.03741408  1
  O2-  O363  1  0.45651129  0.90107673  0.05728568  1
  O2-  O364  1  0.59854338  0.41130217  0.83143358  1
  O2-  O365  1  0.93919291  0.73958840  0.67329383  1
  O2-  O366  1  0.55848952  0.57138961  0.26641249  1
  O2-  O367  1  0.08158864  0.90743915  0.40161762  1
  O2-  O368  1  0.93620685  0.07858617  0.17340859  1
  O2-  O369  1  0.43818254  0.06576965  0.72248255  1
  O2-  O370  1  0.05948894  0.91979740  0.22501958  1
  O2-  O371  1  0.07240330  0.64063687  0.05044818  1
  O2-  O372  1  0.24986147  0.66755645  0.65896419  1
  O2-  O373  1  0.75296912  0.32218054  0.64745660  1
  O2-  O374  1  0.75241334  0.34484145  0.86575292  1
  O2-  O375  1  0.25347440  0.01853370  0.34246164  1
  O2-  O376  1  0.74731185  0.67867174  0.64841416  1
  O2-  O377  1  0.25216668  0.00339279  0.61242256  1
  O2-  O378  1  0.75080324  0.33805603  0.44766207  1
  O2-  O379  1  0.74984364  0.00139144  0.89659032  1
  O2-  O380  1  0.75024001  0.33185512  0.13592069  1
  O2-  O381  1  0.24915151  0.33508736  0.86708284  1
  O2-  O382  1  0.74939656  0.00841665  0.35253334  1
  O2-  O383  1  0.24975714  -0.00261948  0.10558882  1
  O2-  O384  1  0.75047082  0.33240268  0.30663321  1
  O2-  O385  1  0.25067656  0.34782767  0.66491927  1
  O2-  O386  1  0.25003428  0.65144846  0.37455305  1
  O2-  O387  1  0.25199364  0.69405487  0.06276423  1
  O2-  O388  1  0.25014771  0.64752944  0.19483334  1
  O2-  O389  1  0.75286955  0.65785982  0.14797073  1
  O2-  O390  1  0.24826038  0.00551658  0.86326040  1
  O2-  O391  1  0.25022173  0.34236339  0.53411066  1
  O2-  O392  1  0.25034029  -0.00386651  0.42950842  1
  O2-  O393  1  0.24758355  0.66691982  0.88941424  1
  O2-  O394  1  0.75145062  0.67077077  0.85235764  1
  O2-  O395  1  0.24841491  0.35125821  0.09997680  1
  O2-  O396  1  0.75002745  0.17768425  0.84574352  1
  O2-  O397  1  0.25012427  0.49778076  0.45072819  1
  O2-  O398  1  0.24987510  0.52005192  0.08720118  1
  O2-  O399  1  0.75133887  0.48466167  0.85081431  1
  O2-  O400  1  0.24984269  0.82947850  0.34007282  1
  O2-  O401  1  0.24948767  0.17626930  0.16392210  1
  O2-  O402  1  0.74962348  0.83504172  0.83915917  1
  O2-  O403  1  0.75086286  0.85639085  0.33677037  1
  O2-  O404  1  0.25027434  0.18291487  0.64470895  1
  O2-  O405  1  0.24939988  0.16692643  0.07479069  1
  O2-  O406  1  0.24922119  0.81856530  0.85425875  1
  O2-  O407  1  0.24957544  0.18008594  0.32963591  1
  O2-  O408  1  0.25033385  0.16857400  0.91826760  1
  O2-  O409  1  0.25096071  0.83139780  0.42722711  1
  O2-  O410  1  0.75086909  0.50190211  0.14110052  1
  O2-  O411  1  0.25101517  0.49552787  0.36803439  1
  O2-  O412  1  0.25089647  0.15794792  0.55690867  1
  O2-  O413  1  0.75042781  0.17178249  0.34024304  1
  O2-  O414  1  0.24897878  0.82798546  0.65931743  1
  O2-  O415  1  0.74961860  0.83674097  0.42600847  1
  O2-  O416  1  0.75015816  0.49922302  0.33939771  1
  O2-  O417  1  0.74973852  0.87196163  0.11846325  1
  O2-  O418  1  0.25004772  0.15573170  0.41415182  1
  O2-  O419  1  0.75166883  0.47739822  0.62048282  1
  O2-  O420  1  0.50669071  0.31083398  0.62053047  1
  O2-  O421  1  0.01665616  0.32790343  0.63147535  1
  O2-  O422  1  0.46556692  0.03976582  0.87444439  1
  O2-  O423  1  0.98711577  0.32107379  0.37121426  1
  O2-  O424  1  0.44855870  0.67048741  0.10760910  1
  O2-  O425  1  0.01969488  0.01301142  0.36397501  1
  O2-  O426  1  0.44361290  0.67945686  0.39964188  1
  O2-  O427  1  0.97798710  0.64788295  0.88214222  1
  O2-  O428  1  0.45130664  0.67939126  0.89434909  1
  O2-  O429  1  0.53088499  0.67335893  0.36573575  1
  O2-  O430  1  0.04350177  0.31777150  0.88971110  1
  O2-  O431  1  0.94919921  0.34689921  0.86119442  1
  O2-  O432  1  0.02658447  0.00233831  0.10845149  1
  O2-  O433  1  0.54508006  0.32176865  0.89618809  1
  O2-  O434  1  0.47234328  0.32757924  0.11325231  1
  O2-  O435  1  0.54229107  0.64858856  0.85407208  1
  O2-  O436  1  0.96855730  0.68048351  0.38115425  1
  O2-  O437  1  0.02865900  0.00362422  0.87986775  1
  O2-  O438  1  0.45315235  0.33117441  0.87087798  1
  O2-  O439  1  0.51309081  0.33190949  0.36199904  1
  O2-  O440  1  0.53215239  0.64414729  0.14217965  1
  O2-  O441  1  0.47925406  0.01861754  0.37646830  1
  O2-  O442  1  0.55020093  -0.03253745  0.87452850  1
  O2-  O443  1  0.53090337  -0.00383758  0.61795793  1
