# generated using pymatgen
data_La7(Ru4O11)2
_symmetry_space_group_name_H-M   'P 1'
_cell_length_a   23.99219286
_cell_length_b   16.83299360
_cell_length_c   15.42885698
_cell_angle_alpha   90.00309584
_cell_angle_beta   90.00003944
_cell_angle_gamma   90.00021866
_symmetry_Int_Tables_number   1
_chemical_formula_structural   La7(Ru4O11)2
_chemical_formula_sum   'La84 Ru96 O264'
_cell_volume   6231.10478590
_cell_formula_units_Z   12
loop_
 _symmetry_equiv_pos_site_id
 _symmetry_equiv_pos_as_xyz
  1  'x, y, z'
loop_
 _atom_type_symbol
 _atom_type_oxidation_number
  La3+  3.0
  Ru4+  4.0
  O2-  -2.0
loop_
 _atom_site_type_symbol
 _atom_site_label
 _atom_site_symmetry_multiplicity
 _atom_site_fract_x
 _atom_site_fract_y
 _atom_site_fract_z
 _atom_site_occupancy
  La3+  La0  1  0.14137698  0.00150488  0.12664293  1
  La3+  La1  1  0.14383048  -0.00042749  0.37582087  1
  La3+  La2  1  0.14531819  -0.00430911  0.62516706  1
  La3+  La3  1  0.14555301  -0.00040176  0.87178582  1
  La3+  La4  1  0.13772070  0.33196277  0.12058799  1
  La3+  La5  1  0.13833777  0.33237571  0.37349684  1
  La3+  La6  1  0.13861272  0.33653486  0.62512433  1
  La3+  La7  1  0.14381594  0.33255497  0.87813243  1
  La3+  La8  1  0.13670613  0.66847585  0.12505187  1
  La3+  La9  1  0.14266716  0.66855365  0.37759127  1
  La3+  La10  1  0.14008844  0.66951966  0.62251299  1
  La3+  La11  1  0.14177734  0.66513411  0.87961068  1
  La3+  La12  1  0.63847690  0.00589764  0.12845017  1
  La3+  La13  1  0.64094870  0.00160330  0.37524162  1
  La3+  La14  1  0.64010898  0.00168329  0.62625808  1
  La3+  La15  1  0.64253842  0.00311964  0.87238082  1
  La3+  La16  1  0.64651344  0.33053246  0.12808820  1
  La3+  La17  1  0.64287809  0.33224344  0.36994985  1
  La3+  La18  1  0.63542270  0.32509803  0.62784948  1
  La3+  La19  1  0.64639056  0.33148056  0.87466320  1
  La3+  La20  1  0.63405730  0.65896814  0.12637646  1
  La3+  La21  1  0.63647013  0.66580384  0.37074025  1
  La3+  La22  1  0.63556085  0.67146194  0.62757154  1
  La3+  La23  1  0.63780269  0.66601061  0.87620989  1
  La3+  La24  1  0.35783693  0.00389835  0.12431909  1
  La3+  La25  1  0.35691749  -0.00093740  0.37615495  1
  La3+  La26  1  0.35353081  -0.00420601  0.62506748  1
  La3+  La27  1  0.35618181  0.00312358  0.87398841  1
  La3+  La28  1  0.36251002  0.33008212  0.12337295  1
  La3+  La29  1  0.36027291  0.33511836  0.37864287  1
  La3+  La30  1  0.35811722  0.33668900  0.62819771  1
  La3+  La31  1  0.35891161  0.33322808  0.87778878  1
  La3+  La32  1  0.36138360  0.66641141  0.12773283  1
  La3+  La33  1  0.36032334  0.66980119  0.37891424  1
  La3+  La34  1  0.35076679  0.66543259  0.62637641  1
  La3+  La35  1  0.35792292  0.66650953  0.87517475  1
  La3+  La36  1  0.86212516  0.00146436  0.12521407  1
  La3+  La37  1  0.85834403  -0.00246009  0.37343447  1
  La3+  La38  1  0.86058097  0.00086380  0.62487291  1
  La3+  La39  1  0.86064438  0.00391541  0.87346434  1
  La3+  La40  1  0.85493512  0.32829304  0.12343536  1
  La3+  La41  1  0.85120402  0.32838155  0.36413464  1
  La3+  La42  1  0.86382182  0.33427861  0.62252150  1
  La3+  La43  1  0.85210870  0.33176314  0.87108353  1
  La3+  La44  1  0.87172861  0.65742968  0.12974030  1
  La3+  La45  1  0.87479802  0.65518276  0.35945890  1
  La3+  La46  1  0.86450806  0.67038369  0.62639022  1
  La3+  La47  1  0.86159704  0.66770186  0.87771163  1
  La3+  La48  1  0.49987756  0.83556142  0.87499027  1
  La3+  La49  1  0.50590414  0.15922012  0.37818233  1
  La3+  La50  1  0.00141635  0.82906469  0.88636206  1
  La3+  La51  1  0.50463448  0.16703782  0.87895148  1
  La3+  La52  1  -0.00706244  0.84201604  0.61571343  1
  La3+  La53  1  0.50243022  0.83867846  0.36593956  1
  La3+  La54  1  0.50271380  0.50086599  0.88131279  1
  La3+  La55  1  -0.00051414  0.50641471  0.37244469  1
  La3+  La56  1  0.49603479  0.16782261  0.86060779  1
  La3+  La57  1  0.50167829  0.16477528  0.35754919  1
  La3+  La58  1  0.50125128  0.50275074  0.13213293  1
  La3+  La59  1  0.49733357  0.82740381  0.13690005  1
  La3+  La60  1  0.50237588  0.82531995  0.85597091  1
  La3+  La61  1  0.00272418  0.16996734  0.61964616  1
  La3+  La62  1  0.50179569  0.83150951  0.61767533  1
  La3+  La63  1  0.01343916  0.15687068  0.87135838  1
  La3+  La64  1  0.00171800  0.50609708  0.13387444  1
  La3+  La65  1  0.49894179  0.14347939  0.12346100  1
  La3+  La66  1  0.00338114  0.49829371  0.88407187  1
  La3+  La67  1  0.50187671  0.83310637  0.11652047  1
  La3+  La68  1  0.49987464  0.49853675  0.63024668  1
  La3+  La69  1  0.49695058  0.50708141  0.36545898  1
  La3+  La70  1  -0.00152034  0.16824944  0.36507554  1
  La3+  La71  1  -0.00171016  0.83229890  0.36028323  1
  La3+  La72  1  0.25011927  0.43576410  0.01612128  1
  La3+  La73  1  0.74993940  0.48789869  0.23003089  1
  La3+  La74  1  0.25006518  0.12453111  0.52397312  1
  La3+  La75  1  0.75015992  0.49603806  0.83808766  1
  La3+  La76  1  0.75112619  0.83341514  0.21869471  1
  La3+  La77  1  0.25045151  0.15924106  0.75930332  1
  La3+  La78  1  0.25007512  0.84288581  0.26017145  1
  La3+  La79  1  0.74886570  0.14196958  0.50669882  1
  La3+  La80  1  0.24962095  0.79915736  0.03872064  1
  La3+  La81  1  0.74905263  0.52220676  0.47204461  1
  La3+  La82  1  0.75079049  0.79631612  -0.04933078  1
  La3+  La83  1  0.24960451  0.49725350  0.26162432  1
  Ru4+  Ru84  1  -0.00600817  -0.00081772  -0.01280703  1
  Ru4+  Ru85  1  0.00315816  -0.00471815  0.25183609  1
  Ru4+  Ru86  1  -0.00173438  0.00389175  0.49388124  1
  Ru4+  Ru87  1  -0.00109663  0.00063978  0.75657422  1
  Ru4+  Ru88  1  -0.00216284  0.32957102  -0.00293581  1
  Ru4+  Ru89  1  -0.00048157  0.33323472  0.25728095  1
  Ru4+  Ru90  1  -0.00319316  0.34906209  0.50084171  1
  Ru4+  Ru91  1  -0.00579796  0.33663700  0.74319301  1
  Ru4+  Ru92  1  0.00079386  0.66764613  0.00284113  1
  Ru4+  Ru93  1  0.00116709  0.66991948  0.24921672  1
  Ru4+  Ru94  1  -0.00001664  0.66155496  0.50007307  1
  Ru4+  Ru95  1  0.00401772  0.66748797  0.74710673  1
  Ru4+  Ru96  1  0.50336498  0.00063993  0.00037639  1
  Ru4+  Ru97  1  0.49694432  0.00194697  0.24668655  1
  Ru4+  Ru98  1  0.49489651  -0.00650165  0.49933216  1
  Ru4+  Ru99  1  0.49958649  0.00248614  0.74640560  1
  Ru4+  Ru100  1  0.50421895  0.32785692  0.00622023  1
  Ru4+  Ru101  1  0.50102024  0.33708936  0.24955063  1
  Ru4+  Ru102  1  0.49770812  0.33476330  0.50482713  1
  Ru4+  Ru103  1  0.49883342  0.33165331  0.74356275  1
  Ru4+  Ru104  1  0.50112545  0.66063077  0.00361638  1
  Ru4+  Ru105  1  0.49506928  0.66884698  0.24657515  1
  Ru4+  Ru106  1  0.49333511  0.67266656  0.50104953  1
  Ru4+  Ru107  1  0.49803952  0.66610004  0.74121816  1
  Ru4+  Ru108  1  0.11664111  0.16556362  -0.00006510  1
  Ru4+  Ru109  1  0.11268435  0.16925118  0.25066468  1
  Ru4+  Ru110  1  0.10965453  0.16685906  0.49819352  1
  Ru4+  Ru111  1  0.10926385  0.16707661  0.74966022  1
  Ru4+  Ru112  1  0.11234820  0.50399795  0.00037763  1
  Ru4+  Ru113  1  0.10852144  0.50021129  0.25369483  1
  Ru4+  Ru114  1  0.10845113  0.49855444  0.50345083  1
  Ru4+  Ru115  1  0.10745752  0.49934245  0.74753561  1
  Ru4+  Ru116  1  0.10996677  0.83321417  -0.00144195  1
  Ru4+  Ru117  1  0.10659059  0.83244661  0.24626916  1
  Ru4+  Ru118  1  0.11453704  0.83002545  0.50152196  1
  Ru4+  Ru119  1  0.11057597  0.83049947  0.75072872  1
  Ru4+  Ru120  1  0.61467672  0.17243858  0.00100539  1
  Ru4+  Ru121  1  0.61830985  0.16539086  0.24737184  1
  Ru4+  Ru122  1  0.61107704  0.16690972  0.50188740  1
  Ru4+  Ru123  1  0.61429569  0.16593759  0.74535290  1
  Ru4+  Ru124  1  0.61581719  0.50258125  -0.00239543  1
  Ru4+  Ru125  1  0.61219114  0.48922808  0.25086904  1
  Ru4+  Ru126  1  0.60823608  0.49657055  0.50319446  1
  Ru4+  Ru127  1  0.61122100  0.49950342  0.74968030  1
  Ru4+  Ru128  1  0.61659311  0.83285364  0.00080977  1
  Ru4+  Ru129  1  0.61430498  0.83147796  0.25210650  1
  Ru4+  Ru130  1  0.61282298  0.83467378  0.49877736  1
  Ru4+  Ru131  1  0.61751800  0.83026367  0.74592298  1
  Ru4+  Ru132  1  0.38110028  0.16613283  0.00409940  1
  Ru4+  Ru133  1  0.38309102  0.17307282  0.25014638  1
  Ru4+  Ru134  1  0.39119008  0.17013776  0.50891884  1
  Ru4+  Ru135  1  0.38894538  0.16680746  0.74891238  1
  Ru4+  Ru136  1  0.38723476  0.50820635  -0.00075715  1
  Ru4+  Ru137  1  0.38822630  0.50300216  0.25225240  1
  Ru4+  Ru138  1  0.38866538  0.49824303  0.50100361  1
  Ru4+  Ru139  1  0.38824399  0.49856690  0.74831007  1
  Ru4+  Ru140  1  0.38446984  0.83707215  -0.00044036  1
  Ru4+  Ru141  1  0.38800580  0.83496168  0.25258256  1
  Ru4+  Ru142  1  0.38794681  0.83825246  0.49984560  1
  Ru4+  Ru143  1  0.38564401  0.82898739  0.74522534  1
  Ru4+  Ru144  1  0.88960016  0.16920879  0.00249365  1
  Ru4+  Ru145  1  0.88444789  0.16879506  0.25325866  1
  Ru4+  Ru146  1  0.88688058  0.16221467  0.49777796  1
  Ru4+  Ru147  1  0.88578560  0.16810582  0.74779027  1
  Ru4+  Ru148  1  0.88683686  0.50420870  0.00291401  1
  Ru4+  Ru149  1  0.88909654  0.50110604  0.24802061  1
  Ru4+  Ru150  1  0.89294395  0.49490212  0.49763724  1
  Ru4+  Ru151  1  0.89015851  0.50084563  0.74986526  1
  Ru4+  Ru152  1  0.89070407  0.83313690  0.00283350  1
  Ru4+  Ru153  1  0.89115418  0.83328915  0.24810938  1
  Ru4+  Ru154  1  0.88603899  0.83509661  0.49826310  1
  Ru4+  Ru155  1  0.88746192  0.83144563  0.74971960  1
  Ru4+  Ru156  1  0.75032355  0.09242272  0.02330798  1
  Ru4+  Ru157  1  0.24979307  0.58627078  0.48694599  1
  Ru4+  Ru158  1  0.25002387  0.64679588  0.25119808  1
  Ru4+  Ru159  1  0.75075128  0.91332916  0.74887818  1
  Ru4+  Ru160  1  0.24942508  0.08295306  0.25091208  1
  Ru4+  Ru161  1  0.75047507  0.94326830  0.01085343  1
  Ru4+  Ru162  1  0.24937057  0.94494925  -0.02249694  1
  Ru4+  Ru163  1  0.74957022  0.69243839  0.24660045  1
  Ru4+  Ru164  1  0.75153878  0.64353359  0.51750415  1
  Ru4+  Ru165  1  0.25019595  0.59308666  0.00833416  1
  Ru4+  Ru166  1  0.75086262  0.00155116  0.49879482  1
  Ru4+  Ru167  1  0.75062395  0.41582414  0.02240755  1
  Ru4+  Ru168  1  0.75030147  0.76746900  0.50415197  1
  Ru4+  Ru169  1  0.24934372  0.58115442  0.74790875  1
  Ru4+  Ru170  1  0.24959805  0.41378444  0.49340673  1
  Ru4+  Ru171  1  0.74986730  0.39501883  0.52540422  1
  Ru4+  Ru172  1  0.25006329  0.35033630  0.24264758  1
  Ru4+  Ru173  1  0.74976712  0.61880826  0.74607460  1
  Ru4+  Ru174  1  0.24970213  0.26500454  0.48739312  1
  Ru4+  Ru175  1  0.74966112  0.97774495  0.24581871  1
  Ru4+  Ru176  1  0.24929364  0.77143208  0.72937240  1
  Ru4+  Ru177  1  0.75036987  0.38148306  0.72358229  1
  Ru4+  Ru178  1  0.75044273  0.26944808  0.47398370  1
  Ru4+  Ru179  1  0.24976022  0.40288511  0.75945847  1
  O2-  O180  1  0.16409227  0.08062860  -0.00014295  1
  O2-  O181  1  0.16567791  0.08082658  0.25034741  1
  O2-  O182  1  0.16390671  0.07750031  0.49872611  1
  O2-  O183  1  0.16609054  0.08305565  0.74926810  1
  O2-  O184  1  0.15828327  0.41050002  -0.00038302  1
  O2-  O185  1  0.16877645  0.40849717  0.24832249  1
  O2-  O186  1  0.16676553  0.41502445  0.49759418  1
  O2-  O187  1  0.16528429  0.41294288  0.75089359  1
  O2-  O188  1  0.16590611  0.74756895  0.00314722  1
  O2-  O189  1  0.17132802  0.74925644  0.24892895  1
  O2-  O190  1  0.16582172  0.75027314  0.49800484  1
  O2-  O191  1  0.16918726  0.74939770  0.74459367  1
  O2-  O192  1  0.66734807  0.08287733  0.00119701  1
  O2-  O193  1  0.66932981  0.07801961  0.25068435  1
  O2-  O194  1  0.66604699  0.07502697  0.50136630  1
  O2-  O195  1  0.66489729  0.07925937  0.75037104  1
  O2-  O196  1  0.66666528  0.41542343  0.00117793  1
  O2-  O197  1  0.66768708  0.41269992  0.25074559  1
  O2-  O198  1  0.66983008  0.41306540  0.49898934  1
  O2-  O199  1  0.66715893  0.41314667  0.74791535  1
  O2-  O200  1  0.66713369  0.74333647  0.00139865  1
  O2-  O201  1  0.66979403  0.74379111  0.24931497  1
  O2-  O202  1  0.66766378  0.74718864  0.50034808  1
  O2-  O203  1  0.66872176  0.74829083  0.75284854  1
  O2-  O204  1  0.33465797  0.25306971  -0.00013874  1
  O2-  O205  1  0.32866734  0.25263673  0.24572313  1
  O2-  O206  1  0.33198506  0.25177894  0.49907404  1
  O2-  O207  1  0.33022808  0.25217395  0.75060777  1
  O2-  O208  1  0.33337703  0.58617110  0.00166355  1
  O2-  O209  1  0.33098835  0.58914095  0.25039788  1
  O2-  O210  1  0.33443364  0.58460602  0.49525661  1
  O2-  O211  1  0.33518929  0.58361147  0.75405556  1
  O2-  O212  1  0.32834682  0.92130048  0.00265059  1
  O2-  O213  1  0.33351729  0.91720035  0.25013137  1
  O2-  O214  1  0.33276870  0.91603101  0.49818000  1
  O2-  O215  1  0.33757414  0.91622179  0.74927668  1
  O2-  O216  1  0.83096668  0.24453977  0.00470018  1
  O2-  O217  1  0.83383981  0.24788093  0.24361736  1
  O2-  O218  1  0.83468223  0.25310796  0.50099985  1
  O2-  O219  1  0.83192609  0.24773818  0.75128852  1
  O2-  O220  1  0.83468097  0.58593521  -0.00076680  1
  O2-  O221  1  0.82888429  0.58434972  0.25073382  1
  O2-  O222  1  0.83943091  0.58914187  0.49949693  1
  O2-  O223  1  0.83467831  0.58867114  0.75102505  1
  O2-  O224  1  0.83194077  0.91994992  -0.00171255  1
  O2-  O225  1  0.83293706  0.91929694  0.24755751  1
  O2-  O226  1  0.83086060  0.92131387  0.50445589  1
  O2-  O227  1  0.83219717  0.92029183  0.75010419  1
  O2-  O228  1  0.16302820  0.25152079  -0.00067672  1
  O2-  O229  1  0.16463209  0.25276158  0.24999446  1
  O2-  O230  1  0.16551110  0.25423620  0.50167302  1
  O2-  O231  1  0.16906710  0.25206613  0.74991771  1
  O2-  O232  1  0.16765662  0.58376080  0.00401473  1
  O2-  O233  1  0.16574647  0.58890393  0.24874250  1
  O2-  O234  1  0.16409357  0.58446008  0.49903486  1
  O2-  O235  1  0.16454238  0.58432331  0.74851661  1
  O2-  O236  1  0.16646072  0.92025977  0.00261363  1
  O2-  O237  1  0.16766596  0.91462343  0.25062722  1
  O2-  O238  1  0.16256592  0.91899942  0.49619930  1
  O2-  O239  1  0.16063596  0.91537392  0.74906453  1
  O2-  O240  1  0.66765077  0.24889311  0.00136706  1
  O2-  O241  1  0.66397527  0.25189882  0.24988305  1
  O2-  O242  1  0.66761049  0.25377648  0.49999124  1
  O2-  O243  1  0.66397940  0.24976549  0.75264102  1
  O2-  O244  1  0.66962948  0.58587292  -0.00384061  1
  O2-  O245  1  0.66586680  0.58299116  0.24957332  1
  O2-  O246  1  0.66092117  0.58903717  0.50035634  1
  O2-  O247  1  0.66585450  0.58897624  0.75161406  1
  O2-  O248  1  0.66788303  0.92145740  0.00056258  1
  O2-  O249  1  0.66690888  0.92212260  0.24913748  1
  O2-  O250  1  0.66453979  0.92093588  0.50205549  1
  O2-  O251  1  0.66869758  0.92027055  0.75055840  1
  O2-  O252  1  0.32934700  0.08078175  0.00089736  1
  O2-  O253  1  0.33212167  0.08332880  0.24984242  1
  O2-  O254  1  0.33891657  0.08083795  0.49871065  1
  O2-  O255  1  0.33329247  0.08379306  0.74917962  1
  O2-  O256  1  0.34216063  0.41066286  -0.00075143  1
  O2-  O257  1  0.33373213  0.41062054  0.24704540  1
  O2-  O258  1  0.33159995  0.41575292  0.50124031  1
  O2-  O259  1  0.33190081  0.41236279  0.75404499  1
  O2-  O260  1  0.33655374  0.74639082  0.00098903  1
  O2-  O261  1  0.32577539  0.74569025  0.25100553  1
  O2-  O262  1  0.33483024  0.75546707  0.49275760  1
  O2-  O263  1  0.33181566  0.74746568  0.75094126  1
  O2-  O264  1  0.83123546  0.08506433  0.00005344  1
  O2-  O265  1  0.83699420  0.08000750  0.24847732  1
  O2-  O266  1  0.82929870  0.07601410  0.50380509  1
  O2-  O267  1  0.83391869  0.08268858  0.74905857  1
  O2-  O268  1  0.83325067  0.41629746  0.00315296  1
  O2-  O269  1  0.83845482  0.41592532  0.24801225  1
  O2-  O270  1  0.83140748  0.41694100  0.50263993  1
  O2-  O271  1  0.83210318  0.41343695  0.74642720  1
  O2-  O272  1  0.83214673  0.74601736  -0.00077578  1
  O2-  O273  1  0.83362744  0.74296422  0.24912619  1
  O2-  O274  1  0.83376892  0.74726744  0.50014667  1
  O2-  O275  1  0.83655729  0.74862758  0.75049458  1
  O2-  O276  1  0.04250627  0.78625478  0.20930676  1
  O2-  O277  1  0.54366181  0.57363926  0.24027792  1
  O2-  O278  1  0.54447822  0.22184295  0.04169299  1
  O2-  O279  1  0.96358516  0.22012155  0.04181374  1
  O2-  O280  1  0.04488305  0.57041126  0.73636682  1
  O2-  O281  1  0.45232963  0.43883346  0.02055947  1
  O2-  O282  1  0.45519668  0.42379826  0.98494863  1
  O2-  O283  1  0.95311686  0.58036631  0.27290063  1
  O2-  O284  1  0.55150529  0.23804783  0.23735536  1
  O2-  O285  1  0.55228151  0.75959125  0.98845400  1
  O2-  O286  1  0.54528681  0.57016738  0.76205567  1
  O2-  O287  1  0.95298201  0.90757857  0.23494880  1
  O2-  O288  1  0.55049911  0.90309253  0.99271538  1
  O2-  O289  1  0.04689109  0.09700019  0.26201794  1
  O2-  O290  1  0.05025117  0.08987006  0.49382387  1
  O2-  O291  1  0.96154873  0.14116824  0.50434675  1
  O2-  O292  1  0.55219814  0.90573261  0.75477077  1
  O2-  O293  1  0.96289604  0.46019437  0.52531040  1
  O2-  O294  1  0.44942756  0.75765324  0.98994081  1
  O2-  O295  1  0.46531902  0.78703171  0.48354547  1
  O2-  O296  1  0.54800651  0.90486796  0.24117453  1
  O2-  O297  1  0.95420544  0.42629864  0.23235260  1
  O2-  O298  1  0.97403395  0.22582058  1.00710887  1
  O2-  O299  1  0.94969157  0.43706360  0.73853949  1
  O2-  O300  1  0.45513355  0.57005972  0.49090558  1
  O2-  O301  1  0.96664424  0.45511262  0.50799246  1
  O2-  O302  1  0.45105267  0.89996885  0.75208217  1
  O2-  O303  1  0.46042674  0.22767999  0.46823291  1
  O2-  O304  1  0.05208884  0.08980227  0.50290582  1
  O2-  O305  1  0.45391735  0.09350534  0.51859775  1
  O2-  O306  1  0.04613579  0.43355742  0.01700361  1
  O2-  O307  1  0.03284799  0.78444946  0.71533424  1
  O2-  O308  1  0.04957390  0.42046641  0.73935300  1
  O2-  O309  1  0.94863942  0.76147631  0.24357614  1
  O2-  O310  1  0.44408268  0.08592104  0.98160600  1
  O2-  O311  1  0.44745168  0.23895751  0.98621017  1
  O2-  O312  1  0.54681030  0.42997550  0.74547372  1
  O2-  O313  1  0.45554341  0.21512600  0.20948394  1
  O2-  O314  1  0.46646734  0.77696406  0.48328737  1
  O2-  O315  1  0.54688414  0.23710621  0.74300969  1
  O2-  O316  1  0.95399922  0.56547340  0.24914746  1
  O2-  O317  1  0.54591928  0.09277300  0.73105438  1
  O2-  O318  1  0.96611798  0.21754875  0.78166819  1
  O2-  O319  1  0.53642703  0.44838167  0.46732405  1
  O2-  O320  1  0.04219945  0.24597526  0.48486552  1
  O2-  O321  1  0.96185256  0.10245043  0.95812895  1
  O2-  O322  1  0.45295651  0.43493889  0.25714342  1
  O2-  O323  1  0.04687976  0.57064367  0.51012250  1
  O2-  O324  1  0.06078321  0.73951046  0.53400379  1
  O2-  O325  1  0.08340662  0.73080789  0.80282054  1
  O2-  O326  1  0.92859236  0.05938292  0.06358706  1
  O2-  O327  1  0.56493346  0.74176295  0.72410712  1
  O2-  O328  1  0.43584999  0.59807796  0.28735429  1
  O2-  O329  1  0.93680305  0.07535557  0.76972367  1
  O2-  O330  1  0.93909527  0.26201777  0.28110253  1
  O2-  O331  1  0.43907827  0.74296315  0.68554986  1
  O2-  O332  1  0.56342886  0.40505662  0.17567646  1
  O2-  O333  1  0.56930636  0.28560993  0.93188755  1
  O2-  O334  1  0.06149095  0.40382889  0.28290095  1
  O2-  O335  1  0.06622810  0.71335022  0.31393162  1
  O2-  O336  1  0.42834697  0.91218240  0.07042001  1
  O2-  O337  1  0.44375982  0.08761686  0.98248430  1
  O2-  O338  1  0.93583516  0.74557284  0.01788766  1
  O2-  O339  1  0.42147786  0.27554060  0.30324131  1
  O2-  O340  1  0.43633458  0.40663508  0.71711669  1
  O2-  O341  1  0.91744644  0.04798612  0.46379057  1
  O2-  O342  1  0.92561635  0.35510023  0.43797662  1
  O2-  O343  1  0.42554319  0.27774628  0.56931478  1
  O2-  O344  1  0.56471236  0.06605579  0.47049842  1
  O2-  O345  1  0.56561054  0.58582853  0.22589291  1
  O2-  O346  1  0.06200896  0.74842573  0.97280731  1
  O2-  O347  1  0.43903606  0.93043978  0.57817441  1
  O2-  O348  1  0.43326249  0.07799574  0.27816237  1
  O2-  O349  1  0.43003705  0.91900589  0.43276701  1
  O2-  O350  1  0.91509122  0.29651004  0.95335132  1
  O2-  O351  1  0.43351850  0.73582801  0.82484325  1
  O2-  O352  1  0.43658792  0.74453839  0.23123153  1
  O2-  O353  1  0.56455064  0.07588437  0.23154054  1
  O2-  O354  1  0.06940948  0.39829761  0.53069188  1
  O2-  O355  1  0.42679289  0.91526981  0.92940070  1
  O2-  O356  1  0.93920673  0.91999300  0.03260632  1
  O2-  O357  1  0.92881510  0.60184021  0.22773291  1
  O2-  O358  1  0.92134101  0.27475219  0.70021343  1
  O2-  O359  1  0.58056978  0.40220343  0.56010399  1
  O2-  O360  1  0.42103759  0.68831529  0.55348503  1
  O2-  O361  1  0.56397737  0.25359784  0.52200420  1
  O2-  O362  1  0.56508469  0.40653454  0.31838496  1
  O2-  O363  1  0.56679196  0.73483167  0.46343635  1
  O2-  O364  1  0.06323184  0.58761023  0.97500827  1
  O2-  O365  1  0.94148416  0.91395614  0.47664106  1
  O2-  O366  1  0.05651683  0.40323262  0.03046536  1
  O2-  O367  1  0.06589207  0.93460457  0.21731351  1
  O2-  O368  1  0.43431387  0.40976633  0.47531892  1
  O2-  O369  1  0.93977137  0.73873388  0.46494401  1
  O2-  O370  1  0.56224064  0.58411244  0.02100225  1
  O2-  O371  1  0.56398277  0.74246710  0.23176505  1
  O2-  O372  1  0.24979533  0.67203632  0.10876111  1
  O2-  O373  1  0.75089826  0.34398646  0.13568607  1
  O2-  O374  1  0.24934763  0.34286418  0.38653028  1
  O2-  O375  1  0.24923601  0.67093358  0.55362480  1
  O2-  O376  1  0.25004111  -0.00136860  0.57914678  1
  O2-  O377  1  0.24894104  0.00058565  0.34354869  1
  O2-  O378  1  0.75004893  0.67571797  0.63786353  1
  O2-  O379  1  0.75032410  0.66971257  0.86092037  1
  O2-  O380  1  0.24923214  0.00917418  0.67085526  1
  O2-  O381  1  0.24856030  0.66976439  0.67485606  1
  O2-  O382  1  0.74862335  0.33589859  0.36787717  1
  O2-  O383  1  0.24912049  0.33844046  0.88451067  1
  O2-  O384  1  0.24889059  0.00168295  0.15733884  1
  O2-  O385  1  0.25000092  0.67621106  0.81564443  1
  O2-  O386  1  0.24910467  0.33668521  0.60076251  1
  O2-  O387  1  0.25039915  0.66494131  0.38931665  1
  O2-  O388  1  0.74955176  0.32146732  0.81932313  1
  O2-  O389  1  0.25026777  0.68228538  0.93846553  1
  O2-  O390  1  0.74982933  0.33848867  0.94340216  1
  O2-  O391  1  0.74951520  0.00620838  0.36355459  1
  O2-  O392  1  0.24995478  0.00378139  0.86299467  1
  O2-  O393  1  0.24929616  0.33591113  0.11614915  1
  O2-  O394  1  0.75015739  0.65710716  0.36427476  1
  O2-  O395  1  0.75003320  0.00433051  0.89888656  1
  O2-  O396  1  0.24959536  0.16286969  0.08586358  1
  O2-  O397  1  0.25032853  0.52136379  0.12262280  1
  O2-  O398  1  0.24970151  0.17318401  0.38900627  1
  O2-  O399  1  0.75027969  0.17221672  0.36294986  1
  O2-  O400  1  0.24951713  0.49377893  0.82128938  1
  O2-  O401  1  0.24987051  0.48844305  0.68321593  1
  O2-  O402  1  0.24988596  0.84233980  0.90511976  1
  O2-  O403  1  0.75012920  0.84652299  0.58894289  1
  O2-  O404  1  0.74961048  0.84528017  0.08200836  1
  O2-  O405  1  0.74999666  0.85492281  0.43566033  1
  O2-  O406  1  0.24914445  0.16726031  0.17063187  1
  O2-  O407  1  0.74933571  0.16814950  0.63841512  1
  O2-  O408  1  0.74999944  0.82870391  0.67350593  1
  O2-  O409  1  0.74971408  0.83005725  0.35272685  1
  O2-  O410  1  0.24960312  0.84580790  0.81546657  1
  O2-  O411  1  0.24996609  0.50200429  0.56385443  1
  O2-  O412  1  0.24994393  0.52024813  0.91235845  1
  O2-  O413  1  0.74990279  0.14926753  0.12815906  1
  O2-  O414  1  0.74999592  0.49586631  0.60434094  1
  O2-  O415  1  0.25001538  0.49829574  0.40359617  1
  O2-  O416  1  0.74967342  0.49965995  0.69427955  1
  O2-  O417  1  0.74991417  0.50115222  0.09677227  1
  O2-  O418  1  0.75054268  0.49133520  0.35425794  1
  O2-  O419  1  0.24990146  0.82249909  0.61704819  1
  O2-  O420  1  0.45718090  0.01387692  0.14140548  1
  O2-  O421  1  0.54854500  0.00907987  0.88573372  1
  O2-  O422  1  0.48754408  0.33343024  0.37777588  1
  O2-  O423  1  0.98248200  0.32780083  0.61611600  1
  O2-  O424  1  0.02442847  -0.00654781  0.63189711  1
  O2-  O425  1  0.53858974  0.68053739  0.11686838  1
  O2-  O426  1  0.97015912  0.66871863  0.62890031  1
  O2-  O427  1  0.54590725  -0.00530594  0.10877941  1
  O2-  O428  1  0.45986396  0.01195475  0.84531237  1
  O2-  O429  1  0.98009205  0.00286853  0.36628235  1
  O2-  O430  1  0.51766281  0.33148848  0.63003970  1
  O2-  O431  1  0.47353161  0.33632827  0.12340338  1
  O2-  O432  1  0.96349149  0.66225349  0.11486357  1
  O2-  O433  1  0.02839709  0.65612088  0.87247943  1
  O2-  O434  1  0.04738030  0.65699049  0.11967472  1
  O2-  O435  1  0.52567841  0.65686791  0.61945680  1
  O2-  O436  1  0.52600680  0.66515930  0.87656593  1
  O2-  O437  1  0.48562816  0.00368443  0.37062190  1
  O2-  O438  1  0.98338684  0.34848595  0.86708319  1
  O2-  O439  1  0.95188239  0.66737751  0.87736379  1
  O2-  O440  1  0.04758375  0.00146351  0.87875699  1
  O2-  O441  1  0.47433785  0.33420210  0.86801753  1
  O2-  O442  1  0.95587560  -0.02147056  0.87566734  1
  O2-  O443  1  0.45295951  0.65001360  0.11294181  1
