# generated using pymatgen
data_La7(Ru4O11)2
_symmetry_space_group_name_H-M   'P 1'
_cell_length_a   23.99927229
_cell_length_b   16.83934920
_cell_length_c   15.43564671
_cell_angle_alpha   90.00056835
_cell_angle_beta   90.00195071
_cell_angle_gamma   89.99567199
_symmetry_Int_Tables_number   1
_chemical_formula_structural   La7(Ru4O11)2
_chemical_formula_sum   'La84 Ru96 O264'
_cell_volume   6238.04071135
_cell_formula_units_Z   12
loop_
 _symmetry_equiv_pos_site_id
 _symmetry_equiv_pos_as_xyz
  1  'x, y, z'
loop_
 _atom_type_symbol
 _atom_type_oxidation_number
  La3+  3.0
  Ru4+  4.0
  O2-  -2.0
loop_
 _atom_site_type_symbol
 _atom_site_label
 _atom_site_symmetry_multiplicity
 _atom_site_fract_x
 _atom_site_fract_y
 _atom_site_fract_z
 _atom_site_occupancy
  La3+  La0  1  0.13577928  -0.00813679  0.12021581  1
  La3+  La1  1  0.14304984  -0.00095847  0.37706172  1
  La3+  La2  1  0.14926200  0.00920022  0.62854750  1
  La3+  La3  1  0.14448786  0.00156454  0.86830348  1
  La3+  La4  1  0.14701683  0.33457362  0.13019939  1
  La3+  La5  1  0.13397739  0.33399958  0.37602232  1
  La3+  La6  1  0.14136278  0.33348705  0.62898964  1
  La3+  La7  1  0.13980235  0.33537347  0.86633682  1
  La3+  La8  1  0.14674005  0.66513050  0.12810327  1
  La3+  La9  1  0.15018026  0.67351382  0.39220795  1
  La3+  La10  1  0.15267713  0.67412279  0.63038061  1
  La3+  La11  1  0.16114065  0.67357139  0.87788227  1
  La3+  La12  1  0.64626137  -0.00051204  0.12768777  1
  La3+  La13  1  0.64381331  -0.00426766  0.36989495  1
  La3+  La14  1  0.64057113  -0.00387578  0.62349689  1
  La3+  La15  1  0.63415154  0.00207568  0.87006283  1
  La3+  La16  1  0.64336590  0.33308751  0.12904855  1
  La3+  La17  1  0.64357358  0.32958125  0.37217128  1
  La3+  La18  1  0.63159215  0.33133232  0.62438090  1
  La3+  La19  1  0.63342131  0.33264808  0.87420594  1
  La3+  La20  1  0.63047510  0.65728737  0.12844481  1
  La3+  La21  1  0.64399368  0.66848270  0.38145226  1
  La3+  La22  1  0.63936760  0.67586850  0.61802638  1
  La3+  La23  1  0.63755314  0.66888742  0.86863692  1
  La3+  La24  1  0.36267714  -0.00275396  0.12649764  1
  La3+  La25  1  0.37193856  -0.00017804  0.38015658  1
  La3+  La26  1  0.35521707  -0.00973906  0.62929308  1
  La3+  La27  1  0.35905718  0.00197066  0.86746441  1
  La3+  La28  1  0.36507523  0.33741969  0.12636934  1
  La3+  La29  1  0.36559302  0.33746878  0.37828514  1
  La3+  La30  1  0.36694102  0.32881780  0.62678768  1
  La3+  La31  1  0.35215581  0.33125712  0.87101176  1
  La3+  La32  1  0.34968019  0.66419334  0.11824855  1
  La3+  La33  1  0.36422484  0.67046152  0.38687944  1
  La3+  La34  1  0.34340506  0.66978311  0.62291537  1
  La3+  La35  1  0.34933307  0.66993629  0.87439526  1
  La3+  La36  1  0.85276992  0.00265249  0.12608713  1
  La3+  La37  1  0.85106464  0.00256453  0.37198506  1
  La3+  La38  1  0.85756133  -0.01762094  0.62739122  1
  La3+  La39  1  0.84934963  -0.00467954  0.86217349  1
  La3+  La40  1  0.85363980  0.32906720  0.12307429  1
  La3+  La41  1  0.85913006  0.32313578  0.37183184  1
  La3+  La42  1  0.85657576  0.33596652  0.63316195  1
  La3+  La43  1  0.87577645  0.31849730  0.87418347  1
  La3+  La44  1  0.87395538  0.66165694  0.12527911  1
  La3+  La45  1  0.85386229  0.66257455  0.37819745  1
  La3+  La46  1  0.86371352  0.67571310  0.61921563  1
  La3+  La47  1  0.84570196  0.67250560  0.86643790  1
  La3+  La48  1  -0.01252754  0.45918665  0.12593587  1
  La3+  La49  1  0.50194728  0.50767880  0.62330302  1
  La3+  La50  1  0.01451576  0.82134860  0.14040879  1
  La3+  La51  1  -0.01235877  0.49832497  0.61683687  1
  La3+  La52  1  0.49429912  0.16406115  0.64605809  1
  La3+  La53  1  0.00248781  0.18230276  0.60984629  1
  La3+  La54  1  0.00289524  0.82645453  0.37379255  1
  La3+  La55  1  0.50028846  0.15870403  0.12961972  1
  La3+  La56  1  0.49271161  0.16675458  0.87561015  1
  La3+  La57  1  0.49883235  0.49713058  0.36112004  1
  La3+  La58  1  -0.00005579  0.15362245  0.34948060  1
  La3+  La59  1  0.00272583  0.15876296  0.36444992  1
  La3+  La60  1  0.49680748  0.83648716  0.62639897  1
  La3+  La61  1  0.00703614  0.48971687  0.87995848  1
  La3+  La62  1  0.00600214  0.18068075  0.10537201  1
  La3+  La63  1  0.50994370  0.15845292  0.36767331  1
  La3+  La64  1  0.49988428  0.49836172  0.88123455  1
  La3+  La65  1  -0.00738701  0.82957801  0.38901183  1
  La3+  La66  1  -0.00700607  0.50753855  0.59868745  1
  La3+  La67  1  -0.00719510  0.81807012  0.88003569  1
  La3+  La68  1  0.49599061  0.84388975  0.13697007  1
  La3+  La69  1  -0.01179662  0.48902465  0.35681951  1
  La3+  La70  1  -0.00623906  0.82537407  0.90105231  1
  La3+  La71  1  0.49919491  0.82931549  0.87529243  1
  La3+  La72  1  0.75259551  0.12891223  0.68666454  1
  La3+  La73  1  0.25012447  0.15193167  0.06443990  1
  La3+  La74  1  0.75127576  0.18069154  0.06473043  1
  La3+  La75  1  0.75162288  0.46626259  -0.06398025  1
  La3+  La76  1  0.25693952  0.84431367  0.36555110  1
  La3+  La77  1  0.24895393  0.47287194  0.22140372  1
  La3+  La78  1  0.75163860  0.46140300  0.71587859  1
  La3+  La79  1  0.24821775  0.20689016  0.46032645  1
  La3+  La80  1  0.25125891  0.81696814  -0.03814757  1
  La3+  La81  1  0.74601693  0.77383610  0.00195733  1
  La3+  La82  1  0.75015862  0.79344884  0.25234087  1
  La3+  La83  1  0.75083354  0.45258418  0.29336380  1
  Ru4+  Ru84  1  -0.01812179  0.00103186  0.00446471  1
  Ru4+  Ru85  1  0.00296560  0.00766444  0.24513618  1
  Ru4+  Ru86  1  0.00191404  0.00095962  0.50937743  1
  Ru4+  Ru87  1  0.00765677  0.00595724  0.74160554  1
  Ru4+  Ru88  1  0.00491238  0.32282311  -0.01117528  1
  Ru4+  Ru89  1  -0.00012332  0.33992397  0.25340955  1
  Ru4+  Ru90  1  0.00329342  0.32942970  0.50424360  1
  Ru4+  Ru91  1  -0.00135384  0.32663509  0.74569971  1
  Ru4+  Ru92  1  -0.00546088  0.65469190  0.00358235  1
  Ru4+  Ru93  1  0.00580139  0.65423421  0.24398255  1
  Ru4+  Ru94  1  0.00456418  0.66883818  0.50042966  1
  Ru4+  Ru95  1  0.01014534  0.66269584  0.75160365  1
  Ru4+  Ru96  1  0.50106298  0.00437473  -0.00265952  1
  Ru4+  Ru97  1  0.49808650  -0.00475108  0.24216568  1
  Ru4+  Ru98  1  0.49254012  0.01021665  0.51094681  1
  Ru4+  Ru99  1  0.49567871  -0.00110111  0.74011523  1
  Ru4+  Ru100  1  0.50998951  0.31116171  0.00346265  1
  Ru4+  Ru101  1  0.49766617  0.33440337  0.23930327  1
  Ru4+  Ru102  1  0.50893307  0.32269057  0.50204367  1
  Ru4+  Ru103  1  0.50620299  0.33584416  0.75375726  1
  Ru4+  Ru104  1  0.49628848  0.65349760  -0.00730333  1
  Ru4+  Ru105  1  0.50981113  0.68542141  0.26887490  1
  Ru4+  Ru106  1  0.49386527  0.68560294  0.49738465  1
  Ru4+  Ru107  1  0.50139293  0.67258771  0.76391791  1
  Ru4+  Ru108  1  0.11327015  0.17640334  0.00386612  1
  Ru4+  Ru109  1  0.11433785  0.16427819  0.23466666  1
  Ru4+  Ru110  1  0.10288215  0.16569866  0.50208402  1
  Ru4+  Ru111  1  0.11255089  0.15603112  0.75545759  1
  Ru4+  Ru112  1  0.11568542  0.49466057  -0.00132509  1
  Ru4+  Ru113  1  0.10920151  0.52006462  0.25547915  1
  Ru4+  Ru114  1  0.11139183  0.50703068  0.49503024  1
  Ru4+  Ru115  1  0.10868799  0.51257023  0.75872954  1
  Ru4+  Ru116  1  0.11246866  0.83718232  0.00676493  1
  Ru4+  Ru117  1  0.10807024  0.83783139  0.25142691  1
  Ru4+  Ru118  1  0.11013119  0.83345396  0.50776518  1
  Ru4+  Ru119  1  0.11045825  0.85246461  0.73194833  1
  Ru4+  Ru120  1  0.61022909  0.16572168  -0.00189396  1
  Ru4+  Ru121  1  0.61555368  0.16306684  0.24841829  1
  Ru4+  Ru122  1  0.60662133  0.16802040  0.49715476  1
  Ru4+  Ru123  1  0.60946659  0.16251164  0.74803850  1
  Ru4+  Ru124  1  0.60977425  0.49539397  -0.00059218  1
  Ru4+  Ru125  1  0.60648467  0.50309777  0.24985905  1
  Ru4+  Ru126  1  0.60987819  0.49894592  0.50051247  1
  Ru4+  Ru127  1  0.61118495  0.49984888  0.74947773  1
  Ru4+  Ru128  1  0.60580151  0.83343991  -0.00550882  1
  Ru4+  Ru129  1  0.60147563  0.82280212  0.25080540  1
  Ru4+  Ru130  1  0.61564198  0.82555350  0.50017402  1
  Ru4+  Ru131  1  0.61638884  0.83110852  0.74993866  1
  Ru4+  Ru132  1  0.38663317  0.17094652  -0.00511299  1
  Ru4+  Ru133  1  0.38500974  0.16934774  0.24900265  1
  Ru4+  Ru134  1  0.38877374  0.16429315  0.50179291  1
  Ru4+  Ru135  1  0.38354387  0.16296892  0.74470183  1
  Ru4+  Ru136  1  0.38734379  0.50172295  0.00366000  1
  Ru4+  Ru137  1  0.39057674  0.50114901  0.25187573  1
  Ru4+  Ru138  1  0.38868606  0.49438872  0.49598635  1
  Ru4+  Ru139  1  0.39149452  0.50651632  0.75078571  1
  Ru4+  Ru140  1  0.39265862  0.83349224  -0.00253812  1
  Ru4+  Ru141  1  0.38785177  0.83252056  0.25027112  1
  Ru4+  Ru142  1  0.39756044  0.82103719  0.49688015  1
  Ru4+  Ru143  1  0.37962748  0.83348180  0.75535298  1
  Ru4+  Ru144  1  0.89571713  0.15820736  -0.00372023  1
  Ru4+  Ru145  1  0.88803651  0.16137231  0.25104365  1
  Ru4+  Ru146  1  0.88806140  0.17006882  0.49758947  1
  Ru4+  Ru147  1  0.91141361  0.15011854  0.75663868  1
  Ru4+  Ru148  1  0.88878099  0.50448966  -0.00754857  1
  Ru4+  Ru149  1  0.88844433  0.49957736  0.25022376  1
  Ru4+  Ru150  1  0.88439656  0.49978650  0.48775128  1
  Ru4+  Ru151  1  0.88858758  0.50470596  0.76303491  1
  Ru4+  Ru152  1  0.88972040  0.84023989  0.00155699  1
  Ru4+  Ru153  1  0.89151658  0.83616323  0.24769678  1
  Ru4+  Ru154  1  0.88902955  0.83247047  0.50507041  1
  Ru4+  Ru155  1  0.88936960  0.83857229  0.74166057  1
  Ru4+  Ru156  1  0.25130773  0.43249926  0.74524365  1
  Ru4+  Ru157  1  0.24928616  0.41777915  0.51467255  1
  Ru4+  Ru158  1  0.24893046  0.06642285  0.51584897  1
  Ru4+  Ru159  1  0.75010046  0.40679067  0.50230257  1
  Ru4+  Ru160  1  0.24976619  0.09061280  0.25133471  1
  Ru4+  Ru161  1  0.75006866  0.06029666  -0.03654253  1
  Ru4+  Ru162  1  0.74894761  0.92866746  0.48713037  1
  Ru4+  Ru163  1  0.74779524  0.93774370  0.26175028  1
  Ru4+  Ru164  1  0.75062212  0.07345748  0.49373467  1
  Ru4+  Ru165  1  0.74732230  0.26167736  0.49060563  1
  Ru4+  Ru166  1  0.25373641  0.32134137  0.26764740  1
  Ru4+  Ru167  1  0.74876612  0.92173666  0.00016012  1
  Ru4+  Ru168  1  0.74799660  0.58981733  0.03687700  1
  Ru4+  Ru169  1  0.25119916  0.57663634  0.73623095  1
  Ru4+  Ru170  1  0.25141887  0.91428047  0.50882831  1
  Ru4+  Ru171  1  0.74981230  0.26837508  0.75109729  1
  Ru4+  Ru172  1  0.24912363  0.00816820  -0.01638766  1
  Ru4+  Ru173  1  0.74915895  0.61250853  0.71534943  1
  Ru4+  Ru174  1  0.74990978  0.31983342  -0.00293100  1
  Ru4+  Ru175  1  0.74875393  0.60996066  0.25951509  1
  Ru4+  Ru176  1  0.25136238  0.27079711  -0.02249034  1
  Ru4+  Ru177  1  0.24907954  0.95383335  0.22920126  1
  Ru4+  Ru178  1  0.25405084  0.60764067  0.30258263  1
  Ru4+  Ru179  1  0.25037180  0.74255392  0.24646565  1
  O2-  O180  1  0.16697551  0.08149426  0.00431185  1
  O2-  O181  1  0.16924263  0.08323514  0.25007092  1
  O2-  O182  1  0.16531916  0.08407029  0.49343777  1
  O2-  O183  1  0.17159520  0.08720357  0.75013398  1
  O2-  O184  1  0.16221393  0.41233964  -0.00403227  1
  O2-  O185  1  0.15837592  0.41924272  0.25767169  1
  O2-  O186  1  0.16383311  0.41600365  0.50001360  1
  O2-  O187  1  0.16771705  0.42240172  0.74791071  1
  O2-  O188  1  0.16198354  0.75069917  0.00948034  1
  O2-  O189  1  0.16710628  0.75054990  0.25014365  1
  O2-  O190  1  0.16661070  0.75825191  0.50611245  1
  O2-  O191  1  0.15398794  0.76373696  0.74892669  1
  O2-  O192  1  0.66872089  0.08010675  -0.00844392  1
  O2-  O193  1  0.66749815  0.07919884  0.25320350  1
  O2-  O194  1  0.66902583  0.08422923  0.50901194  1
  O2-  O195  1  0.66811016  0.08174734  0.74322041  1
  O2-  O196  1  0.66605319  0.41156050  -0.00575643  1
  O2-  O197  1  0.66092340  0.41586575  0.24804647  1
  O2-  O198  1  0.66677746  0.40999202  0.50850721  1
  O2-  O199  1  0.66882876  0.41517197  0.75063517  1
  O2-  O200  1  0.64957544  0.73820642  0.00461720  1
  O2-  O201  1  0.66078170  0.73997168  0.24258108  1
  O2-  O202  1  0.67397656  0.75321902  0.49874832  1
  O2-  O203  1  0.66686316  0.74955074  0.74789373  1
  O2-  O204  1  0.33208626  0.25534856  0.00665805  1
  O2-  O205  1  0.33242155  0.25399495  0.25404159  1
  O2-  O206  1  0.33609446  0.25620643  0.50151444  1
  O2-  O207  1  0.33555672  0.25486454  0.74182813  1
  O2-  O208  1  0.33822094  0.58313704  -0.00176908  1
  O2-  O209  1  0.33544177  0.58554690  0.25671836  1
  O2-  O210  1  0.34120836  0.57885574  0.49567624  1
  O2-  O211  1  0.33279000  0.58408620  0.75261189  1
  O2-  O212  1  0.33685642  0.92074733  -0.00121914  1
  O2-  O213  1  0.32814548  0.92540608  0.25707585  1
  O2-  O214  1  0.33711307  0.91436140  0.49210099  1
  O2-  O215  1  0.33095849  0.92057135  0.75652341  1
  O2-  O216  1  0.82969335  0.25288683  -0.00463629  1
  O2-  O217  1  0.84111022  0.24998336  0.24829521  1
  O2-  O218  1  0.82732273  0.25287382  0.49431358  1
  O2-  O219  1  0.83217688  0.25225261  0.75338428  1
  O2-  O220  1  0.83018431  0.58207608  0.00901446  1
  O2-  O221  1  0.82951982  0.58709708  0.24983015  1
  O2-  O222  1  0.83967170  0.58655560  0.50713008  1
  O2-  O223  1  0.83107717  0.58365421  0.73563150  1
  O2-  O224  1  0.83209309  0.91843657  0.00621020  1
  O2-  O225  1  0.83131289  0.91544260  0.24952422  1
  O2-  O226  1  0.83062689  0.91407336  0.49315987  1
  O2-  O227  1  0.82732329  0.91102463  0.74324714  1
  O2-  O228  1  0.17083584  0.25773258  0.00026235  1
  O2-  O229  1  0.17016837  0.25265766  0.26200255  1
  O2-  O230  1  0.15940706  0.25609394  0.49905336  1
  O2-  O231  1  0.15714951  0.25083177  0.74893231  1
  O2-  O232  1  0.15530232  0.58638222  0.00508445  1
  O2-  O233  1  0.18243418  0.57753644  0.24245859  1
  O2-  O234  1  0.16577337  0.58075139  0.50116497  1
  O2-  O235  1  0.17101479  0.57936404  0.74180997  1
  O2-  O236  1  0.17334990  0.92425331  -0.00489236  1
  O2-  O237  1  0.16822549  0.92537690  0.25124562  1
  O2-  O238  1  0.16578456  0.91957637  0.50010777  1
  O2-  O239  1  0.16797216  0.92186333  0.75183810  1
  O2-  O240  1  0.67131281  0.25638270  0.00351289  1
  O2-  O241  1  0.66263744  0.25265092  0.24919054  1
  O2-  O242  1  0.66495215  0.24976106  0.50556793  1
  O2-  O243  1  0.66237889  0.25384861  0.74518801  1
  O2-  O244  1  0.66732810  0.58347576  -0.00178424  1
  O2-  O245  1  0.66628113  0.58469408  0.25582834  1
  O2-  O246  1  0.65736294  0.58437622  0.50618999  1
  O2-  O247  1  0.66659849  0.58719059  0.74177633  1
  O2-  O248  1  0.66601842  0.91562252  0.00017669  1
  O2-  O249  1  0.66324771  0.90837331  0.24983999  1
  O2-  O250  1  0.66673115  0.91749566  0.49730738  1
  O2-  O251  1  0.66199529  0.91988991  0.74670467  1
  O2-  O252  1  0.32841170  0.07812163  0.00586623  1
  O2-  O253  1  0.32865289  0.08590297  0.25267460  1
  O2-  O254  1  0.32904545  0.07885379  0.48868158  1
  O2-  O255  1  0.32982290  0.08206166  0.74964235  1
  O2-  O256  1  0.34482471  0.41106207  0.00008443  1
  O2-  O257  1  0.32986096  0.40551039  0.25532302  1
  O2-  O258  1  0.33195660  0.40998272  0.50693039  1
  O2-  O259  1  0.33897390  0.41838588  0.74585496  1
  O2-  O260  1  0.33755999  0.75177479  0.00408628  1
  O2-  O261  1  0.33531112  0.74749204  0.25073334  1
  O2-  O262  1  0.32795409  0.76435081  0.48375731  1
  O2-  O263  1  0.33454908  0.74777106  0.74869079  1
  O2-  O264  1  0.83271179  0.08049394  -0.00643432  1
  O2-  O265  1  0.83618771  0.07886108  0.24861193  1
  O2-  O266  1  0.83523140  0.08235047  0.50174231  1
  O2-  O267  1  0.82968570  0.08521367  0.74974233  1
  O2-  O268  1  0.83746027  0.41320756  -0.00912578  1
  O2-  O269  1  0.84014019  0.40855851  0.24876530  1
  O2-  O270  1  0.83461497  0.40847192  0.50002313  1
  O2-  O271  1  0.83391478  0.41261168  0.76964013  1
  O2-  O272  1  0.84333947  0.74772448  0.01155790  1
  O2-  O273  1  0.84264095  0.74471595  0.24395174  1
  O2-  O274  1  0.83667084  0.75050847  0.49984697  1
  O2-  O275  1  0.84071396  0.75128301  0.73997454  1
  O2-  O276  1  0.03250270  0.54809576  0.22095460  1
  O2-  O277  1  0.04499370  0.75418834  0.01649556  1
  O2-  O278  1  0.54049237  0.09997458  0.54494605  1
  O2-  O279  1  0.55650363  0.08281056  0.94413828  1
  O2-  O280  1  0.95346364  0.89240296  0.06272479  1
  O2-  O281  1  0.95931664  0.76092802  0.25455046  1
  O2-  O282  1  0.54574624  0.56853639  0.76055038  1
  O2-  O283  1  0.44530644  0.76123775  0.76843917  1
  O2-  O284  1  0.95906410  0.24177534  0.45022840  1
  O2-  O285  1  0.96131262  0.10753963  0.21186427  1
  O2-  O286  1  0.44671317  0.24880325  0.53065427  1
  O2-  O287  1  0.94776747  0.42395228  0.78039894  1
  O2-  O288  1  0.95007003  0.23920596  0.82557578  1
  O2-  O289  1  0.45055804  0.56773300  0.02303305  1
  O2-  O290  1  0.95472408  0.75488747  0.75678223  1
  O2-  O291  1  0.99159640  0.12135923  0.73189241  1
  O2-  O292  1  0.94299927  0.25734499  1.01487170  1
  O2-  O293  1  0.54631145  0.42730275  0.24038966  1
  O2-  O294  1  0.47668284  0.79612416  0.47763634  1
  O2-  O295  1  0.45521017  0.43201429  0.73503242  1
  O2-  O296  1  0.55156652  0.76323260  0.75337630  1
  O2-  O297  1  0.04633679  0.16956488  -0.04012069  1
  O2-  O298  1  0.55027539  0.76408888  0.74368519  1
  O2-  O299  1  0.03447816  0.55799324  0.45319371  1
  O2-  O300  1  0.04447366  0.89466285  0.79777054  1
  O2-  O301  1  0.96488631  0.09739675  0.95134475  1
  O2-  O302  1  0.44710229  0.24330371  0.26666750  1
  O2-  O303  1  0.96248646  0.54422832  1.01184728  1
  O2-  O304  1  0.44265347  0.91768284  0.50659435  1
  O2-  O305  1  0.44750393  0.09941193  1.00000484  1
  O2-  O306  1  0.95520686  0.91703351  0.23915772  1
  O2-  O307  1  0.94203955  0.25805324  -0.00129067  1
  O2-  O308  1  0.04495353  0.90264609  0.50192365  1
  O2-  O309  1  0.55879357  0.24098880  0.56395669  1
  O2-  O310  1  0.44315315  0.08780625  0.44710308  1
  O2-  O311  1  0.05144661  0.42206909  0.51168294  1
  O2-  O312  1  0.04505437  0.43418324  0.01178772  1
  O2-  O313  1  0.05279393  0.92357250  0.00814488  1
  O2-  O314  1  0.96750721  0.54440115  0.00457945  1
  O2-  O315  1  0.03266869  0.55030634  0.73704200  1
  O2-  O316  1  0.55171919  0.24773822  0.24767990  1
  O2-  O317  1  0.03294913  0.54142670  0.22791016  1
  O2-  O318  1  0.94960626  0.24484927  0.26985757  1
  O2-  O319  1  0.95791784  0.09938854  0.49433579  1
  O2-  O320  1  0.44809123  0.25146522  0.75256947  1
  O2-  O321  1  0.96183684  0.77773288  0.52397618  1
  O2-  O322  1  0.55406665  0.57236368  1.00212513  1
  O2-  O323  1  0.02771988  0.54904300  0.74412156  1
  O2-  O324  1  0.44454650  0.74299258  0.97373294  1
  O2-  O325  1  0.06004450  0.25439253  0.22298951  1
  O2-  O326  1  0.43860485  0.07968568  0.78026105  1
  O2-  O327  1  0.06363483  0.05451367  0.32523533  1
  O2-  O328  1  0.93170130  0.93470092  0.92123772  1
  O2-  O329  1  0.55583502  0.41849885  0.46254051  1
  O2-  O330  1  0.09430781  0.62725114  0.29174873  1
  O2-  O331  1  0.56830295  0.24654817  0.92352231  1
  O2-  O332  1  0.55645713  0.91769315  0.96694354  1
  O2-  O333  1  0.43613873  0.58989930  0.82679036  1
  O2-  O334  1  0.43934272  0.91196222  0.72890466  1
  O2-  O335  1  0.40215136  0.11628979  0.61540219  1
  O2-  O336  1  0.42443379  0.57154042  0.66273599  1
  O2-  O337  1  0.55496453  0.73707197  0.16919819  1
  O2-  O338  1  0.92929367  0.06163141  0.07369949  1
  O2-  O339  1  0.56684735  0.40846550  0.77427053  1
  O2-  O340  1  0.56327418  0.75518813  0.32952387  1
  O2-  O341  1  0.93252030  0.59232134  0.27150518  1
  O2-  O342  1  0.93434750  0.25436418  0.70029240  1
  O2-  O343  1  0.07001284  0.40442221  0.76735113  1
  O2-  O344  1  0.58511771  0.08353649  0.41799668  1
  O2-  O345  1  0.94001795  0.04550104  0.34220033  1
  O2-  O346  1  0.55816176  0.08318891  0.94622665  1
  O2-  O347  1  0.43895158  0.08884346  0.45378889  1
  O2-  O348  1  0.43698427  0.07996973  0.22910167  1
  O2-  O349  1  0.91151877  0.24662707  0.57084380  1
  O2-  O350  1  0.44381603  0.40672424  0.46253673  1
  O2-  O351  1  0.56525537  0.26401945  0.41866294  1
  O2-  O352  1  0.41400563  0.70065453  0.52078820  1
  O2-  O353  1  0.44021671  0.91272481  0.25802950  1
  O2-  O354  1  0.90752601  0.09289084  0.65253617  1
  O2-  O355  1  0.06856600  0.62764143  0.57223034  1
  O2-  O356  1  0.92316902  0.66741387  0.93977595  1
  O2-  O357  1  0.56045662  0.59173654  0.28586236  1
  O2-  O358  1  0.43685431  0.41128232  0.23911542  1
  O2-  O359  1  0.93059893  0.05800146  0.81717315  1
  O2-  O360  1  0.94167207  0.92135878  0.73067820  1
  O2-  O361  1  0.43485036  0.26496337  0.96286743  1
  O2-  O362  1  0.55293869  0.08554682  0.24555815  1
  O2-  O363  1  0.06764119  0.06498087  0.79935021  1
  O2-  O364  1  0.06359458  0.07314714  0.17035406  1
  O2-  O365  1  0.56442852  0.25741878  0.07545283  1
  O2-  O366  1  0.08954292  0.64975247  0.78198145  1
  O2-  O367  1  0.56744042  0.73180792  0.51810062  1
  O2-  O368  1  0.55567186  0.07670211  0.76778205  1
  O2-  O369  1  0.07296887  0.29031515  0.04820027  1
  O2-  O370  1  0.07001401  0.95324013  0.67291204  1
  O2-  O371  1  0.58939583  0.10928593  0.10141961  1
  O2-  O372  1  0.75150009  -0.00341665  0.60373092  1
  O2-  O373  1  0.25023825  0.65655269  0.16085134  1
  O2-  O374  1  0.74967197  0.34300553  0.63936373  1
  O2-  O375  1  0.74379402  0.00973146  0.85785087  1
  O2-  O376  1  0.25147979  -0.01304562  0.61458654  1
  O2-  O377  1  0.75240893  0.33254787  0.37584710  1
  O2-  O378  1  0.25063564  0.36475760  0.90471087  1
  O2-  O379  1  0.25000493  -0.01057496  0.40110609  1
  O2-  O380  1  0.75001946  0.65300358  0.93342992  1
  O2-  O381  1  0.25446770  0.66971909  0.93104107  1
  O2-  O382  1  0.74763639  0.67022015  0.36540790  1
  O2-  O383  1  0.25079376  0.66645804  0.80614537  1
  O2-  O384  1  0.25453919  0.68824160  0.39427927  1
  O2-  O385  1  0.24964451  0.00504886  0.86691050  1
  O2-  O386  1  0.25083737  0.33641676  0.39797594  1
  O2-  O387  1  0.25141570  0.67357165  0.06717638  1
  O2-  O388  1  0.75069168  0.00983080  0.09341865  1
  O2-  O389  1  0.25007789  0.29230527  0.14857540  1
  O2-  O390  1  0.24961343  0.33643250  0.81833959  1
  O2-  O391  1  0.74932828  0.65712955  0.60874689  1
  O2-  O392  1  0.25047763  0.35432819  0.08187870  1
  O2-  O393  1  0.24932257  0.65115142  0.63444766  1
  O2-  O394  1  0.74824083  0.68493179  0.79898137  1
  O2-  O395  1  0.75247684  0.33225099  0.12557568  1
  O2-  O396  1  0.24944282  0.49678992  0.00855722  1
  O2-  O397  1  0.25183143  0.50745296  0.37337296  1
  O2-  O398  1  0.74965783  0.49688521  0.43027953  1
  O2-  O399  1  0.25134185  0.17938187  0.90900978  1
  O2-  O400  1  0.75243129  0.85988694  0.89491854  1
  O2-  O401  1  0.74588316  0.18020107  0.82241930  1
  O2-  O402  1  0.25112879  0.50295024  0.83791702  1
  O2-  O403  1  0.25152638  0.51593024  0.08922614  1
  O2-  O404  1  0.25075774  0.51312357  0.46116711  1
  O2-  O405  1  0.75074401  0.16844915  0.91174358  1
  O2-  O406  1  0.25098334  0.83513480  0.66376850  1
  O2-  O407  1  0.74822482  0.16531419  0.42584495  1
  O2-  O408  1  0.24906421  0.82587188  0.57970172  1
  O2-  O409  1  0.25048316  0.84443645  0.18849793  1
  O2-  O410  1  0.74956078  0.87266458  0.37682465  1
  O2-  O411  1  0.24830357  0.15327736  0.59627456  1
  O2-  O412  1  0.75061513  0.16280827  0.33899895  1
  O2-  O413  1  0.24863085  0.83212658  0.83733251  1
  O2-  O414  1  0.25146178  0.48417844  0.63893684  1
  O2-  O415  1  0.74819636  0.53623544  0.17641029  1
  O2-  O416  1  0.74900470  0.85918964  0.12064553  1
  O2-  O417  1  0.74924002  0.48257630  0.06905806  1
  O2-  O418  1  0.75060426  0.15816203  0.18544385  1
  O2-  O419  1  0.24977763  0.83787144  0.10089718  1
  O2-  O420  1  0.50552759  0.35541737  0.88576155  1
  O2-  O421  1  0.94666647  0.67366665  0.41093629  1
  O2-  O422  1  0.96707746  0.64842724  0.62638907  1
  O2-  O423  1  0.04722294  0.71093533  0.39494691  1
  O2-  O424  1  0.53390340  0.64591570  0.63689447  1
  O2-  O425  1  0.47520681  -0.02207828  0.87631188  1
  O2-  O426  1  0.01935701  0.67022616  0.88194634  1
  O2-  O427  1  0.47099805  0.32728008  0.11128812  1
  O2-  O428  1  0.46279412  0.01182680  0.62777279  1
  O2-  O429  1  0.53305206  0.67829839  0.88353338  1
  O2-  O430  1  0.53720347  -0.03086596  0.35287487  1
  O2-  O431  1  0.03146878  0.32994566  0.37854978  1
  O2-  O432  1  0.45406122  -0.01620866  0.10095163  1
  O2-  O433  1  0.98058444  -0.01018133  0.61807843  1
  O2-  O434  1  0.47035002  0.65219856  0.37417458  1
  O2-  O435  1  0.54895032  -0.04400665  0.14475317  1
  O2-  O436  1  0.52155399  0.35374865  0.62765939  1
  O2-  O437  1  0.04905338  0.30646350  0.63361212  1
  O2-  O438  1  0.97084918  0.67267125  0.12578120  1
  O2-  O439  1  0.55050481  -0.03918059  0.63704834  1
  O2-  O440  1  0.48235236  -0.01044435  0.36927455  1
  O2-  O441  1  0.48247349  0.68671680  0.62653781  1
  O2-  O442  1  0.95952887  0.36705061  0.61759926  1
  O2-  O443  1  0.02737989  0.32812348  0.87298392  1
