# generated using pymatgen
data_La7(Ru4O11)2
_symmetry_space_group_name_H-M   'P 1'
_cell_length_a   23.99069283
_cell_length_b   16.83111241
_cell_length_c   15.42677522
_cell_angle_alpha   90.00009441
_cell_angle_beta   90.00084434
_cell_angle_gamma   89.99855966
_symmetry_Int_Tables_number   1
_chemical_formula_structural   La7(Ru4O11)2
_chemical_formula_sum   'La84 Ru96 O264'
_cell_volume   6229.17830155
_cell_formula_units_Z   12
loop_
 _symmetry_equiv_pos_site_id
 _symmetry_equiv_pos_as_xyz
  1  'x, y, z'
loop_
 _atom_type_symbol
 _atom_type_oxidation_number
  La3+  3.0
  Ru4+  4.0
  O2-  -2.0
loop_
 _atom_site_type_symbol
 _atom_site_label
 _atom_site_symmetry_multiplicity
 _atom_site_fract_x
 _atom_site_fract_y
 _atom_site_fract_z
 _atom_site_occupancy
  La3+  La0  1  0.14144480  0.00288941  0.12651716  1
  La3+  La1  1  0.14604607  0.00024488  0.37117770  1
  La3+  La2  1  0.13882659  0.00012771  0.62254816  1
  La3+  La3  1  0.14063828  0.00127674  0.87453546  1
  La3+  La4  1  0.14101798  0.33134531  0.12357342  1
  La3+  La5  1  0.13772929  0.33215677  0.37476989  1
  La3+  La6  1  0.13843199  0.33334510  0.63116146  1
  La3+  La7  1  0.13776431  0.33434912  0.87317008  1
  La3+  La8  1  0.14232472  0.66450486  0.12719694  1
  La3+  La9  1  0.13838410  0.66503637  0.37439621  1
  La3+  La10  1  0.13810916  0.66693425  0.62444852  1
  La3+  La11  1  0.14310595  0.66488139  0.87270236  1
  La3+  La12  1  0.63930078  -0.00024125  0.12530283  1
  La3+  La13  1  0.63590663  0.00134007  0.37553619  1
  La3+  La14  1  0.63850292  0.00013372  0.62157560  1
  La3+  La15  1  0.63398540  -0.00234331  0.88119936  1
  La3+  La16  1  0.64919921  0.33212826  0.12982713  1
  La3+  La17  1  0.63607276  0.33752031  0.37859018  1
  La3+  La18  1  0.62789169  0.33971143  0.61630700  1
  La3+  La19  1  0.63920801  0.33139233  0.87639156  1
  La3+  La20  1  0.63761921  0.66920660  0.12569895  1
  La3+  La21  1  0.63967553  0.66746018  0.37124462  1
  La3+  La22  1  0.64366644  0.67459057  0.62206744  1
  La3+  La23  1  0.64271185  0.67044536  0.88005579  1
  La3+  La24  1  0.35946956  0.00351920  0.12642267  1
  La3+  La25  1  0.35486913  -0.00097871  0.37250551  1
  La3+  La26  1  0.36136031  -0.00043403  0.62111800  1
  La3+  La27  1  0.35980533  0.00342473  0.87668897  1
  La3+  La28  1  0.36813111  0.32488772  0.11556985  1
  La3+  La29  1  0.36303667  0.33380007  0.37178566  1
  La3+  La30  1  0.37069918  0.32512455  0.64238381  1
  La3+  La31  1  0.37593245  0.31864352  0.88176246  1
  La3+  La32  1  0.35967705  0.66560601  0.12551681  1
  La3+  La33  1  0.35947886  0.66775447  0.37361309  1
  La3+  La34  1  0.36159137  0.66677987  0.62944486  1
  La3+  La35  1  0.36359324  0.66735760  0.87295772  1
  La3+  La36  1  0.86539939  0.00154120  0.12900578  1
  La3+  La37  1  0.86092246  0.00410488  0.37201831  1
  La3+  La38  1  0.86059442  0.00189708  0.62284493  1
  La3+  La39  1  0.86284067  -0.00114705  0.87930097  1
  La3+  La40  1  0.85215366  0.33147450  0.12892599  1
  La3+  La41  1  0.85689225  0.33131569  0.36973485  1
  La3+  La42  1  0.86273749  0.33109811  0.62738761  1
  La3+  La43  1  0.86170430  0.33049103  0.87754313  1
  La3+  La44  1  0.86402018  0.66784805  0.12758417  1
  La3+  La45  1  0.86188506  0.66606024  0.37408301  1
  La3+  La46  1  0.86580835  0.66609849  0.62670806  1
  La3+  La47  1  0.86622368  0.66761841  0.87621000  1
  La3+  La48  1  0.50079847  0.82364154  0.88791644  1
  La3+  La49  1  -0.00173620  0.83873391  0.38500002  1
  La3+  La50  1  0.00049977  0.83426049  0.13647076  1
  La3+  La51  1  -0.00099946  0.83359536  0.63682621  1
  La3+  La52  1  0.49607254  0.16619132  0.63066257  1
  La3+  La53  1  0.00301181  0.16149072  0.36253669  1
  La3+  La54  1  0.49997359  0.49203738  0.63147364  1
  La3+  La55  1  0.49281079  0.17639569  0.88009911  1
  La3+  La56  1  0.50213654  0.48156369  0.38580543  1
  La3+  La57  1  0.50033197  0.83091821  0.12578252  1
  La3+  La58  1  0.49724272  0.17111783  0.36992612  1
  La3+  La59  1  0.49671855  0.49644914  0.87177568  1
  La3+  La60  1  0.49822226  0.17160864  0.85959621  1
  La3+  La61  1  -0.00105729  0.83320865  0.88212369  1
  La3+  La62  1  -0.00380936  0.50295430  0.86886195  1
  La3+  La63  1  0.50315139  0.49767278  0.61627607  1
  La3+  La64  1  -0.00538701  0.83792902  0.11665184  1
  La3+  La65  1  -0.00352071  0.49826726  0.61958640  1
  La3+  La66  1  0.50110212  0.83850384  0.63326218  1
  La3+  La67  1  0.50024060  0.84122046  0.36396365  1
  La3+  La68  1  -0.00506419  0.17159868  0.12497359  1
  La3+  La69  1  -0.00209927  0.83643089  0.36349748  1
  La3+  La70  1  0.49827592  0.17036997  0.12350955  1
  La3+  La71  1  0.49803654  0.83018862  0.38250213  1
  La3+  La72  1  0.75091716  0.78995823  0.45351943  1
  La3+  La73  1  0.75023271  0.83279596  0.03352848  1
  La3+  La74  1  0.75084151  0.50677084  0.75327937  1
  La3+  La75  1  0.74951701  0.46132594  0.00775866  1
  La3+  La76  1  0.25028477  0.50151072  0.54347361  1
  La3+  La77  1  0.24963190  0.50224492  0.73842312  1
  La3+  La78  1  0.75001309  0.50356056  0.45860978  1
  La3+  La79  1  0.25063405  0.53248148  0.00704220  1
  La3+  La80  1  0.75029683  0.17341937  -0.03441299  1
  La3+  La81  1  0.24950630  0.78872833  0.70952032  1
  La3+  La82  1  0.75032601  0.78349928  0.78525600  1
  La3+  La83  1  0.25046903  0.12179827  0.53399124  1
  Ru4+  Ru84  1  0.00078736  0.00297028  -0.00531969  1
  Ru4+  Ru85  1  0.00427057  0.01043241  0.24843847  1
  Ru4+  Ru86  1  -0.00045087  0.00215620  0.49812441  1
  Ru4+  Ru87  1  0.00255105  0.00446890  0.75316747  1
  Ru4+  Ru88  1  0.00066178  0.33526252  -0.00459787  1
  Ru4+  Ru89  1  0.00035461  0.33344496  0.24964720  1
  Ru4+  Ru90  1  -0.00128766  0.32502111  0.49964726  1
  Ru4+  Ru91  1  -0.00759868  0.32690487  0.75400162  1
  Ru4+  Ru92  1  -0.00555446  0.66032280  -0.00340533  1
  Ru4+  Ru93  1  0.00033199  0.66246005  0.24695186  1
  Ru4+  Ru94  1  -0.00318757  0.66998720  0.49819303  1
  Ru4+  Ru95  1  0.00151332  0.67553363  0.74875940  1
  Ru4+  Ru96  1  0.49435092  0.00091076  -0.00225350  1
  Ru4+  Ru97  1  0.49630674  0.00526671  0.24445940  1
  Ru4+  Ru98  1  0.49864354  0.01142864  0.50831570  1
  Ru4+  Ru99  1  0.49895454  -0.00114508  0.74164387  1
  Ru4+  Ru100  1  0.49821781  0.33120122  0.00497939  1
  Ru4+  Ru101  1  0.49730526  0.33371579  0.25316618  1
  Ru4+  Ru102  1  0.49982404  0.33338042  0.49963640  1
  Ru4+  Ru103  1  0.50213033  0.32532720  0.74492086  1
  Ru4+  Ru104  1  0.50664756  0.66148897  -0.00146006  1
  Ru4+  Ru105  1  0.49903763  0.65755343  0.24177832  1
  Ru4+  Ru106  1  0.49970906  0.65862241  0.50424453  1
  Ru4+  Ru107  1  0.50674812  0.66820822  0.75792403  1
  Ru4+  Ru108  1  0.11513634  0.16732244  -0.00065314  1
  Ru4+  Ru109  1  0.11311847  0.16421764  0.24925509  1
  Ru4+  Ru110  1  0.10863683  0.16420480  0.50051208  1
  Ru4+  Ru111  1  0.10937795  0.16166462  0.75174571  1
  Ru4+  Ru112  1  0.10760000  0.49943450  0.00119040  1
  Ru4+  Ru113  1  0.11186488  0.50251792  0.25290171  1
  Ru4+  Ru114  1  0.11275602  0.49349143  0.49762444  1
  Ru4+  Ru115  1  0.11462292  0.50579674  0.75059280  1
  Ru4+  Ru116  1  0.11296817  0.83749644  -0.00042083  1
  Ru4+  Ru117  1  0.11019137  0.83527067  0.25178262  1
  Ru4+  Ru118  1  0.11098890  0.83151378  0.49845235  1
  Ru4+  Ru119  1  0.10772043  0.83182718  0.74984926  1
  Ru4+  Ru120  1  0.61385804  0.16681450  0.00473871  1
  Ru4+  Ru121  1  0.61562777  0.16646116  0.24931947  1
  Ru4+  Ru122  1  0.61298668  0.16621204  0.49995129  1
  Ru4+  Ru123  1  0.61526290  0.17053258  0.74757590  1
  Ru4+  Ru124  1  0.60942987  0.49982495  -0.00113473  1
  Ru4+  Ru125  1  0.61134243  0.49998454  0.25189932  1
  Ru4+  Ru126  1  0.61050751  0.50084205  0.50070448  1
  Ru4+  Ru127  1  0.61245313  0.50446811  0.74744523  1
  Ru4+  Ru128  1  0.61395393  0.82534932  -0.00019782  1
  Ru4+  Ru129  1  0.61613586  0.83118686  0.24943598  1
  Ru4+  Ru130  1  0.61509597  0.83045745  0.50194436  1
  Ru4+  Ru131  1  0.60921309  0.83284847  0.74750702  1
  Ru4+  Ru132  1  0.38674220  0.16992636  0.00149834  1
  Ru4+  Ru133  1  0.38624623  0.16041307  0.24791085  1
  Ru4+  Ru134  1  0.39112738  0.16707262  0.50396265  1
  Ru4+  Ru135  1  0.38692308  0.16735277  0.75311918  1
  Ru4+  Ru136  1  0.38960047  0.49717944  -0.00115893  1
  Ru4+  Ru137  1  0.38826391  0.50780715  0.24946311  1
  Ru4+  Ru138  1  0.38934575  0.50320822  0.49910789  1
  Ru4+  Ru139  1  0.37927682  0.49535071  0.75200865  1
  Ru4+  Ru140  1  0.38307354  0.83929754  -0.00021614  1
  Ru4+  Ru141  1  0.38463329  0.83733048  0.24819334  1
  Ru4+  Ru142  1  0.38341323  0.82678123  0.50014898  1
  Ru4+  Ru143  1  0.39150271  0.83479172  0.74981662  1
  Ru4+  Ru144  1  0.88884304  0.16770738  -0.00036251  1
  Ru4+  Ru145  1  0.88501796  0.16716364  0.24925276  1
  Ru4+  Ru146  1  0.88947476  0.16209525  0.50137594  1
  Ru4+  Ru147  1  0.88591854  0.16895273  0.75049006  1
  Ru4+  Ru148  1  0.89218105  0.49928149  0.00192417  1
  Ru4+  Ru149  1  0.88807809  0.50184853  0.25163162  1
  Ru4+  Ru150  1  0.89035383  0.50359668  0.49739628  1
  Ru4+  Ru151  1  0.88572862  0.49306250  0.75037992  1
  Ru4+  Ru152  1  0.88600350  0.83432741  -0.00210718  1
  Ru4+  Ru153  1  0.88069124  0.82642800  0.25083495  1
  Ru4+  Ru154  1  0.89182614  0.83488059  0.49710220  1
  Ru4+  Ru155  1  0.89071179  0.83310973  0.74927055  1
  Ru4+  Ru156  1  0.24951560  0.75447923  0.25060846  1
  Ru4+  Ru157  1  0.75038735  0.93392285  0.49093372  1
  Ru4+  Ru158  1  0.24996935  0.92233525  0.00734562  1
  Ru4+  Ru159  1  0.74957967  0.93031564  0.76644655  1
  Ru4+  Ru160  1  0.75002589  0.10002330  0.74934427  1
  Ru4+  Ru161  1  0.75077821  0.37806609  0.52939080  1
  Ru4+  Ru162  1  0.75037990  0.63089177  0.52302241  1
  Ru4+  Ru163  1  0.24944935  0.92769233  0.76087058  1
  Ru4+  Ru164  1  0.74997377  0.91550530  0.24912007  1
  Ru4+  Ru165  1  0.74974551  0.57983206  0.24849547  1
  Ru4+  Ru166  1  0.75041800  0.23024873  0.48046567  1
  Ru4+  Ru167  1  0.25089334  0.25517120  0.49380133  1
  Ru4+  Ru168  1  0.25000092  0.24594858  0.23269605  1
  Ru4+  Ru169  1  0.24999837  0.09896605  0.76921401  1
  Ru4+  Ru170  1  0.74903635  0.37029215  0.74461191  1
  Ru4+  Ru171  1  0.25068876  0.42097795  0.24576894  1
  Ru4+  Ru172  1  0.25005007  0.75063435  0.00597774  1
  Ru4+  Ru173  1  0.24963561  0.91365595  0.48667925  1
  Ru4+  Ru174  1  0.24953292  0.24566620  0.75863692  1
  Ru4+  Ru175  1  0.75051987  0.64213624  0.76666052  1
  Ru4+  Ru176  1  0.25016342  0.62320072  0.48045614  1
  Ru4+  Ru177  1  0.25045168  0.38467458  0.47541868  1
  Ru4+  Ru178  1  0.25013264  0.38998628  -0.00724277  1
  Ru4+  Ru179  1  0.74996121  0.60736297  0.00628600  1
  O2-  O180  1  0.16736402  0.08143813  0.00296035  1
  O2-  O181  1  0.16353446  0.08185941  0.24688821  1
  O2-  O182  1  0.16407480  0.07906685  0.49794686  1
  O2-  O183  1  0.16540339  0.08292617  0.75055978  1
  O2-  O184  1  0.16598621  0.41467152  -0.00066225  1
  O2-  O185  1  0.16756447  0.41434667  0.24867806  1
  O2-  O186  1  0.16582852  0.41200347  0.50141538  1
  O2-  O187  1  0.16707396  0.41452405  0.74965326  1
  O2-  O188  1  0.16514622  0.74621467  0.00028120  1
  O2-  O189  1  0.16660271  0.74590015  0.25049070  1
  O2-  O190  1  0.16159778  0.74720577  0.50091048  1
  O2-  O191  1  0.16028049  0.74544738  0.74981481  1
  O2-  O192  1  0.67287382  0.08025287  -0.00506769  1
  O2-  O193  1  0.66507808  0.07893629  0.24998618  1
  O2-  O194  1  0.66374583  0.08289558  0.49856758  1
  O2-  O195  1  0.66589229  0.08033648  0.75433339  1
  O2-  O196  1  0.66266730  0.41264426  0.00024657  1
  O2-  O197  1  0.66206443  0.41837385  0.25012274  1
  O2-  O198  1  0.66952478  0.41003258  0.50111745  1
  O2-  O199  1  0.66468648  0.41047042  0.74942157  1
  O2-  O200  1  0.67182046  0.74988417  0.00322892  1
  O2-  O201  1  0.66880145  0.74738812  0.25060884  1
  O2-  O202  1  0.66474067  0.74511622  0.49846619  1
  O2-  O203  1  0.66116362  0.74588931  0.74900326  1
  O2-  O204  1  0.33135907  0.25118898  -0.00301397  1
  O2-  O205  1  0.33350943  0.25304550  0.24777132  1
  O2-  O206  1  0.33498266  0.25382313  0.50191468  1
  O2-  O207  1  0.33233477  0.25180508  0.75038899  1
  O2-  O208  1  0.33930187  0.58740725  0.00109430  1
  O2-  O209  1  0.33329187  0.58367721  0.25034531  1
  O2-  O210  1  0.33431133  0.58889786  0.50137242  1
  O2-  O211  1  0.33332963  0.58473101  0.74930913  1
  O2-  O212  1  0.33240571  0.92066243  0.00052461  1
  O2-  O213  1  0.33440615  0.91802566  0.24746197  1
  O2-  O214  1  0.33441186  0.91842785  0.49993664  1
  O2-  O215  1  0.33117116  0.91962360  0.75154696  1
  O2-  O216  1  0.83419303  0.25101948  -0.00076557  1
  O2-  O217  1  0.83584521  0.24989825  0.25129335  1
  O2-  O218  1  0.83038330  0.24847157  0.49811113  1
  O2-  O219  1  0.83558614  0.25055792  0.75198123  1
  O2-  O220  1  0.83359846  0.58605737  0.00049600  1
  O2-  O221  1  0.83069894  0.58676535  0.24613229  1
  O2-  O222  1  0.83114564  0.58949086  0.50091077  1
  O2-  O223  1  0.83488088  0.58751700  0.75258133  1
  O2-  O224  1  0.83130222  0.92070548  0.00319621  1
  O2-  O225  1  0.83220647  0.91932023  0.24836810  1
  O2-  O226  1  0.83424398  0.92089049  0.49804423  1
  O2-  O227  1  0.83150904  0.92184223  0.75502667  1
  O2-  O228  1  0.16337485  0.25129226  -0.00054673  1
  O2-  O229  1  0.16683022  0.25460518  0.24808513  1
  O2-  O230  1  0.16654670  0.25228510  0.50170000  1
  O2-  O231  1  0.16782782  0.25120021  0.75105536  1
  O2-  O232  1  0.16323110  0.58963204  0.00053659  1
  O2-  O233  1  0.16533003  0.58231779  0.25005270  1
  O2-  O234  1  0.16625354  0.58994958  0.50097456  1
  O2-  O235  1  0.16618388  0.58533374  0.74837848  1
  O2-  O236  1  0.16702497  0.92120751  0.00020114  1
  O2-  O237  1  0.16383020  0.91966628  0.24615927  1
  O2-  O238  1  0.16474439  0.92010252  0.49897671  1
  O2-  O239  1  0.16512676  0.92114880  0.74939366  1
  O2-  O240  1  0.66568287  0.25181609  -0.00105195  1
  O2-  O241  1  0.66303095  0.25049016  0.25045491  1
  O2-  O242  1  0.66672239  0.25162189  0.50162016  1
  O2-  O243  1  0.66697394  0.25160455  0.75199635  1
  O2-  O244  1  0.66817705  0.58559664  0.00192853  1
  O2-  O245  1  0.67020419  0.58655418  0.25089143  1
  O2-  O246  1  0.66505488  0.58831367  0.49945347  1
  O2-  O247  1  0.67031344  0.58556693  0.75143211  1
  O2-  O248  1  0.66696867  0.91865763  0.00120604  1
  O2-  O249  1  0.66843659  0.91961881  0.25020798  1
  O2-  O250  1  0.66623361  0.92006692  0.49726792  1
  O2-  O251  1  0.66554394  0.92176062  0.75324216  1
  O2-  O252  1  0.33731770  0.07973793  -0.00075603  1
  O2-  O253  1  0.33210648  0.08249382  0.24822146  1
  O2-  O254  1  0.33869242  0.07974544  0.49684778  1
  O2-  O255  1  0.33317237  0.08319015  0.75026043  1
  O2-  O256  1  0.33199055  0.41158750  -0.00074059  1
  O2-  O257  1  0.33294162  0.41598915  0.24994800  1
  O2-  O258  1  0.33475375  0.41044922  0.50232831  1
  O2-  O259  1  0.33210019  0.41007669  0.75108582  1
  O2-  O260  1  0.33360088  0.74757326  -0.00070380  1
  O2-  O261  1  0.33269173  0.74692440  0.24990921  1
  O2-  O262  1  0.33292062  0.74772690  0.50312213  1
  O2-  O263  1  0.33694814  0.74811115  0.74896303  1
  O2-  O264  1  0.83074533  0.07915856  -0.00179873  1
  O2-  O265  1  0.83272068  0.07962530  0.25045610  1
  O2-  O266  1  0.83345139  0.08452353  0.49678019  1
  O2-  O267  1  0.83444922  0.08115310  0.75323695  1
  O2-  O268  1  0.83641423  0.41337161  0.00027247  1
  O2-  O269  1  0.83891748  0.41882452  0.25025676  1
  O2-  O270  1  0.83519880  0.41179626  0.50029544  1
  O2-  O271  1  0.83124962  0.41137440  0.75333585  1
  O2-  O272  1  0.83077695  0.74691473  0.00485907  1
  O2-  O273  1  0.82945972  0.74481025  0.24804506  1
  O2-  O274  1  0.83515906  0.74510631  0.50353874  1
  O2-  O275  1  0.84007533  0.74418433  0.75178676  1
  O2-  O276  1  0.54474206  0.90984569  0.98343300  1
  O2-  O277  1  0.43986263  0.57067982  0.76132527  1
  O2-  O278  1  0.44773442  0.42947263  0.73709635  1
  O2-  O279  1  0.45492594  0.23290110  0.00157883  1
  O2-  O280  1  0.44866600  0.09047987  0.01290417  1
  O2-  O281  1  0.53271846  0.54810114  0.74721111  1
  O2-  O282  1  0.54833987  0.43148234  0.51822932  1
  O2-  O283  1  0.04722668  0.42962536  0.76812150  1
  O2-  O284  1  0.44558465  0.24564883  0.98155560  1
  O2-  O285  1  0.04881847  0.56372478  0.48390806  1
  O2-  O286  1  0.04677040  0.10020511  0.03301773  1
  O2-  O287  1  0.03820732  0.44239135  0.21601787  1
  O2-  O288  1  0.45376189  0.23190663  0.75496545  1
  O2-  O289  1  0.46748398  0.88913395  0.78533327  1
  O2-  O290  1  0.54938752  0.89590031  0.01893033  1
  O2-  O291  1  0.44457607  0.24483189  0.73540359  1
  O2-  O292  1  0.53791736  0.54031644  0.75327929  1
  O2-  O293  1  0.54839932  0.76012927  0.49087841  1
  O2-  O294  1  0.95547711  0.89780415  0.24510175  1
  O2-  O295  1  0.54695098  0.09686734  0.26703232  1
  O2-  O296  1  0.44972650  0.42784947  0.51123361  1
  O2-  O297  1  0.95507626  0.43073840  0.01314837  1
  O2-  O298  1  0.44427072  0.57671841  0.72337930  1
  O2-  O299  1  0.96421676  0.22096935  0.45923129  1
  O2-  O300  1  0.45487237  0.89815683  0.51769505  1
  O2-  O301  1  0.04717470  0.56957874  0.99250058  1
  O2-  O302  1  0.03839582  0.22770283  0.72366327  1
  O2-  O303  1  0.55165491  0.90390447  0.48737458  1
  O2-  O304  1  0.04539233  0.76573238  0.01235479  1
  O2-  O305  1  0.45174359  0.90722332  0.48021626  1
  O2-  O306  1  0.94905566  0.10035061  0.00904170  1
  O2-  O307  1  0.04713653  0.57997415  0.51905325  1
  O2-  O308  1  0.04782710  0.57479319  0.76307562  1
  O2-  O309  1  0.53735049  0.55239395  0.28822191  1
  O2-  O310  1  0.44916262  0.23409883  0.23791797  1
  O2-  O311  1  0.55206398  0.41487809  0.73607587  1
  O2-  O312  1  0.54492746  0.09755448  0.48545148  1
  O2-  O313  1  0.94802376  0.56379105  0.73318302  1
  O2-  O314  1  0.45342476  0.76364015  0.23826526  1
  O2-  O315  1  0.54347716  0.23895920  0.51555113  1
  O2-  O316  1  0.04547916  0.24164030  0.01604412  1
  O2-  O317  1  0.04439079  0.56547328  0.00417149  1
  O2-  O318  1  0.45097441  0.76509952  0.99431162  1
  O2-  O319  1  0.04730639  0.09341071  0.76309278  1
  O2-  O320  1  0.54703330  0.09905777  0.73570168  1
  O2-  O321  1  0.04794384  0.43209224  0.72892002  1
  O2-  O322  1  0.54896308  0.23822735  0.25469723  1
  O2-  O323  1  0.54468584  0.11342893  0.96803562  1
  O2-  O324  1  0.56903449  0.75275035  0.06500660  1
  O2-  O325  1  0.43737693  0.06646897  0.32620007  1
  O2-  O326  1  0.56440937  0.73563590  0.93004399  1
  O2-  O327  1  0.43474343  0.06979128  0.78672377  1
  O2-  O328  1  0.42966872  0.26454939  0.03337165  1
  O2-  O329  1  0.06553575  0.07679873  0.52460930  1
  O2-  O330  1  0.93683784  0.92377417  0.72994760  1
  O2-  O331  1  0.57004324  0.40528162  0.47341028  1
  O2-  O332  1  0.94040776  0.26562015  0.21847753  1
  O2-  O333  1  0.43215996  0.27036561  0.78818190  1
  O2-  O334  1  0.42012303  0.93208059  0.69482765  1
  O2-  O335  1  0.57817309  0.60131073  0.20067163  1
  O2-  O336  1  0.91990925  0.27065254  0.54800122  1
  O2-  O337  1  0.58549213  0.61206397  0.67753450  1
  O2-  O338  1  0.44256816  0.40433907  0.71020394  1
  O2-  O339  1  0.55936238  0.41565394  0.53257398  1
  O2-  O340  1  0.56222849  0.74410366  0.22726018  1
  O2-  O341  1  0.93867941  0.92784691  0.96562079  1
  O2-  O342  1  0.43757098  0.74018636  0.77302712  1
  O2-  O343  1  0.93873358  0.91599408  0.22319589  1
  O2-  O344  1  0.93794846  0.06872014  0.42526947  1
  O2-  O345  1  0.43612493  0.59326077  0.18092740  1
  O2-  O346  1  0.43573393  0.74229254  0.97503532  1
  O2-  O347  1  0.93498988  0.40779192  0.72478436  1
  O2-  O348  1  0.43370571  0.08231344  0.18588405  1
  O2-  O349  1  0.07109116  0.06310656  0.95613938  1
  O2-  O350  1  0.93172287  0.58484781  0.56393899  1
  O2-  O351  1  0.93564233  0.59346245  0.28110008  1
  O2-  O352  1  0.57207326  0.62649978  0.82864365  1
  O2-  O353  1  0.57905728  0.06303774  0.05290134  1
  O2-  O354  1  0.43585731  0.41291226  0.27489859  1
  O2-  O355  1  0.56525829  0.26325613  0.71366407  1
  O2-  O356  1  0.93845970  0.59637520  0.72529502  1
  O2-  O357  1  0.06163427  0.59953301  0.28168212  1
  O2-  O358  1  0.93532099  0.59076677  0.43261290  1
  O2-  O359  1  0.93029302  0.08529958  0.56215178  1
  O2-  O360  1  0.06780556  0.39173388  0.30084828  1
  O2-  O361  1  0.55852631  0.93106993  0.46398395  1
  O2-  O362  1  0.93607799  0.74393856  0.97327604  1
  O2-  O363  1  0.93716993  0.74391408  0.22432035  1
  O2-  O364  1  0.43631499  0.73239469  0.46626743  1
  O2-  O365  1  0.56392616  0.93036948  0.28400838  1
  O2-  O366  1  0.06535245  0.26444351  0.46179412  1
  O2-  O367  1  0.93668043  0.07705964  0.22488387  1
  O2-  O368  1  0.43769501  0.40760984  0.96214397  1
  O2-  O369  1  0.94090612  0.74428735  0.46423078  1
  O2-  O370  1  0.07065556  0.26604918  0.78520317  1
  O2-  O371  1  0.43763398  0.59532259  0.32396265  1
  O2-  O372  1  0.25011062  0.00740148  0.85674869  1
  O2-  O373  1  0.24919652  0.67995942  0.37832387  1
  O2-  O374  1  0.74959439  0.33645551  0.93110739  1
  O2-  O375  1  0.24981718  0.68300020  0.58853960  1
  O2-  O376  1  0.75055744  0.30831861  0.84545907  1
  O2-  O377  1  0.24994851  0.32936817  0.65679799  1
  O2-  O378  1  0.24976265  0.65937107  0.08254879  1
  O2-  O379  1  0.24991914  0.66467490  0.17562164  1
  O2-  O380  1  0.24968679  -0.00636755  0.36651289  1
  O2-  O381  1  0.24939733  0.01443219  0.68452775  1
  O2-  O382  1  0.74914991  0.66233699  0.39426008  1
  O2-  O383  1  0.75041752  0.33488760  0.32454726  1
  O2-  O384  1  0.24969407  0.33342841  0.10013198  1
  O2-  O385  1  0.74942182  0.33954772  0.14070507  1
  O2-  O386  1  0.74977149  0.32649190  0.41565326  1
  O2-  O387  1  0.74977064  0.32071226  0.63603828  1
  O2-  O388  1  0.24971601  0.65321048  0.67549888  1
  O2-  O389  1  0.75132715  0.66780860  0.89545199  1
  O2-  O390  1  0.24929490  0.66816364  0.82894473  1
  O2-  O391  1  0.75004283  0.01622175  0.56022900  1
  O2-  O392  1  0.24998201  0.66268045  0.92116493  1
  O2-  O393  1  0.24978269  -0.00353817  0.55837841  1
  O2-  O394  1  0.75023509  0.00761726  0.68287729  1
  O2-  O395  1  0.75065722  0.67085556  0.64197322  1
  O2-  O396  1  0.24999869  0.16501018  0.31177780  1
  O2-  O397  1  0.24993964  0.49829676  0.39221298  1
  O2-  O398  1  0.75032042  0.50061527  0.32244445  1
  O2-  O399  1  0.24987767  0.17558722  0.39962008  1
  O2-  O400  1  0.75023410  0.84985835  0.66817602  1
  O2-  O401  1  0.75015008  0.83918795  0.32653297  1
  O2-  O402  1  0.75001007  0.85221100  0.90048309  1
  O2-  O403  1  0.25000090  0.84037058  0.84242458  1
  O2-  O404  1  0.24980520  0.83562932  0.09580705  1
  O2-  O405  1  0.75016688  0.49628249  0.61067702  1
  O2-  O406  1  0.24973213  0.17429131  0.11067004  1
  O2-  O407  1  0.25004284  0.82505554  0.41656671  1
  O2-  O408  1  0.24987974  0.84179374  0.58175041  1
  O2-  O409  1  0.75008638  0.16535870  0.10117248  1
  O2-  O410  1  0.75007366  0.16430654  0.66301973  1
  O2-  O411  1  0.24994813  0.49393408  0.16304895  1
  O2-  O412  1  0.24998981  0.83689145  0.32812128  1
  O2-  O413  1  0.24978328  0.16910018  0.87481013  1
  O2-  O414  1  0.24956125  0.83672603  0.93087315  1
  O2-  O415  1  0.24966654  0.49030940  0.87049738  1
  O2-  O416  1  0.74970795  0.16695304  0.18414366  1
  O2-  O417  1  0.25011844  0.17036298  0.66706529  1
  O2-  O418  1  0.75014155  0.17400875  0.36490465  1
  O2-  O419  1  0.74965036  0.84583134  0.57890067  1
  O2-  O420  1  0.45634544  0.32132233  0.38827083  1
  O2-  O421  1  0.97593778  0.66380194  0.11927230  1
  O2-  O422  1  0.45982998  -0.02153274  0.10812495  1
  O2-  O423  1  0.03503794  0.33678242  0.61715899  1
  O2-  O424  1  0.53103231  0.33682790  0.88268176  1
  O2-  O425  1  0.03957197  0.34456599  0.89246318  1
  O2-  O426  1  0.97489436  -0.00422482  0.62761063  1
  O2-  O427  1  0.52758232  -0.00037887  0.86950285  1
  O2-  O428  1  0.02199992  -0.01492223  0.86737992  1
  O2-  O429  1  0.97891963  -0.00493389  0.11720783  1
  O2-  O430  1  0.51996272  0.67960502  0.61995483  1
  O2-  O431  1  0.97584347  0.33866132  0.62834912  1
  O2-  O432  1  0.54700768  -0.01020616  0.62817294  1
  O2-  O433  1  0.53984463  -0.01173763  0.14646791  1
  O2-  O434  1  0.47694717  0.65499006  0.87959846  1
  O2-  O435  1  0.02855786  -0.00541783  0.37327313  1
  O2-  O436  1  0.47855686  0.34283644  0.12978034  1
  O2-  O437  1  0.95533381  0.32969226  0.87068010  1
  O2-  O438  1  0.03307032  -0.00928675  0.62976863  1
  O2-  O439  1  0.54329660  0.33284011  0.36198053  1
  O2-  O440  1  0.51392758  0.66040984  0.11520270  1
  O2-  O441  1  0.98131489  0.68516078  0.62903257  1
  O2-  O442  1  0.97738903  0.66112219  0.86777521  1
  O2-  O443  1  0.45959893  0.02134265  0.61521246  1
