# generated using pymatgen
data_La7(Ru4O11)2
_symmetry_space_group_name_H-M   'P 1'
_cell_length_a   23.99691301
_cell_length_b   16.83578291
_cell_length_c   15.43267125
_cell_angle_alpha   90.00335156
_cell_angle_beta   90.00364234
_cell_angle_gamma   89.99680816
_symmetry_Int_Tables_number   1
_chemical_formula_structural   La7(Ru4O11)2
_chemical_formula_sum   'La84 Ru96 O264'
_cell_volume   6234.90436931
_cell_formula_units_Z   12
loop_
 _symmetry_equiv_pos_site_id
 _symmetry_equiv_pos_as_xyz
  1  'x, y, z'
loop_
 _atom_type_symbol
 _atom_type_oxidation_number
  La3+  3.0
  Ru4+  4.0
  O2-  -2.0
loop_
 _atom_site_type_symbol
 _atom_site_label
 _atom_site_symmetry_multiplicity
 _atom_site_fract_x
 _atom_site_fract_y
 _atom_site_fract_z
 _atom_site_occupancy
  La3+  La0  1  0.14589284  -0.00798338  0.12694468  1
  La3+  La1  1  0.14099353  0.00263149  0.37286145  1
  La3+  La2  1  0.14009023  -0.00407815  0.62448428  1
  La3+  La3  1  0.13383436  -0.00490422  0.87562616  1
  La3+  La4  1  0.14326312  0.34148704  0.12275833  1
  La3+  La5  1  0.14343126  0.33853272  0.37340099  1
  La3+  La6  1  0.14479192  0.34141602  0.62368860  1
  La3+  La7  1  0.14076163  0.34103779  0.87746431  1
  La3+  La8  1  0.14302765  0.67553705  0.12013935  1
  La3+  La9  1  0.14158390  0.66020368  0.37843949  1
  La3+  La10  1  0.14545969  0.66726580  0.61374645  1
  La3+  La11  1  0.14821546  0.66516370  0.86975140  1
  La3+  La12  1  0.63531826  0.00040819  0.11979782  1
  La3+  La13  1  0.63358577  0.00169552  0.38287971  1
  La3+  La14  1  0.63868638  -0.00144484  0.61984434  1
  La3+  La15  1  0.64193463  0.00038255  0.87264036  1
  La3+  La16  1  0.63410015  0.33577179  0.12795993  1
  La3+  La17  1  0.64702090  0.34067236  0.38296673  1
  La3+  La18  1  0.63908549  0.33165736  0.61776542  1
  La3+  La19  1  0.63797746  0.33610016  0.87287955  1
  La3+  La20  1  0.64253271  0.66718960  0.12577469  1
  La3+  La21  1  0.65412290  0.67405748  0.37470738  1
  La3+  La22  1  0.64505526  0.67297306  0.61400723  1
  La3+  La23  1  0.64603728  0.67550196  0.86847363  1
  La3+  La24  1  0.36403029  0.00252227  0.12630609  1
  La3+  La25  1  0.35325359  0.00083971  0.37340212  1
  La3+  La26  1  0.36394693  -0.00104468  0.62472172  1
  La3+  La27  1  0.36046520  0.00154695  0.87812822  1
  La3+  La28  1  0.34671682  0.33126176  0.13278136  1
  La3+  La29  1  0.36125210  0.34052810  0.37785079  1
  La3+  La30  1  0.35770180  0.34084765  0.62190851  1
  La3+  La31  1  0.35796271  0.34090255  0.88034341  1
  La3+  La32  1  0.35845616  0.66635684  0.12477760  1
  La3+  La33  1  0.35612286  0.65982516  0.38242183  1
  La3+  La34  1  0.36028536  0.67084179  0.61306825  1
  La3+  La35  1  0.35974562  0.66834352  0.87405263  1
  La3+  La36  1  0.85567731  -0.00665418  0.12687541  1
  La3+  La37  1  0.86265395  0.00265658  0.38038214  1
  La3+  La38  1  0.86516267  -0.00449985  0.61870619  1
  La3+  La39  1  0.85870272  -0.00722060  0.87482674  1
  La3+  La40  1  0.85568810  0.33361003  0.12787453  1
  La3+  La41  1  0.85025558  0.33799998  0.37855840  1
  La3+  La42  1  0.85424864  0.33328622  0.61673024  1
  La3+  La43  1  0.86625788  0.32995543  0.87443619  1
  La3+  La44  1  0.85304821  0.66259766  0.12411423  1
  La3+  La45  1  0.86439863  0.66454284  0.37723314  1
  La3+  La46  1  0.84929148  0.68161593  0.61636782  1
  La3+  La47  1  0.85517617  0.67465150  0.86924141  1
  La3+  La48  1  0.49859424  0.49087661  0.13621351  1
  La3+  La49  1  0.50386127  0.82710241  0.63990302  1
  La3+  La50  1  0.49520973  0.50479946  0.38482915  1
  La3+  La51  1  0.50383502  0.17386694  0.88695932  1
  La3+  La52  1  0.48637970  0.82138372  0.13078687  1
  La3+  La53  1  0.49599943  0.83259657  0.37932236  1
  La3+  La54  1  0.02263686  0.16448912  0.87425558  1
  La3+  La55  1  0.00275631  0.83607720  0.40257225  1
  La3+  La56  1  0.00041810  0.16041153  0.64145498  1
  La3+  La57  1  -0.00066341  0.15599983  0.11883348  1
  La3+  La58  1  0.50881646  0.50303259  0.86941029  1
  La3+  La59  1  -0.00641937  0.17062725  0.38057682  1
  La3+  La60  1  0.00250416  0.50954002  0.12631103  1
  La3+  La61  1  0.49533861  0.81745035  0.14767339  1
  La3+  La62  1  0.01392587  0.50070567  0.89933500  1
  La3+  La63  1  0.50083252  0.49810450  0.85159208  1
  La3+  La64  1  0.00085798  0.15634264  0.13533249  1
  La3+  La65  1  0.01071006  0.83493354  0.38355954  1
  La3+  La66  1  0.01542002  0.49997653  0.88254310  1
  La3+  La67  1  -0.00278299  0.50481089  0.61287146  1
  La3+  La68  1  -0.00897520  0.47130812  0.36637417  1
  La3+  La69  1  -0.00442848  0.16976276  0.62302591  1
  La3+  La70  1  0.50008935  0.16587938  0.86671557  1
  La3+  La71  1  0.50595101  0.15281015  0.60253607  1
  La3+  La72  1  0.74968306  0.49177324  0.53050683  1
  La3+  La73  1  0.24754658  0.21055795  -0.01660512  1
  La3+  La74  1  0.74961468  0.87008457  0.28597027  1
  La3+  La75  1  0.75025817  0.57007575  0.71429035  1
  La3+  La76  1  0.25005223  0.13343816  0.49526143  1
  La3+  La77  1  0.74996667  0.84098493  0.01505513  1
  La3+  La78  1  0.74909484  0.17536437  0.48500339  1
  La3+  La79  1  0.25019270  0.86664421  0.00544579  1
  La3+  La80  1  0.74990682  0.15062145  0.78031266  1
  La3+  La81  1  0.74676651  0.08726835  0.00792777  1
  La3+  La82  1  0.25102227  0.13146290  0.76950167  1
  La3+  La83  1  0.74714565  0.50282638  0.08264248  1
  Ru4+  Ru84  1  -0.00632141  0.00150024  0.00349685  1
  Ru4+  Ru85  1  0.00344411  0.00027579  0.26329928  1
  Ru4+  Ru86  1  -0.00086275  -0.00481732  0.49780945  1
  Ru4+  Ru87  1  0.00063469  -0.01035051  0.75946994  1
  Ru4+  Ru88  1  -0.00424149  0.32478860  0.01838051  1
  Ru4+  Ru89  1  -0.00050927  0.33564913  0.23572845  1
  Ru4+  Ru90  1  0.00596756  0.32979423  0.48922702  1
  Ru4+  Ru91  1  -0.01197319  0.33722122  0.74327500  1
  Ru4+  Ru92  1  0.00382326  0.68225765  0.00649500  1
  Ru4+  Ru93  1  0.00567905  0.66489264  0.24729329  1
  Ru4+  Ru94  1  -0.00137372  0.66827351  0.51392874  1
  Ru4+  Ru95  1  -0.00207769  0.67275849  0.75222563  1
  Ru4+  Ru96  1  0.50186280  -0.01277720  -0.01636452  1
  Ru4+  Ru97  1  0.49652192  -0.00949197  0.24849776  1
  Ru4+  Ru98  1  0.50420945  -0.02080628  0.50193705  1
  Ru4+  Ru99  1  0.49867836  -0.00056725  0.75559916  1
  Ru4+  Ru100  1  0.49713192  0.33884025  0.00935767  1
  Ru4+  Ru101  1  0.50056404  0.33477814  0.25116996  1
  Ru4+  Ru102  1  0.49603007  0.32432433  0.49987956  1
  Ru4+  Ru103  1  0.49487487  0.33461539  0.74361043  1
  Ru4+  Ru104  1  0.50178123  0.67062382  0.00683380  1
  Ru4+  Ru105  1  0.51231725  0.65002676  0.24608364  1
  Ru4+  Ru106  1  0.49583836  0.65864868  0.51852180  1
  Ru4+  Ru107  1  0.49971828  0.67357416  0.74241929  1
  Ru4+  Ru108  1  0.11125579  0.17149405  0.00141640  1
  Ru4+  Ru109  1  0.11178431  0.16167991  0.24381682  1
  Ru4+  Ru110  1  0.11157169  0.17562200  0.50114585  1
  Ru4+  Ru111  1  0.11553361  0.16652882  0.75145097  1
  Ru4+  Ru112  1  0.11785373  0.50885399  0.00035701  1
  Ru4+  Ru113  1  0.11427818  0.50753080  0.24504711  1
  Ru4+  Ru114  1  0.11439048  0.50425069  0.50173018  1
  Ru4+  Ru115  1  0.11264440  0.49921198  0.75024785  1
  Ru4+  Ru116  1  0.09832071  0.82525985  -0.00436868  1
  Ru4+  Ru117  1  0.11379059  0.83216448  0.24376063  1
  Ru4+  Ru118  1  0.11090360  0.82753544  0.51347766  1
  Ru4+  Ru119  1  0.11143914  0.83357078  0.75203143  1
  Ru4+  Ru120  1  0.61208178  0.17691720  0.01207229  1
  Ru4+  Ru121  1  0.61512384  0.16594248  0.25281540  1
  Ru4+  Ru122  1  0.60967632  0.16365864  0.49284866  1
  Ru4+  Ru123  1  0.61132745  0.17124253  0.74141022  1
  Ru4+  Ru124  1  0.61181585  0.50245034  0.00053747  1
  Ru4+  Ru125  1  0.61576335  0.50501182  0.25032588  1
  Ru4+  Ru126  1  0.60345291  0.51424024  0.50174465  1
  Ru4+  Ru127  1  0.61111761  0.50085049  0.73907114  1
  Ru4+  Ru128  1  0.60529275  0.83976392  -0.00596736  1
  Ru4+  Ru129  1  0.60814800  0.83808854  0.25193395  1
  Ru4+  Ru130  1  0.61072028  0.83634566  0.50013854  1
  Ru4+  Ru131  1  0.60728524  0.83248930  0.75672818  1
  Ru4+  Ru132  1  0.38664688  0.17128047  0.00923084  1
  Ru4+  Ru133  1  0.38744101  0.16700233  0.25213812  1
  Ru4+  Ru134  1  0.39174268  0.16588359  0.49800647  1
  Ru4+  Ru135  1  0.39007200  0.17311920  0.74141526  1
  Ru4+  Ru136  1  0.38787857  0.49000559  0.01377879  1
  Ru4+  Ru137  1  0.38566172  0.49424076  0.24593222  1
  Ru4+  Ru138  1  0.38538581  0.50006003  0.50346961  1
  Ru4+  Ru139  1  0.38550846  0.49814458  0.74424587  1
  Ru4+  Ru140  1  0.39101506  0.83412339  0.00021895  1
  Ru4+  Ru141  1  0.38768214  0.83462670  0.25335761  1
  Ru4+  Ru142  1  0.39159264  0.82420065  0.49073318  1
  Ru4+  Ru143  1  0.38837138  0.83166965  0.75536546  1
  Ru4+  Ru144  1  0.89325772  0.16426219  0.00129671  1
  Ru4+  Ru145  1  0.88442484  0.17152660  0.25072923  1
  Ru4+  Ru146  1  0.88566412  0.16589094  0.49894161  1
  Ru4+  Ru147  1  0.89063113  0.16986327  0.74637415  1
  Ru4+  Ru148  1  0.88792992  0.50178519  -0.00291247  1
  Ru4+  Ru149  1  0.88309587  0.50313720  0.24880559  1
  Ru4+  Ru150  1  0.89272908  0.51156488  0.50019678  1
  Ru4+  Ru151  1  0.89264126  0.49635770  0.74126178  1
  Ru4+  Ru152  1  0.89212625  0.83150300  -0.00225934  1
  Ru4+  Ru153  1  0.89332409  0.82680113  0.24520271  1
  Ru4+  Ru154  1  0.88258237  0.83120235  0.50311469  1
  Ru4+  Ru155  1  0.89661231  0.83093066  0.75543181  1
  Ru4+  Ru156  1  0.25178831  0.57153383  -0.00842782  1
  Ru4+  Ru157  1  0.24944939  0.24105090  0.25194700  1
  Ru4+  Ru158  1  0.25000692  0.73216847  0.74493169  1
  Ru4+  Ru159  1  0.24851824  0.27811495  0.72743577  1
  Ru4+  Ru160  1  0.74793749  0.72350669  0.23833587  1
  Ru4+  Ru161  1  0.25205315  0.28821725  0.48973567  1
  Ru4+  Ru162  1  0.25017641  0.91699079  0.49935451  1
  Ru4+  Ru163  1  0.74943203  0.61433758  -0.01170788  1
  Ru4+  Ru164  1  0.25120644  0.91692236  0.74752607  1
  Ru4+  Ru165  1  0.25225392  0.58082472  0.25757750  1
  Ru4+  Ru166  1  0.25068291  0.58067265  0.74786305  1
  Ru4+  Ru167  1  0.25021346  0.72241807  0.02043966  1
  Ru4+  Ru168  1  0.25089059  0.74646871  0.24005011  1
  Ru4+  Ru169  1  0.75036672  0.27825292  0.71114853  1
  Ru4+  Ru170  1  0.75084080  0.03604757  0.68913566  1
  Ru4+  Ru171  1  0.75082933  0.41285401  0.74985122  1
  Ru4+  Ru172  1  0.74943902  0.06517727  0.25821351  1
  Ru4+  Ru173  1  0.74835063  0.25239731  0.26308259  1
  Ru4+  Ru174  1  0.25157011  0.10016952  0.23495322  1
  Ru4+  Ru175  1  0.75078429  0.39933695  -0.02199884  1
  Ru4+  Ru176  1  0.24810018  0.42333193  -0.00299411  1
  Ru4+  Ru177  1  0.24973724  0.06399359  0.02565192  1
  Ru4+  Ru178  1  0.75042036  0.90580292  0.74207125  1
  Ru4+  Ru179  1  0.75168006  0.26275948  0.00012695  1
  O2-  O180  1  0.16757506  0.07919682  -0.00009521  1
  O2-  O181  1  0.17210919  0.08468405  0.25138045  1
  O2-  O182  1  0.15980103  0.08022883  0.50374009  1
  O2-  O183  1  0.16511578  0.07734606  0.75000600  1
  O2-  O184  1  0.16786885  0.41698900  -0.00328880  1
  O2-  O185  1  0.16043134  0.41820468  0.24861707  1
  O2-  O186  1  0.16305528  0.41521108  0.49595541  1
  O2-  O187  1  0.16431303  0.41421115  0.75212427  1
  O2-  O188  1  0.16959756  0.75506027  -0.00215634  1
  O2-  O189  1  0.17033871  0.74558916  0.25472871  1
  O2-  O190  1  0.16867745  0.74960686  0.50063471  1
  O2-  O191  1  0.16464941  0.74671760  0.74773843  1
  O2-  O192  1  0.65233853  0.07843253  -0.00039851  1
  O2-  O193  1  0.66462763  0.07591110  0.25260574  1
  O2-  O194  1  0.67061457  0.08207158  0.49879801  1
  O2-  O195  1  0.66616817  0.07874489  0.74455438  1
  O2-  O196  1  0.66931150  0.41241991  -0.00036619  1
  O2-  O197  1  0.66362205  0.41401726  0.25044610  1
  O2-  O198  1  0.66997124  0.42173127  0.50041975  1
  O2-  O199  1  0.66855588  0.41590531  0.74708268  1
  O2-  O200  1  0.66303124  0.75389111  -0.00111742  1
  O2-  O201  1  0.66562071  0.75226339  0.24361360  1
  O2-  O202  1  0.66741028  0.75689403  0.49918558  1
  O2-  O203  1  0.66058169  0.74981040  0.74614253  1
  O2-  O204  1  0.33427978  0.25318099  0.00122812  1
  O2-  O205  1  0.33224492  0.24934816  0.25849465  1
  O2-  O206  1  0.33209804  0.25422046  0.49742493  1
  O2-  O207  1  0.32648916  0.25548748  0.74432305  1
  O2-  O208  1  0.33727762  0.58239820  -0.00310472  1
  O2-  O209  1  0.33542471  0.58668547  0.24642902  1
  O2-  O210  1  0.33123667  0.58185149  0.50267553  1
  O2-  O211  1  0.33504182  0.58829503  0.75099142  1
  O2-  O212  1  0.34019596  0.92279223  0.00395140  1
  O2-  O213  1  0.33857836  0.92074050  0.24763656  1
  O2-  O214  1  0.33559333  0.91787564  0.50207962  1
  O2-  O215  1  0.33682387  0.91819744  0.75112349  1
  O2-  O216  1  0.83680398  0.25215093  -0.00132340  1
  O2-  O217  1  0.83207786  0.25390493  0.25240786  1
  O2-  O218  1  0.83221300  0.25034827  0.49681201  1
  O2-  O219  1  0.82920528  0.25573635  0.75347249  1
  O2-  O220  1  0.83374245  0.58691119  -0.00464518  1
  O2-  O221  1  0.83522211  0.58874694  0.25566585  1
  O2-  O222  1  0.82861704  0.58405102  0.48802192  1
  O2-  O223  1  0.84494413  0.58383836  0.74949827  1
  O2-  O224  1  0.83993160  0.91741521  0.00066424  1
  O2-  O225  1  0.83881844  0.91683412  0.25514750  1
  O2-  O226  1  0.83661897  0.92178657  0.49747374  1
  O2-  O227  1  0.83700108  0.91575797  0.74503800  1
  O2-  O228  1  0.15972783  0.25929837  -0.00045646  1
  O2-  O229  1  0.16487583  0.24938029  0.24949392  1
  O2-  O230  1  0.17312190  0.25478251  0.49781070  1
  O2-  O231  1  0.16797930  0.25581961  0.75144906  1
  O2-  O232  1  0.17082013  0.58966787  -0.00174927  1
  O2-  O233  1  0.17449737  0.58742765  0.24626606  1
  O2-  O234  1  0.17006264  0.58401914  0.49478779  1
  O2-  O235  1  0.16615290  0.58511676  0.74370349  1
  O2-  O236  1  0.15974598  0.91365938  -0.00457002  1
  O2-  O237  1  0.16318638  0.91696385  0.25562330  1
  O2-  O238  1  0.16562148  0.91678983  0.49816008  1
  O2-  O239  1  0.16862511  0.91897203  0.75186292  1
  O2-  O240  1  0.66800973  0.25457517  -0.00060078  1
  O2-  O241  1  0.66437498  0.25378486  0.25283601  1
  O2-  O242  1  0.66714105  0.24931867  0.50035981  1
  O2-  O243  1  0.66824651  0.25564160  0.74923160  1
  O2-  O244  1  0.66476987  0.58974414  -0.00315684  1
  O2-  O245  1  0.66931856  0.58798351  0.24719397  1
  O2-  O246  1  0.67318180  0.57588050  0.50982751  1
  O2-  O247  1  0.65919923  0.58797328  0.75081395  1
  O2-  O248  1  0.66769996  0.91752337  0.01084156  1
  O2-  O249  1  0.66555134  0.92377106  0.24835536  1
  O2-  O250  1  0.66724709  0.91815775  0.49243559  1
  O2-  O251  1  0.66636387  0.91661692  0.74513011  1
  O2-  O252  1  0.33262612  0.08203521  0.00584548  1
  O2-  O253  1  0.33316406  0.08264517  0.24566391  1
  O2-  O254  1  0.33959136  0.08011675  0.50622076  1
  O2-  O255  1  0.33961465  0.08041501  0.74874101  1
  O2-  O256  1  0.32808234  0.42077572  -0.00006585  1
  O2-  O257  1  0.33149438  0.41810863  0.25707725  1
  O2-  O258  1  0.33119014  0.41596713  0.49994929  1
  O2-  O259  1  0.33539016  0.41489230  0.74794403  1
  O2-  O260  1  0.32937573  0.74718421  -0.00142774  1
  O2-  O261  1  0.33237657  0.74559437  0.25017269  1
  O2-  O262  1  0.33152047  0.75030057  0.49435532  1
  O2-  O263  1  0.33234877  0.74378679  0.75277424  1
  O2-  O264  1  0.84021825  0.07828619  -0.01004260  1
  O2-  O265  1  0.83255516  0.07567647  0.25571361  1
  O2-  O266  1  0.82729972  0.07933062  0.50043140  1
  O2-  O267  1  0.83929976  0.07956685  0.74857761  1
  O2-  O268  1  0.83421052  0.41377137  -0.00151052  1
  O2-  O269  1  0.84057513  0.41165052  0.25015827  1
  O2-  O270  1  0.83982861  0.42217700  0.49761196  1
  O2-  O271  1  0.83354075  0.41411896  0.75393644  1
  O2-  O272  1  0.83802566  0.74946338  -0.00131733  1
  O2-  O273  1  0.82631519  0.74709991  0.26183869  1
  O2-  O274  1  0.82889603  0.74964071  0.48500102  1
  O2-  O275  1  0.84094695  0.74983929  0.74914005  1
  O2-  O276  1  0.46742874  0.22947746  0.70395913  1
  O2-  O277  1  0.94981284  0.42657046  0.97766442  1
  O2-  O278  1  0.55314256  0.91383622  0.74749333  1
  O2-  O279  1  0.95728131  0.57685899  0.97969312  1
  O2-  O280  1  0.95260285  0.43876432  0.80613704  1
  O2-  O281  1  0.44715530  0.76077796  0.76897856  1
  O2-  O282  1  0.05231086  0.09388909  0.29647902  1
  O2-  O283  1  0.46868068  0.46794034  -0.00015448  1
  O2-  O284  1  0.04496774  0.43109325  0.01183788  1
  O2-  O285  1  0.53453413  0.90258003  0.05120217  1
  O2-  O286  1  0.95120522  0.22660220  0.80605394  1
  O2-  O287  1  0.94900332  0.57180972  0.25670980  1
  O2-  O288  1  0.04614378  0.90940860  0.96810141  1
  O2-  O289  1  0.05185222  0.76517020  0.23557859  1
  O2-  O290  1  0.95061090  0.10557599  0.25119376  1
  O2-  O291  1  0.04617997  0.42755952  0.73055861  1
  O2-  O292  1  0.54636408  0.90506955  0.75948122  1
  O2-  O293  1  0.54656673  0.76523774  -0.00985125  1
  O2-  O294  1  0.95426239  0.75545766  0.30330594  1
  O2-  O295  1  0.95399318  0.75740980  0.77415148  1
  O2-  O296  1  0.46159377  0.88711904  0.52824820  1
  O2-  O297  1  0.03488786  0.78071456  0.55414202  1
  O2-  O298  1  0.52931449  0.55841193  0.52041666  1
  O2-  O299  1  0.54913286  0.10347814  0.02345665  1
  O2-  O300  1  0.44635846  0.09226979  0.74459352  1
  O2-  O301  1  0.04158695  0.23091555  0.24052434  1
  O2-  O302  1  0.45031135  0.09626405  0.02071655  1
  O2-  O303  1  0.95326816  0.89971615  0.25405496  1
  O2-  O304  1  0.04413300  0.53639592  0.28619280  1
  O2-  O305  1  0.45045151  0.08003237  0.98587502  1
  O2-  O306  1  0.45154917  0.23236211  0.49186392  1
  O2-  O307  1  0.45302804  0.43616625  0.72459647  1
  O2-  O308  1  0.55448731  0.74366289  0.77494026  1
  O2-  O309  1  0.05098449  0.09719549  1.00115406  1
  O2-  O310  1  0.04728396  0.43107744  0.49916040  1
  O2-  O311  1  0.55359581  0.09342319  0.71994144  1
  O2-  O312  1  0.43838854  0.75015454  0.54570103  1
  O2-  O313  1  0.94925278  0.91105771  0.76590260  1
  O2-  O314  1  0.54646555  0.57502281  0.73453338  1
  O2-  O315  1  0.55014232  0.08413904  0.98972372  1
  O2-  O316  1  0.46199290  0.46567213  0.98590789  1
  O2-  O317  1  0.96457401  0.55851194  0.46098119  1
  O2-  O318  1  0.53220753  0.42491254  0.49622937  1
  O2-  O319  1  0.01652870  0.78938600  1.01050326  1
  O2-  O320  1  0.05343676  0.25244585  0.75578795  1
  O2-  O321  1  0.95383913  0.10905307  0.94499438  1
  O2-  O322  1  0.04545774  0.10169314  0.51316422  1
  O2-  O323  1  0.53253245  0.56043503  0.53844739  1
  O2-  O324  1  0.93605452  0.74335086  0.50981400  1
  O2-  O325  1  0.06560972  0.91835244  0.76933576  1
  O2-  O326  1  0.07179103  0.24649335  0.42763735  1
  O2-  O327  1  0.55699024  0.07572740  0.47372009  1
  O2-  O328  1  0.06092775  0.08891261  0.31149935  1
  O2-  O329  1  0.44199025  0.24961291  0.97483962  1
  O2-  O330  1  0.56313485  0.40797042  0.77050368  1
  O2-  O331  1  0.43722898  0.74936725  0.55763467  1
  O2-  O332  1  0.59507379  0.60795602  0.43879582  1
  O2-  O333  1  0.91612252  0.59463214  0.57611403  1
  O2-  O334  1  0.57699739  0.93118177  0.93796708  1
  O2-  O335  1  0.05984098  0.07702872  0.75909830  1
  O2-  O336  1  0.93075107  0.40932475  0.66578528  1
  O2-  O337  1  0.57485265  0.76983566  0.42078057  1
  O2-  O338  1  0.07615708  0.70056369  0.94973436  1
  O2-  O339  1  0.91196467  0.74470171  0.17952849  1
  O2-  O340  1  0.92764685  0.25996195  0.67276539  1
  O2-  O341  1  0.56194501  0.25019094  0.51907496  1
  O2-  O342  1  0.06674240  0.41434374  0.00423896  1
  O2-  O343  1  0.55985667  0.25548211  0.02820686  1
  O2-  O344  1  0.06386015  0.59538475  0.54074010  1
  O2-  O345  1  0.94220096  0.25992453  0.51600517  1
  O2-  O346  1  0.56191805  0.41440447  0.23195193  1
  O2-  O347  1  0.56752331  0.57563733  0.31595640  1
  O2-  O348  1  0.07393176  0.07264166  0.14681399  1
  O2-  O349  1  0.06137200  0.26564410  0.58296034  1
  O2-  O350  1  0.55939982  0.92378688  0.42730832  1
  O2-  O351  1  0.06235572  0.94036170  0.04819100  1
  O2-  O352  1  0.43386579  0.59252343  0.45893439  1
  O2-  O353  1  0.56606234  0.92758296  0.57319854  1
  O2-  O354  1  0.56037409  0.73048164  0.57354243  1
  O2-  O355  1  0.55977015  0.92829656  0.27017259  1
  O2-  O356  1  0.93801320  0.26283213  0.96824268  1
  O2-  O357  1  0.43942139  0.41038928  0.22738820  1
  O2-  O358  1  0.42089115  0.36174495  0.06331661  1
  O2-  O359  1  0.43538686  0.73902776  0.01403491  1
  O2-  O360  1  0.93767893  0.08074058  0.48419368  1
  O2-  O361  1  0.43844002  0.96798592  0.42067759  1
  O2-  O362  1  0.92547924  0.06894665  0.06991201  1
  O2-  O363  1  0.58351860  0.39709644  0.52033811  1
  O2-  O364  1  0.41755967  0.75724871  0.38761188  1
  O2-  O365  1  0.56734398  0.57430303  0.17578465  1
  O2-  O366  1  0.08414540  0.60396238  0.19214180  1
  O2-  O367  1  0.06404905  0.93104473  0.53947131  1
  O2-  O368  1  0.43531343  0.40728674  0.47783426  1
  O2-  O369  1  0.08200531  0.74510255  0.43298577  1
  O2-  O370  1  0.41386843  0.25532718  0.81440282  1
  O2-  O371  1  0.56515592  0.41316384  0.03104623  1
  O2-  O372  1  0.25105581  0.33112581  0.61017180  1
  O2-  O373  1  0.74785496  0.34665858  0.60892734  1
  O2-  O374  1  0.74960213  0.66940546  0.10609864  1
  O2-  O375  1  0.75059862  0.69760731  0.90332136  1
  O2-  O376  1  0.24678327  0.33395514  0.17030208  1
  O2-  O377  1  0.75157992  -0.02061790  0.93274524  1
  O2-  O378  1  0.25242329  0.66454130  0.89462324  1
  O2-  O379  1  0.25018884  -0.00217549  0.64946131  1
  O2-  O380  1  0.74885350  0.34587633  0.10369313  1
  O2-  O381  1  0.75262589  0.00000020  0.81424364  1
  O2-  O382  1  0.24948398  0.66486190  0.63712911  1
  O2-  O383  1  0.75032949  0.32750758  0.42304285  1
  O2-  O384  1  0.24766878  0.33368503  0.90087938  1
  O2-  O385  1  0.75330478  0.32990223  0.87697408  1
  O2-  O386  1  0.25083382  0.00224513  0.83117752  1
  O2-  O387  1  0.74930741  -0.00066174  0.12591193  1
  O2-  O388  1  0.25041262  -0.00871067  0.92596043  1
  O2-  O389  1  0.25027169  0.31294671  0.35394925  1
  O2-  O390  1  0.75153183  0.64852731  0.60265873  1
  O2-  O391  1  0.74965352  0.34604414  0.33238441  1
  O2-  O392  1  0.75093997  0.65886909  0.81922135  1
  O2-  O393  1  0.25038701  0.00006238  0.40714647  1
  O2-  O394  1  0.25259420  0.00543327  0.14615375  1
  O2-  O395  1  0.24833940  0.32767880  0.07649118  1
  O2-  O396  1  0.25008599  0.50520837  0.09319228  1
  O2-  O397  1  0.75070936  0.82539380  0.65779954  1
  O2-  O398  1  0.75063359  0.18926878  0.90967964  1
  O2-  O399  1  0.75147733  0.84033905  0.57517425  1
  O2-  O400  1  0.25008835  0.15760013  0.12297528  1
  O2-  O401  1  0.75076661  0.15888598  0.62670078  1
  O2-  O402  1  0.74976282  0.84375510  0.87367598  1
  O2-  O403  1  0.74899040  0.15876016  0.20796169  1
  O2-  O404  1  0.25135368  0.51027431  0.33764078  1
  O2-  O405  1  0.75150649  0.81770990  0.15638645  1
  O2-  O406  1  0.74939599  0.50700250  0.39930887  1
  O2-  O407  1  0.75222959  0.49881343  0.20183424  1
  O2-  O408  1  0.25034769  0.82747845  0.68405825  1
  O2-  O409  1  0.75001113  0.49582594  0.83317759  1
  O2-  O410  1  0.75208831  0.49826378  0.31662820  1
  O2-  O411  1  0.25044163  0.49552298  0.66978709  1
  O2-  O412  1  0.24993815  0.82688145  0.54798497  1
  O2-  O413  1  0.24978480  0.51524218  0.84581261  1
  O2-  O414  1  0.75200446  0.19615678  0.09008259  1
  O2-  O415  1  0.24932117  0.50528136  0.58667756  1
  O2-  O416  1  0.25027389  0.82095071  0.14803103  1
  O2-  O417  1  0.75053799  0.50649200  0.92567992  1
  O2-  O418  1  0.75105975  0.80571537  0.79781567  1
  O2-  O419  1  0.24909185  0.17710224  0.63369191  1
  O2-  O420  1  0.95793476  0.64560376  0.11298144  1
  O2-  O421  1  0.04824136  -0.03483543  0.38640216  1
  O2-  O422  1  0.50543264  0.67775557  0.35991597  1
  O2-  O423  1  0.54016783  0.03427138  0.85633103  1
  O2-  O424  1  0.54290221  0.68856395  0.11673828  1
  O2-  O425  1  0.51965486  0.33258738  0.62810598  1
  O2-  O426  1  0.04030162  0.67091494  0.10732460  1
  O2-  O427  1  0.01809602  0.66381315  0.37122010  1
  O2-  O428  1  0.44994395  0.65123486  0.15402306  1
  O2-  O429  1  0.48373464  0.32775417  0.36871211  1
  O2-  O430  1  0.95559012  -0.00955016  0.37223080  1
  O2-  O431  1  0.98158118  -0.00954266  0.14226821  1
  O2-  O432  1  0.97195168  0.00958115  0.62911117  1
  O2-  O433  1  0.45253001  -0.01622197  0.86865632  1
  O2-  O434  1  0.01644323  0.34039889  0.35802983  1
  O2-  O435  1  0.98710701  0.66334814  0.63841244  1
  O2-  O436  1  0.47080991  0.64276018  0.63954918  1
  O2-  O437  1  0.47195703  0.00731615  0.62312050  1
  O2-  O438  1  0.01802646  0.00705627  0.87974050  1
  O2-  O439  1  0.95046591  0.33020459  0.13185601  1
  O2-  O440  1  0.51377709  0.32295142  0.13305998  1
  O2-  O441  1  0.04595209  0.33024717  0.12832178  1
  O2-  O442  1  0.54749404  0.30955972  0.88951293  1
  O2-  O443  1  0.46207175  0.36818896  0.86667766  1
