# generated using pymatgen
data_La7(Ru4O11)2
_symmetry_space_group_name_H-M   'P 1'
_cell_length_a   23.99382475
_cell_length_b   16.83243884
_cell_length_c   15.42935086
_cell_angle_alpha   89.99901510
_cell_angle_beta   90.00160973
_cell_angle_gamma   90.00236178
_symmetry_Int_Tables_number   1
_chemical_formula_structural   La7(Ru4O11)2
_chemical_formula_sum   'La84 Ru96 O264'
_cell_volume   6231.52270700
_cell_formula_units_Z   12
loop_
 _symmetry_equiv_pos_site_id
 _symmetry_equiv_pos_as_xyz
  1  'x, y, z'
loop_
 _atom_type_symbol
 _atom_type_oxidation_number
  La3+  3.0
  Ru4+  4.0
  O2-  -2.0
loop_
 _atom_site_type_symbol
 _atom_site_label
 _atom_site_symmetry_multiplicity
 _atom_site_fract_x
 _atom_site_fract_y
 _atom_site_fract_z
 _atom_site_occupancy
  La3+  La0  1  0.14813028  0.00195124  0.12338157  1
  La3+  La1  1  0.14315720  -0.00035157  0.37266274  1
  La3+  La2  1  0.13796655  0.00039462  0.62975469  1
  La3+  La3  1  0.14327810  0.00388730  0.87364529  1
  La3+  La4  1  0.13969404  0.33781301  0.11980132  1
  La3+  La5  1  0.14426934  0.32974065  0.37825993  1
  La3+  La6  1  0.14099671  0.33252621  0.62434560  1
  La3+  La7  1  0.14176049  0.33395375  0.87615798  1
  La3+  La8  1  0.14946869  0.66859349  0.12844406  1
  La3+  La9  1  0.13712236  0.67119936  0.37904309  1
  La3+  La10  1  0.13910476  0.66924237  0.62257119  1
  La3+  La11  1  0.14517337  0.66842380  0.87143225  1
  La3+  La12  1  0.64534410  -0.01004526  0.12171060  1
  La3+  La13  1  0.63656146  -0.00331305  0.36699851  1
  La3+  La14  1  0.63506234  0.00051938  0.62255766  1
  La3+  La15  1  0.63529635  0.00080103  0.87490913  1
  La3+  La16  1  0.64496975  0.33262061  0.12924634  1
  La3+  La17  1  0.64438589  0.32654188  0.37029127  1
  La3+  La18  1  0.63893826  0.32595198  0.62494600  1
  La3+  La19  1  0.64120619  0.33223708  0.87977818  1
  La3+  La20  1  0.64249845  0.66904803  0.12514710  1
  La3+  La21  1  0.64122004  0.66490598  0.37162566  1
  La3+  La22  1  0.63692204  0.66552836  0.62069672  1
  La3+  La23  1  0.63733025  0.66703115  0.88026802  1
  La3+  La24  1  0.34783490  0.00311486  0.13045861  1
  La3+  La25  1  0.35784130  -0.00219424  0.36998492  1
  La3+  La26  1  0.36265408  0.00203974  0.63174429  1
  La3+  La27  1  0.36323430  0.00162267  0.87395429  1
  La3+  La28  1  0.36376538  0.33214594  0.12134462  1
  La3+  La29  1  0.35311305  0.33223607  0.38053825  1
  La3+  La30  1  0.36280850  0.33223350  0.62123950  1
  La3+  La31  1  0.35713061  0.33257039  0.87741563  1
  La3+  La32  1  0.36084654  0.66787193  0.12303216  1
  La3+  La33  1  0.35921962  0.67054390  0.37677639  1
  La3+  La34  1  0.36122427  0.66756317  0.62334173  1
  La3+  La35  1  0.35872225  0.66810482  0.87800305  1
  La3+  La36  1  0.85638384  -0.00069222  0.12579302  1
  La3+  La37  1  0.86302256  0.00358026  0.37761413  1
  La3+  La38  1  0.86018698  0.00297148  0.62196584  1
  La3+  La39  1  0.86891433  -0.00146849  0.87318953  1
  La3+  La40  1  0.85770372  0.33337025  0.12710861  1
  La3+  La41  1  0.85935541  0.33121226  0.37065869  1
  La3+  La42  1  0.86111500  0.33463071  0.62474273  1
  La3+  La43  1  0.86239600  0.33673350  0.87868610  1
  La3+  La44  1  0.85863624  0.66548758  0.12344437  1
  La3+  La45  1  0.85371573  0.66154176  0.36954869  1
  La3+  La46  1  0.86458474  0.66566901  0.62252748  1
  La3+  La47  1  0.86212756  0.66828258  0.87773597  1
  La3+  La48  1  0.00131322  0.17031215  0.87778688  1
  La3+  La49  1  -0.00381668  0.17255059  0.60959183  1
  La3+  La50  1  0.49774002  0.16802636  0.11848812  1
  La3+  La51  1  0.50003859  0.83632596  0.63376238  1
  La3+  La52  1  0.00331226  0.16279451  0.12126434  1
  La3+  La53  1  0.49621995  0.17027618  0.84708945  1
  La3+  La54  1  0.00085431  0.16541694  0.62927640  1
  La3+  La55  1  0.49611730  0.17340023  0.38225825  1
  La3+  La56  1  -0.00311570  0.82067716  0.37614385  1
  La3+  La57  1  0.48651420  0.49790883  0.37259730  1
  La3+  La58  1  -0.00000455  0.83187254  0.10627341  1
  La3+  La59  1  0.49894617  0.16906249  0.11807215  1
  La3+  La60  1  0.00373083  0.83137545  0.38849248  1
  La3+  La61  1  0.49896873  0.82426955  0.37954262  1
  La3+  La62  1  0.49893813  0.16186442  0.40003780  1
  La3+  La63  1  0.00370565  0.83632706  0.62416439  1
  La3+  La64  1  -0.00479774  0.16520022  0.14005319  1
  La3+  La65  1  0.50775037  0.49700366  0.12344614  1
  La3+  La66  1  0.00021210  0.83534534  0.12840654  1
  La3+  La67  1  0.00311808  0.49189556  0.36221501  1
  La3+  La68  1  0.50116844  0.50038916  0.88103721  1
  La3+  La69  1  0.49609315  0.83438058  0.86712163  1
  La3+  La70  1  0.00620847  0.50182139  0.38152933  1
  La3+  La71  1  0.00234212  0.50076996  0.86543437  1
  La3+  La72  1  0.24995194  0.53345434  0.29238310  1
  La3+  La73  1  0.75039925  0.22405153  0.47074795  1
  La3+  La74  1  0.75148414  0.23722752  0.78590963  1
  La3+  La75  1  0.74962841  0.45592026  0.00435427  1
  La3+  La76  1  0.24930665  0.82818885  0.69654676  1
  La3+  La77  1  0.24917925  0.89338326  0.02888739  1
  La3+  La78  1  0.74858430  0.53524798  0.49139613  1
  La3+  La79  1  0.25027231  0.16650742  0.24974533  1
  La3+  La80  1  0.74995956  0.82185159  0.81909140  1
  La3+  La81  1  0.75159090  0.22218931  -0.00163263  1
  La3+  La82  1  0.24963116  0.50385920  0.02689298  1
  La3+  La83  1  0.75119064  0.44904206  0.75279074  1
  Ru4+  Ru84  1  0.00121604  -0.00173640  0.00399567  1
  Ru4+  Ru85  1  -0.00060437  0.00528428  0.23986788  1
  Ru4+  Ru86  1  0.00517975  -0.00168581  0.50278023  1
  Ru4+  Ru87  1  -0.00090501  -0.01343735  0.76231690  1
  Ru4+  Ru88  1  0.00254252  0.33973001  -0.00140599  1
  Ru4+  Ru89  1  -0.00590540  0.33806984  0.25392054  1
  Ru4+  Ru90  1  0.00132578  0.33496728  0.51155948  1
  Ru4+  Ru91  1  0.00394546  0.33679422  0.74320206  1
  Ru4+  Ru92  1  0.00982127  0.64239907  0.00087858  1
  Ru4+  Ru93  1  0.00252840  0.66713489  0.24549038  1
  Ru4+  Ru94  1  -0.00483805  0.66310934  0.49929112  1
  Ru4+  Ru95  1  0.00456526  0.67285781  0.75653347  1
  Ru4+  Ru96  1  0.49976716  -0.00100807  -0.01441648  1
  Ru4+  Ru97  1  0.49127276  -0.00035296  0.26170550  1
  Ru4+  Ru98  1  0.50051281  -0.00473066  0.50679670  1
  Ru4+  Ru99  1  0.49913785  0.00665517  0.74889714  1
  Ru4+  Ru100  1  0.50475549  0.33921203  -0.00476584  1
  Ru4+  Ru101  1  0.50241362  0.33711701  0.24473315  1
  Ru4+  Ru102  1  0.49896226  0.34744559  0.50088631  1
  Ru4+  Ru103  1  0.50799478  0.33942836  0.74779391  1
  Ru4+  Ru104  1  0.49939022  0.65804490  0.00916033  1
  Ru4+  Ru105  1  0.50852942  0.66936530  0.24147028  1
  Ru4+  Ru106  1  0.50142994  0.66973167  0.49982987  1
  Ru4+  Ru107  1  0.49905093  0.65703357  0.73997300  1
  Ru4+  Ru108  1  0.11227613  0.16372818  -0.00018705  1
  Ru4+  Ru109  1  0.11603343  0.15941244  0.25485034  1
  Ru4+  Ru110  1  0.11349167  0.17036316  0.50110784  1
  Ru4+  Ru111  1  0.11338693  0.16656039  0.74868099  1
  Ru4+  Ru112  1  0.10169283  0.51134840  0.00586834  1
  Ru4+  Ru113  1  0.11143173  0.49946143  0.25068994  1
  Ru4+  Ru114  1  0.11390240  0.49911964  0.50351159  1
  Ru4+  Ru115  1  0.11266013  0.50152772  0.74847838  1
  Ru4+  Ru116  1  0.11046778  0.83172751  -0.00002740  1
  Ru4+  Ru117  1  0.11611308  0.83154117  0.25110830  1
  Ru4+  Ru118  1  0.11890090  0.83798635  0.50372473  1
  Ru4+  Ru119  1  0.10899865  0.83085847  0.75429509  1
  Ru4+  Ru120  1  0.60947978  0.16863653  0.00174247  1
  Ru4+  Ru121  1  0.61388580  0.16120693  0.24377026  1
  Ru4+  Ru122  1  0.61357345  0.15750534  0.50408336  1
  Ru4+  Ru123  1  0.60898614  0.16729201  0.74960967  1
  Ru4+  Ru124  1  0.60837564  0.50011453  -0.00162320  1
  Ru4+  Ru125  1  0.61516280  0.50654626  0.24915052  1
  Ru4+  Ru126  1  0.60239885  0.48563693  0.49880145  1
  Ru4+  Ru127  1  0.60476039  0.49505330  0.75329490  1
  Ru4+  Ru128  1  0.61668886  0.83037775  0.00011479  1
  Ru4+  Ru129  1  0.61270330  0.82788500  0.24698648  1
  Ru4+  Ru130  1  0.61096175  0.83221426  0.50322927  1
  Ru4+  Ru131  1  0.60971622  0.83220414  0.75046365  1
  Ru4+  Ru132  1  0.38087684  0.15849244  0.00065249  1
  Ru4+  Ru133  1  0.38453268  0.16324147  0.25206207  1
  Ru4+  Ru134  1  0.38414263  0.16974867  0.50435768  1
  Ru4+  Ru135  1  0.38572967  0.16469554  0.74735187  1
  Ru4+  Ru136  1  0.39249393  0.50186626  -0.00099439  1
  Ru4+  Ru137  1  0.38789154  0.50051253  0.24948006  1
  Ru4+  Ru138  1  0.38641140  0.49483438  0.50207740  1
  Ru4+  Ru139  1  0.38851381  0.50052160  0.74664126  1
  Ru4+  Ru140  1  0.38865057  0.84293565  0.00444497  1
  Ru4+  Ru141  1  0.38650805  0.83934146  0.25165113  1
  Ru4+  Ru142  1  0.38821860  0.83146485  0.50016556  1
  Ru4+  Ru143  1  0.38786654  0.83454272  0.74603854  1
  Ru4+  Ru144  1  0.88813235  0.16548433  -0.00030660  1
  Ru4+  Ru145  1  0.88901170  0.17033758  0.24659581  1
  Ru4+  Ru146  1  0.88806032  0.17245958  0.49770308  1
  Ru4+  Ru147  1  0.88896303  0.16421225  0.75114250  1
  Ru4+  Ru148  1  0.89353710  0.50292522  0.00146607  1
  Ru4+  Ru149  1  0.88559799  0.50169053  0.24809470  1
  Ru4+  Ru150  1  0.88851684  0.50021261  0.50186490  1
  Ru4+  Ru151  1  0.89225134  0.50226588  0.74782351  1
  Ru4+  Ru152  1  0.88850515  0.83026325  0.00107756  1
  Ru4+  Ru153  1  0.88690084  0.82894018  0.24827046  1
  Ru4+  Ru154  1  0.88608614  0.82839609  0.50009288  1
  Ru4+  Ru155  1  0.89578846  0.83664539  0.75076200  1
  Ru4+  Ru156  1  0.74994249  0.60189576  0.01362436  1
  Ru4+  Ru157  1  0.25129704  0.91587629  0.49657829  1
  Ru4+  Ru158  1  0.25032851  0.40940955  0.74197889  1
  Ru4+  Ru159  1  0.25047948  0.58472169  0.50611503  1
  Ru4+  Ru160  1  0.25129362  0.75841719  0.25015041  1
  Ru4+  Ru161  1  0.24991702  0.09148480  0.49337614  1
  Ru4+  Ru162  1  0.25007074  0.39027590  0.26007244  1
  Ru4+  Ru163  1  0.74990716  0.94395659  0.74779755  1
  Ru4+  Ru164  1  0.24938317  0.23421711  0.00022886  1
  Ru4+  Ru165  1  0.74913785  0.75671843  0.50115659  1
  Ru4+  Ru166  1  0.75001285  0.05846464  0.49707604  1
  Ru4+  Ru167  1  0.75109949  0.90624720  -0.00728851  1
  Ru4+  Ru168  1  0.74984291  0.75692719  0.25599761  1
  Ru4+  Ru169  1  0.25039671  0.58896343  0.73508373  1
  Ru4+  Ru170  1  0.24926780  0.73759924  0.00320129  1
  Ru4+  Ru171  1  0.75053540  0.38940130  0.48914247  1
  Ru4+  Ru172  1  0.74940006  0.06680786  -0.01746102  1
  Ru4+  Ru173  1  0.74951370  0.58535897  0.73794532  1
  Ru4+  Ru174  1  0.75130759  0.08939980  0.26362216  1
  Ru4+  Ru175  1  0.75009912  0.72643324  0.70410682  1
  Ru4+  Ru176  1  0.74966684  0.91177651  0.50284337  1
  Ru4+  Ru177  1  0.75087044  0.90159281  0.25774495  1
  Ru4+  Ru178  1  0.74903943  0.07912514  0.75936110  1
  Ru4+  Ru179  1  0.75022918  0.42788886  0.25212739  1
  O2-  O180  1  0.16205428  0.08122666  -0.00084567  1
  O2-  O181  1  0.16805612  0.07758312  0.25079723  1
  O2-  O182  1  0.16664341  0.07909110  0.50054405  1
  O2-  O183  1  0.16442988  0.08005747  0.74899025  1
  O2-  O184  1  0.16525011  0.41828712  0.00048546  1
  O2-  O185  1  0.16664352  0.41228314  0.25140184  1
  O2-  O186  1  0.16651484  0.41492918  0.50031702  1
  O2-  O187  1  0.16772319  0.41437521  0.74637490  1
  O2-  O188  1  0.16459169  0.74862776  -0.00063197  1
  O2-  O189  1  0.16971809  0.74738244  0.25565590  1
  O2-  O190  1  0.16604299  0.74885467  0.50062346  1
  O2-  O191  1  0.16910915  0.75150121  0.74011260  1
  O2-  O192  1  0.66437049  0.08003495  -0.00427573  1
  O2-  O193  1  0.67174815  0.08345179  0.25952548  1
  O2-  O194  1  0.66707587  0.07673651  0.49784927  1
  O2-  O195  1  0.66333402  0.08013688  0.75357252  1
  O2-  O196  1  0.66024771  0.41320931  0.00018593  1
  O2-  O197  1  0.66566928  0.41655391  0.25183020  1
  O2-  O198  1  0.67195400  0.41667722  0.49723921  1
  O2-  O199  1  0.66614386  0.41329961  0.74695256  1
  O2-  O200  1  0.66868357  0.75225879  -0.00527401  1
  O2-  O201  1  0.66834135  0.74960123  0.25052415  1
  O2-  O202  1  0.66536136  0.74715193  0.50071760  1
  O2-  O203  1  0.66498721  0.74590046  0.74806741  1
  O2-  O204  1  0.33253190  0.25109250  0.00156228  1
  O2-  O205  1  0.33443719  0.25388164  0.24920199  1
  O2-  O206  1  0.33379115  0.25277100  0.50145629  1
  O2-  O207  1  0.33730199  0.25161070  0.74867107  1
  O2-  O208  1  0.33358835  0.58489152  0.00126357  1
  O2-  O209  1  0.33154013  0.58733836  0.24871415  1
  O2-  O210  1  0.33251848  0.58427743  0.49891824  1
  O2-  O211  1  0.33343214  0.58670538  0.74686188  1
  O2-  O212  1  0.33332165  0.92212695  -0.01574961  1
  O2-  O213  1  0.33086193  0.91548767  0.25500942  1
  O2-  O214  1  0.33454639  0.92058400  0.50352370  1
  O2-  O215  1  0.32882337  0.92097677  0.74623382  1
  O2-  O216  1  0.84223551  0.25806569  0.00018186  1
  O2-  O217  1  0.83803145  0.25255243  0.25053931  1
  O2-  O218  1  0.84042754  0.25759502  0.50232885  1
  O2-  O219  1  0.84034854  0.25771308  0.74723389  1
  O2-  O220  1  0.83229555  0.58493664  -0.00175395  1
  O2-  O221  1  0.83631816  0.58521116  0.24572812  1
  O2-  O222  1  0.83600908  0.58788805  0.50195064  1
  O2-  O223  1  0.83265212  0.58523975  0.74941119  1
  O2-  O224  1  0.83376624  0.91828463  -0.00287063  1
  O2-  O225  1  0.83336060  0.91895614  0.25299420  1
  O2-  O226  1  0.83455887  0.91751274  0.50046524  1
  O2-  O227  1  0.83344949  0.91967687  0.75413134  1
  O2-  O228  1  0.16896548  0.25372586  0.00328576  1
  O2-  O229  1  0.16830516  0.25243887  0.24996449  1
  O2-  O230  1  0.16453321  0.25223381  0.50139923  1
  O2-  O231  1  0.16297315  0.25355444  0.75002418  1
  O2-  O232  1  0.16972846  0.58060886  -0.00048301  1
  O2-  O233  1  0.16696347  0.58632448  0.25347785  1
  O2-  O234  1  0.16903681  0.58347622  0.49761030  1
  O2-  O235  1  0.16867310  0.58479491  0.74291604  1
  O2-  O236  1  0.16031866  0.92283518  -0.00776429  1
  O2-  O237  1  0.16454801  0.91903144  0.25131172  1
  O2-  O238  1  0.16956971  0.92194875  0.50260907  1
  O2-  O239  1  0.17030061  0.91768062  0.74249317  1
  O2-  O240  1  0.66336241  0.25281891  -0.00268264  1
  O2-  O241  1  0.66536628  0.24588612  0.24956084  1
  O2-  O242  1  0.66062286  0.25405948  0.50125991  1
  O2-  O243  1  0.66482182  0.25477066  0.75151380  1
  O2-  O244  1  0.66780006  0.58705485  -0.00083452  1
  O2-  O245  1  0.66793808  0.58269174  0.25202342  1
  O2-  O246  1  0.65829411  0.58368545  0.50099882  1
  O2-  O247  1  0.66391949  0.58278635  0.74730392  1
  O2-  O248  1  0.66750057  0.91527669  -0.00918118  1
  O2-  O249  1  0.66776321  0.91505601  0.25490873  1
  O2-  O250  1  0.66898598  0.92033866  0.50025415  1
  O2-  O251  1  0.66485379  0.92110313  0.75084103  1
  O2-  O252  1  0.32926316  0.08143282  -0.01076212  1
  O2-  O253  1  0.32851283  0.08053562  0.25486766  1
  O2-  O254  1  0.33419368  0.07913024  0.49988674  1
  O2-  O255  1  0.33061290  0.07996240  0.74822921  1
  O2-  O256  1  0.33326611  0.41633711  0.00257553  1
  O2-  O257  1  0.33293748  0.41348240  0.25235162  1
  O2-  O258  1  0.32993458  0.41672965  0.50070178  1
  O2-  O259  1  0.33517576  0.41458055  0.74724139  1
  O2-  O260  1  0.33486539  0.75022247  0.00080326  1
  O2-  O261  1  0.33280189  0.74869638  0.25030864  1
  O2-  O262  1  0.33589256  0.74798804  0.50283361  1
  O2-  O263  1  0.33507606  0.74798267  0.74475190  1
  O2-  O264  1  0.83386008  0.07843867  -0.00396820  1
  O2-  O265  1  0.83677369  0.07912403  0.25260258  1
  O2-  O266  1  0.83306388  0.07792296  0.49617808  1
  O2-  O267  1  0.83227568  0.08120043  0.75333106  1
  O2-  O268  1  0.83979683  0.41290593  -0.00136456  1
  O2-  O269  1  0.83416061  0.41380209  0.25076916  1
  O2-  O270  1  0.83244457  0.41439357  0.49831411  1
  O2-  O271  1  0.83975259  0.41067939  0.75215057  1
  O2-  O272  1  0.83768417  0.74826869  -0.00128204  1
  O2-  O273  1  0.83209358  0.74711631  0.24795630  1
  O2-  O274  1  0.82866814  0.74868845  0.50440638  1
  O2-  O275  1  0.83574058  0.74699236  0.75013569  1
  O2-  O276  1  0.54786593  0.22680981  0.51226065  1
  O2-  O277  1  0.45110061  0.75074653  0.01861099  1
  O2-  O278  1  0.53293717  0.11248762  0.26888391  1
  O2-  O279  1  0.46373214  0.11609278  0.70673955  1
  O2-  O280  1  0.54555733  0.91219335  0.26949718  1
  O2-  O281  1  0.54432068  0.54459380  0.28914373  1
  O2-  O282  1  0.55391957  0.58159926  0.76974358  1
  O2-  O283  1  0.55026703  0.25167880  0.48408334  1
  O2-  O284  1  0.05001099  0.90492154  0.26079032  1
  O2-  O285  1  0.95182906  0.75603127  0.75968425  1
  O2-  O286  1  0.01927618  0.52656376  0.01534128  1
  O2-  O287  1  0.45343258  0.22830252  0.24328556  1
  O2-  O288  1  0.95556619  0.09756747  0.99074669  1
  O2-  O289  1  0.47057368  0.10919221  0.96477014  1
  O2-  O290  1  0.45099916  0.23629654  0.51167687  1
  O2-  O291  1  0.45797879  0.56961576  0.20930272  1
  O2-  O292  1  0.54638442  0.90881621  0.76138016  1
  O2-  O293  1  0.95219008  0.56924680  0.25129448  1
  O2-  O294  1  0.54501084  0.75532608  0.75650712  1
  O2-  O295  1  0.52103513  0.45212371  0.73744745  1
  O2-  O296  1  0.94978751  0.42687843  0.98195546  1
  O2-  O297  1  0.55216576  0.76315383  0.24475722  1
  O2-  O298  1  0.94986670  0.09787869  0.48124860  1
  O2-  O299  1  0.95198818  0.57185912  0.49764419  1
  O2-  O300  1  0.95600673  0.76682332  0.54227383  1
  O2-  O301  1  0.46732286  0.89267701  -0.00568471  1
  O2-  O302  1  0.94688056  0.42212801  0.48225502  1
  O2-  O303  1  0.55300075  0.90454107  0.23308937  1
  O2-  O304  1  0.45280806  0.42792419  0.24547388  1
  O2-  O305  1  0.04828209  0.09631028  0.51348473  1
  O2-  O306  1  0.44095670  0.75614681  0.98354221  1
  O2-  O307  1  0.54212395  0.21737364  0.95347985  1
  O2-  O308  1  0.53056010  0.12127422  0.25300359  1
  O2-  O309  1  0.52243468  0.47749612  0.49754260  1
  O2-  O310  1  0.95761730  0.23422555  0.74533056  1
  O2-  O311  1  0.05289874  0.76594863  0.49323468  1
  O2-  O312  1  0.45117824  0.24330937  0.00939977  1
  O2-  O313  1  0.54906516  0.77220542  0.96097484  1
  O2-  O314  1  0.95009182  0.91156572  0.48676203  1
  O2-  O315  1  0.95643482  0.88932856  0.79983941  1
  O2-  O316  1  0.47301184  0.89472404  0.99157143  1
  O2-  O317  1  0.04906547  0.89961124  0.71026753  1
  O2-  O318  1  0.95065829  0.90466724  0.26641120  1
  O2-  O319  1  0.04993358  0.23967535  0.27434408  1
  O2-  O320  1  0.95489080  0.24105438  0.00679174  1
  O2-  O321  1  0.44931464  0.56777545  0.73891560  1
  O2-  O322  1  0.45575269  0.77170729  0.21383868  1
  O2-  O323  1  0.04877198  0.43666977  0.51726241  1
  O2-  O324  1  0.05929417  0.92053863  0.02321259  1
  O2-  O325  1  0.07179463  0.95277609  0.81749603  1
  O2-  O326  1  0.56045920  0.59246725  0.96584075  1
  O2-  O327  1  0.05796255  0.74024860  0.46685010  1
  O2-  O328  1  0.43717066  0.92518866  0.71049654  1
  O2-  O329  1  0.06678239  0.26808822  0.19403450  1
  O2-  O330  1  0.43428268  0.41083225  0.93588181  1
  O2-  O331  1  0.57622162  0.27118254  0.05606591  1
  O2-  O332  1  0.93930616  0.07586155  0.77571863  1
  O2-  O333  1  0.56301430  0.25921953  0.22388046  1
  O2-  O334  1  0.08116620  0.61119998  0.06550526  1
  O2-  O335  1  0.57789893  0.61098237  0.19853432  1
  O2-  O336  1  0.06520100  0.59141379  0.28341069  1
  O2-  O337  1  0.57587392  0.37995179  0.80501013  1
  O2-  O338  1  0.91574122  0.72925072  0.43847501  1
  O2-  O339  1  0.43249714  0.74147099  0.29148056  1
  O2-  O340  1  0.06581154  0.74087773  0.31814822  1
  O2-  O341  1  0.93157819  0.60368995  0.02883983  1
  O2-  O342  1  0.43484286  0.92573281  0.23175640  1
  O2-  O343  1  0.05386775  0.24506051  0.27801396  1
  O2-  O344  1  0.42564624  0.06822184  0.79900245  1
  O2-  O345  1  0.94038566  0.59810839  0.72136624  1
  O2-  O346  1  0.43898904  0.59621910  0.92425072  1
  O2-  O347  1  0.06540027  0.40331527  0.03382586  1
  O2-  O348  1  0.93001402  0.94200715  0.68022520  1
  O2-  O349  1  0.06190459  0.58690148  0.76852648  1
  O2-  O350  1  0.43319799  0.40598525  0.52153057  1
  O2-  O351  1  0.06788726  0.75287296  0.81384513  1
  O2-  O352  1  0.06468184  0.93079768  0.53291818  1
  O2-  O353  1  0.43659002  0.58787805  0.06831006  1
  O2-  O354  1  0.56383145  0.92113255  0.52204364  1
  O2-  O355  1  0.06349505  0.25292834  0.97855053  1
  O2-  O356  1  0.59286442  0.04030324  0.20818948  1
  O2-  O357  1  0.07667736  0.59036337  0.92323406  1
  O2-  O358  1  0.06411230  0.41155434  0.77484941  1
  O2-  O359  1  0.06195322  0.73260611  0.67510765  1
  O2-  O360  1  0.56935019  0.38069156  0.42103977  1
  O2-  O361  1  0.56161426  0.25063136  0.72741429  1
  O2-  O362  1  0.58181800  0.41375807  0.57722170  1
  O2-  O363  1  0.57176000  0.73133899  0.04162325  1
  O2-  O364  1  0.43308182  0.07292257  0.29395157  1
  O2-  O365  1  0.93833287  0.06572156  0.47827434  1
  O2-  O366  1  0.41693707  0.08017451  0.06754684  1
  O2-  O367  1  0.43337948  0.24683770  0.03702935  1
  O2-  O368  1  0.43335247  0.42171732  0.06684972  1
  O2-  O369  1  0.42072281  0.59383772  0.30705744  1
  O2-  O370  1  0.07054621  0.75607590  0.17758220  1
  O2-  O371  1  0.40829003  0.93804656  0.06360183  1
  O2-  O372  1  0.75014831  0.33891636  0.08127534  1
  O2-  O373  1  0.25046038  0.34402423  0.37786478  1
  O2-  O374  1  0.75070022  0.33291625  0.17367104  1
  O2-  O375  1  0.75074891  0.67217663  0.10646879  1
  O2-  O376  1  0.74944883  0.66549897  0.58867464  1
  O2-  O377  1  0.24872539  0.00202665  0.10354115  1
  O2-  O378  1  0.75024870  -0.00141593  0.19314440  1
  O2-  O379  1  0.75025445  0.33369568  0.60710705  1
  O2-  O380  1  0.25071674  0.32657128  0.82893019  1
  O2-  O381  1  0.25066669  0.33739512  0.92012441  1
  O2-  O382  1  0.75014355  -0.00401855  0.35267640  1
  O2-  O383  1  0.75017224  0.67583201  0.34809453  1
  O2-  O384  1  0.25073038  0.65325736  0.91497756  1
  O2-  O385  1  0.74955252  0.66534768  0.82013768  1
  O2-  O386  1  0.75028217  0.68780363  0.94085558  1
  O2-  O387  1  0.25167399  0.65233265  0.08541289  1
  O2-  O388  1  0.24961658  0.00188205  0.40456916  1
  O2-  O389  1  0.74989875  -0.01045864  0.06900001  1
  O2-  O390  1  0.25140617  0.66153760  0.18001049  1
  O2-  O391  1  0.25046209  0.66244750  0.60189249  1
  O2-  O392  1  0.75153862  0.34060330  0.89354464  1
  O2-  O393  1  0.75035081  0.00648385  0.63386445  1
  O2-  O394  1  0.75226499  0.33839692  0.35258047  1
  O2-  O395  1  0.25134019  0.67220737  0.82381567  1
  O2-  O396  1  0.24990235  0.18045385  0.10452487  1
  O2-  O397  1  0.75049323  0.15056585  0.36011146  1
  O2-  O398  1  0.24983942  0.17156428  0.91441911  1
  O2-  O399  1  0.25024253  0.83906580  0.33159905  1
  O2-  O400  1  0.74915159  0.14192911  0.58282477  1
  O2-  O401  1  0.75010410  0.83546807  0.40723969  1
  O2-  O402  1  0.25001186  0.48163129  0.16364561  1
  O2-  O403  1  0.25041135  0.82514398  0.41863973  1
  O2-  O404  1  0.75044244  0.17987259  0.19146618  1
  O2-  O405  1  0.74972430  0.14296249  0.11030275  1
  O2-  O406  1  0.75014034  0.16136379  0.67039653  1
  O2-  O407  1  0.24989422  0.16847676  0.58025614  1
  O2-  O408  1  0.74965514  0.13356644  0.87874752  1
  O2-  O409  1  0.25050364  0.50097256  0.80725995  1
  O2-  O410  1  0.24949124  0.84250900  0.82939640  1
  O2-  O411  1  0.25001361  0.16262206  0.66435343  1
  O2-  O412  1  0.24958392  0.81066162  0.13795011  1
  O2-  O413  1  0.25030746  0.81235270  0.91153634  1
  O2-  O414  1  0.74986115  0.82781037  0.63559771  1
  O2-  O415  1  0.24986400  0.15702963  0.39435108  1
  O2-  O416  1  0.75063072  0.49506378  0.34691577  1
  O2-  O417  1  0.25054942  0.50052386  0.89443426  1
  O2-  O418  1  0.75036107  0.83339493  0.15737469  1
  O2-  O419  1  0.75024051  0.49499776  0.15481177  1
  O2-  O420  1  0.51614400  0.66386544  0.12064379  1
  O2-  O421  1  0.97219135  0.33158910  0.13092848  1
  O2-  O422  1  0.53976610  0.36839603  0.12197282  1
  O2-  O423  1  0.47803070  0.32086434  0.86571344  1
  O2-  O424  1  0.47996155  0.01350522  0.13668638  1
  O2-  O425  1  0.45552818  0.66890261  0.40990836  1
  O2-  O426  1  0.95210485  -0.00303397  0.12381946  1
  O2-  O427  1  0.97655714  -0.00227661  0.88809131  1
  O2-  O428  1  0.46090948  0.31841972  0.14742904  1
  O2-  O429  1  0.00511829  0.67372815  0.12339341  1
  O2-  O430  1  0.47386504  0.67489494  0.61852735  1
  O2-  O431  1  0.97863979  0.65779467  0.36593009  1
  O2-  O432  1  0.52531446  0.32425900  0.62446736  1
  O2-  O433  1  0.04595548  0.01738894  0.13320082  1
  O2-  O434  1  0.95420125  0.33307038  0.62466239  1
  O2-  O435  1  0.04680626  0.32001123  0.62687813  1
  O2-  O436  1  0.46253438  0.32799076  0.64193371  1
  O2-  O437  1  0.47875813  -0.00902410  0.86912983  1
  O2-  O438  1  0.01759009  0.33018699  0.87152307  1
  O2-  O439  1  0.53345161  -0.00268535  0.09992926  1
  O2-  O440  1  0.00452582  0.67219413  0.88428617  1
  O2-  O441  1  0.54816278  0.67250356  0.38449338  1
  O2-  O442  1  0.02346187  0.34581070  0.38430048  1
  O2-  O443  1  0.52572280  0.00630831  0.63037037  1
