# generated using pymatgen
data_La7(Ru4O11)2
_symmetry_space_group_name_H-M   'P 1'
_cell_length_a   23.99084148
_cell_length_b   16.83108812
_cell_length_c   15.42716093
_cell_angle_alpha   90.00011267
_cell_angle_beta   90.00010007
_cell_angle_gamma   90.00043826
_symmetry_Int_Tables_number   1
_chemical_formula_structural   La7(Ru4O11)2
_chemical_formula_sum   'La84 Ru96 O264'
_cell_volume   6229.36365715
_cell_formula_units_Z   12
loop_
 _symmetry_equiv_pos_site_id
 _symmetry_equiv_pos_as_xyz
  1  'x, y, z'
loop_
 _atom_type_symbol
 _atom_type_oxidation_number
  La3+  3.0
  Ru4+  4.0
  O2-  -2.0
loop_
 _atom_site_type_symbol
 _atom_site_label
 _atom_site_symmetry_multiplicity
 _atom_site_fract_x
 _atom_site_fract_y
 _atom_site_fract_z
 _atom_site_occupancy
  La3+  La0  1  0.13809608  0.00249120  0.12854386  1
  La3+  La1  1  0.14314593  0.00321537  0.37602231  1
  La3+  La2  1  0.14055997  0.00231711  0.61925564  1
  La3+  La3  1  0.13467010  -0.00019085  0.87354466  1
  La3+  La4  1  0.13861291  0.33565354  0.12686403  1
  La3+  La5  1  0.13990629  0.33647011  0.37520522  1
  La3+  La6  1  0.13853525  0.33532190  0.62450736  1
  La3+  La7  1  0.13834293  0.33521768  0.87239538  1
  La3+  La8  1  0.14214437  0.66473233  0.12371406  1
  La3+  La9  1  0.13897435  0.66232035  0.37579904  1
  La3+  La10  1  0.13866600  0.66352196  0.62559151  1
  La3+  La11  1  0.14221014  0.66277897  0.87615166  1
  La3+  La12  1  0.63870989  0.00314313  0.12275378  1
  La3+  La13  1  0.64078198  0.00177208  0.37349277  1
  La3+  La14  1  0.63772821  0.00138256  0.62650804  1
  La3+  La15  1  0.63639136  0.00285439  0.87787532  1
  La3+  La16  1  0.64509875  0.33404311  0.12599761  1
  La3+  La17  1  0.63868438  0.33322169  0.37197923  1
  La3+  La18  1  0.63425577  0.33175023  0.62997502  1
  La3+  La19  1  0.63697020  0.33317428  0.87723266  1
  La3+  La20  1  0.64075420  0.66478926  0.12294803  1
  La3+  La21  1  0.63689559  0.66649125  0.37240660  1
  La3+  La22  1  0.63695923  0.66527273  0.62684777  1
  La3+  La23  1  0.63860227  0.66422217  0.87639815  1
  La3+  La24  1  0.36049801  0.00135034  0.12905962  1
  La3+  La25  1  0.35719635  0.00240283  0.37580715  1
  La3+  La26  1  0.36013838  0.00094258  0.62239966  1
  La3+  La27  1  0.36391956  -0.00014079  0.87465762  1
  La3+  La28  1  0.36126465  0.33490545  0.12714368  1
  La3+  La29  1  0.36047982  0.33438319  0.37460295  1
  La3+  La30  1  0.36103592  0.33541984  0.62289109  1
  La3+  La31  1  0.36331449  0.33606481  0.87378229  1
  La3+  La32  1  0.35856697  0.66448803  0.12339002  1
  La3+  La33  1  0.36095268  0.66395740  0.37528466  1
  La3+  La34  1  0.36081217  0.66364851  0.62465772  1
  La3+  La35  1  0.35872207  0.66369489  0.87732054  1
  La3+  La36  1  0.86127792  0.00331667  0.12674841  1
  La3+  La37  1  0.85947739  0.00009270  0.37369061  1
  La3+  La38  1  0.86087622  -0.00033003  0.62501641  1
  La3+  La39  1  0.85882058  0.00094005  0.87575300  1
  La3+  La40  1  0.85254472  0.33624539  0.12796480  1
  La3+  La41  1  0.86301646  0.33406615  0.37252045  1
  La3+  La42  1  0.86394554  0.33328941  0.62626479  1
  La3+  La43  1  0.85475934  0.33817591  0.87468510  1
  La3+  La44  1  0.86011498  0.66500347  0.12264907  1
  La3+  La45  1  0.86397058  0.66648998  0.37483373  1
  La3+  La46  1  0.86460557  0.66632091  0.62501693  1
  La3+  La47  1  0.86009970  0.66456580  0.87851007  1
  La3+  La48  1  -0.00374000  0.50615843  0.12225573  1
  La3+  La49  1  0.50038894  0.49803431  0.88329829  1
  La3+  La50  1  0.00019356  0.16973526  0.86145629  1
  La3+  La51  1  0.00208558  0.16168151  0.12197027  1
  La3+  La52  1  0.50134721  0.83399217  0.11410830  1
  La3+  La53  1  0.49839369  0.49678300  0.38565487  1
  La3+  La54  1  -0.00038835  0.16926923  0.38356966  1
  La3+  La55  1  0.50279812  0.49962274  0.61497570  1
  La3+  La56  1  0.00310767  0.83020238  0.88522787  1
  La3+  La57  1  -0.00181140  0.83101626  0.11812768  1
  La3+  La58  1  0.49751293  0.17060921  0.10704375  1
  La3+  La59  1  0.50120378  0.50279150  0.11758707  1
  La3+  La60  1  0.49718723  0.15980272  0.12601404  1
  La3+  La61  1  -0.00152399  0.83266756  0.13466777  1
  La3+  La62  1  0.49981196  0.83438291  0.86882671  1
  La3+  La63  1  0.50343113  0.16480397  0.62415385  1
  La3+  La64  1  0.00076188  0.82759100  0.86911633  1
  La3+  La65  1  0.49811560  0.83066565  0.36728764  1
  La3+  La66  1  -0.00180705  0.83491982  0.38681953  1
  La3+  La67  1  0.49446380  0.50046816  0.63345519  1
  La3+  La68  1  -0.00415322  0.17218311  0.36189787  1
  La3+  La69  1  0.49805723  0.82711395  0.63226091  1
  La3+  La70  1  0.49793203  0.83767149  0.61361714  1
  La3+  La71  1  0.49901284  0.16730120  0.87074358  1
  La3+  La72  1  0.24957528  0.77781663  -0.01773510  1
  La3+  La73  1  0.74869291  0.50827267  0.50426055  1
  La3+  La74  1  0.75010373  0.49633889  0.23321287  1
  La3+  La75  1  0.25025648  0.88877482  0.21502592  1
  La3+  La76  1  0.75069123  0.53021026  0.76269144  1
  La3+  La77  1  0.25059971  0.89770925  0.49729240  1
  La3+  La78  1  0.75002463  0.12247476  0.53394628  1
  La3+  La79  1  0.25027083  0.16866883  0.01549917  1
  La3+  La80  1  0.25044083  0.76519143  0.76858334  1
  La3+  La81  1  0.75000220  0.86565189  0.72452223  1
  La3+  La82  1  0.24975251  0.17938770  0.74007329  1
  La3+  La83  1  0.75086744  0.20220233  0.72930656  1
  Ru4+  Ru84  1  0.00051564  0.00432749  0.00186532  1
  Ru4+  Ru85  1  -0.00093470  -0.00136645  0.24657063  1
  Ru4+  Ru86  1  -0.00041377  -0.00441883  0.49747029  1
  Ru4+  Ru87  1  0.00239108  0.00153602  0.74625792  1
  Ru4+  Ru88  1  0.00114516  0.33155153  0.00601103  1
  Ru4+  Ru89  1  0.00047870  0.33390988  0.25058544  1
  Ru4+  Ru90  1  -0.00241065  0.33559456  0.50238213  1
  Ru4+  Ru91  1  0.00196814  0.33795104  0.74208720  1
  Ru4+  Ru92  1  0.00050810  0.66187276  0.00188447  1
  Ru4+  Ru93  1  0.00125626  0.66553560  0.24908752  1
  Ru4+  Ru94  1  -0.00493548  0.66793962  0.50043995  1
  Ru4+  Ru95  1  -0.00285857  0.66370331  0.74494499  1
  Ru4+  Ru96  1  0.49456716  -0.00429798  -0.00079219  1
  Ru4+  Ru97  1  0.50067797  0.00300326  0.25451397  1
  Ru4+  Ru98  1  0.49993666  0.00149846  0.49785939  1
  Ru4+  Ru99  1  0.49758229  -0.00060877  0.74402752  1
  Ru4+  Ru100  1  0.50121154  0.33393813  -0.00597055  1
  Ru4+  Ru101  1  0.50063092  0.33555125  0.25335762  1
  Ru4+  Ru102  1  0.49895073  0.33176060  0.49790994  1
  Ru4+  Ru103  1  0.49715226  0.32965623  0.75200542  1
  Ru4+  Ru104  1  0.49984616  0.66712561  0.00133681  1
  Ru4+  Ru105  1  0.50224654  0.66481365  0.25046062  1
  Ru4+  Ru106  1  0.49897567  0.66500273  0.49769766  1
  Ru4+  Ru107  1  0.49567159  0.67476725  0.75003204  1
  Ru4+  Ru108  1  0.11004348  0.16595217  0.00014463  1
  Ru4+  Ru109  1  0.11716009  0.16873039  0.24909598  1
  Ru4+  Ru110  1  0.11470989  0.16542564  0.50172145  1
  Ru4+  Ru111  1  0.10918270  0.16877585  0.74948196  1
  Ru4+  Ru112  1  0.11202510  0.50332847  -0.00079199  1
  Ru4+  Ru113  1  0.11309861  0.50160383  0.25069419  1
  Ru4+  Ru114  1  0.11687804  0.50075921  0.50143576  1
  Ru4+  Ru115  1  0.11586960  0.50044311  0.74982986  1
  Ru4+  Ru116  1  0.11108558  0.82929052  -0.00001430  1
  Ru4+  Ru117  1  0.11124121  0.83125147  0.24959141  1
  Ru4+  Ru118  1  0.11015790  0.83570654  0.50101191  1
  Ru4+  Ru119  1  0.11007791  0.83594750  0.74890701  1
  Ru4+  Ru120  1  0.61753236  0.16933907  -0.00370103  1
  Ru4+  Ru121  1  0.61507883  0.16426894  0.25419186  1
  Ru4+  Ru122  1  0.60891229  0.16501161  0.50093933  1
  Ru4+  Ru123  1  0.62039066  0.16769502  0.75054601  1
  Ru4+  Ru124  1  0.61555366  0.50024732  0.00096110  1
  Ru4+  Ru125  1  0.61117616  0.50130180  0.24984053  1
  Ru4+  Ru126  1  0.60859834  0.50030759  0.49920057  1
  Ru4+  Ru127  1  0.61864863  0.50052559  0.75053429  1
  Ru4+  Ru128  1  0.61432697  0.83049631  0.00045615  1
  Ru4+  Ru129  1  0.61261380  0.83165138  0.25044407  1
  Ru4+  Ru130  1  0.61227410  0.83659397  0.49983314  1
  Ru4+  Ru131  1  0.61276456  0.83162950  0.75149763  1
  Ru4+  Ru132  1  0.38905680  0.16635817  -0.00023621  1
  Ru4+  Ru133  1  0.38570338  0.16694141  0.25237884  1
  Ru4+  Ru134  1  0.38694571  0.16541186  0.49721331  1
  Ru4+  Ru135  1  0.38817411  0.16414915  0.75000707  1
  Ru4+  Ru136  1  0.38742300  0.50169661  0.00011488  1
  Ru4+  Ru137  1  0.38611241  0.50094950  0.24939628  1
  Ru4+  Ru138  1  0.38436359  0.49896174  0.49924143  1
  Ru4+  Ru139  1  0.38341631  0.50104785  0.75028155  1
  Ru4+  Ru140  1  0.38905119  0.83219353  -0.00057599  1
  Ru4+  Ru141  1  0.38966543  0.83371422  0.24995769  1
  Ru4+  Ru142  1  0.38974939  0.83328812  0.49869590  1
  Ru4+  Ru143  1  0.38975510  0.83199555  0.74930479  1
  Ru4+  Ru144  1  0.88593716  0.16823777  -0.00064629  1
  Ru4+  Ru145  1  0.88270705  0.16760879  0.24841572  1
  Ru4+  Ru146  1  0.88756659  0.16768233  0.50205267  1
  Ru4+  Ru147  1  0.88989732  0.16472346  0.74945301  1
  Ru4+  Ru148  1  0.88469919  0.50071899  0.00003295  1
  Ru4+  Ru149  1  0.88814303  0.49976093  0.24980168  1
  Ru4+  Ru150  1  0.89236286  0.50035409  0.49746917  1
  Ru4+  Ru151  1  0.89398506  0.50022974  0.75008170  1
  Ru4+  Ru152  1  0.88490180  0.83626871  0.00052251  1
  Ru4+  Ru153  1  0.88910963  0.83369912  0.24949129  1
  Ru4+  Ru154  1  0.88766205  0.83415461  0.49955235  1
  Ru4+  Ru155  1  0.88810281  0.83301111  0.74769168  1
  Ru4+  Ru156  1  0.75065098  0.06498483  0.76941472  1
  Ru4+  Ru157  1  0.24968821  0.05103587  0.77579510  1
  Ru4+  Ru158  1  0.25021753  0.43103108  0.00261403  1
  Ru4+  Ru159  1  0.24993033  0.31495237  0.74624813  1
  Ru4+  Ru160  1  0.25001434  0.92027290  0.76343620  1
  Ru4+  Ru161  1  0.75037229  0.75698902  0.24855399  1
  Ru4+  Ru162  1  0.25032267  0.73038444  0.25352250  1
  Ru4+  Ru163  1  0.75029757  0.24612732  0.00608527  1
  Ru4+  Ru164  1  0.75028767  0.73108700  0.77178339  1
  Ru4+  Ru165  1  0.24987311  0.91618161  0.00483704  1
  Ru4+  Ru166  1  0.75017310  0.37820125  0.49739956  1
  Ru4+  Ru167  1  0.74966157  0.91196338  -0.00601357  1
  Ru4+  Ru168  1  0.25018228  0.24647423  0.50517067  1
  Ru4+  Ru169  1  0.74984557  0.75035741  -0.00098726  1
  Ru4+  Ru170  1  0.25010302  0.24648381  0.25267390  1
  Ru4+  Ru171  1  0.75024455  0.91052192  0.25128863  1
  Ru4+  Ru172  1  0.25005537  0.72448743  0.49667401  1
  Ru4+  Ru173  1  0.74997680  0.90899690  0.49721447  1
  Ru4+  Ru174  1  0.75063244  0.38833707  0.75348887  1
  Ru4+  Ru175  1  0.25014536  0.04167940  0.00118671  1
  Ru4+  Ru176  1  0.75037135  0.63431278  0.46672933  1
  Ru4+  Ru177  1  0.74981698  0.24959294  0.49289773  1
  Ru4+  Ru178  1  0.74976035  0.76479513  0.49979409  1
  Ru4+  Ru179  1  0.24995032  0.29866929  -0.00171006  1
  O2-  O180  1  0.16636007  0.07901397  -0.00109226  1
  O2-  O181  1  0.16697327  0.08105198  0.24998594  1
  O2-  O182  1  0.16486821  0.08393216  0.49877324  1
  O2-  O183  1  0.16463211  0.07923712  0.75229380  1
  O2-  O184  1  0.16695022  0.41510770  0.00153988  1
  O2-  O185  1  0.16574721  0.41369611  0.25001655  1
  O2-  O186  1  0.16477067  0.41365882  0.49790300  1
  O2-  O187  1  0.16578780  0.41404293  0.74995438  1
  O2-  O188  1  0.16151556  0.74618795  0.00058125  1
  O2-  O189  1  0.16640216  0.74649961  0.25129996  1
  O2-  O190  1  0.16721076  0.74531260  0.49948397  1
  O2-  O191  1  0.16259694  0.74565280  0.74774529  1
  O2-  O192  1  0.66545019  0.08128264  0.00109682  1
  O2-  O193  1  0.66733025  0.08222757  0.24847891  1
  O2-  O194  1  0.66441166  0.07850524  0.49952251  1
  O2-  O195  1  0.66831107  0.07891302  0.75021154  1
  O2-  O196  1  0.66645024  0.41637127  0.00106803  1
  O2-  O197  1  0.66539127  0.41613655  0.25113901  1
  O2-  O198  1  0.66436273  0.41053121  0.50171986  1
  O2-  O199  1  0.66820857  0.41244958  0.74880749  1
  O2-  O200  1  0.66711688  0.74890455  -0.00066105  1
  O2-  O201  1  0.66770256  0.74772145  0.25088521  1
  O2-  O202  1  0.66729900  0.74671562  0.50005925  1
  O2-  O203  1  0.66756136  0.74629110  0.75040827  1
  O2-  O204  1  0.33406297  0.25604017  -0.00046516  1
  O2-  O205  1  0.33118219  0.25270698  0.24836772  1
  O2-  O206  1  0.33229335  0.25158424  0.50097863  1
  O2-  O207  1  0.33362930  0.25604309  0.75091033  1
  O2-  O208  1  0.33596231  0.58385714  0.00119275  1
  O2-  O209  1  0.33525514  0.58406615  0.24937449  1
  O2-  O210  1  0.33442165  0.58650301  0.50060557  1
  O2-  O211  1  0.33423546  0.58660912  0.74878492  1
  O2-  O212  1  0.33305184  0.91999266  0.00025233  1
  O2-  O213  1  0.33758843  0.92076479  0.25179607  1
  O2-  O214  1  0.34030247  0.92020288  0.50122865  1
  O2-  O215  1  0.33277501  0.92047031  0.75169967  1
  O2-  O216  1  0.83016597  0.25050423  -0.00010322  1
  O2-  O217  1  0.83550399  0.25060228  0.25229879  1
  O2-  O218  1  0.83371229  0.25337620  0.50158213  1
  O2-  O219  1  0.83393899  0.25463330  0.74748356  1
  O2-  O220  1  0.83431354  0.58313932  -0.00207332  1
  O2-  O221  1  0.83291603  0.58712775  0.25055752  1
  O2-  O222  1  0.83399511  0.58821141  0.50108870  1
  O2-  O223  1  0.83631425  0.58686660  0.75043323  1
  O2-  O224  1  0.83137075  0.91860376  0.00025116  1
  O2-  O225  1  0.83261926  0.91904739  0.24897995  1
  O2-  O226  1  0.83254880  0.91765193  0.50068628  1
  O2-  O227  1  0.83265118  0.92001771  0.75346986  1
  O2-  O228  1  0.16504826  0.25522253  -0.00007567  1
  O2-  O229  1  0.16762992  0.25307644  0.24906739  1
  O2-  O230  1  0.16697069  0.25315301  0.49933391  1
  O2-  O231  1  0.16799408  0.25656974  0.75057622  1
  O2-  O232  1  0.16607432  0.58191881  -0.00061017  1
  O2-  O233  1  0.16514726  0.58403112  0.25061013  1
  O2-  O234  1  0.16840520  0.58559385  0.49935432  1
  O2-  O235  1  0.16505916  0.58552621  0.74910766  1
  O2-  O236  1  0.16607898  0.92141727  -0.00049065  1
  O2-  O237  1  0.16296886  0.92185049  0.25256664  1
  O2-  O238  1  0.16206390  0.91951253  0.49909534  1
  O2-  O239  1  0.16915714  0.91814350  0.75242326  1
  O2-  O240  1  0.66859202  0.25277746  0.00034359  1
  O2-  O241  1  0.66678111  0.24955947  0.24936527  1
  O2-  O242  1  0.66472595  0.25315163  0.50183860  1
  O2-  O243  1  0.66735015  0.25714256  0.74856054  1
  O2-  O244  1  0.66610600  0.58385375  -0.00189993  1
  O2-  O245  1  0.66962289  0.58619672  0.25203470  1
  O2-  O246  1  0.66513263  0.59036884  0.49973094  1
  O2-  O247  1  0.66565154  0.58828461  0.75073505  1
  O2-  O248  1  0.66947241  0.91898524  0.00060949  1
  O2-  O249  1  0.66716906  0.91887828  0.24938862  1
  O2-  O250  1  0.66658355  0.91819741  0.50046809  1
  O2-  O251  1  0.66437198  0.92149425  0.75027887  1
  O2-  O252  1  0.33547058  0.07846661  -0.00076072  1
  O2-  O253  1  0.33489575  0.08307506  0.24975640  1
  O2-  O254  1  0.33447775  0.08431455  0.50111018  1
  O2-  O255  1  0.33407673  0.07874030  0.75069521  1
  O2-  O256  1  0.33260466  0.41336200  0.00052904  1
  O2-  O257  1  0.33348589  0.41423906  0.24913502  1
  O2-  O258  1  0.33287171  0.41538512  0.49923673  1
  O2-  O259  1  0.33310929  0.41270732  0.75009845  1
  O2-  O260  1  0.33758929  0.74662646  0.00230946  1
  O2-  O261  1  0.33387163  0.74559879  0.24949365  1
  O2-  O262  1  0.33048821  0.74504699  0.50063316  1
  O2-  O263  1  0.33872569  0.74395983  0.74818726  1
  O2-  O264  1  0.83558520  0.08094788  0.00070041  1
  O2-  O265  1  0.83129014  0.08045045  0.24921843  1
  O2-  O266  1  0.83392252  0.07888990  0.49873984  1
  O2-  O267  1  0.83275438  0.08138386  0.75122003  1
  O2-  O268  1  0.83329628  0.41774341  -0.00081556  1
  O2-  O269  1  0.83407191  0.41557856  0.25294746  1
  O2-  O270  1  0.83453009  0.41258936  0.50190535  1
  O2-  O271  1  0.83222718  0.41420965  0.74738521  1
  O2-  O272  1  0.83173117  0.74775287  -0.00150615  1
  O2-  O273  1  0.83173339  0.74597351  0.25075483  1
  O2-  O274  1  0.83266683  0.74818946  0.50074557  1
  O2-  O275  1  0.83419217  0.74645394  0.75049240  1
  O2-  O276  1  0.04559608  0.23689628  0.51308404  1
  O2-  O277  1  0.04362512  0.43460754  0.03466115  1
  O2-  O278  1  0.45634763  0.43198208  0.23558179  1
  O2-  O279  1  0.53501938  0.54945513  0.28424726  1
  O2-  O280  1  0.96797737  0.20492763  0.99044761  1
  O2-  O281  1  0.03986212  0.56063803  0.49389679  1
  O2-  O282  1  0.04744411  0.09341883  0.48873487  1
  O2-  O283  1  0.04515461  0.56798974  0.26404159  1
  O2-  O284  1  0.96406085  0.20823441  -0.00013577  1
  O2-  O285  1  0.95269250  0.42978439  0.76185853  1
  O2-  O286  1  0.54547016  0.10451893  0.98079107  1
  O2-  O287  1  0.53917505  0.22613603  0.22012123  1
  O2-  O288  1  0.54614365  0.76837622  0.51084249  1
  O2-  O289  1  0.45133034  0.23926089  0.74235079  1
  O2-  O290  1  0.96042761  0.22504389  0.71957683  1
  O2-  O291  1  0.54085738  0.11642530  0.74024031  1
  O2-  O292  1  0.44990643  0.43192948  0.76826174  1
  O2-  O293  1  0.54827034  0.56912711  0.73213511  1
  O2-  O294  1  0.54601490  0.09909249  0.48679580  1
  O2-  O295  1  0.54508740  0.90155504  0.73821099  1
  O2-  O296  1  0.95474902  0.57248899  0.73807682  1
  O2-  O297  1  0.04600786  0.89977889  0.24162864  1
  O2-  O298  1  0.54848862  0.43020556  0.76869072  1
  O2-  O299  1  0.03408606  0.86928499  0.74885443  1
  O2-  O300  1  0.54529619  0.90057924  0.26165521  1
  O2-  O301  1  0.45102332  0.09150056  0.73426690  1
  O2-  O302  1  0.04877211  0.09809180  0.24121829  1
  O2-  O303  1  0.54761529  0.21973209  0.75532577  1
  O2-  O304  1  0.95623851  0.44207333  0.97144456  1
  O2-  O305  1  0.54855253  0.42748094  0.72965213  1
  O2-  O306  1  0.95297379  0.89452331  0.79139134  1
  O2-  O307  1  0.45190525  0.09752414  0.24172535  1
  O2-  O308  1  0.04698492  0.76300117  0.48581014  1
  O2-  O309  1  0.03725454  0.55876338  0.95865516  1
  O2-  O310  1  0.05577367  0.23979500  0.01472933  1
  O2-  O311  1  0.03985295  0.56003557  0.49434051  1
  O2-  O312  1  0.55851137  0.91810967  0.97579637  1
  O2-  O313  1  0.54796680  0.10102091  0.75908037  1
  O2-  O314  1  0.45097427  0.23989695  0.76316014  1
  O2-  O315  1  0.54836792  0.09211659  0.01735148  1
  O2-  O316  1  0.54448971  0.56939763  0.77097325  1
  O2-  O317  1  0.93795948  0.07771586  0.22125687  1
  O2-  O318  1  0.04531114  0.89810280  0.01124531  1
  O2-  O319  1  0.94398238  0.75254646  0.02325592  1
  O2-  O320  1  0.05009164  0.09571762  0.26151168  1
  O2-  O321  1  0.54666249  0.23042859  0.72905791  1
  O2-  O322  1  0.46141691  0.22243159  0.52917058  1
  O2-  O323  1  0.95458959  0.76390324  0.73890921  1
  O2-  O324  1  0.93265850  0.40491889  0.04497684  1
  O2-  O325  1  0.08325686  0.95694646  0.71647366  1
  O2-  O326  1  0.56543894  0.06760253  0.18152833  1
  O2-  O327  1  0.93654267  0.73910435  0.46521859  1
  O2-  O328  1  0.93506937  0.92311690  0.47346034  1
  O2-  O329  1  0.92807269  0.26553295  0.78935117  1
  O2-  O330  1  0.06282097  0.73364871  0.78528332  1
  O2-  O331  1  0.54992944  0.90586267  0.98482499  1
  O2-  O332  1  0.07444452  0.39713565  0.95640417  1
  O2-  O333  1  0.92233409  0.93556457  0.69974424  1
  O2-  O334  1  0.94619955  0.09109393  0.22889540  1
  O2-  O335  1  0.93249913  0.07850756  0.55073455  1
  O2-  O336  1  0.56368824  0.41101869  0.97371311  1
  O2-  O337  1  0.43624971  0.26461695  0.03318689  1
  O2-  O338  1  0.43715131  0.06831863  0.56254617  1
  O2-  O339  1  0.43422877  0.74233457  0.47343804  1
  O2-  O340  1  0.43641775  0.74085153  0.97521047  1
  O2-  O341  1  0.57546654  0.27476693  0.30020882  1
  O2-  O342  1  0.56407192  0.73648801  0.78475505  1
  O2-  O343  1  0.07149678  0.61089740  0.05531814  1
  O2-  O344  1  0.56340625  0.06990449  0.31635134  1
  O2-  O345  1  0.43555193  0.93047198  0.71605281  1
  O2-  O346  1  0.42755158  0.27509600  0.44646231  1
  O2-  O347  1  0.43672340  0.40544626  0.96711564  1
  O2-  O348  1  0.91555176  0.27848709  0.92973728  1
  O2-  O349  1  0.43292721  0.92072062  0.06071141  1
  O2-  O350  1  0.06424915  0.92773357  0.52378276  1
  O2-  O351  1  0.93427221  0.59382853  0.46733763  1
  O2-  O352  1  0.92406196  0.28175135  0.08331199  1
  O2-  O353  1  0.93668068  0.93064346  0.03358943  1
  O2-  O354  1  0.94876865  0.75592847  0.01606238  1
  O2-  O355  1  0.57597531  0.60715329  0.19956502  1
  O2-  O356  1  0.93532235  0.40874995  0.47467403  1
  O2-  O357  1  0.06591501  0.07209378  0.02577326  1
  O2-  O358  1  0.93541917  0.07456809  0.72598767  1
  O2-  O359  1  0.93242378  0.07428980  0.44821486  1
  O2-  O360  1  0.93396053  0.59264886  0.02970695  1
  O2-  O361  1  0.56908310  0.05989791  0.71236827  1
  O2-  O362  1  0.56339161  0.59251515  0.02485718  1
  O2-  O363  1  0.56959264  0.26622411  0.78281719  1
  O2-  O364  1  0.43345978  0.07618989  0.44609098  1
  O2-  O365  1  0.43563080  0.40936584  0.52694869  1
  O2-  O366  1  0.43502475  0.26519765  0.28087766  1
  O2-  O367  1  0.43283887  0.92001156  0.93946926  1
  O2-  O368  1  0.06577958  0.25934452  0.72387349  1
  O2-  O369  1  0.07279375  0.61274114  0.54313248  1
  O2-  O370  1  0.56489208  0.25811446  0.97423282  1
  O2-  O371  1  0.93405112  0.25869198  0.47269531  1
  O2-  O372  1  0.24943761  -0.00419195  0.40152011  1
  O2-  O373  1  0.24980246  0.67117455  0.89947814  1
  O2-  O374  1  0.74994886  -0.00081433  0.32784397  1
  O2-  O375  1  0.74987171  -0.00111715  0.56829535  1
  O2-  O376  1  0.25006178  -0.00310090  0.66101354  1
  O2-  O377  1  0.74991796  0.65382839  0.68291315  1
  O2-  O378  1  0.25021623  0.32891800  0.59521545  1
  O2-  O379  1  0.25001946  0.34064213  0.88407134  1
  O2-  O380  1  0.74965691  0.33044360  0.90600576  1
  O2-  O381  1  0.74987551  -0.00604152  0.67506472  1
  O2-  O382  1  0.24947052  0.66411697  0.35453939  1
  O2-  O383  1  0.74982656  0.00310994  0.42334291  1
  O2-  O384  1  0.24977146  0.34200970  0.11471122  1
  O2-  O385  1  0.74958739  0.68160121  0.57980014  1
  O2-  O386  1  0.24995660  0.66750450  0.07614956  1
  O2-  O387  1  0.75003392  -0.00453222  0.90840645  1
  O2-  O388  1  0.25009259  0.65496592  0.16603399  1
  O2-  O389  1  0.24987707  0.00260165  0.14679839  1
  O2-  O390  1  0.75005234  0.66949897  0.90395202  1
  O2-  O391  1  0.75000383  0.32952297  0.61488400  1
  O2-  O392  1  0.74999096  0.33234590  0.38509107  1
  O2-  O393  1  0.25001152  0.00283975  0.56858041  1
  O2-  O394  1  0.75022439  0.67395577  0.09276134  1
  O2-  O395  1  0.74880172  0.33312709  0.14863944  1
  O2-  O396  1  0.75008753  0.16090854  0.86053042  1
  O2-  O397  1  0.25001131  0.50043175  0.65917599  1
  O2-  O398  1  0.25003507  0.85895685  0.86975327  1
  O2-  O399  1  0.74996135  0.16789372  0.31682804  1
  O2-  O400  1  0.24998530  0.16857088  0.60813689  1
  O2-  O401  1  0.24991084  0.82445521  0.32313464  1
  O2-  O402  1  0.25006252  0.16672016  0.32990729  1
  O2-  O403  1  0.24986959  0.49772205  0.83337740  1
  O2-  O404  1  0.74991256  0.17135995  0.40132005  1
  O2-  O405  1  0.24988325  0.79808241  0.58772404  1
  O2-  O406  1  0.25008851  0.80986340  0.40777057  1
  O2-  O407  1  0.25003945  0.16863937  0.41990516  1
  O2-  O408  1  0.24985799  0.85955750  0.66866491  1
  O2-  O409  1  0.25015350  0.49912362  0.40953297  1
  O2-  O410  1  0.74986714  0.17212909  0.08346707  1
  O2-  O411  1  0.74984801  0.49986451  0.09564046  1
  O2-  O412  1  0.74986775  0.83351017  0.15624930  1
  O2-  O413  1  0.25004433  0.16353031  0.87761830  1
  O2-  O414  1  0.75004715  0.83326972  0.40309877  1
  O2-  O415  1  0.24996819  0.83054570  0.10303624  1
  O2-  O416  1  0.74998151  0.82777426  0.86620461  1
  O2-  O417  1  0.24982560  0.50332316  0.91692687  1
  O2-  O418  1  0.75023396  0.49547976  0.63565770  1
  O2-  O419  1  0.75030495  0.50160785  0.36959490  1
  O2-  O420  1  0.54335653  0.66937261  0.37704731  1
  O2-  O421  1  0.03210184  0.32591113  0.86538996  1
  O2-  O422  1  0.53204504  0.00342619  0.87205915  1
  O2-  O423  1  0.51906377  0.68031920  0.12304769  1
  O2-  O424  1  0.97844435  -0.00402798  0.36872126  1
  O2-  O425  1  0.47500548  -0.01031131  0.36787829  1
  O2-  O426  1  0.47579913  0.33524572  0.62916921  1
  O2-  O427  1  0.97673898  0.34328669  0.87014388  1
  O2-  O428  1  0.97469494  -0.00469906  0.62156878  1
  O2-  O429  1  0.02931552  0.00999457  0.62095512  1
  O2-  O430  1  0.52449665  0.34289727  0.38449085  1
  O2-  O431  1  0.47463059  0.66134591  0.87021635  1
  O2-  O432  1  0.02424706  0.34055641  0.62074471  1
  O2-  O433  1  0.97222613  0.66645285  0.62168817  1
  O2-  O434  1  0.51964383  0.33517632  0.87095932  1
  O2-  O435  1  0.45563952  0.66629513  0.62487828  1
  O2-  O436  1  0.97726482  0.33266555  0.36706945  1
  O2-  O437  1  0.97564888  0.66712913  0.13572030  1
  O2-  O438  1  0.02696884  0.00037354  0.87353814  1
  O2-  O439  1  0.46904294  0.00834390  0.86760046  1
  O2-  O440  1  0.54308586  0.66688090  0.62298424  1
  O2-  O441  1  0.45940942  0.66043525  0.36709086  1
  O2-  O442  1  0.47605438  0.00336918  0.13073478  1
  O2-  O443  1  0.02404433  -0.00592880  0.12584215  1
