# generated using pymatgen
data_La7(Ru4O11)2
_symmetry_space_group_name_H-M   'P 1'
_cell_length_a   23.99125509
_cell_length_b   16.83119238
_cell_length_c   15.42862066
_cell_angle_alpha   90.00102342
_cell_angle_beta   89.99902363
_cell_angle_gamma   89.99900422
_symmetry_Int_Tables_number   1
_chemical_formula_structural   La7(Ru4O11)2
_chemical_formula_sum   'La84 Ru96 O264'
_cell_volume   6230.09908036
_cell_formula_units_Z   12
loop_
 _symmetry_equiv_pos_site_id
 _symmetry_equiv_pos_as_xyz
  1  'x, y, z'
loop_
 _atom_type_symbol
 _atom_type_oxidation_number
  La3+  3.0
  Ru4+  4.0
  O2-  -2.0
loop_
 _atom_site_type_symbol
 _atom_site_label
 _atom_site_symmetry_multiplicity
 _atom_site_fract_x
 _atom_site_fract_y
 _atom_site_fract_z
 _atom_site_occupancy
  La3+  La0  1  0.13833252  0.00181436  0.12789395  1
  La3+  La1  1  0.14149086  0.00232143  0.37023541  1
  La3+  La2  1  0.13824191  0.00099919  0.62261567  1
  La3+  La3  1  0.13658579  -0.00015425  0.87976732  1
  La3+  La4  1  0.14449139  0.33286462  0.12761773  1
  La3+  La5  1  0.14596305  0.33067571  0.37430325  1
  La3+  La6  1  0.13801290  0.33290554  0.62218311  1
  La3+  La7  1  0.13857448  0.33318479  0.87730686  1
  La3+  La8  1  0.14193238  0.66781326  0.12208962  1
  La3+  La9  1  0.13611904  0.66485106  0.37854836  1
  La3+  La10  1  0.13752513  0.66781809  0.62075867  1
  La3+  La11  1  0.13848109  0.66543393  0.88052951  1
  La3+  La12  1  0.63697835  -0.00211518  0.12578243  1
  La3+  La13  1  0.64111548  0.00080092  0.37670427  1
  La3+  La14  1  0.64121121  -0.00114300  0.61959564  1
  La3+  La15  1  0.64290518  -0.00448561  0.87629490  1
  La3+  La16  1  0.63177796  0.33524887  0.12747150  1
  La3+  La17  1  0.64319026  0.33285832  0.37312086  1
  La3+  La18  1  0.63614755  0.33537671  0.62032484  1
  La3+  La19  1  0.63838861  0.33371736  0.87985045  1
  La3+  La20  1  0.63769112  0.67162012  0.12291596  1
  La3+  La21  1  0.63715397  0.66967041  0.37576381  1
  La3+  La22  1  0.64560552  0.66961177  0.62571880  1
  La3+  La23  1  0.63688603  0.67122011  0.87444814  1
  La3+  La24  1  0.36058896  0.00039206  0.12781637  1
  La3+  La25  1  0.35841510  0.00371082  0.37027980  1
  La3+  La26  1  0.35938774  0.00192233  0.62453795  1
  La3+  La27  1  0.36329489  0.00112629  0.87722190  1
  La3+  La28  1  0.35330814  0.33843920  0.12821559  1
  La3+  La29  1  0.35833952  0.33097954  0.37637932  1
  La3+  La30  1  0.38359738  0.32843599  0.64846713  1
  La3+  La31  1  0.36568317  0.33937563  0.85744092  1
  La3+  La32  1  0.35236641  0.66605640  0.12133152  1
  La3+  La33  1  0.35945261  0.66157069  0.37635775  1
  La3+  La34  1  0.36370678  0.66048997  0.62140607  1
  La3+  La35  1  0.35807476  0.66548381  0.88088683  1
  La3+  La36  1  0.86356373  -0.00263376  0.12659343  1
  La3+  La37  1  0.85680864  -0.00198676  0.37616405  1
  La3+  La38  1  0.85606072  -0.00308807  0.61877947  1
  La3+  La39  1  0.85989999  -0.00537882  0.87519948  1
  La3+  La40  1  0.86374836  0.33246273  0.12551871  1
  La3+  La41  1  0.85590107  0.33461569  0.37773952  1
  La3+  La42  1  0.86286055  0.33493201  0.62110465  1
  La3+  La43  1  0.86060657  0.33597045  0.87603431  1
  La3+  La44  1  0.86010187  0.67097045  0.12357758  1
  La3+  La45  1  0.86322077  0.67129007  0.37758875  1
  La3+  La46  1  0.85477646  0.66969474  0.62412115  1
  La3+  La47  1  0.86027039  0.67144251  0.87563065  1
  La3+  La48  1  -0.00087334  0.83340930  0.63362617  1
  La3+  La49  1  -0.00064966  0.49855869  0.38889084  1
  La3+  La50  1  0.50819343  0.17084342  0.37606064  1
  La3+  La51  1  -0.00291899  0.16062294  0.37268557  1
  La3+  La52  1  0.50027361  0.83305165  0.88809898  1
  La3+  La53  1  -0.00567682  0.16268892  0.87328486  1
  La3+  La54  1  -0.00996636  0.50175569  0.88088397  1
  La3+  La55  1  0.00001177  0.17010385  0.62849503  1
  La3+  La56  1  -0.00490407  0.50740230  0.11690166  1
  La3+  La57  1  0.49729466  0.48619469  0.87613074  1
  La3+  La58  1  0.50446264  0.49474917  0.11415420  1
  La3+  La59  1  0.50393419  0.49352501  0.13134254  1
  La3+  La60  1  0.50074417  0.17064209  0.86857109  1
  La3+  La61  1  0.50125424  0.83462968  0.36134560  1
  La3+  La62  1  0.50213996  0.49196810  0.38539943  1
  La3+  La63  1  -0.00795416  0.50285009  0.86467242  1
  La3+  La64  1  0.00051483  0.16883185  0.89242489  1
  La3+  La65  1  0.49393291  0.83317581  0.63106758  1
  La3+  La66  1  0.49938674  0.16369532  0.13969624  1
  La3+  La67  1  0.49414140  0.16298233  0.85779526  1
  La3+  La68  1  0.50156746  0.50330137  0.36654796  1
  La3+  La69  1  0.50243210  0.83573665  0.61297999  1
  La3+  La70  1  0.48926262  0.50978706  0.63577865  1
  La3+  La71  1  0.00402296  0.50330840  0.36841167  1
  La3+  La72  1  0.74955240  0.11801171  0.05212849  1
  La3+  La73  1  0.24871343  0.82033063  0.76399111  1
  La3+  La74  1  0.75162629  0.14759473  0.72449690  1
  La3+  La75  1  0.75069650  0.45840026  0.21904525  1
  La3+  La76  1  0.25029404  0.81879692  0.44796919  1
  La3+  La77  1  0.75004113  0.82997911  0.72747434  1
  La3+  La78  1  0.24965181  0.83179813  0.21055201  1
  La3+  La79  1  0.75046593  0.54869502  0.74070057  1
  La3+  La80  1  0.25029686  0.53441236  0.75496032  1
  La3+  La81  1  0.25050319  0.16924227  0.51516984  1
  La3+  La82  1  0.74955318  0.46557276  0.02235897  1
  La3+  La83  1  0.74968482  0.16599242  0.47056976  1
  Ru4+  Ru84  1  0.00230702  -0.00475374  0.00357318  1
  Ru4+  Ru85  1  0.00405174  -0.00623293  0.24002268  1
  Ru4+  Ru86  1  0.00351938  -0.00411920  0.49887695  1
  Ru4+  Ru87  1  -0.00322830  -0.00783972  0.75326719  1
  Ru4+  Ru88  1  0.00247642  0.33374765  0.00551017  1
  Ru4+  Ru89  1  0.00449574  0.33099916  0.24539108  1
  Ru4+  Ru90  1  -0.00017275  0.33330641  0.50532941  1
  Ru4+  Ru91  1  0.00138620  0.33505365  0.74626911  1
  Ru4+  Ru92  1  0.00194196  0.67354803  -0.00110572  1
  Ru4+  Ru93  1  -0.00138563  0.67030464  0.24422356  1
  Ru4+  Ru94  1  -0.00065038  0.67605687  0.49295650  1
  Ru4+  Ru95  1  0.00430103  0.66442376  0.73782742  1
  Ru4+  Ru96  1  0.49778530  -0.00278714  0.00280574  1
  Ru4+  Ru97  1  0.49992940  0.00275345  0.24581463  1
  Ru4+  Ru98  1  0.50272987  0.00172787  0.49531578  1
  Ru4+  Ru99  1  0.50068042  0.00444151  0.74802066  1
  Ru4+  Ru100  1  0.49811707  0.32297176  -0.00158928  1
  Ru4+  Ru101  1  0.49845379  0.32368607  0.25842908  1
  Ru4+  Ru102  1  0.50452723  0.33802392  0.50466718  1
  Ru4+  Ru103  1  0.49469337  0.33398815  0.74716016  1
  Ru4+  Ru104  1  0.50298195  0.66725890  -0.00290547  1
  Ru4+  Ru105  1  0.49579002  0.67979965  0.24390544  1
  Ru4+  Ru106  1  0.50229350  0.67123030  0.49863726  1
  Ru4+  Ru107  1  0.50254989  0.66365597  0.75099174  1
  Ru4+  Ru108  1  0.11298647  0.16626220  0.00176011  1
  Ru4+  Ru109  1  0.11213295  0.16591444  0.24628059  1
  Ru4+  Ru110  1  0.11051888  0.16653139  0.50047239  1
  Ru4+  Ru111  1  0.11388114  0.16674188  0.74810800  1
  Ru4+  Ru112  1  0.11413318  0.49994581  0.00240381  1
  Ru4+  Ru113  1  0.11399149  0.49570866  0.24999736  1
  Ru4+  Ru114  1  0.11615879  0.49691754  0.50309832  1
  Ru4+  Ru115  1  0.10852389  0.50544014  0.74436244  1
  Ru4+  Ru116  1  0.11126001  0.82973968  -0.00122285  1
  Ru4+  Ru117  1  0.10888207  0.83584123  0.24984550  1
  Ru4+  Ru118  1  0.10756138  0.83794182  0.49685187  1
  Ru4+  Ru119  1  0.10834076  0.83314804  0.75037185  1
  Ru4+  Ru120  1  0.61016531  0.16561268  -0.00007074  1
  Ru4+  Ru121  1  0.61620422  0.16242292  0.25098793  1
  Ru4+  Ru122  1  0.61242922  0.16578001  0.49947359  1
  Ru4+  Ru123  1  0.61044900  0.16312049  0.74785402  1
  Ru4+  Ru124  1  0.61520652  0.50673687  -0.00118233  1
  Ru4+  Ru125  1  0.61760962  0.50598201  0.25145100  1
  Ru4+  Ru126  1  0.61542221  0.49557251  0.50096353  1
  Ru4+  Ru127  1  0.60884243  0.49938723  0.74941329  1
  Ru4+  Ru128  1  0.61555742  0.83180966  0.00002851  1
  Ru4+  Ru129  1  0.61223380  0.83267426  0.25106115  1
  Ru4+  Ru130  1  0.61680481  0.83501769  0.49838125  1
  Ru4+  Ru131  1  0.61425828  0.83351914  0.75261869  1
  Ru4+  Ru132  1  0.38845141  0.17478043  -0.00132612  1
  Ru4+  Ru133  1  0.38435301  0.16225107  0.24854115  1
  Ru4+  Ru134  1  0.38734293  0.16141964  0.50475486  1
  Ru4+  Ru135  1  0.39034448  0.16613152  0.74968156  1
  Ru4+  Ru136  1  0.38581553  0.50247985  -0.00362306  1
  Ru4+  Ru137  1  0.38346678  0.49977998  0.24853593  1
  Ru4+  Ru138  1  0.38236479  0.49561584  0.50437263  1
  Ru4+  Ru139  1  0.38961475  0.50007921  0.74995178  1
  Ru4+  Ru140  1  0.38802373  0.83320442  0.00032948  1
  Ru4+  Ru141  1  0.39391695  0.82043756  0.24655410  1
  Ru4+  Ru142  1  0.38870343  0.83074344  0.49992463  1
  Ru4+  Ru143  1  0.38959973  0.82963795  0.75230695  1
  Ru4+  Ru144  1  0.88948480  0.16726373  0.00326031  1
  Ru4+  Ru145  1  0.88699305  0.16418884  0.25006947  1
  Ru4+  Ru146  1  0.88935386  0.16606307  0.49965201  1
  Ru4+  Ru147  1  0.89027009  0.16867993  0.74853746  1
  Ru4+  Ru148  1  0.88777042  0.49932848  -0.00133126  1
  Ru4+  Ru149  1  0.89269231  0.50028617  0.25072721  1
  Ru4+  Ru150  1  0.88657834  0.49763543  0.49896547  1
  Ru4+  Ru151  1  0.89037614  0.50324062  0.74953187  1
  Ru4+  Ru152  1  0.88448305  0.83238560  -0.00095201  1
  Ru4+  Ru153  1  0.88869102  0.83331642  0.24979208  1
  Ru4+  Ru154  1  0.88570607  0.83391550  0.49982682  1
  Ru4+  Ru155  1  0.89031635  0.83804367  0.75054184  1
  Ru4+  Ru156  1  0.74982711  0.91805879  0.25555905  1
  Ru4+  Ru157  1  0.75006901  0.60290944  -0.02215338  1
  Ru4+  Ru158  1  0.74958298  0.27443195  -0.00356002  1
  Ru4+  Ru159  1  0.24991487  0.91938401  0.00766518  1
  Ru4+  Ru160  1  0.25031566  0.96076034  0.78549475  1
  Ru4+  Ru161  1  0.24998130  0.09376028  0.00163657  1
  Ru4+  Ru162  1  0.24911298  0.58523632  0.24663548  1
  Ru4+  Ru163  1  0.25018084  0.09948764  0.75278772  1
  Ru4+  Ru164  1  0.24962241  0.24401680  0.74861149  1
  Ru4+  Ru165  1  0.24993156  0.96442624  0.46947737  1
  Ru4+  Ru166  1  0.75043742  0.24744666  0.25168856  1
  Ru4+  Ru167  1  0.25030785  0.24077962  0.00534471  1
  Ru4+  Ru168  1  0.25069891  0.42442585  0.49214192  1
  Ru4+  Ru169  1  0.24953382  0.69058267  0.51921744  1
  Ru4+  Ru170  1  0.75028096  0.41241672  0.74158323  1
  Ru4+  Ru171  1  0.25009125  0.23462870  0.25636409  1
  Ru4+  Ru172  1  0.25033599  0.68615616  0.76956850  1
  Ru4+  Ru173  1  0.74943213  0.28182691  0.74385859  1
  Ru4+  Ru174  1  0.24893724  0.39703096  0.74819463  1
  Ru4+  Ru175  1  0.75004045  0.75676672  0.25755063  1
  Ru4+  Ru176  1  0.25082807  0.42256608  -0.00405351  1
  Ru4+  Ru177  1  0.74957850  0.01350090  0.73559468  1
  Ru4+  Ru178  1  0.75020003  0.58129096  0.51411315  1
  Ru4+  Ru179  1  0.75121279  0.60027909  0.27269588  1
  O2-  O180  1  0.16870460  0.08256991  -0.00007390  1
  O2-  O181  1  0.16567171  0.08403920  0.24895483  1
  O2-  O182  1  0.16410175  0.08104220  0.50048005  1
  O2-  O183  1  0.16685247  0.08273294  0.75011950  1
  O2-  O184  1  0.16881486  0.41500538  -0.00230369  1
  O2-  O185  1  0.16824447  0.41784613  0.24864742  1
  O2-  O186  1  0.16751866  0.41360328  0.50298589  1
  O2-  O187  1  0.16361697  0.41330942  0.74955972  1
  O2-  O188  1  0.16509763  0.75059988  0.00239808  1
  O2-  O189  1  0.16792914  0.75008465  0.25188355  1
  O2-  O190  1  0.16727130  0.74720434  0.49858220  1
  O2-  O191  1  0.16592564  0.74512776  0.75126718  1
  O2-  O192  1  0.66413865  0.07703030  -0.00104898  1
  O2-  O193  1  0.66757094  0.08137108  0.24750552  1
  O2-  O194  1  0.66972377  0.08134952  0.49881653  1
  O2-  O195  1  0.66682068  0.07828738  0.74971160  1
  O2-  O196  1  0.66525331  0.41251819  -0.00163065  1
  O2-  O197  1  0.66582690  0.41275034  0.24795269  1
  O2-  O198  1  0.66839269  0.41597387  0.50571807  1
  O2-  O199  1  0.66749185  0.41538791  0.74624691  1
  O2-  O200  1  0.66648697  0.74864944  -0.00051827  1
  O2-  O201  1  0.66752260  0.74760443  0.24932563  1
  O2-  O202  1  0.66494292  0.74644320  0.49778084  1
  O2-  O203  1  0.66533233  0.74664957  0.75244392  1
  O2-  O204  1  0.32664721  0.24942343  -0.00152931  1
  O2-  O205  1  0.33239534  0.25253708  0.25173738  1
  O2-  O206  1  0.33482816  0.25113856  0.50430896  1
  O2-  O207  1  0.33024094  0.25213038  0.74550839  1
  O2-  O208  1  0.33534358  0.58444439  -0.00158470  1
  O2-  O209  1  0.33085157  0.58510692  0.25142967  1
  O2-  O210  1  0.33302220  0.58560343  0.50531458  1
  O2-  O211  1  0.33707623  0.58807235  0.74910645  1
  O2-  O212  1  0.33204899  0.92105206  -0.00173182  1
  O2-  O213  1  0.33749681  0.91575694  0.24834663  1
  O2-  O214  1  0.33277864  0.92244454  0.49802449  1
  O2-  O215  1  0.33412185  0.92325213  0.75260357  1
  O2-  O216  1  0.83391852  0.25386076  0.00022877  1
  O2-  O217  1  0.83333781  0.25298841  0.24999901  1
  O2-  O218  1  0.83373279  0.25170767  0.50151020  1
  O2-  O219  1  0.83237162  0.25670056  0.74874673  1
  O2-  O220  1  0.83311942  0.58644221  0.00091691  1
  O2-  O221  1  0.83416968  0.58813473  0.24961448  1
  O2-  O222  1  0.83363607  0.58782420  0.50047572  1
  O2-  O223  1  0.83918680  0.58904981  0.75219893  1
  O2-  O224  1  0.83707272  0.91816394  0.00106352  1
  O2-  O225  1  0.83338334  0.91843279  0.24803585  1
  O2-  O226  1  0.83452269  0.91686899  0.49593309  1
  O2-  O227  1  0.83228105  0.91916513  0.75017887  1
  O2-  O228  1  0.16715457  0.25142818  -0.00242096  1
  O2-  O229  1  0.16870248  0.24963334  0.25334541  1
  O2-  O230  1  0.16576384  0.25379535  0.50402157  1
  O2-  O231  1  0.16662923  0.25294934  0.74952086  1
  O2-  O232  1  0.16645532  0.58250124  0.00234468  1
  O2-  O233  1  0.16691427  0.58399807  0.25121744  1
  O2-  O234  1  0.16676571  0.58319716  0.50120559  1
  O2-  O235  1  0.16695548  0.58853948  0.75251557  1
  O2-  O236  1  0.16625417  0.91974756  0.00063526  1
  O2-  O237  1  0.16466605  0.91728894  0.24765738  1
  O2-  O238  1  0.16794881  0.92181544  0.49894039  1
  O2-  O239  1  0.16564197  0.92278176  0.75159168  1
  O2-  O240  1  0.66657774  0.25423474  0.00175098  1
  O2-  O241  1  0.66839458  0.25202014  0.24823048  1
  O2-  O242  1  0.66576512  0.25234897  0.50386588  1
  O2-  O243  1  0.66495389  0.25548892  0.74803281  1
  O2-  O244  1  0.66723235  0.58866433  -0.00227024  1
  O2-  O245  1  0.66872877  0.58913972  0.25005489  1
  O2-  O246  1  0.66578532  0.58541783  0.49973266  1
  O2-  O247  1  0.66379876  0.58642870  0.75636709  1
  O2-  O248  1  0.66359119  0.92011801  0.00041705  1
  O2-  O249  1  0.66527452  0.91854508  0.24718639  1
  O2-  O250  1  0.66757780  0.91730738  0.49998150  1
  O2-  O251  1  0.66638893  0.92072000  0.74873421  1
  O2-  O252  1  0.33458466  0.08344543  -0.00042637  1
  O2-  O253  1  0.33256487  0.08230367  0.25003298  1
  O2-  O254  1  0.33194338  0.08297108  0.49795908  1
  O2-  O255  1  0.33533259  0.08309125  0.75043755  1
  O2-  O256  1  0.33145185  0.41387189  -0.00050529  1
  O2-  O257  1  0.33306691  0.41626504  0.25212515  1
  O2-  O258  1  0.33247202  0.41206005  0.50416902  1
  O2-  O259  1  0.33114781  0.41522987  0.74173513  1
  O2-  O260  1  0.33816862  0.74948691  -0.00179293  1
  O2-  O261  1  0.33009646  0.75070302  0.25114617  1
  O2-  O262  1  0.33360595  0.74416865  0.50329043  1
  O2-  O263  1  0.33538544  0.74369127  0.74895187  1
  O2-  O264  1  0.83512646  0.07648628  -0.00089635  1
  O2-  O265  1  0.83679446  0.08133673  0.24855953  1
  O2-  O266  1  0.83358762  0.08255812  0.49526639  1
  O2-  O267  1  0.83678212  0.07789698  0.75038169  1
  O2-  O268  1  0.83495822  0.41233726  0.00234277  1
  O2-  O269  1  0.83588574  0.40978123  0.24922229  1
  O2-  O270  1  0.83643197  0.41504276  0.49976755  1
  O2-  O271  1  0.83401276  0.41357036  0.74851207  1
  O2-  O272  1  0.83363409  0.74851995  0.00053108  1
  O2-  O273  1  0.83368032  0.74850547  0.25010227  1
  O2-  O274  1  0.83378891  0.74841291  0.49902287  1
  O2-  O275  1  0.83699367  0.74779446  0.75061779  1
  O2-  O276  1  0.54664391  0.43365211  0.70099322  1
  O2-  O277  1  0.45146644  0.43368889  0.25970718  1
  O2-  O278  1  0.95843771  0.87608317  0.79174671  1
  O2-  O279  1  0.44923646  0.23990354  0.73320314  1
  O2-  O280  1  0.44607513  0.42362454  0.72942223  1
  O2-  O281  1  0.04655223  0.23544976  0.75808053  1
  O2-  O282  1  0.04554909  0.23470616  0.01739551  1
  O2-  O283  1  0.95579390  0.08958024  0.48805297  1
  O2-  O284  1  0.04512736  0.22426991  0.29128793  1
  O2-  O285  1  0.54616720  0.43405019  0.23972476  1
  O2-  O286  1  0.95286510  0.42845111  0.75795124  1
  O2-  O287  1  0.03377107  0.77815733  0.24155512  1
  O2-  O288  1  0.54659086  0.43395574  0.01062007  1
  O2-  O289  1  0.45217679  0.90235588  0.76529841  1
  O2-  O290  1  0.54585482  0.76631564  0.48246492  1
  O2-  O291  1  0.44956688  0.22996951  0.26434534  1
  O2-  O292  1  0.44743199  0.57681265  0.76553873  1
  O2-  O293  1  0.45337288  0.57185747  0.52021091  1
  O2-  O294  1  0.47390687  0.20110605  0.00386552  1
  O2-  O295  1  0.54990412  0.90503759  0.74165637  1
  O2-  O296  1  0.47680138  0.80999932  0.22560365  1
  O2-  O297  1  0.46183758  0.10708804  0.46571398  1
  O2-  O298  1  0.03616608  0.44705610  0.21495549  1
  O2-  O299  1  0.53431798  0.44400909  0.53959218  1
  O2-  O300  1  0.04700520  0.08993436  0.75946792  1
  O2-  O301  1  0.03935123  0.44807227  0.97377903  1
  O2-  O302  1  0.45414552  0.43357598  0.75241612  1
  O2-  O303  1  0.05011781  0.56905075  0.48632172  1
  O2-  O304  1  0.05176484  0.91075403  0.73248416  1
  O2-  O305  1  0.95393615  0.09746458  0.01850064  1
  O2-  O306  1  0.45092748  0.56626998  0.48159933  1
  O2-  O307  1  0.45868768  0.24219177  0.52253408  1
  O2-  O308  1  0.44741503  0.23932678  0.48770536  1
  O2-  O309  1  0.05362180  0.58525543  0.80574733  1
  O2-  O310  1  0.55099145  0.23996530  0.76242268  1
  O2-  O311  1  0.47714837  0.20917758  1.00156851  1
  O2-  O312  1  0.95775180  0.77402155  0.03188692  1
  O2-  O313  1  0.04814067  0.90820470  0.26682765  1
  O2-  O314  1  0.45356844  0.90157236  0.48843434  1
  O2-  O315  1  0.05732639  0.75217021  0.73294871  1
  O2-  O316  1  0.54566418  0.76272443  0.74139501  1
  O2-  O317  1  0.94797006  0.23713546  0.26547144  1
  O2-  O318  1  0.95593414  0.23528368  0.50801927  1
  O2-  O319  1  0.45602435  0.23162053  0.75791321  1
  O2-  O320  1  0.45135486  0.43696478  0.01333091  1
  O2-  O321  1  0.04453482  0.43032885  0.50902023  1
  O2-  O322  1  0.54258451  0.55648828  0.79038839  1
  O2-  O323  1  0.55620929  0.24028085  0.23160211  1
  O2-  O324  1  0.93550414  0.93330511  0.21997274  1
  O2-  O325  1  0.56484313  0.07613593  0.27606491  1
  O2-  O326  1  0.93046083  0.94919066  0.69149302  1
  O2-  O327  1  0.42746945  0.26281467  0.78017565  1
  O2-  O328  1  0.41266526  0.27098537  0.07494626  1
  O2-  O329  1  0.93678037  0.40231899  0.96636066  1
  O2-  O330  1  0.06146324  0.93039154  0.43212530  1
  O2-  O331  1  0.05236337  0.58467419  0.79467619  1
  O2-  O332  1  0.06361775  0.07317832  0.22695112  1
  O2-  O333  1  0.93859278  0.92852717  0.53014000  1
  O2-  O334  1  0.56386784  0.41228356  0.02617367  1
  O2-  O335  1  0.06328602  0.92613070  0.96744267  1
  O2-  O336  1  0.93043490  0.24618181  0.68344548  1
  O2-  O337  1  0.57939775  0.39371379  0.45051743  1
  O2-  O338  1  0.56264865  0.41637311  0.21739412  1
  O2-  O339  1  0.06602125  0.74417318  0.47370569  1
  O2-  O340  1  0.07673946  0.58763167  0.66606818  1
  O2-  O341  1  0.56213552  0.59419424  0.28247392  1
  O2-  O342  1  0.41572518  0.27404886  0.93207244  1
  O2-  O343  1  0.93801242  0.59174579  0.96854621  1
  O2-  O344  1  0.06033717  0.59301187  0.97059106  1
  O2-  O345  1  0.06879768  0.38643682  0.32083085  1
  O2-  O346  1  0.57827084  0.60513519  0.69383396  1
  O2-  O347  1  0.42759853  0.05310554  0.56107521  1
  O2-  O348  1  0.06379190  0.74079994  0.96734322  1
  O2-  O349  1  0.06491175  0.07366566  0.96400660  1
  O2-  O350  1  0.43343139  0.07507296  0.22493737  1
  O2-  O351  1  0.06349853  0.59531352  0.46956690  1
  O2-  O352  1  0.56557771  0.73957388  0.28684883  1
  O2-  O353  1  0.43352879  0.92173097  0.02065008  1
  O2-  O354  1  0.56321116  0.07359463  0.72809158  1
  O2-  O355  1  0.57166887  0.38800708  0.81289063  1
  O2-  O356  1  0.93592196  0.26454337  0.82663317  1
  O2-  O357  1  0.07675894  0.72431833  0.22028981  1
  O2-  O358  1  0.56414522  0.92354463  0.47464362  1
  O2-  O359  1  0.93332552  0.73470829  0.28006818  1
  O2-  O360  1  0.07250094  0.27577583  0.18838543  1
  O2-  O361  1  0.06167404  0.92920343  0.57045816  1
  O2-  O362  1  0.56422635  0.74384933  0.97392537  1
  O2-  O363  1  0.93433770  0.73268486  0.95302375  1
  O2-  O364  1  0.56062191  0.24815630  0.22517475  1
  O2-  O365  1  0.05470797  0.75040888  0.73115569  1
  O2-  O366  1  0.07359189  0.38391573  0.06344151  1
  O2-  O367  1  0.42719156  0.40393247  0.78125178  1
  O2-  O368  1  0.42686049  0.70741414  0.17931067  1
  O2-  O369  1  0.56543043  0.07842991  0.47403580  1
  O2-  O370  1  0.42378403  0.74219913  0.32317053  1
  O2-  O371  1  0.93681086  0.73728683  0.47236775  1
  O2-  O372  1  0.25025766  -0.00560679  0.35566590  1
  O2-  O373  1  0.74965709  -0.00095786  0.85705304  1
  O2-  O374  1  0.25005315  0.32976874  0.42295060  1
  O2-  O375  1  0.75020909  0.32689681  0.41841026  1
  O2-  O376  1  0.25104542  0.66108469  0.64336675  1
  O2-  O377  1  0.75048210  0.33754008  0.32620914  1
  O2-  O378  1  0.74979034  0.00591943  0.60960985  1
  O2-  O379  1  0.24978993  0.66746869  0.39712698  1
  O2-  O380  1  0.75029219  0.67593393  0.05892004  1
  O2-  O381  1  0.25012918  0.00489152  0.09644021  1
  O2-  O382  1  0.75076652  0.66012637  0.64572214  1
  O2-  O383  1  0.24998131  -0.00141015  0.90728128  1
  O2-  O384  1  0.75057567  0.67032369  0.17953668  1
  O2-  O385  1  0.74994741  0.33914220  0.10315861  1
  O2-  O386  1  0.24984810  0.32587684  0.64495781  1
  O2-  O387  1  0.75065397  -0.00142055  0.34357240  1
  O2-  O388  1  0.24948952  0.32693883  0.85159067  1
  O2-  O389  1  0.24971682  0.02255557  0.56443991  1
  O2-  O390  1  0.74975841  0.33438566  0.86411756  1
  O2-  O391  1  0.24917729  0.66189710  0.15978121  1
  O2-  O392  1  0.25070955  0.66912722  0.89000212  1
  O2-  O393  1  0.25012798  0.33419536  0.33031539  1
  O2-  O394  1  0.25016478  0.33458273  0.08982915  1
  O2-  O395  1  0.25038839  0.00876178  0.67982947  1
  O2-  O396  1  0.74980013  0.17928161  0.59854874  1
  O2-  O397  1  0.75045838  0.17115231  0.17338231  1
  O2-  O398  1  0.24968757  0.83612114  0.33219831  1
  O2-  O399  1  0.24970268  0.16854695  0.85011061  1
  O2-  O400  1  0.75000774  0.83004356  0.85868546  1
  O2-  O401  1  0.75006435  0.83745212  0.16826834  1
  O2-  O402  1  0.25021419  0.49378311  0.90901410  1
  O2-  O403  1  0.25053566  0.84441633  0.64500562  1
  O2-  O404  1  0.75025773  0.83317697  0.08446442  1
  O2-  O405  1  0.75018138  0.50077866  0.59264462  1
  O2-  O406  1  0.25009103  0.17354667  0.16120172  1
  O2-  O407  1  0.75040062  0.18135543  0.93442418  1
  O2-  O408  1  0.25013528  0.49594932  0.41236896  1
  O2-  O409  1  0.24964862  0.83213006  0.56857291  1
  O2-  O410  1  0.24991623  0.17439454  0.37602641  1
  O2-  O411  1  0.25024222  0.81396604  0.95966130  1
  O2-  O412  1  0.74952264  0.16562971  0.85152957  1
  O2-  O413  1  0.75015468  0.49697353  0.43475866  1
  O2-  O414  1  0.75006374  0.83437474  0.34474250  1
  O2-  O415  1  0.25016701  0.83626924  0.08450364  1
  O2-  O416  1  0.25020751  0.84373998  0.88393148  1
  O2-  O417  1  0.74990788  0.83314477  0.59595395  1
  O2-  O418  1  0.75008478  0.50930650  0.34812914  1
  O2-  O419  1  0.75038061  0.50904886  0.88891787  1
  O2-  O420  1  0.02437291  -0.00344884  0.11681623  1
  O2-  O421  1  0.97047505  0.00647148  0.87782792  1
  O2-  O422  1  0.53154309  0.32299657  0.11343177  1
  O2-  O423  1  0.52012542  0.67370593  0.61801316  1
  O2-  O424  1  0.04402763  0.32770989  0.63143146  1
  O2-  O425  1  0.52573403  -0.00778884  0.36967949  1
  O2-  O426  1  0.45333922  0.34115582  0.37920898  1
  O2-  O427  1  0.47410844  0.00344677  0.87773918  1
  O2-  O428  1  0.52033538  0.66436380  0.87441381  1
  O2-  O429  1  0.46330485  -0.00309264  0.36599313  1
  O2-  O430  1  0.53946650  0.32059618  0.36347030  1
  O2-  O431  1  0.96378739  0.35001696  0.61436535  1
  O2-  O432  1  0.46534399  0.00027352  0.12484125  1
  O2-  O433  1  0.47973449  0.65780820  0.37956262  1
  O2-  O434  1  0.48654202  0.34368728  0.87953939  1
  O2-  O435  1  0.52877459  0.66170007  0.12333404  1
  O2-  O436  1  0.96909274  0.33597025  0.12481221  1
  O2-  O437  1  0.46617101  0.34917752  0.14359352  1
  O2-  O438  1  0.02910944  0.33424935  0.87345812  1
  O2-  O439  1  0.01365396  0.67097536  0.60919516  1
  O2-  O440  1  0.52444051  -0.00791680  0.61848037  1
  O2-  O441  1  0.02112165  0.66151240  0.36520439  1
  O2-  O442  1  0.02323358  0.65596869  0.12094855  1
  O2-  O443  1  0.54424216  -0.00042569  0.12266883  1
