# generated using pymatgen
data_La7(Ru4O11)2
_symmetry_space_group_name_H-M   'P 1'
_cell_length_a   23.98978348
_cell_length_b   16.82920652
_cell_length_c   15.42580725
_cell_angle_alpha   90.00066300
_cell_angle_beta   89.99975414
_cell_angle_gamma   89.99923684
_symmetry_Int_Tables_number   1
_chemical_formula_structural   La7(Ru4O11)2
_chemical_formula_sum   'La84 Ru96 O264'
_cell_volume   6227.84605163
_cell_formula_units_Z   12
loop_
 _symmetry_equiv_pos_site_id
 _symmetry_equiv_pos_as_xyz
  1  'x, y, z'
loop_
 _atom_type_symbol
 _atom_type_oxidation_number
  La3+  3.0
  Ru4+  4.0
  O2-  -2.0
loop_
 _atom_site_type_symbol
 _atom_site_label
 _atom_site_symmetry_multiplicity
 _atom_site_fract_x
 _atom_site_fract_y
 _atom_site_fract_z
 _atom_site_occupancy
  La3+  La0  1  0.14003015  -0.00068887  0.12526774  1
  La3+  La1  1  0.13984332  0.00104071  0.37452335  1
  La3+  La2  1  0.13928795  0.00060396  0.62449150  1
  La3+  La3  1  0.13805749  -0.00069164  0.87565103  1
  La3+  La4  1  0.13831599  0.33178797  0.12327821  1
  La3+  La5  1  0.13817684  0.33119630  0.37458444  1
  La3+  La6  1  0.13855430  0.33469758  0.62585831  1
  La3+  La7  1  0.13884288  0.33424616  0.87460849  1
  La3+  La8  1  0.13801969  0.66818907  0.12152440  1
  La3+  La9  1  0.13752739  0.66908263  0.37706899  1
  La3+  La10  1  0.13844319  0.66832657  0.62485932  1
  La3+  La11  1  0.13944514  0.66762887  0.87612040  1
  La3+  La12  1  0.64001815  -0.00003451  0.12265147  1
  La3+  La13  1  0.63666047  0.00026533  0.37414605  1
  La3+  La14  1  0.64014230  0.00086409  0.62805542  1
  La3+  La15  1  0.64054865  0.00038404  0.87543680  1
  La3+  La16  1  0.64013136  0.33473625  0.12528069  1
  La3+  La17  1  0.63961276  0.33386370  0.37332205  1
  La3+  La18  1  0.63961744  0.33284576  0.62473403  1
  La3+  La19  1  0.64122812  0.33342832  0.87679807  1
  La3+  La20  1  0.63982221  0.66740472  0.12483857  1
  La3+  La21  1  0.63948602  0.66621304  0.37441231  1
  La3+  La22  1  0.63844277  0.66742345  0.62416045  1
  La3+  La23  1  0.63897070  0.66737771  0.87481777  1
  La3+  La24  1  0.36026587  -0.00036087  0.12460154  1
  La3+  La25  1  0.35948432  0.00050566  0.37495645  1
  La3+  La26  1  0.36053253  -0.00003157  0.62393065  1
  La3+  La27  1  0.36142697  -0.00047680  0.87557563  1
  La3+  La28  1  0.36155524  0.33236829  0.12379409  1
  La3+  La29  1  0.36267878  0.33130646  0.37522222  1
  La3+  La30  1  0.36202481  0.33357908  0.62581236  1
  La3+  La31  1  0.35982583  0.33359270  0.87516350  1
  La3+  La32  1  0.36085456  0.66774528  0.12218023  1
  La3+  La33  1  0.36225087  0.66841338  0.37671347  1
  La3+  La34  1  0.35979434  0.66987290  0.62414419  1
  La3+  La35  1  0.35761328  0.66822244  0.87589314  1
  La3+  La36  1  0.85924284  -0.00003150  0.12243646  1
  La3+  La37  1  0.86312461  -0.00000251  0.37414251  1
  La3+  La38  1  0.86117657  0.00117606  0.62793858  1
  La3+  La39  1  0.85925489  0.00073531  0.87516841  1
  La3+  La40  1  0.86142127  0.33245494  0.12289500  1
  La3+  La41  1  0.86151781  0.33260391  0.37523966  1
  La3+  La42  1  0.86169934  0.33264233  0.62398902  1
  La3+  La43  1  0.86033171  0.33387704  0.87802871  1
  La3+  La44  1  0.85950925  0.66716923  0.12523775  1
  La3+  La45  1  0.85855600  0.66519728  0.37312132  1
  La3+  La46  1  0.86097924  0.66557236  0.62452273  1
  La3+  La47  1  0.85987267  0.66644524  0.87359492  1
  La3+  La48  1  -0.00102299  0.49998854  0.88170369  1
  La3+  La49  1  0.50070212  0.16261915  0.38134247  1
  La3+  La50  1  -0.00122141  0.16597266  0.86663564  1
  La3+  La51  1  0.50027871  0.83392837  0.36647665  1
  La3+  La52  1  0.49936462  0.83336750  0.86477925  1
  La3+  La53  1  -0.00179402  0.50133796  0.12710095  1
  La3+  La54  1  0.00021365  0.83425681  0.36352202  1
  La3+  La55  1  -0.00206802  0.49809492  0.36606236  1
  La3+  La56  1  0.50000241  0.49027266  0.87091541  1
  La3+  La57  1  0.50036868  0.50047536  0.38425002  1
  La3+  La58  1  0.49880441  0.16811212  0.36030047  1
  La3+  La59  1  0.50228750  0.16842751  0.11837880  1
  La3+  La60  1  0.50065899  0.49741179  0.63197685  1
  La3+  La61  1  0.49858024  0.16674305  0.63886037  1
  La3+  La62  1  0.50005381  0.83309164  0.13369667  1
  La3+  La63  1  0.00214301  0.83662451  0.11828399  1
  La3+  La64  1  0.50160058  0.17035742  0.61726292  1
  La3+  La65  1  0.50066764  0.50241892  0.61619284  1
  La3+  La66  1  0.50102250  0.50354594  0.88803168  1
  La3+  La67  1  0.50125357  0.49714352  0.36227005  1
  La3+  La68  1  -0.00151427  0.49665945  0.38845468  1
  La3+  La69  1  -0.00252241  0.16921185  0.38213789  1
  La3+  La70  1  -0.00201152  0.16662927  0.11546626  1
  La3+  La71  1  0.00193687  0.17218199  0.13582590  1
  La3+  La72  1  0.25034836  0.49213686  0.25001211  1
  La3+  La73  1  0.75018188  0.79826402  0.50157052  1
  La3+  La74  1  0.24995927  0.50344070  0.50281384  1
  La3+  La75  1  0.75024883  0.53155466  0.72158624  1
  La3+  La76  1  0.75008730  0.16666305  -0.00118527  1
  La3+  La77  1  0.24978286  0.50134059  0.02811358  1
  La3+  La78  1  0.25005562  0.12937650  0.73938500  1
  La3+  La79  1  0.25012465  0.80022738  0.77281595  1
  La3+  La80  1  0.74996911  0.20197932  0.50142699  1
  La3+  La81  1  0.74988977  0.49902869  0.25014035  1
  La3+  La82  1  0.24987668  0.16480523  0.27894734  1
  La3+  La83  1  0.74999545  0.79898079  0.28034055  1
  Ru4+  Ru84  1  -0.00013322  -0.00241361  0.00089914  1
  Ru4+  Ru85  1  0.00138059  -0.00133450  0.24948179  1
  Ru4+  Ru86  1  -0.00223482  -0.00451985  0.50204713  1
  Ru4+  Ru87  1  0.00148517  0.00193418  0.74690092  1
  Ru4+  Ru88  1  0.00240825  0.33819309  -0.00137470  1
  Ru4+  Ru89  1  -0.00179266  0.33259482  0.24802048  1
  Ru4+  Ru90  1  0.00204141  0.33619187  0.50097371  1
  Ru4+  Ru91  1  0.00241917  0.33559012  0.75389855  1
  Ru4+  Ru92  1  0.00222766  0.66530391  0.00023933  1
  Ru4+  Ru93  1  -0.00027925  0.66916992  0.24907934  1
  Ru4+  Ru94  1  -0.00036356  0.66761891  0.49786640  1
  Ru4+  Ru95  1  0.00017888  0.67087894  0.75348194  1
  Ru4+  Ru96  1  0.50192313  -0.00122356  0.00015357  1
  Ru4+  Ru97  1  0.50017621  -0.00028122  0.25086004  1
  Ru4+  Ru98  1  0.49833312  -0.00141976  0.50039653  1
  Ru4+  Ru99  1  0.49971695  -0.00101982  0.74881520  1
  Ru4+  Ru100  1  0.49966521  0.33458836  -0.00002463  1
  Ru4+  Ru101  1  0.49929370  0.33267325  0.24874513  1
  Ru4+  Ru102  1  0.50028644  0.33625625  0.50275841  1
  Ru4+  Ru103  1  0.49921344  0.33415179  0.74991846  1
  Ru4+  Ru104  1  0.50107596  0.66661767  0.00136676  1
  Ru4+  Ru105  1  0.50032252  0.66855594  0.25005293  1
  Ru4+  Ru106  1  0.50073080  0.67025549  0.49688337  1
  Ru4+  Ru107  1  0.50058275  0.67504117  0.75262067  1
  Ru4+  Ru108  1  0.11390590  0.16886831  -0.00046561  1
  Ru4+  Ru109  1  0.11272020  0.16636069  0.25113455  1
  Ru4+  Ru110  1  0.11625605  0.16830704  0.50190686  1
  Ru4+  Ru111  1  0.11200520  0.16613393  0.74855641  1
  Ru4+  Ru112  1  0.11227954  0.50026373  0.00015807  1
  Ru4+  Ru113  1  0.11269790  0.50002189  0.25005000  1
  Ru4+  Ru114  1  0.11131640  0.49890517  0.50005589  1
  Ru4+  Ru115  1  0.11407301  0.49643788  0.74992844  1
  Ru4+  Ru116  1  0.11340417  0.83330263  -0.00036477  1
  Ru4+  Ru117  1  0.11244390  0.83367410  0.24948345  1
  Ru4+  Ru118  1  0.11372303  0.83169722  0.49949352  1
  Ru4+  Ru119  1  0.10976613  0.83085937  0.75042146  1
  Ru4+  Ru120  1  0.61273162  0.16553111  -0.00053734  1
  Ru4+  Ru121  1  0.61184008  0.16664810  0.25031358  1
  Ru4+  Ru122  1  0.61230263  0.16498090  0.49985617  1
  Ru4+  Ru123  1  0.61515648  0.16644701  0.75003349  1
  Ru4+  Ru124  1  0.61379315  0.49852508  0.00008696  1
  Ru4+  Ru125  1  0.61332258  0.50058149  0.24999024  1
  Ru4+  Ru126  1  0.61209861  0.49988540  0.50132081  1
  Ru4+  Ru127  1  0.61452175  0.49685405  0.75030566  1
  Ru4+  Ru128  1  0.61460277  0.83397343  0.00041028  1
  Ru4+  Ru129  1  0.61089158  0.83308219  0.25017322  1
  Ru4+  Ru130  1  0.61169850  0.82926068  0.50068871  1
  Ru4+  Ru131  1  0.61225556  0.83321183  0.74961636  1
  Ru4+  Ru132  1  0.38531243  0.16769113  -0.00050166  1
  Ru4+  Ru133  1  0.38858605  0.16630136  0.24976163  1
  Ru4+  Ru134  1  0.38470585  0.16538347  0.50005323  1
  Ru4+  Ru135  1  0.38823351  0.16601733  0.74979710  1
  Ru4+  Ru136  1  0.38682900  0.49861888  0.00018433  1
  Ru4+  Ru137  1  0.38917838  0.49856259  0.25025254  1
  Ru4+  Ru138  1  0.38859306  0.50009378  0.50032803  1
  Ru4+  Ru139  1  0.38368076  0.49586492  0.74942260  1
  Ru4+  Ru140  1  0.38494246  0.83359709  0.00017916  1
  Ru4+  Ru141  1  0.38756614  0.83494491  0.25002121  1
  Ru4+  Ru142  1  0.38816786  0.83352239  0.50058600  1
  Ru4+  Ru143  1  0.38892386  0.83222496  0.74935200  1
  Ru4+  Ru144  1  0.88455520  0.16385775  -0.00128284  1
  Ru4+  Ru145  1  0.88597980  0.16789344  0.25013097  1
  Ru4+  Ru146  1  0.88729388  0.16281495  0.50116586  1
  Ru4+  Ru147  1  0.88566570  0.16295473  0.75061204  1
  Ru4+  Ru148  1  0.88637703  0.49863735  0.00018906  1
  Ru4+  Ru149  1  0.88747368  0.49849549  0.24936361  1
  Ru4+  Ru150  1  0.88756155  0.50009208  0.50063610  1
  Ru4+  Ru151  1  0.88900617  0.50031829  0.75040517  1
  Ru4+  Ru152  1  0.88472764  0.83526755  -0.00042059  1
  Ru4+  Ru153  1  0.88802944  0.83289431  0.25070646  1
  Ru4+  Ru154  1  0.88943528  0.83143265  0.50034626  1
  Ru4+  Ru155  1  0.88663708  0.83157783  0.74947987  1
  Ru4+  Ru156  1  0.74991042  0.93001046  0.51356035  1
  Ru4+  Ru157  1  0.24997907  0.93706275  0.75770129  1
  Ru4+  Ru158  1  0.75011530  0.38987935  0.75502789  1
  Ru4+  Ru159  1  0.74984729  0.58297133  0.49838159  1
  Ru4+  Ru160  1  0.25007849  0.58040598  0.74840382  1
  Ru4+  Ru161  1  0.74966977  0.09104062  0.24228426  1
  Ru4+  Ru162  1  0.74988185  0.41719141  0.49957494  1
  Ru4+  Ru163  1  0.74966220  0.24945006  0.24727067  1
  Ru4+  Ru164  1  0.24984759  0.91698228  0.25208980  1
  Ru4+  Ru165  1  0.75006653  0.75163694  0.75327208  1
  Ru4+  Ru166  1  0.25006658  0.75834816  0.25246078  1
  Ru4+  Ru167  1  0.75017135  0.24461152  0.75227762  1
  Ru4+  Ru168  1  0.25003329  0.91316935  0.50157275  1
  Ru4+  Ru169  1  0.24998232  0.61857187  0.25693111  1
  Ru4+  Ru170  1  0.74987120  0.93448499  0.23124930  1
  Ru4+  Ru171  1  0.24985125  0.07899099  0.00446359  1
  Ru4+  Ru172  1  0.74994998  0.91902369  0.75288281  1
  Ru4+  Ru173  1  0.75007315  0.58283701  0.00165240  1
  Ru4+  Ru174  1  0.24992194  0.36392156  0.23911676  1
  Ru4+  Ru175  1  0.74992983  0.07006809  0.51307438  1
  Ru4+  Ru176  1  0.24991531  0.24067784  0.50000175  1
  Ru4+  Ru177  1  0.24999942  0.63375640  0.50169473  1
  Ru4+  Ru178  1  0.24999446  0.27341904  0.74784703  1
  Ru4+  Ru179  1  0.25004538  0.37233319  0.48983415  1
  O2-  O180  1  0.16698513  0.08015206  -0.00070490  1
  O2-  O181  1  0.16798737  0.08108529  0.24905709  1
  O2-  O182  1  0.16783396  0.08134468  0.49972830  1
  O2-  O183  1  0.16580928  0.07974940  0.75143906  1
  O2-  O184  1  0.16837378  0.41336825  0.00095464  1
  O2-  O185  1  0.16656990  0.41235822  0.24892264  1
  O2-  O186  1  0.16592317  0.41282749  0.49956233  1
  O2-  O187  1  0.16676533  0.41573622  0.74938453  1
  O2-  O188  1  0.16635483  0.74847776  -0.00045176  1
  O2-  O189  1  0.16633740  0.74716305  0.25027913  1
  O2-  O190  1  0.16835970  0.74766478  0.49999894  1
  O2-  O191  1  0.16611305  0.74596586  0.74897020  1
  O2-  O192  1  0.66586784  0.08108246  -0.00057274  1
  O2-  O193  1  0.66831471  0.08044183  0.25027221  1
  O2-  O194  1  0.66703081  0.07953112  0.49974571  1
  O2-  O195  1  0.66641199  0.08261948  0.75115450  1
  O2-  O196  1  0.66605813  0.41571655  0.00068365  1
  O2-  O197  1  0.66845260  0.41522842  0.25043780  1
  O2-  O198  1  0.66730682  0.41345402  0.49925356  1
  O2-  O199  1  0.66779726  0.41342345  0.74932775  1
  O2-  O200  1  0.66747215  0.74765766  -0.00086109  1
  O2-  O201  1  0.66635945  0.74601316  0.25025676  1
  O2-  O202  1  0.66637986  0.74717624  0.49997567  1
  O2-  O203  1  0.66713271  0.74770687  0.74961451  1
  O2-  O204  1  0.33255587  0.25194161  -0.00005169  1
  O2-  O205  1  0.33225584  0.25422785  0.24953990  1
  O2-  O206  1  0.33171799  0.25304683  0.49983938  1
  O2-  O207  1  0.33214254  0.25378540  0.75005388  1
  O2-  O208  1  0.33163266  0.58543471  0.00083373  1
  O2-  O209  1  0.33459824  0.58850175  0.25007401  1
  O2-  O210  1  0.33293255  0.58765595  0.49925358  1
  O2-  O211  1  0.33166019  0.58598401  0.74915019  1
  O2-  O212  1  0.33396373  0.91796938  -0.00108362  1
  O2-  O213  1  0.33281233  0.91899954  0.24951024  1
  O2-  O214  1  0.33176242  0.91871868  0.49971888  1
  O2-  O215  1  0.33345357  0.92005051  0.75058234  1
  O2-  O216  1  0.83299328  0.25245916  0.00052849  1
  O2-  O217  1  0.83155933  0.25152996  0.25067031  1
  O2-  O218  1  0.83344628  0.25338181  0.49951069  1
  O2-  O219  1  0.83174113  0.25277126  0.74947391  1
  O2-  O220  1  0.83267000  0.58626753  0.00033410  1
  O2-  O221  1  0.83169324  0.58587410  0.24960045  1
  O2-  O222  1  0.83218868  0.58580405  0.50025056  1
  O2-  O223  1  0.83316097  0.58583375  0.74945764  1
  O2-  O224  1  0.83458106  0.91717868  0.00001687  1
  O2-  O225  1  0.83271317  0.92038229  0.24959437  1
  O2-  O226  1  0.83382397  0.92001074  0.50013666  1
  O2-  O227  1  0.83301367  0.91827474  0.74929613  1
  O2-  O228  1  0.16684484  0.25245451  0.00099092  1
  O2-  O229  1  0.16831973  0.25316292  0.24846578  1
  O2-  O230  1  0.16716871  0.25251794  0.50015116  1
  O2-  O231  1  0.16809851  0.25290015  0.75043227  1
  O2-  O232  1  0.16747072  0.58541525  0.00023333  1
  O2-  O233  1  0.16501240  0.58761529  0.24963091  1
  O2-  O234  1  0.16675013  0.58818748  0.49969614  1
  O2-  O235  1  0.16733676  0.58611994  0.74930530  1
  O2-  O236  1  0.16628126  0.91864607  -0.00128212  1
  O2-  O237  1  0.16806098  0.91928557  0.24961017  1
  O2-  O238  1  0.16762390  0.91834492  0.49980574  1
  O2-  O239  1  0.16652745  0.91999969  0.75120660  1
  O2-  O240  1  0.66697917  0.25220264  0.00106620  1
  O2-  O241  1  0.66812863  0.25245894  0.25030981  1
  O2-  O242  1  0.66665713  0.25470399  0.49942298  1
  O2-  O243  1  0.66787442  0.25196942  0.75024554  1
  O2-  O244  1  0.66743743  0.58609857  -0.00017874  1
  O2-  O245  1  0.66847416  0.58517128  0.25080269  1
  O2-  O246  1  0.66849916  0.58677761  0.50006036  1
  O2-  O247  1  0.66715074  0.58693445  0.74993033  1
  O2-  O248  1  0.66557695  0.91772910  -0.00076669  1
  O2-  O249  1  0.66678794  0.92083390  0.25035187  1
  O2-  O250  1  0.66749856  0.91958648  0.49887913  1
  O2-  O251  1  0.66685407  0.91823369  0.75012345  1
  O2-  O252  1  0.33270509  0.08117691  -0.00037518  1
  O2-  O253  1  0.33274303  0.07981420  0.24989990  1
  O2-  O254  1  0.33366039  0.08068927  0.50037889  1
  O2-  O255  1  0.33491965  0.07883236  0.75060533  1
  O2-  O256  1  0.33198122  0.41381929  0.00065105  1
  O2-  O257  1  0.33425980  0.41252450  0.24970588  1
  O2-  O258  1  0.33353408  0.41214674  0.49944030  1
  O2-  O259  1  0.33390193  0.41419396  0.74990729  1
  O2-  O260  1  0.33266387  0.74903718  0.00006239  1
  O2-  O261  1  0.33315054  0.74685572  0.24992263  1
  O2-  O262  1  0.33298570  0.74789395  0.49916551  1
  O2-  O263  1  0.33382188  0.74645878  0.74862119  1
  O2-  O264  1  0.83378307  0.08067427  -0.00019210  1
  O2-  O265  1  0.83242754  0.08096538  0.25031728  1
  O2-  O266  1  0.83371864  0.08039174  0.50050624  1
  O2-  O267  1  0.83371194  0.08296456  0.74924288  1
  O2-  O268  1  0.83385596  0.41549452  0.00086071  1
  O2-  O269  1  0.83278898  0.41505063  0.25051031  1
  O2-  O270  1  0.83258511  0.41407888  0.49947476  1
  O2-  O271  1  0.83212154  0.41291287  0.74887406  1
  O2-  O272  1  0.83235863  0.74761260  0.00051852  1
  O2-  O273  1  0.83312316  0.74693262  0.24919497  1
  O2-  O274  1  0.83210627  0.74774156  0.50094120  1
  O2-  O275  1  0.83228107  0.74859468  0.74980692  1
  O2-  O276  1  0.45732220  0.55966066  0.02966414  1
  O2-  O277  1  0.95124994  0.23640886  0.48462106  1
  O2-  O278  1  0.46058792  0.54653717  0.73890372  1
  O2-  O279  1  0.05392438  0.08621920  0.46806763  1
  O2-  O280  1  0.96332340  0.77625002  0.74455411  1
  O2-  O281  1  0.03942203  0.43981138  0.21917260  1
  O2-  O282  1  0.94294366  0.41433672  0.77640669  1
  O2-  O283  1  0.54430723  0.55866781  0.76675048  1
  O2-  O284  1  0.54779658  0.56878714  0.01600587  1
  O2-  O285  1  0.54553814  0.90221989  0.76307282  1
  O2-  O286  1  0.95259110  0.23651886  0.01234860  1
  O2-  O287  1  0.04446271  0.90235160  0.98633009  1
  O2-  O288  1  0.53824557  0.11096451  0.78169879  1
  O2-  O289  1  0.04612186  0.09692730  0.01151021  1
  O2-  O290  1  0.95383180  0.09830933  0.51541092  1
  O2-  O291  1  0.03780907  0.21330237  0.74618989  1
  O2-  O292  1  0.95323471  0.56718474  0.51503246  1
  O2-  O293  1  0.04785064  0.57206012  0.26401249  1
  O2-  O294  1  0.54277633  0.55184136  0.75034687  1
  O2-  O295  1  0.55991075  0.41480381  0.22314193  1
  O2-  O296  1  0.44228284  0.25132424  0.47499440  1
  O2-  O297  1  0.95244799  0.56884756  0.23477773  1
  O2-  O298  1  0.53816288  0.89007676  0.49740228  1
  O2-  O299  1  0.45272505  0.76673538  0.73636503  1
  O2-  O300  1  0.45665268  0.10390671  0.02496849  1
  O2-  O301  1  0.95342542  0.09697638  0.23799121  1
  O2-  O302  1  0.04881315  0.76507358  0.01472679  1
  O2-  O303  1  0.95475233  0.90740338  0.48633464  1
  O2-  O304  1  0.54688000  0.10039934  0.98608822  1
  O2-  O305  1  0.45517918  0.89994678  0.98777140  1
  O2-  O306  1  0.45402817  0.09507034  0.51307223  1
  O2-  O307  1  0.45474723  0.76384852  0.26263341  1
  O2-  O308  1  0.54567578  0.75970848  0.51288436  1
  O2-  O309  1  0.54755201  0.23649928  0.48713824  1
  O2-  O310  1  0.46012771  0.54719377  0.75815416  1
  O2-  O311  1  0.44777730  0.90109120  0.51516789  1
  O2-  O312  1  0.45371555  0.56899194  0.26345696  1
  O2-  O313  1  0.04493453  0.42973022  0.98819203  1
  O2-  O314  1  0.54175803  0.89415571  0.48474134  1
  O2-  O315  1  0.54820590  0.76410196  0.76403829  1
  O2-  O316  1  0.04464105  0.56955677  0.01452928  1
  O2-  O317  1  0.95645712  0.77187777  0.02497051  1
  O2-  O318  1  0.97508734  0.79107737  0.48628426  1
  O2-  O319  1  0.04741653  0.57028422  0.48691956  1
  O2-  O320  1  0.95943200  0.89937392  0.72316262  1
  O2-  O321  1  0.95385788  0.22680097  0.72238251  1
  O2-  O322  1  0.45994129  0.22823500  0.97008124  1
  O2-  O323  1  0.05030823  0.76730456  0.76389622  1
  O2-  O324  1  0.41906322  0.61206920  0.67857243  1
  O2-  O325  1  0.05403170  0.08615428  0.46790741  1
  O2-  O326  1  0.42463966  0.61913847  0.82690474  1
  O2-  O327  1  0.93464136  0.26175973  0.22191920  1
  O2-  O328  1  0.56986595  0.05829401  0.70055259  1
  O2-  O329  1  0.93661273  0.25944738  0.02935226  1
  O2-  O330  1  0.92446482  0.71346247  0.43549808  1
  O2-  O331  1  0.42810438  0.06506653  0.95987449  1
  O2-  O332  1  0.94694256  0.42160265  0.77309759  1
  O2-  O333  1  0.92748641  0.73273292  0.56083471  1
  O2-  O334  1  0.06487568  0.40687056  0.77982754  1
  O2-  O335  1  0.06439573  0.73559406  0.46568210  1
  O2-  O336  1  0.06368197  0.26091337  0.28288971  1
  O2-  O337  1  0.06476095  0.07313061  0.27874262  1
  O2-  O338  1  0.06298908  0.06743586  0.71871011  1
  O2-  O339  1  0.93714837  0.73584470  0.28149045  1
  O2-  O340  1  0.43660359  0.73582944  0.05332956  1
  O2-  O341  1  0.43113985  0.60350327  0.95656287  1
  O2-  O342  1  0.07117117  0.39258951  0.30103222  1
  O2-  O343  1  0.43471457  0.26166892  0.72182400  1
  O2-  O344  1  0.06610486  0.59252949  0.70522743  1
  O2-  O345  1  0.56520601  0.59423466  0.52905873  1
  O2-  O346  1  0.06544519  0.59427993  0.79541679  1
  O2-  O347  1  0.56419375  0.40181275  0.78298467  1
  O2-  O348  1  0.57936632  0.95626208  0.55083167  1
  O2-  O349  1  0.54807544  0.42001943  0.22966532  1
  O2-  O350  1  0.06687734  0.06319681  0.55383517  1
  O2-  O351  1  0.93510699  0.07363686  0.77967512  1
  O2-  O352  1  0.43663456  0.73825847  0.94792614  1
  O2-  O353  1  0.43124109  0.27343275  0.04606835  1
  O2-  O354  1  0.93097733  0.26967813  0.79411370  1
  O2-  O355  1  0.58338379  0.62118635  0.70336831  1
  O2-  O356  1  0.93620829  0.59606121  0.78368428  1
  O2-  O357  1  0.56297083  0.73600746  0.03349733  1
  O2-  O358  1  0.43491475  0.40648253  0.52943374  1
  O2-  O359  1  0.93005578  0.93351580  0.78885609  1
  O2-  O360  1  0.92353818  0.72367135  0.71498457  1
  O2-  O361  1  0.56402745  0.26451603  0.05077873  1
  O2-  O362  1  0.43614341  0.59776388  0.46673710  1
  O2-  O363  1  0.06323802  0.92913037  0.21670169  1
  O2-  O364  1  0.93650335  0.26187206  0.46878053  1
  O2-  O365  1  0.56412455  0.26494445  0.94914816  1
  O2-  O366  1  0.44592870  0.24438042  0.48104414  1
  O2-  O367  1  0.07864888  0.27902269  0.71182295  1
  O2-  O368  1  0.56453740  0.26340125  0.71623101  1
  O2-  O369  1  0.56362470  0.59775789  0.28299617  1
  O2-  O370  1  0.93118537  0.72714850  0.95409854  1
  O2-  O371  1  0.93494824  0.92800379  0.27796282  1
  O2-  O372  1  0.24989705  0.66649914  0.84176958  1
  O2-  O373  1  0.75008720  0.66787820  0.07878335  1
  O2-  O374  1  0.75001630  0.00780131  0.32336507  1
  O2-  O375  1  0.74986485  0.33165851  0.15878959  1
  O2-  O376  1  0.75017725  0.66561680  0.17118256  1
  O2-  O377  1  0.74988345  0.33080709  0.34348915  1
  O2-  O378  1  0.74982709  0.66792721  0.40718583  1
  O2-  O379  1  0.25005104  0.00657336  0.66628719  1
  O2-  O380  1  0.25009643  0.67969132  0.15734055  1
  O2-  O381  1  0.24985518  0.32817628  0.60246088  1
  O2-  O382  1  0.75016574  0.00022520  0.09982754  1
  O2-  O383  1  0.75007197  0.33350585  0.59274504  1
  O2-  O384  1  0.75004964  0.33263954  0.89913120  1
  O2-  O385  1  0.75004021  -0.00074524  0.41740218  1
  O2-  O386  1  0.25010879  -0.00096805  0.34285784  1
  O2-  O387  1  0.75018064  -0.00204505  0.65597826  1
  O2-  O388  1  0.24999809  0.00083534  0.57389200  1
  O2-  O389  1  0.25016873  0.66397413  0.07135251  1
  O2-  O390  1  0.74997692  0.66686101  0.84177817  1
  O2-  O391  1  0.74984806  -0.00324449  0.84097365  1
  O2-  O392  1  0.25002961  0.67647915  0.35787795  1
  O2-  O393  1  0.25006060  0.00139358  0.09340826  1
  O2-  O394  1  0.25011432  0.32811395  0.35244732  1
  O2-  O395  1  0.25013238  0.33399852  0.84510569  1
  O2-  O396  1  0.24994319  0.17272931  0.85504919  1
  O2-  O397  1  0.25006078  0.49630030  0.81706811  1
  O2-  O398  1  0.74987930  0.17031678  0.66072891  1
  O2-  O399  1  0.25000212  0.17489058  0.62212279  1
  O2-  O400  1  0.75000289  0.83328329  0.06892761  1
  O2-  O401  1  0.75006879  0.49930953  0.40744844  1
  O2-  O402  1  0.24997750  0.50307823  0.65919621  1
  O2-  O403  1  0.75000231  0.83719882  0.15298435  1
  O2-  O404  1  0.74988653  0.83334434  0.83921865  1
  O2-  O405  1  0.25012084  0.83295157  0.08186016  1
  O2-  O406  1  0.25003848  0.83393582  0.34186084  1
  O2-  O407  1  0.25000244  0.50162211  0.90385760  1
  O2-  O408  1  0.74995798  0.49714743  0.93338286  1
  O2-  O409  1  0.25006756  0.16537706  0.15281739  1
  O2-  O410  1  0.74998086  0.16678530  0.12916379  1
  O2-  O411  1  0.74994503  0.83226871  0.65720313  1
  O2-  O412  1  0.25004982  0.83648565  0.63766725  1
  O2-  O413  1  0.25004422  0.16910212  0.41453556  1
  O2-  O414  1  0.25009435  0.17042625  0.93744471  1
  O2-  O415  1  0.75002982  0.49959033  0.58740744  1
  O2-  O416  1  0.25015816  0.17058336  0.06809673  1
  O2-  O417  1  0.74997189  0.16767812  0.87392181  1
  O2-  O418  1  0.74995936  0.49664771  0.84610046  1
  O2-  O419  1  0.25003852  0.83453953  0.16660678  1
  O2-  O420  1  0.02906559  -0.00650997  0.37462340  1
  O2-  O421  1  0.47107203  -0.00368556  0.86962302  1
  O2-  O422  1  0.47041142  0.67264341  0.61563551  1
  O2-  O423  1  0.52914075  0.67088136  0.62534488  1
  O2-  O424  1  0.52787829  0.00143528  0.37229204  1
  O2-  O425  1  0.02713942  0.66657810  0.12649854  1
  O2-  O426  1  0.47551349  0.33423152  0.62488996  1
  O2-  O427  1  0.97585752  0.34041737  0.12489373  1
  O2-  O428  1  0.46245735  0.33727428  0.36923574  1
  O2-  O429  1  0.97210422  0.00085407  0.88396505  1
  O2-  O430  1  0.97395848  0.33679621  0.37298467  1
  O2-  O431  1  0.96908670  0.33480845  0.62406477  1
  O2-  O432  1  0.53752462  -0.00081760  0.12469945  1
  O2-  O433  1  0.02632810  0.32868587  0.87718036  1
  O2-  O434  1  0.96938641  0.00374627  0.37690230  1
  O2-  O435  1  0.97373381  0.65928644  0.62779234  1
  O2-  O436  1  0.52878866  0.66600353  0.87510706  1
  O2-  O437  1  0.03178729  0.00136263  0.87380068  1
  O2-  O438  1  0.53876190  0.33369302  0.37594560  1
  O2-  O439  1  0.46268473  -0.00076342  0.12642214  1
  O2-  O440  1  0.02501958  0.66861707  0.88002457  1
  O2-  O441  1  0.02873797  0.33762519  0.61735084  1
  O2-  O442  1  0.02966908  0.67052161  0.61970668  1
  O2-  O443  1  0.53114236  -0.00151504  0.87789710  1
