# generated using pymatgen
data_La7(Ru4O11)2
_symmetry_space_group_name_H-M   'P 1'
_cell_length_a   23.98958688
_cell_length_b   16.82927668
_cell_length_c   15.42611492
_cell_angle_alpha   89.99993875
_cell_angle_beta   90.00059552
_cell_angle_gamma   89.99926318
_symmetry_Int_Tables_number   1
_chemical_formula_structural   La7(Ru4O11)2
_chemical_formula_sum   'La84 Ru96 O264'
_cell_volume   6227.94518947
_cell_formula_units_Z   12
loop_
 _symmetry_equiv_pos_site_id
 _symmetry_equiv_pos_as_xyz
  1  'x, y, z'
loop_
 _atom_type_symbol
 _atom_type_oxidation_number
  La3+  3.0
  Ru4+  4.0
  O2-  -2.0
loop_
 _atom_site_type_symbol
 _atom_site_label
 _atom_site_symmetry_multiplicity
 _atom_site_fract_x
 _atom_site_fract_y
 _atom_site_fract_z
 _atom_site_occupancy
  La3+  La0  1  0.13679209  -0.00044015  0.12318526  1
  La3+  La1  1  0.13493677  -0.00063795  0.37615149  1
  La3+  La2  1  0.13702974  -0.00204592  0.62651219  1
  La3+  La3  1  0.13966488  -0.00135651  0.87393149  1
  La3+  La4  1  0.13909535  0.33451378  0.12369163  1
  La3+  La5  1  0.13757192  0.33512542  0.37452818  1
  La3+  La6  1  0.13830621  0.33500833  0.62537959  1
  La3+  La7  1  0.13979065  0.33380021  0.87574293  1
  La3+  La8  1  0.14062498  0.66807190  0.12549467  1
  La3+  La9  1  0.14068266  0.66652783  0.37644960  1
  La3+  La10  1  0.14076759  0.66783661  0.62353014  1
  La3+  La11  1  0.13842561  0.66914717  0.87565989  1
  La3+  La12  1  0.63759187  -0.00072185  0.12492537  1
  La3+  La13  1  0.64028181  -0.00156448  0.37653371  1
  La3+  La14  1  0.63976476  -0.00160119  0.62431430  1
  La3+  La15  1  0.63919945  -0.00123896  0.87425670  1
  La3+  La16  1  0.63876721  0.33384506  0.12752751  1
  La3+  La17  1  0.63970043  0.33435829  0.37335673  1
  La3+  La18  1  0.63915425  0.33312751  0.62644666  1
  La3+  La19  1  0.63833090  0.33367021  0.87194730  1
  La3+  La20  1  0.64048677  0.66728555  0.12567640  1
  La3+  La21  1  0.64085371  0.66626866  0.37492965  1
  La3+  La22  1  0.63940208  0.66627034  0.62339536  1
  La3+  La23  1  0.63773361  0.66720325  0.87572489  1
  La3+  La24  1  0.36137975  0.00041729  0.12271838  1
  La3+  La25  1  0.36363583  -0.00062803  0.37422311  1
  La3+  La26  1  0.36174987  -0.00115469  0.62781025  1
  La3+  La27  1  0.36015272  -0.00037259  0.87493493  1
  La3+  La28  1  0.36097891  0.33441226  0.12428674  1
  La3+  La29  1  0.36309211  0.33444248  0.37534823  1
  La3+  La30  1  0.35946271  0.33482765  0.62666926  1
  La3+  La31  1  0.35832682  0.33295891  0.87627189  1
  La3+  La32  1  0.35934910  0.66736328  0.12493195  1
  La3+  La33  1  0.35957906  0.66537482  0.37770389  1
  La3+  La34  1  0.35994027  0.66835890  0.62355663  1
  La3+  La35  1  0.36065884  0.66703883  0.87468215  1
  La3+  La36  1  0.86158761  -0.00164103  0.12575677  1
  La3+  La37  1  0.85925344  -0.00241551  0.37592156  1
  La3+  La38  1  0.85934585  -0.00194604  0.62461438  1
  La3+  La39  1  0.86087205  -0.00098799  0.87307863  1
  La3+  La40  1  0.86076432  0.33493991  0.12880009  1
  La3+  La41  1  0.85694870  0.33407559  0.37487371  1
  La3+  La42  1  0.86152141  0.33284913  0.62672447  1
  La3+  La43  1  0.86201593  0.33172807  0.87213533  1
  La3+  La44  1  0.86013907  0.66740831  0.12536140  1
  La3+  La45  1  0.86076788  0.66737276  0.37649033  1
  La3+  La46  1  0.86132697  0.66651289  0.62248146  1
  La3+  La47  1  0.86173582  0.66773743  0.87592766  1
  La3+  La48  1  -0.00184910  0.16177750  0.37004467  1
  La3+  La49  1  -0.00004470  0.16835345  0.38897453  1
  La3+  La50  1  0.50075066  0.16858908  0.63477976  1
  La3+  La51  1  -0.00092147  0.49795860  0.11029996  1
  La3+  La52  1  -0.00175262  0.49430990  0.85757946  1
  La3+  La53  1  -0.00600012  0.49989558  0.87776865  1
  La3+  La54  1  0.00024425  0.16327950  0.88287734  1
  La3+  La55  1  0.00154768  0.83362125  0.86414188  1
  La3+  La56  1  0.50173182  0.83633872  0.63140279  1
  La3+  La57  1  0.50038536  0.83318990  0.13547623  1
  La3+  La58  1  0.00197231  0.16495574  0.61831980  1
  La3+  La59  1  0.49904163  0.16485718  0.86760502  1
  La3+  La60  1  0.00161189  0.50353695  0.13184000  1
  La3+  La61  1  0.50048085  0.50247610  0.11282838  1
  La3+  La62  1  0.49929907  0.83395038  0.38960226  1
  La3+  La63  1  0.49900951  0.83373871  0.88187969  1
  La3+  La64  1  0.00044905  0.83454704  0.13495450  1
  La3+  La65  1  0.50027485  0.49840264  0.61571597  1
  La3+  La66  1  0.49918670  0.83392070  0.11386234  1
  La3+  La67  1  0.50203916  0.50297196  0.12972023  1
  La3+  La68  1  0.50156607  0.83070836  0.36782177  1
  La3+  La69  1  -0.00101016  0.50176909  0.38509235  1
  La3+  La70  1  -0.00098040  0.49841152  0.36858927  1
  La3+  La71  1  -0.00012061  0.16525794  0.63544931  1
  La3+  La72  1  0.24974836  0.13571862  0.01589750  1
  La3+  La73  1  0.75007693  0.13266766  -0.04450868  1
  La3+  La74  1  0.74986801  0.53481023  -0.03151980  1
  La3+  La75  1  0.74997133  0.47037469  0.74593302  1
  La3+  La76  1  0.74987515  0.21596290  0.26308063  1
  La3+  La77  1  0.25002145  0.78914457  0.47936577  1
  La3+  La78  1  0.75005262  0.16639608  0.49265443  1
  La3+  La79  1  0.25008614  0.50437547  0.50612530  1
  La3+  La80  1  0.24965964  0.17788598  0.50556503  1
  La3+  La81  1  0.24996712  0.50246973  0.25803974  1
  La3+  La82  1  0.25007011  0.47057905  0.77442769  1
  La3+  La83  1  0.25020668  0.17448619  0.28221466  1
  Ru4+  Ru84  1  0.00164925  0.00170663  0.00307588  1
  Ru4+  Ru85  1  -0.00017308  -0.00245855  0.24577509  1
  Ru4+  Ru86  1  -0.00106659  -0.00906267  0.50242023  1
  Ru4+  Ru87  1  0.00096136  -0.00132853  0.74868679  1
  Ru4+  Ru88  1  0.00041316  0.33130637  0.00120774  1
  Ru4+  Ru89  1  0.00124221  0.33285704  0.24759225  1
  Ru4+  Ru90  1  0.00139898  0.33627793  0.50080637  1
  Ru4+  Ru91  1  -0.00046026  0.33324505  0.74701573  1
  Ru4+  Ru92  1  0.00014373  0.67180993  -0.00069061  1
  Ru4+  Ru93  1  -0.00044131  0.67093384  0.25184449  1
  Ru4+  Ru94  1  -0.00089735  0.66935019  0.49645141  1
  Ru4+  Ru95  1  0.00008020  0.66815643  0.75107483  1
  Ru4+  Ru96  1  0.49979561  0.00094052  0.00053659  1
  Ru4+  Ru97  1  0.50217659  0.00504699  0.25153847  1
  Ru4+  Ru98  1  0.50038965  0.00003867  0.50149787  1
  Ru4+  Ru99  1  0.50152926  -0.00120376  0.74684989  1
  Ru4+  Ru100  1  0.50317678  0.33064907  -0.00180202  1
  Ru4+  Ru101  1  0.50270507  0.32709945  0.25457614  1
  Ru4+  Ru102  1  0.50035603  0.33654829  0.49237043  1
  Ru4+  Ru103  1  0.50016919  0.33756461  0.75612362  1
  Ru4+  Ru104  1  0.49964880  0.66530860  0.00144662  1
  Ru4+  Ru105  1  0.49944478  0.66730635  0.25102753  1
  Ru4+  Ru106  1  0.49920106  0.66521448  0.49873362  1
  Ru4+  Ru107  1  0.50074745  0.66165129  0.74745467  1
  Ru4+  Ru108  1  0.11082517  0.16350546  0.00113368  1
  Ru4+  Ru109  1  0.11250371  0.16634945  0.24864419  1
  Ru4+  Ru110  1  0.11352155  0.17088300  0.50078980  1
  Ru4+  Ru111  1  0.11412156  0.16693277  0.74959996  1
  Ru4+  Ru112  1  0.11612155  0.49912972  0.00002512  1
  Ru4+  Ru113  1  0.11469751  0.49840852  0.25061000  1
  Ru4+  Ru114  1  0.11156167  0.50100866  0.49932330  1
  Ru4+  Ru115  1  0.11178696  0.49850910  0.74993298  1
  Ru4+  Ru116  1  0.11310376  0.83082923  -0.00005419  1
  Ru4+  Ru117  1  0.11238770  0.83329827  0.24935487  1
  Ru4+  Ru118  1  0.10906420  0.83390404  0.49936209  1
  Ru4+  Ru119  1  0.11462031  0.83487018  0.74996670  1
  Ru4+  Ru120  1  0.60953328  0.16668774  -0.00112520  1
  Ru4+  Ru121  1  0.60956039  0.16982244  0.25044940  1
  Ru4+  Ru122  1  0.61314803  0.16646678  0.49932782  1
  Ru4+  Ru123  1  0.61372951  0.16710891  0.75009838  1
  Ru4+  Ru124  1  0.61126283  0.50124193  -0.00061052  1
  Ru4+  Ru125  1  0.61352238  0.49719286  0.25152732  1
  Ru4+  Ru126  1  0.61336365  0.50113518  0.50011790  1
  Ru4+  Ru127  1  0.61010485  0.49824494  0.74905921  1
  Ru4+  Ru128  1  0.61312841  0.83476072  -0.00079630  1
  Ru4+  Ru129  1  0.61294997  0.83298468  0.24967763  1
  Ru4+  Ru130  1  0.61426816  0.83629334  0.50039343  1
  Ru4+  Ru131  1  0.61350967  0.83586194  0.74994286  1
  Ru4+  Ru132  1  0.38849360  0.16447448  -0.00082051  1
  Ru4+  Ru133  1  0.39268650  0.16712676  0.25009566  1
  Ru4+  Ru134  1  0.38979938  0.16566997  0.50006214  1
  Ru4+  Ru135  1  0.38714757  0.16769697  0.74957644  1
  Ru4+  Ru136  1  0.38655849  0.49837651  0.00058854  1
  Ru4+  Ru137  1  0.38753027  0.50066997  0.25088362  1
  Ru4+  Ru138  1  0.38787142  0.50196657  0.49891166  1
  Ru4+  Ru139  1  0.39012630  0.49985136  0.75126589  1
  Ru4+  Ru140  1  0.38731051  0.83198095  0.00034840  1
  Ru4+  Ru141  1  0.38500289  0.82980768  0.24992272  1
  Ru4+  Ru142  1  0.38756723  0.83364838  0.50037128  1
  Ru4+  Ru143  1  0.38488787  0.83366239  0.75056663  1
  Ru4+  Ru144  1  0.88684686  0.16355240  0.00066864  1
  Ru4+  Ru145  1  0.88689236  0.16540057  0.24874949  1
  Ru4+  Ru146  1  0.88671031  0.16495884  0.50085017  1
  Ru4+  Ru147  1  0.88562314  0.16672481  0.75040161  1
  Ru4+  Ru148  1  0.88668132  0.50065868  -0.00026670  1
  Ru4+  Ru149  1  0.88325205  0.49859154  0.25128441  1
  Ru4+  Ru150  1  0.88610658  0.50158426  0.49981009  1
  Ru4+  Ru151  1  0.88858550  0.49939624  0.74864285  1
  Ru4+  Ru152  1  0.88763390  0.83448018  -0.00024867  1
  Ru4+  Ru153  1  0.88605295  0.83393832  0.25008256  1
  Ru4+  Ru154  1  0.88671165  0.83163901  0.49907998  1
  Ru4+  Ru155  1  0.88565833  0.83378923  0.74948263  1
  Ru4+  Ru156  1  0.24998324  0.60774593  0.74195583  1
  Ru4+  Ru157  1  0.75002287  0.40170111  0.00986736  1
  Ru4+  Ru158  1  0.24969859  0.90989469  0.25169573  1
  Ru4+  Ru159  1  0.25017981  0.91865895  0.50258902  1
  Ru4+  Ru160  1  0.75002962  0.75551714  -0.00092844  1
  Ru4+  Ru161  1  0.75000372  0.06512814  0.24426068  1
  Ru4+  Ru162  1  0.25003119  0.27350282  -0.00614173  1
  Ru4+  Ru163  1  0.25003288  0.08956233  0.75668090  1
  Ru4+  Ru164  1  0.74979160  0.58237765  0.25201757  1
  Ru4+  Ru165  1  0.25042547  0.30414240  0.48993365  1
  Ru4+  Ru166  1  0.25012111  0.90744753  -0.00678579  1
  Ru4+  Ru167  1  0.74995460  0.26731992  0.00762924  1
  Ru4+  Ru168  1  0.75017263  0.08463176  0.74246213  1
  Ru4+  Ru169  1  0.25022660  0.58290796  -0.00396746  1
  Ru4+  Ru170  1  0.75000318  0.90927514  -0.00105189  1
  Ru4+  Ru171  1  0.24997700  0.04709229  0.26263787  1
  Ru4+  Ru172  1  0.24989977  0.05454780  0.49252029  1
  Ru4+  Ru173  1  0.25028437  0.24400851  0.75375833  1
  Ru4+  Ru174  1  0.75008358  0.60759037  0.75627666  1
  Ru4+  Ru175  1  0.24976150  0.74676002  0.24995980  1
  Ru4+  Ru176  1  0.25001135  0.29811539  0.24376904  1
  Ru4+  Ru177  1  0.74973693  0.75693259  0.75269163  1
  Ru4+  Ru178  1  0.74992661  0.75783959  0.50389437  1
  Ru4+  Ru179  1  0.74999240  0.42586653  0.49388821  1
  O2-  O180  1  0.16618168  0.08010803  -0.00083519  1
  O2-  O181  1  0.16565507  0.07914613  0.25093387  1
  O2-  O182  1  0.16567150  0.07820297  0.49974637  1
  O2-  O183  1  0.16847675  0.08207185  0.75020741  1
  O2-  O184  1  0.16610360  0.41468583  -0.00085366  1
  O2-  O185  1  0.16862555  0.41258143  0.25096090  1
  O2-  O186  1  0.16747958  0.41220699  0.49914355  1
  O2-  O187  1  0.16509326  0.41248673  0.74872450  1
  O2-  O188  1  0.16768373  0.74814585  0.00016933  1
  O2-  O189  1  0.16681917  0.74798507  0.25084296  1
  O2-  O190  1  0.16421644  0.74637133  0.50047083  1
  O2-  O191  1  0.16605756  0.74791293  0.75044445  1
  O2-  O192  1  0.66642260  0.08018388  0.00134258  1
  O2-  O193  1  0.66641030  0.08040148  0.24898344  1
  O2-  O194  1  0.66731101  0.08129492  0.50026488  1
  O2-  O195  1  0.66746187  0.08186594  0.75058201  1
  O2-  O196  1  0.66652269  0.41364534  0.00042141  1
  O2-  O197  1  0.66635256  0.41632461  0.24910967  1
  O2-  O198  1  0.66742681  0.41350381  0.50044286  1
  O2-  O199  1  0.66840320  0.41384536  0.75018207  1
  O2-  O200  1  0.66794621  0.74763202  -0.00070140  1
  O2-  O201  1  0.66665009  0.74727810  0.24940256  1
  O2-  O202  1  0.66664599  0.74672024  0.50039284  1
  O2-  O203  1  0.66705928  0.74720240  0.75024963  1
  O2-  O204  1  0.33356922  0.25293176  0.00129378  1
  O2-  O205  1  0.33363781  0.25376933  0.25022479  1
  O2-  O206  1  0.33264096  0.25280662  0.49859327  1
  O2-  O207  1  0.33155773  0.25118537  0.74988440  1
  O2-  O208  1  0.33254872  0.58651066  0.00065488  1
  O2-  O209  1  0.33414845  0.58550616  0.25030058  1
  O2-  O210  1  0.33311240  0.58453695  0.50024106  1
  O2-  O211  1  0.33195010  0.58570687  0.74971742  1
  O2-  O212  1  0.33302138  0.92022518  0.00000555  1
  O2-  O213  1  0.33269822  0.92024123  0.25116202  1
  O2-  O214  1  0.33408929  0.92087252  0.49944686  1
  O2-  O215  1  0.33494415  0.91771034  0.74955690  1
  O2-  O216  1  0.83251013  0.25388742  -0.00054047  1
  O2-  O217  1  0.83579458  0.25263757  0.24835129  1
  O2-  O218  1  0.83281331  0.25398436  0.50110965  1
  O2-  O219  1  0.83181669  0.25264193  0.74908508  1
  O2-  O220  1  0.83296810  0.58729210  -0.00092723  1
  O2-  O221  1  0.83270313  0.58591661  0.24967263  1
  O2-  O222  1  0.83312138  0.58488518  0.50149876  1
  O2-  O223  1  0.83360927  0.58708739  0.75116165  1
  O2-  O224  1  0.83226412  0.91836806  0.00076718  1
  O2-  O225  1  0.83199793  0.91857730  0.24804143  1
  O2-  O226  1  0.83322385  0.91824307  0.50151338  1
  O2-  O227  1  0.83346667  0.91862725  0.74995336  1
  O2-  O228  1  0.16706895  0.25374185  -0.00090540  1
  O2-  O229  1  0.16756510  0.25413652  0.25077116  1
  O2-  O230  1  0.16603033  0.25559743  0.49981777  1
  O2-  O231  1  0.16769953  0.25184891  0.74952430  1
  O2-  O232  1  0.16845130  0.58632335  -0.00027681  1
  O2-  O233  1  0.16661571  0.58675300  0.25102901  1
  O2-  O234  1  0.16583033  0.58539209  0.49980020  1
  O2-  O235  1  0.16762739  0.58742409  0.75013640  1
  O2-  O236  1  0.16669794  0.91939078  0.00004972  1
  O2-  O237  1  0.16772868  0.91936172  0.25082985  1
  O2-  O238  1  0.16619087  0.91979677  0.49932554  1
  O2-  O239  1  0.16707314  0.91736537  0.74934126  1
  O2-  O240  1  0.66797747  0.25236535  0.00097046  1
  O2-  O241  1  0.66356108  0.25328147  0.24893080  1
  O2-  O242  1  0.66772570  0.25251560  0.49972923  1
  O2-  O243  1  0.66742319  0.25215217  0.74997183  1
  O2-  O244  1  0.66626564  0.58689971  -0.00109843  1
  O2-  O245  1  0.66762634  0.58575955  0.24962491  1
  O2-  O246  1  0.66550224  0.58506005  0.50117504  1
  O2-  O247  1  0.66630257  0.58682134  0.75071782  1
  O2-  O248  1  0.66884488  0.91858501  0.00116001  1
  O2-  O249  1  0.66672128  0.91983131  0.24860818  1
  O2-  O250  1  0.66730921  0.91796561  0.49973491  1
  O2-  O251  1  0.66692513  0.91780419  0.75065976  1
  O2-  O252  1  0.33366287  0.07939093  -0.00027661  1
  O2-  O253  1  0.33428378  0.07914278  0.25051856  1
  O2-  O254  1  0.33507537  0.07914896  0.49969059  1
  O2-  O255  1  0.33233701  0.08126362  0.74947975  1
  O2-  O256  1  0.33435889  0.41478393  0.00074891  1
  O2-  O257  1  0.33109742  0.41256021  0.24914150  1
  O2-  O258  1  0.33282187  0.41380020  0.49896327  1
  O2-  O259  1  0.33277881  0.41443904  0.74916383  1
  O2-  O260  1  0.33350681  0.74724018  0.00032920  1
  O2-  O261  1  0.33209744  0.74753208  0.24967425  1
  O2-  O262  1  0.33520918  0.74612811  0.50018326  1
  O2-  O263  1  0.33141648  0.74809874  0.74967162  1
  O2-  O264  1  0.83348346  0.07994119  0.00090646  1
  O2-  O265  1  0.83264804  0.08052443  0.24877589  1
  O2-  O266  1  0.83334194  0.08049400  0.50070580  1
  O2-  O267  1  0.83176408  0.08217106  0.74996422  1
  O2-  O268  1  0.83293697  0.41307480  -0.00037808  1
  O2-  O269  1  0.83288996  0.41622780  0.24937144  1
  O2-  O270  1  0.83210101  0.41361414  0.50179722  1
  O2-  O271  1  0.83177953  0.41214082  0.75034627  1
  O2-  O272  1  0.83173293  0.74714291  -0.00089179  1
  O2-  O273  1  0.83408276  0.74846622  0.24888547  1
  O2-  O274  1  0.83307298  0.74833268  0.50079038  1
  O2-  O275  1  0.83296518  0.74751308  0.75029655  1
  O2-  O276  1  0.04663279  0.09625753  0.48722986  1
  O2-  O277  1  0.54822369  0.23351539  0.26324792  1
  O2-  O278  1  0.54435655  0.43321095  0.48765649  1
  O2-  O279  1  0.95450115  0.22962510  0.97486583  1
  O2-  O280  1  0.54742411  0.76411497  0.51507042  1
  O2-  O281  1  0.54574515  0.56919982  0.73400610  1
  O2-  O282  1  0.45400636  0.09629092  0.23475164  1
  O2-  O283  1  0.04480085  0.89900587  0.98641157  1
  O2-  O284  1  0.95746141  0.22523815  0.22131869  1
  O2-  O285  1  0.54329478  0.10543123  0.52667418  1
  O2-  O286  1  0.04859862  0.23710147  0.99043827  1
  O2-  O287  1  0.45174867  0.09274521  0.48361648  1
  O2-  O288  1  0.46289307  0.22126500  0.50527637  1
  O2-  O289  1  0.45405534  0.09738032  0.73643720  1
  O2-  O290  1  0.04728334  0.23529290  0.01085114  1
  O2-  O291  1  0.95051968  0.56802243  0.26632935  1
  O2-  O292  1  0.95629577  0.90352787  0.74695189  1
  O2-  O293  1  0.44828907  0.75213138  0.52124102  1
  O2-  O294  1  0.04736939  0.56817311  0.76052685  1
  O2-  O295  1  0.04853358  0.90390435  0.48266744  1
  O2-  O296  1  0.47476423  0.46142431  0.76522342  1
  O2-  O297  1  0.54534378  0.76693864  0.98642058  1
  O2-  O298  1  0.44687674  0.75329333  0.70176807  1
  O2-  O299  1  0.44702054  0.91444413  0.28304598  1
  O2-  O300  1  0.95706793  0.89526267  0.52786415  1
  O2-  O301  1  0.04687032  0.09447172  0.26194601  1
  O2-  O302  1  0.04780338  0.57060149  0.24818077  1
  O2-  O303  1  0.03995277  0.56070476  0.97024013  1
  O2-  O304  1  0.95424184  0.76602838  0.98589797  1
  O2-  O305  1  0.95093259  0.42705158  0.21342718  1
  O2-  O306  1  0.54519324  0.43109423  0.01376523  1
  O2-  O307  1  0.54547549  0.22828634  0.47128226  1
  O2-  O308  1  0.95421169  0.23571073  0.51662720  1
  O2-  O309  1  0.54475166  0.56732181  0.98619477  1
  O2-  O310  1  0.52753473  0.21702619  1.00102956  1
  O2-  O311  1  0.54476180  0.23406239  0.76201200  1
  O2-  O312  1  0.95215562  0.89735582  0.75239846  1
  O2-  O313  1  0.04230183  0.76309611  0.49961483  1
  O2-  O314  1  0.04647447  0.56948004  0.25869126  1
  O2-  O315  1  0.04716681  0.23658825  0.73494031  1
  O2-  O316  1  0.04310690  0.23081035  0.27780747  1
  O2-  O317  1  0.04844085  0.76599041  0.49940145  1
  O2-  O318  1  0.03900820  0.10823956  0.77938848  1
  O2-  O319  1  0.46075801  0.44142660  0.22067185  1
  O2-  O320  1  0.94718074  0.24546149  0.77143311  1
  O2-  O321  1  0.04717415  0.42620428  0.98663699  1
  O2-  O322  1  0.54746376  0.09571042  0.98484217  1
  O2-  O323  1  0.45136615  0.23674966  0.26407272  1
  O2-  O324  1  0.42893605  0.39004494  0.30269207  1
  O2-  O325  1  0.43673207  0.73560341  0.21699064  1
  O2-  O326  1  0.93193207  0.73923720  0.47035865  1
  O2-  O327  1  0.42491515  0.37963314  0.81484800  1
  O2-  O328  1  0.07225002  0.60984136  0.05539862  1
  O2-  O329  1  0.45072291  0.75702921  0.71195050  1
  O2-  O330  1  0.93736000  0.92856456  0.28100273  1
  O2-  O331  1  0.94373262  0.25261092  0.77708077  1
  O2-  O332  1  0.57077963  0.06636458  0.45980470  1
  O2-  O333  1  0.06417902  0.40442429  0.21746407  1
  O2-  O334  1  0.56736874  0.40552535  0.71995288  1
  O2-  O335  1  0.93634992  0.40348685  0.71762044  1
  O2-  O336  1  0.93515855  0.07012931  0.30590027  1
  O2-  O337  1  0.56348226  0.59797240  0.30690081  1
  O2-  O338  1  0.44205130  0.75076463  0.52439340  1
  O2-  O339  1  0.06548680  0.73859424  0.97057514  1
  O2-  O340  1  0.43254295  0.93489737  0.19372875  1
  O2-  O341  1  0.56642583  0.59332534  0.19757432  1
  O2-  O342  1  0.93630861  0.59134737  0.46993589  1
  O2-  O343  1  0.92800121  0.26747514  0.04154272  1
  O2-  O344  1  0.93629214  0.40278449  0.46860960  1
  O2-  O345  1  0.93183966  0.93712598  0.45752127  1
  O2-  O346  1  0.42186983  0.27809299  0.53467396  1
  O2-  O347  1  0.56489658  0.92793209  0.72246013  1
  O2-  O348  1  0.43449816  0.07162910  0.97234593  1
  O2-  O349  1  0.06439913  0.92769062  0.22215373  1
  O2-  O350  1  0.93587925  0.06904759  0.19452554  1
  O2-  O351  1  0.07078795  0.27119244  0.20081888  1
  O2-  O352  1  0.93407301  0.07152175  0.77743983  1
  O2-  O353  1  0.93531629  0.40250833  0.96610723  1
  O2-  O354  1  0.93479397  0.59584915  0.02804567  1
  O2-  O355  1  0.56505877  0.92831902  0.97136299  1
  O2-  O356  1  0.06132119  0.07480288  0.46561167  1
  O2-  O357  1  0.06601043  0.92750955  0.77983175  1
  O2-  O358  1  0.93208468  0.26812238  0.29473139  1
  O2-  O359  1  0.42558128  0.73581447  0.81993021  1
  O2-  O360  1  0.56440181  0.92705564  0.52844798  1
  O2-  O361  1  0.56520125  0.40578381  0.27745883  1
  O2-  O362  1  0.93078965  0.39710706  0.32675842  1
  O2-  O363  1  0.94194965  0.41807445  0.20601759  1
  O2-  O364  1  0.43339513  0.59360758  0.77782856  1
  O2-  O365  1  0.44687660  0.91438001  0.28420461  1
  O2-  O366  1  0.06588233  0.07123457  0.02833454  1
  O2-  O367  1  0.43718311  0.59652165  0.46792956  1
  O2-  O368  1  0.57181503  0.26712970  0.53992896  1
  O2-  O369  1  0.42646674  0.40297565  0.68899418  1
  O2-  O370  1  0.58127586  0.28431561  0.96182489  1
  O2-  O371  1  0.07301554  0.06415731  0.70328969  1
  O2-  O372  1  0.25008356  -0.00998197  0.16196128  1
  O2-  O373  1  0.24998977  0.00268072  0.84297896  1
  O2-  O374  1  0.75022454  0.00294163  0.65911706  1
  O2-  O375  1  0.75001297  0.00174319  0.42159437  1
  O2-  O376  1  0.25019550  0.00150463  0.06901179  1
  O2-  O377  1  0.24965935  0.33176824  0.84230197  1
  O2-  O378  1  0.74999619  -0.00068773  0.82977509  1
  O2-  O379  1  0.75016010  0.00001981  0.92107323  1
  O2-  O380  1  0.24975333  0.33756957  0.60304284  1
  O2-  O381  1  0.74997426  0.67016751  0.65183247  1
  O2-  O382  1  0.74989168  0.66526585  0.42045428  1
  O2-  O383  1  0.24994095  0.66822107  0.40143149  1
  O2-  O384  1  0.25006377  0.66731023  0.15726861  1
  O2-  O385  1  0.25000741  -0.00393834  0.59400055  1
  O2-  O386  1  0.74991455  -0.00661051  0.33235129  1
  O2-  O387  1  0.25011621  -0.00543284  0.38997570  1
  O2-  O388  1  0.25009326  -0.00191796  0.68397407  1
  O2-  O389  1  0.75018889  0.33379364  0.89862728  1
  O2-  O390  1  0.74992185  0.33317155  0.34975622  1
  O2-  O391  1  0.75005792  0.66840261  0.09127838  1
  O2-  O392  1  0.74994686  0.33135479  0.14954729  1
  O2-  O393  1  0.25003757  0.66450925  0.59882910  1
  O2-  O394  1  0.74984336  0.66880418  0.32916412  1
  O2-  O395  1  0.25018951  0.33411666  0.09668640  1
  O2-  O396  1  0.25008298  0.17189297  0.88273571  1
  O2-  O397  1  0.25000720  0.83244814  0.07978958  1
  O2-  O398  1  0.74987024  0.82849414  0.58850486  1
  O2-  O399  1  0.74995508  0.83573229  0.41680850  1
  O2-  O400  1  0.74997039  0.16526251  0.61879568  1
  O2-  O401  1  0.24983610  0.50147431  0.14014574  1
  O2-  O402  1  0.75001859  0.82846612  0.84071629  1
  O2-  O403  1  0.25003999  0.84085940  0.60637366  1
  O2-  O404  1  0.74996650  0.17444885  0.07761742  1
  O2-  O405  1  0.25018740  0.83208256  0.17030982  1
  O2-  O406  1  0.75000182  0.49671660  0.18261363  1
  O2-  O407  1  0.24997939  0.50412276  0.91269979  1
  O2-  O408  1  0.74994698  0.49568400  0.59126289  1
  O2-  O409  1  0.24997392  0.83713620  0.91264468  1
  O2-  O410  1  0.25001085  0.49816714  0.37653484  1
  O2-  O411  1  0.75000998  0.49585223  0.41222060  1
  O2-  O412  1  0.75019795  0.15144482  0.15713944  1
  O2-  O413  1  0.75000823  0.49550323  0.09471827  1
  O2-  O414  1  0.74999802  0.83155114  0.33352524  1
  O2-  O415  1  0.75012727  0.15524324  0.36896623  1
  O2-  O416  1  0.25006434  0.49381695  0.05990063  1
  O2-  O417  1  0.25005463  0.83397984  0.33957135  1
  O2-  O418  1  0.24994654  0.16820941  0.14557296  1
  O2-  O419  1  0.24990638  0.50387855  0.64156134  1
  O2-  O420  1  0.96974509  -0.00301734  0.88035793  1
  O2-  O421  1  0.52464565  0.33222044  0.37834321  1
  O2-  O422  1  0.02522064  0.66575418  0.87019557  1
  O2-  O423  1  0.97712458  0.66668183  0.37108878  1
  O2-  O424  1  0.52548546  -0.00427702  0.37170166  1
  O2-  O425  1  0.52925110  0.33437450  0.62638002  1
  O2-  O426  1  0.47328297  0.66364099  0.88650780  1
  O2-  O427  1  0.96911218  0.66680978  0.62690702  1
  O2-  O428  1  0.53033396  0.00175597  0.86900601  1
  O2-  O429  1  0.53251604  0.66799465  0.87406811  1
  O2-  O430  1  0.02383127  -0.00098143  0.12379550  1
  O2-  O431  1  0.97400693  0.67092567  0.12786464  1
  O2-  O432  1  0.02917717  0.00235827  0.87895607  1
  O2-  O433  1  0.52672968  0.33343705  0.12600076  1
  O2-  O434  1  0.52257511  0.00572313  0.62646804  1
  O2-  O435  1  0.52590592  0.67190149  0.11987139  1
  O2-  O436  1  0.97657878  0.33378871  0.12216787  1
  O2-  O437  1  0.03087254  0.66526519  0.62563401  1
  O2-  O438  1  0.52396848  0.33671412  0.87088959  1
  O2-  O439  1  0.02842421  0.33323504  0.62375025  1
  O2-  O440  1  0.02522452  -0.00148729  0.62126949  1
  O2-  O441  1  0.46934030  -0.00406366  0.87080514  1
  O2-  O442  1  0.52778521  -0.00193606  0.12488318  1
  O2-  O443  1  0.47380031  0.33017639  0.62394437  1
