# generated using pymatgen
data_La7(Ru4O11)2
_symmetry_space_group_name_H-M   'P 1'
_cell_length_a   23.98922344
_cell_length_b   16.82869668
_cell_length_c   15.42558349
_cell_angle_alpha   89.99966171
_cell_angle_beta   90.00055473
_cell_angle_gamma   90.00000097
_symmetry_Int_Tables_number   1
_chemical_formula_structural   La7(Ru4O11)2
_chemical_formula_sum   'La84 Ru96 O264'
_cell_volume   6227.42166137
_cell_formula_units_Z   12
loop_
 _symmetry_equiv_pos_site_id
 _symmetry_equiv_pos_as_xyz
  1  'x, y, z'
loop_
 _atom_type_symbol
 _atom_type_oxidation_number
  La3+  3.0
  Ru4+  4.0
  O2-  -2.0
loop_
 _atom_site_type_symbol
 _atom_site_label
 _atom_site_symmetry_multiplicity
 _atom_site_fract_x
 _atom_site_fract_y
 _atom_site_fract_z
 _atom_site_occupancy
  La3+  La0  1  0.13480151  -0.00065580  0.13217115  1
  La3+  La1  1  0.13560771  0.00013126  0.36638266  1
  La3+  La2  1  0.13993564  0.00066759  0.62538732  1
  La3+  La3  1  0.13874084  -0.00078079  0.87368136  1
  La3+  La4  1  0.13913006  0.33360095  0.12444792  1
  La3+  La5  1  0.13798984  0.33330152  0.37476778  1
  La3+  La6  1  0.13727608  0.33311506  0.62426067  1
  La3+  La7  1  0.13860740  0.33352993  0.87607634  1
  La3+  La8  1  0.13827698  0.66741907  0.12956920  1
  La3+  La9  1  0.14150930  0.66683610  0.37107128  1
  La3+  La10  1  0.13850419  0.66558426  0.62485006  1
  La3+  La11  1  0.13774129  0.66634073  0.87420449  1
  La3+  La12  1  0.63713381  -0.00040872  0.12446699  1
  La3+  La13  1  0.63916832  0.00043266  0.37713156  1
  La3+  La14  1  0.63949853  0.00119166  0.62373456  1
  La3+  La15  1  0.63898721  0.00030320  0.87437951  1
  La3+  La16  1  0.63720817  0.33475842  0.12389883  1
  La3+  La17  1  0.63882732  0.33505371  0.37383748  1
  La3+  La18  1  0.63802985  0.33430703  0.62395939  1
  La3+  La19  1  0.63910846  0.33497933  0.87612406  1
  La3+  La20  1  0.63821265  0.66519074  0.12631493  1
  La3+  La21  1  0.63869311  0.66646841  0.37520790  1
  La3+  La22  1  0.63890815  0.66712021  0.62557684  1
  La3+  La23  1  0.63976115  0.66435372  0.87507343  1
  La3+  La24  1  0.36054281  -0.00003423  0.12605781  1
  La3+  La25  1  0.35923774  0.00068723  0.37445569  1
  La3+  La26  1  0.36044396  0.00080160  0.62480583  1
  La3+  La27  1  0.36206553  0.00037186  0.87475144  1
  La3+  La28  1  0.35980149  0.33153911  0.12326737  1
  La3+  La29  1  0.36159717  0.33346248  0.37534278  1
  La3+  La30  1  0.36188222  0.33417281  0.62495390  1
  La3+  La31  1  0.36042043  0.33217799  0.87604396  1
  La3+  La32  1  0.36029254  0.66772166  0.12841872  1
  La3+  La33  1  0.35980410  0.66654874  0.37388721  1
  La3+  La34  1  0.36187133  0.66692825  0.62370994  1
  La3+  La35  1  0.36181819  0.66595392  0.87400337  1
  La3+  La36  1  0.86284384  -0.00040788  0.12441811  1
  La3+  La37  1  0.86242468  0.00133691  0.37864097  1
  La3+  La38  1  0.86141499  0.00049004  0.62263034  1
  La3+  La39  1  0.86078747  -0.00027447  0.87486928  1
  La3+  La40  1  0.86093583  0.33471110  0.12408849  1
  La3+  La41  1  0.86119162  0.33405370  0.37466625  1
  La3+  La42  1  0.86259373  0.33360971  0.62802587  1
  La3+  La43  1  0.86148356  0.33435532  0.87377652  1
  La3+  La44  1  0.86067032  0.66509795  0.12548219  1
  La3+  La45  1  0.86012738  0.66661847  0.37460554  1
  La3+  La46  1  0.86111840  0.66763870  0.62630702  1
  La3+  La47  1  0.86031997  0.66441972  0.87178041  1
  La3+  La48  1  0.50282459  0.83008603  0.12851975  1
  La3+  La49  1  0.00055024  0.83635084  0.38016871  1
  La3+  La50  1  0.50103495  0.16381944  0.88392785  1
  La3+  La51  1  0.50010144  0.49740384  0.13346592  1
  La3+  La52  1  0.50094533  0.16594138  0.63371028  1
  La3+  La53  1  0.00136657  0.83225464  0.13262416  1
  La3+  La54  1  0.49994892  0.16709685  0.36420320  1
  La3+  La55  1  0.00057540  0.16544324  0.13637610  1
  La3+  La56  1  0.50006134  0.83304637  0.61763458  1
  La3+  La57  1  0.00032431  0.16667695  0.86723467  1
  La3+  La58  1  0.00053015  0.83382454  0.36305693  1
  La3+  La59  1  -0.00081508  0.49837422  0.63506174  1
  La3+  La60  1  0.50183354  0.50241488  0.37389963  1
  La3+  La61  1  0.50155545  0.50111588  0.11708565  1
  La3+  La62  1  0.00016441  0.16646251  0.61429363  1
  La3+  La63  1  0.49922864  0.83257530  0.38836318  1
  La3+  La64  1  -0.00126507  0.50055921  0.86619046  1
  La3+  La65  1  0.00075559  0.16501182  0.38015965  1
  La3+  La66  1  0.50008746  0.83182986  0.36595444  1
  La3+  La67  1  0.50081426  0.49636191  0.86569365  1
  La3+  La68  1  0.00194014  0.50371131  0.38037229  1
  La3+  La69  1  0.00093350  0.83611090  0.63682373  1
  La3+  La70  1  0.50144152  0.49961304  0.88202842  1
  La3+  La71  1  0.49825500  0.83485045  0.86980443  1
  La3+  La72  1  0.24995337  0.53536917  0.73248498  1
  La3+  La73  1  0.74993284  0.13801517  0.76997018  1
  La3+  La74  1  0.25010443  0.86209293  0.49945120  1
  La3+  La75  1  0.74982319  0.47074972  0.46848959  1
  La3+  La76  1  0.74988364  0.16714473  0.25078336  1
  La3+  La77  1  0.25002026  0.50122830  0.47857156  1
  La3+  La78  1  0.24971253  0.46709938  0.00238377  1
  La3+  La79  1  0.74996877  0.86530301  -0.03134764  1
  La3+  La80  1  0.24983055  0.20801768  -0.00009902  1
  La3+  La81  1  0.24958010  0.87699354  0.00467714  1
  La3+  La82  1  0.24978725  0.13435325  0.47031587  1
  La3+  La83  1  0.74999574  0.49849585  -0.00424856  1
  Ru4+  Ru84  1  0.00028932  -0.00047915  0.00128239  1
  Ru4+  Ru85  1  0.00270531  -0.00135553  0.25397650  1
  Ru4+  Ru86  1  0.00372576  0.00310445  0.50066326  1
  Ru4+  Ru87  1  -0.00048204  -0.00267236  0.74902845  1
  Ru4+  Ru88  1  -0.00025000  0.33539370  -0.00071993  1
  Ru4+  Ru89  1  -0.00030861  0.33225707  0.25011495  1
  Ru4+  Ru90  1  0.00166083  0.33235796  0.50229392  1
  Ru4+  Ru91  1  0.00495104  0.33281578  0.74690317  1
  Ru4+  Ru92  1  0.00119196  0.66670968  0.00160735  1
  Ru4+  Ru93  1  0.00107286  0.66429891  0.24694869  1
  Ru4+  Ru94  1  -0.00109994  0.66957220  0.49950359  1
  Ru4+  Ru95  1  0.00245097  0.66358534  0.75132072  1
  Ru4+  Ru96  1  0.49861261  -0.00094924  -0.00084231  1
  Ru4+  Ru97  1  0.50203341  0.00265914  0.24855931  1
  Ru4+  Ru98  1  0.50002088  0.00095697  0.50036209  1
  Ru4+  Ru99  1  0.49972416  0.00050994  0.75048074  1
  Ru4+  Ru100  1  0.50122208  0.32838523  0.00285837  1
  Ru4+  Ru101  1  0.50237028  0.33084374  0.24862110  1
  Ru4+  Ru102  1  0.50059233  0.33403369  0.49855892  1
  Ru4+  Ru103  1  0.49977265  0.33525060  0.75122127  1
  Ru4+  Ru104  1  0.50103108  0.66972402  0.00195261  1
  Ru4+  Ru105  1  0.49768252  0.67058575  0.24935059  1
  Ru4+  Ru106  1  0.50254235  0.66063782  0.50069152  1
  Ru4+  Ru107  1  0.50034243  0.66657358  0.74774772  1
  Ru4+  Ru108  1  0.11170295  0.16599484  0.00027349  1
  Ru4+  Ru109  1  0.11282431  0.16524573  0.25102111  1
  Ru4+  Ru110  1  0.11138119  0.16598049  0.49936342  1
  Ru4+  Ru111  1  0.11447907  0.16679573  0.74988530  1
  Ru4+  Ru112  1  0.11039750  0.50002876  0.00083165  1
  Ru4+  Ru113  1  0.11297243  0.50332833  0.24922704  1
  Ru4+  Ru114  1  0.11524728  0.49595740  0.49884546  1
  Ru4+  Ru115  1  0.11214946  0.50161982  0.75048698  1
  Ru4+  Ru116  1  0.11191370  0.83454778  0.00128794  1
  Ru4+  Ru117  1  0.11266461  0.83397865  0.24930329  1
  Ru4+  Ru118  1  0.11258430  0.83261641  0.49899494  1
  Ru4+  Ru119  1  0.11180444  0.83469840  0.75097753  1
  Ru4+  Ru120  1  0.61190437  0.16741492  0.00038682  1
  Ru4+  Ru121  1  0.61038281  0.16778500  0.24983394  1
  Ru4+  Ru122  1  0.61463026  0.16253703  0.50047080  1
  Ru4+  Ru123  1  0.61171565  0.16541338  0.75041812  1
  Ru4+  Ru124  1  0.61512549  0.50345757  -0.00122359  1
  Ru4+  Ru125  1  0.61617085  0.49735251  0.25029961  1
  Ru4+  Ru126  1  0.61093651  0.49878230  0.50014080  1
  Ru4+  Ru127  1  0.61489192  0.49987964  0.75000152  1
  Ru4+  Ru128  1  0.61143886  0.83299205  -0.00020786  1
  Ru4+  Ru129  1  0.61083470  0.83343485  0.25040749  1
  Ru4+  Ru130  1  0.61330778  0.83209677  0.49948694  1
  Ru4+  Ru131  1  0.61301893  0.83238066  0.75076148  1
  Ru4+  Ru132  1  0.38621757  0.16259321  0.00012919  1
  Ru4+  Ru133  1  0.38646441  0.16517808  0.25060089  1
  Ru4+  Ru134  1  0.38852056  0.16592522  0.49979172  1
  Ru4+  Ru135  1  0.38638976  0.16489670  0.74971918  1
  Ru4+  Ru136  1  0.38564754  0.49984710  -0.00066776  1
  Ru4+  Ru137  1  0.38574778  0.50242197  0.24968043  1
  Ru4+  Ru138  1  0.38776175  0.49999800  0.49952953  1
  Ru4+  Ru139  1  0.38875146  0.49961584  0.74944215  1
  Ru4+  Ru140  1  0.38885773  0.83529872  -0.00049842  1
  Ru4+  Ru141  1  0.38436258  0.83117557  0.24970163  1
  Ru4+  Ru142  1  0.38631518  0.83698472  0.49982202  1
  Ru4+  Ru143  1  0.38764700  0.83381159  0.75005505  1
  Ru4+  Ru144  1  0.88769789  0.16697704  -0.00036445  1
  Ru4+  Ru145  1  0.88926309  0.16676019  0.25021402  1
  Ru4+  Ru146  1  0.88424237  0.16766289  0.50000641  1
  Ru4+  Ru147  1  0.88631886  0.16326468  0.74998684  1
  Ru4+  Ru148  1  0.88820494  0.49929815  -0.00023236  1
  Ru4+  Ru149  1  0.88720419  0.50051145  0.24980984  1
  Ru4+  Ru150  1  0.88763634  0.50114002  0.49973687  1
  Ru4+  Ru151  1  0.88351106  0.50294245  0.74981333  1
  Ru4+  Ru152  1  0.88959211  0.83294857  0.00039514  1
  Ru4+  Ru153  1  0.88737387  0.83208467  0.25002524  1
  Ru4+  Ru154  1  0.88362736  0.82996958  0.50043144  1
  Ru4+  Ru155  1  0.88504936  0.83695973  0.74972786  1
  Ru4+  Ru156  1  0.24989103  0.27235499  0.49874660  1
  Ru4+  Ru157  1  0.75002624  0.60638522  0.50467268  1
  Ru4+  Ru158  1  0.75009130  0.04024958  0.24971003  1
  Ru4+  Ru159  1  0.24986632  0.06294134  -0.00349882  1
  Ru4+  Ru160  1  0.75019092  0.25144148  -0.00021443  1
  Ru4+  Ru161  1  0.24997794  0.92041541  0.74682839  1
  Ru4+  Ru162  1  0.24991502  0.25154628  0.74525621  1
  Ru4+  Ru163  1  0.24981121  0.60036630  -0.00502817  1
  Ru4+  Ru164  1  0.25008477  0.74601046  0.74463596  1
  Ru4+  Ru165  1  0.75003593  0.27356083  0.74824306  1
  Ru4+  Ru166  1  0.25015141  0.24947439  0.25682874  1
  Ru4+  Ru167  1  0.74997370  0.91460943  0.25734171  1
  Ru4+  Ru168  1  0.25003174  0.72368806  0.49595981  1
  Ru4+  Ru169  1  0.74984028  0.24629007  0.50245972  1
  Ru4+  Ru170  1  0.24989739  0.73515086  -0.00478456  1
  Ru4+  Ru171  1  0.74985389  0.74755640  0.25458700  1
  Ru4+  Ru172  1  0.75004322  0.08405949  -0.00008764  1
  Ru4+  Ru173  1  0.25006848  0.39820141  0.74109194  1
  Ru4+  Ru174  1  0.25004512  0.42169593  0.25331302  1
  Ru4+  Ru175  1  0.74978307  0.29508031  0.24161869  1
  Ru4+  Ru176  1  0.74964776  0.75166968  0.74552643  1
  Ru4+  Ru177  1  0.75003868  0.91254495  0.74613716  1
  Ru4+  Ru178  1  0.74958419  0.91482426  0.50633405  1
  Ru4+  Ru179  1  0.75005045  0.72721418  -0.00078148  1
  O2-  O180  1  0.16782774  0.08048975  -0.00011077  1
  O2-  O181  1  0.16778324  0.08209045  0.24941200  1
  O2-  O182  1  0.16566185  0.08002776  0.49983298  1
  O2-  O183  1  0.16685005  0.08214867  0.75036303  1
  O2-  O184  1  0.16510425  0.41387838  -0.00015282  1
  O2-  O185  1  0.16699739  0.41412048  0.24995502  1
  O2-  O186  1  0.16727146  0.41357603  0.49870242  1
  O2-  O187  1  0.16677275  0.41240330  0.75008704  1
  O2-  O188  1  0.16682486  0.74690131  -0.00099113  1
  O2-  O189  1  0.16661199  0.74947965  0.25040981  1
  O2-  O190  1  0.16711770  0.74675954  0.50043928  1
  O2-  O191  1  0.16665008  0.74823287  0.74980265  1
  O2-  O192  1  0.66708134  0.08072387  0.00046267  1
  O2-  O193  1  0.66568589  0.07920306  0.25008073  1
  O2-  O194  1  0.66713762  0.08247777  0.49928243  1
  O2-  O195  1  0.66699244  0.07905806  0.74974265  1
  O2-  O196  1  0.66740286  0.41528033  0.00016377  1
  O2-  O197  1  0.66712981  0.41458600  0.24937778  1
  O2-  O198  1  0.66800454  0.41305542  0.50048820  1
  O2-  O199  1  0.66621089  0.41417868  0.74948046  1
  O2-  O200  1  0.66689778  0.74707463  0.00021376  1
  O2-  O201  1  0.66872670  0.74655905  0.24986234  1
  O2-  O202  1  0.66720300  0.74810256  0.50031949  1
  O2-  O203  1  0.66886152  0.74882648  0.74938179  1
  O2-  O204  1  0.33489651  0.25317376  -0.00003183  1
  O2-  O205  1  0.33317864  0.25300097  0.25084678  1
  O2-  O206  1  0.33301978  0.25393689  0.49910040  1
  O2-  O207  1  0.33314872  0.25266073  0.74976506  1
  O2-  O208  1  0.33300091  0.58670634  -0.00083358  1
  O2-  O209  1  0.33418943  0.58427020  0.24943570  1
  O2-  O210  1  0.33303085  0.58674492  0.50028421  1
  O2-  O211  1  0.33562498  0.58708889  0.75043278  1
  O2-  O212  1  0.33394135  0.92058802  0.00025573  1
  O2-  O213  1  0.33249801  0.91871391  0.24910438  1
  O2-  O214  1  0.33343180  0.91957157  0.49978314  1
  O2-  O215  1  0.33302890  0.91830526  0.74961177  1
  O2-  O216  1  0.83208657  0.25262837  0.00038538  1
  O2-  O217  1  0.83409267  0.25406772  0.24926662  1
  O2-  O218  1  0.83161162  0.25224748  0.49986329  1
  O2-  O219  1  0.83213154  0.25380436  0.75046368  1
  O2-  O220  1  0.83219565  0.58531259  0.00002306  1
  O2-  O221  1  0.83253988  0.58505214  0.24994911  1
  O2-  O222  1  0.83330825  0.58581622  0.50023751  1
  O2-  O223  1  0.83328934  0.58442318  0.75031573  1
  O2-  O224  1  0.83436785  0.92008973  0.00105277  1
  O2-  O225  1  0.83179545  0.91992931  0.24985919  1
  O2-  O226  1  0.83284929  0.91848260  0.49931277  1
  O2-  O227  1  0.83189176  0.91851257  0.75013100  1
  O2-  O228  1  0.16452118  0.25368193  0.00034184  1
  O2-  O229  1  0.16676101  0.25246871  0.24990894  1
  O2-  O230  1  0.16769741  0.25373374  0.49920074  1
  O2-  O231  1  0.16706011  0.25235692  0.75027535  1
  O2-  O232  1  0.16760022  0.58600094  -0.00126229  1
  O2-  O233  1  0.16744674  0.58361392  0.24976650  1
  O2-  O234  1  0.16831921  0.58606022  0.50029839  1
  O2-  O235  1  0.16470843  0.58703049  0.75015658  1
  O2-  O236  1  0.16497221  0.92016506  -0.00037790  1
  O2-  O237  1  0.16786034  0.91819799  0.25071300  1
  O2-  O238  1  0.16726999  0.91969068  0.49926932  1
  O2-  O239  1  0.16803593  0.91884029  0.74951859  1
  O2-  O240  1  0.66741491  0.25236669  -0.00015087  1
  O2-  O241  1  0.66760072  0.25384585  0.24990357  1
  O2-  O242  1  0.66962364  0.25197292  0.50016825  1
  O2-  O243  1  0.66706591  0.25366806  0.75011762  1
  O2-  O244  1  0.66893439  0.58531683  0.00052649  1
  O2-  O245  1  0.66772835  0.58579615  0.24961438  1
  O2-  O246  1  0.66726616  0.58634615  0.50029595  1
  O2-  O247  1  0.66625454  0.58522276  0.74994097  1
  O2-  O248  1  0.66619778  0.92074742  0.00144576  1
  O2-  O249  1  0.66813725  0.92013161  0.24988760  1
  O2-  O250  1  0.66726309  0.91879524  0.49971802  1
  O2-  O251  1  0.66742417  0.91885453  0.74981536  1
  O2-  O252  1  0.33235506  0.08111210  0.00027375  1
  O2-  O253  1  0.33392864  0.08160723  0.24899671  1
  O2-  O254  1  0.33414133  0.08040323  0.50076561  1
  O2-  O255  1  0.33393069  0.08211642  0.74977558  1
  O2-  O256  1  0.33310107  0.41412367  0.00025884  1
  O2-  O257  1  0.33163189  0.41370889  0.25072267  1
  O2-  O258  1  0.33309661  0.41302664  0.49897197  1
  O2-  O259  1  0.33226200  0.41264834  0.74981855  1
  O2-  O260  1  0.33322616  0.74693576  -0.00038336  1
  O2-  O261  1  0.33300327  0.74926978  0.25017643  1
  O2-  O262  1  0.33185266  0.74607105  0.50018507  1
  O2-  O263  1  0.33247179  0.74729924  0.74990516  1
  O2-  O264  1  0.83305781  0.08045567  0.00065996  1
  O2-  O265  1  0.83296501  0.07887825  0.24972001  1
  O2-  O266  1  0.83323683  0.08246666  0.49992517  1
  O2-  O267  1  0.83400573  0.07906519  0.75008143  1
  O2-  O268  1  0.83284983  0.41453491  0.00061224  1
  O2-  O269  1  0.83342907  0.41469685  0.24980562  1
  O2-  O270  1  0.83202735  0.41241340  0.49956700  1
  O2-  O271  1  0.83343519  0.41436349  0.75003164  1
  O2-  O272  1  0.83188599  0.74753058  -0.00047569  1
  O2-  O273  1  0.83154891  0.74759482  0.25016609  1
  O2-  O274  1  0.83262973  0.74882517  0.50013475  1
  O2-  O275  1  0.83240101  0.74801038  0.75055897  1
  O2-  O276  1  0.05326296  0.57879861  0.53244977  1
  O2-  O277  1  0.54517456  0.56820344  0.26804663  1
  O2-  O278  1  0.95232063  0.43184939  0.98492497  1
  O2-  O279  1  0.97515275  0.78959196  0.98264690  1
  O2-  O280  1  0.95304708  0.76408004  0.73062215  1
  O2-  O281  1  0.04806115  0.42650589  0.98372491  1
  O2-  O282  1  0.95646439  0.90128285  0.51839206  1
  O2-  O283  1  0.54026043  0.22497882  0.51564172  1
  O2-  O284  1  0.95801085  0.44053162  0.46996146  1
  O2-  O285  1  0.46432020  0.44684625  0.99159390  1
  O2-  O286  1  0.95375044  0.23565949  0.76876684  1
  O2-  O287  1  0.04087502  0.10900120  0.24090427  1
  O2-  O288  1  0.95281546  0.09724173  0.48464226  1
  O2-  O289  1  0.45298968  0.23958203  0.98061667  1
  O2-  O290  1  0.95513306  0.23355578  0.72958293  1
  O2-  O291  1  0.54567045  0.90178457  0.98656522  1
  O2-  O292  1  0.45000242  0.76460953  0.76165258  1
  O2-  O293  1  0.95183601  0.90217542  0.23731379  1
  O2-  O294  1  0.04628586  0.09323166  0.26267784  1
  O2-  O295  1  0.53790119  0.21829111  0.50393824  1
  O2-  O296  1  0.95393364  0.89864774  0.47928837  1
  O2-  O297  1  0.04963113  0.90505171  0.26602960  1
  O2-  O298  1  0.03085180  0.55233673  0.00422702  1
  O2-  O299  1  0.05773896  0.91605134  0.77525257  1
  O2-  O300  1  0.04601144  0.43103058  0.76486606  1
  O2-  O301  1  0.04462270  0.23502472  0.98556283  1
  O2-  O302  1  0.54518521  0.56709363  0.22887204  1
  O2-  O303  1  0.54875420  0.23169506  0.01323619  1
  O2-  O304  1  0.95439009  0.56749350  0.23573693  1
  O2-  O305  1  0.95582031  0.76619168  0.76944605  1
  O2-  O306  1  0.55113629  0.43362429  0.01384631  1
  O2-  O307  1  0.46019406  0.89303345  0.22214177  1
  O2-  O308  1  0.45438218  0.09746197  0.73676767  1
  O2-  O309  1  0.95441290  0.90623167  0.01496954  1
  O2-  O310  1  0.45487779  0.23586043  0.73767349  1
  O2-  O311  1  0.53465584  0.78345922  0.74667605  1
  O2-  O312  1  0.54506743  0.56807297  0.76249624  1
  O2-  O313  1  0.04142569  0.89088089  0.24578133  1
  O2-  O314  1  0.46048215  0.44065182  0.27843525  1
  O2-  O315  1  0.04710882  0.43135248  0.51385825  1
  O2-  O316  1  0.45337286  0.23491751  0.01946971  1
  O2-  O317  1  0.54574026  0.90566368  0.76420002  1
  O2-  O318  1  0.94338537  0.74990876  0.54417806  1
  O2-  O319  1  0.45283752  0.76399863  0.51445861  1
  O2-  O320  1  0.44992837  0.23586962  0.48196142  1
  O2-  O321  1  0.44427527  0.58085445  0.95620590  1
  O2-  O322  1  0.46284718  0.44926651  0.01068250  1
  O2-  O323  1  0.95038473  0.43136057  0.73600443  1
  O2-  O324  1  0.56428687  0.06990223  0.78382065  1
  O2-  O325  1  0.06562926  0.59317359  0.22225872  1
  O2-  O326  1  0.93668204  0.06848702  0.28219821  1
  O2-  O327  1  0.56566915  0.59389239  0.97024493  1
  O2-  O328  1  0.42952667  0.60807955  0.07377849  1
  O2-  O329  1  0.06423246  0.26129797  0.52756418  1
  O2-  O330  1  0.06659701  0.60308529  0.44675072  1
  O2-  O331  1  0.93633736  0.59732375  0.71727362  1
  O2-  O332  1  0.42749020  0.93658581  0.29368753  1
  O2-  O333  1  0.56384086  0.73887157  0.46579004  1
  O2-  O334  1  0.05329438  0.57896695  0.53263845  1
  O2-  O335  1  0.06404144  0.93142879  0.44582885  1
  O2-  O336  1  0.43453328  0.92648087  0.97187843  1
  O2-  O337  1  0.56344027  0.59496418  0.46678131  1
  O2-  O338  1  0.93000560  0.39099568  0.54977089  1
  O2-  O339  1  0.42637745  0.38439445  0.92749044  1
  O2-  O340  1  0.93028618  0.72786746  0.06645518  1
  O2-  O341  1  0.45064974  0.57469029  0.96238982  1
  O2-  O342  1  0.43687316  0.73570271  0.21743393  1
  O2-  O343  1  0.05166664  0.91526912  0.77206958  1
  O2-  O344  1  0.06551246  0.92633685  0.54879325  1
  O2-  O345  1  0.56481278  0.26138846  0.22331067  1
  O2-  O346  1  0.56457469  0.40708538  0.52920551  1
  O2-  O347  1  0.56259223  0.40525719  0.02957904  1
  O2-  O348  1  0.06410569  0.07048151  0.80047447  1
  O2-  O349  1  0.06462644  0.73959386  0.22241492  1
  O2-  O350  1  0.43525157  0.07326443  0.97183656  1
  O2-  O351  1  0.93851355  0.07147464  0.46858888  1
  O2-  O352  1  0.43753254  0.73964066  0.53086214  1
  O2-  O353  1  0.92521047  0.71410369  0.93672121  1
  O2-  O354  1  0.93559700  0.93207048  0.71731493  1
  O2-  O355  1  0.95290520  0.76141059  0.54175794  1
  O2-  O356  1  0.06495045  0.26176845  0.72274036  1
  O2-  O357  1  0.06808574  0.93031628  0.22021041  1
  O2-  O358  1  0.56615076  0.07167267  0.52924023  1
  O2-  O359  1  0.43443491  0.40521986  0.72208364  1
  O2-  O360  1  0.06387771  0.26413816  0.28326983  1
  O2-  O361  1  0.07844649  0.61461634  0.03584865  1
  O2-  O362  1  0.06307120  0.06852725  0.96665977  1
  O2-  O363  1  0.06556286  0.07355566  0.70482227  1
  O2-  O364  1  0.93615705  0.26445697  0.96773790  1
  O2-  O365  1  0.58257802  0.28436647  0.45127788  1
  O2-  O366  1  0.93870210  0.40437792  0.71747372  1
  O2-  O367  1  0.06860721  0.07006334  0.22025739  1
  O2-  O368  1  0.58097048  0.71666764  0.78884798  1
  O2-  O369  1  0.92814545  0.73232688  0.43386211  1
  O2-  O370  1  0.42949243  0.39099998  0.20244532  1
  O2-  O371  1  0.42648141  0.38450097  0.07018235  1
  O2-  O372  1  0.25007647  -0.00127794  0.57874262  1
  O2-  O373  1  0.25021368  0.66814297  0.84295586  1
  O2-  O374  1  0.24994476  0.33354847  0.92713219  1
  O2-  O375  1  0.75009026  0.00060863  0.90721403  1
  O2-  O376  1  0.74985104  0.66750430  0.40366737  1
  O2-  O377  1  0.24999461  0.33425248  0.17090575  1
  O2-  O378  1  0.25014735  0.66697787  0.10019643  1
  O2-  O379  1  0.75001583  -0.00255471  0.40494994  1
  O2-  O380  1  0.75017369  0.33123524  0.90637293  1
  O2-  O381  1  0.25009154  -0.00028155  0.33083165  1
  O2-  O382  1  0.25022631  0.66758131  0.65556331  1
  O2-  O383  1  0.75003173  0.66899349  0.65874255  1
  O2-  O384  1  0.24997693  0.32900188  0.83493332  1
  O2-  O385  1  0.25020626  0.33491218  0.59659943  1
  O2-  O386  1  0.24990650  -0.00108451  0.41996956  1
  O2-  O387  1  0.75031568  0.33672891  0.35191056  1
  O2-  O388  1  0.24999823  -0.00192215  0.84334499  1
  O2-  O389  1  0.25019463  0.00264777  0.66978825  1
  O2-  O390  1  0.75007778  -0.00333945  0.59313683  1
  O2-  O391  1  0.75023359  0.33236297  0.09394521  1
  O2-  O392  1  0.25012275  0.66909264  0.35042541  1
  O2-  O393  1  0.24996378  0.33361093  0.07712626  1
  O2-  O394  1  0.74998673  0.66423429  0.09635910  1
  O2-  O395  1  0.25023919  -0.00199093  0.09483890  1
  O2-  O396  1  0.25009879  0.49655151  0.33592373  1
  O2-  O397  1  0.74994936  0.17313821  0.63646730  1
  O2-  O398  1  0.75002438  0.83227376  0.18038737  1
  O2-  O399  1  0.25005083  0.15916984  0.10899040  1
  O2-  O400  1  0.25004603  0.15717236  0.89239273  1
  O2-  O401  1  0.74995126  0.83217660  0.83632545  1
  O2-  O402  1  0.24997945  0.16118396  0.19020430  1
  O2-  O403  1  0.25007987  0.16980511  0.33763499  1
  O2-  O404  1  0.25002399  0.17012532  0.59555971  1
  O2-  O405  1  0.74997464  0.49954838  0.68033821  1
  O2-  O406  1  0.74999630  0.16578999  0.09169843  1
  O2-  O407  1  0.24999381  0.83396059  0.18965221  1
  O2-  O408  1  0.24999614  0.83340423  0.81389182  1
  O2-  O409  1  0.25000902  0.16160384  0.81138928  1
  O2-  O410  1  0.24999176  0.49767058  0.86352408  1
  O2-  O411  1  0.74995901  0.16742224  0.91153412  1
  O2-  O412  1  0.75004948  0.50391122  0.59647092  1
  O2-  O413  1  0.25000253  0.16206590  0.67921290  1
  O2-  O414  1  0.25002987  0.82521970  0.10981480  1
  O2-  O415  1  0.75004306  0.82972231  0.09423987  1
  O2-  O416  1  0.25017606  0.82245224  0.89661270  1
  O2-  O417  1  0.74984322  0.50062319  0.84505598  1
  O2-  O418  1  0.74995145  0.83688725  0.58821888  1
  O2-  O419  1  0.25000536  0.49705465  0.60642270  1
  O2-  O420  1  0.53730007  -0.00041084  0.37453282  1
  O2-  O421  1  0.52791023  -0.00007971  0.12482578  1
  O2-  O422  1  0.46535467  0.00401560  0.38131593  1
  O2-  O423  1  0.53279436  -0.00311334  0.62839304  1
  O2-  O424  1  0.46815622  0.67133368  0.86973906  1
  O2-  O425  1  0.52828312  0.66657580  0.87880717  1
  O2-  O426  1  0.02344547  0.00133957  0.62416394  1
  O2-  O427  1  0.02136142  0.67152287  0.12304068  1
  O2-  O428  1  0.52834815  0.33311236  0.87246923  1
  O2-  O429  1  0.52440583  0.33558041  0.12844136  1
  O2-  O430  1  0.02698738  0.67122470  0.63141876  1
  O2-  O431  1  0.02790205  0.66546659  0.87485457  1
  O2-  O432  1  0.97542550  0.66202495  0.36870662  1
  O2-  O433  1  0.52797154  0.66802547  0.12398754  1
  O2-  O434  1  0.52808802  0.66746009  0.62544478  1
  O2-  O435  1  0.03271544  0.00003850  0.11384648  1
  O2-  O436  1  0.52455015  0.33688198  0.37040841  1
  O2-  O437  1  0.47076058  0.33128989  0.62067138  1
  O2-  O438  1  0.02509100  0.33734981  0.62559205  1
  O2-  O439  1  0.47543671  -0.00060228  0.86847517  1
  O2-  O440  1  0.52912576  0.33111068  0.63038804  1
  O2-  O441  1  0.46489275  -0.00191700  0.62266469  1
  O2-  O442  1  0.96376101  0.00261339  0.12493625  1
  O2-  O443  1  0.47198457  0.66704997  0.37504042  1
