# generated using pymatgen
data_La7(Ru4O11)2
_symmetry_space_group_name_H-M   'P 1'
_cell_length_a   23.99654499
_cell_length_b   16.83788304
_cell_length_c   15.43366455
_cell_angle_alpha   89.99538577
_cell_angle_beta   89.99694414
_cell_angle_gamma   89.99767471
_symmetry_Int_Tables_number   1
_chemical_formula_structural   La7(Ru4O11)2
_chemical_formula_sum   'La84 Ru96 O264'
_cell_volume   6235.98783748
_cell_formula_units_Z   12
loop_
 _symmetry_equiv_pos_site_id
 _symmetry_equiv_pos_as_xyz
  1  'x, y, z'
loop_
 _atom_type_symbol
 _atom_type_oxidation_number
  La3+  3.0
  Ru4+  4.0
  O2-  -2.0
loop_
 _atom_site_type_symbol
 _atom_site_label
 _atom_site_symmetry_multiplicity
 _atom_site_fract_x
 _atom_site_fract_y
 _atom_site_fract_z
 _atom_site_occupancy
  La3+  La0  1  0.13772552  -0.00334902  0.12260768  1
  La3+  La1  1  0.13761517  -0.00046669  0.37699613  1
  La3+  La2  1  0.14445437  -0.00321907  0.63017516  1
  La3+  La3  1  0.14415639  0.00087572  0.87211788  1
  La3+  La4  1  0.14124865  0.33664041  0.12239812  1
  La3+  La5  1  0.13753282  0.33659378  0.37890805  1
  La3+  La6  1  0.13942039  0.32979519  0.63239026  1
  La3+  La7  1  0.14069676  0.32805472  0.87633810  1
  La3+  La8  1  0.13303697  0.66476820  0.12050379  1
  La3+  La9  1  0.14247430  0.66404266  0.37744944  1
  La3+  La10  1  0.13040142  0.66838209  0.62881220  1
  La3+  La11  1  0.13190606  0.66292569  0.87021114  1
  La3+  La12  1  0.65001699  -0.00481217  0.12007630  1
  La3+  La13  1  0.64024518  0.00057074  0.37335100  1
  La3+  La14  1  0.64119079  -0.00016167  0.62616697  1
  La3+  La15  1  0.63820713  -0.00117197  0.88076630  1
  La3+  La16  1  0.64466443  0.33864518  0.11812208  1
  La3+  La17  1  0.64425855  0.33359941  0.38095324  1
  La3+  La18  1  0.65337489  0.34241984  0.61818639  1
  La3+  La19  1  0.65093083  0.33688637  0.87265090  1
  La3+  La20  1  0.63880730  0.66540094  0.12147549  1
  La3+  La21  1  0.63894677  0.66698390  0.37746507  1
  La3+  La22  1  0.63844624  0.66886930  0.63055449  1
  La3+  La23  1  0.66260190  0.66959055  0.87535007  1
  La3+  La24  1  0.35747418  -0.00375543  0.11824336  1
  La3+  La25  1  0.37087329  -0.00462726  0.38048421  1
  La3+  La26  1  0.35818033  -0.00378396  0.62663097  1
  La3+  La27  1  0.35354023  -0.00181288  0.87549943  1
  La3+  La28  1  0.36559377  0.33135350  0.12384564  1
  La3+  La29  1  0.36364543  0.33431106  0.37191152  1
  La3+  La30  1  0.36216525  0.31770753  0.62989726  1
  La3+  La31  1  0.36207062  0.33218966  0.87603078  1
  La3+  La32  1  0.36641284  0.66866100  0.12032319  1
  La3+  La33  1  0.36089722  0.66808418  0.37465260  1
  La3+  La34  1  0.36292019  0.67275503  0.62811669  1
  La3+  La35  1  0.36330397  0.67544368  0.87864908  1
  La3+  La36  1  0.84957155  -0.00024675  0.12699834  1
  La3+  La37  1  0.85354823  -0.00520537  0.36797987  1
  La3+  La38  1  0.85997601  -0.00105192  0.62665419  1
  La3+  La39  1  0.85848936  -0.00048722  0.87988788  1
  La3+  La40  1  0.86205671  0.35114877  0.11788158  1
  La3+  La41  1  0.85848140  0.32735610  0.37570437  1
  La3+  La42  1  0.85309944  0.33734334  0.61658435  1
  La3+  La43  1  0.84798942  0.33766662  0.87177583  1
  La3+  La44  1  0.86391052  0.65925950  0.12086072  1
  La3+  La45  1  0.85625037  0.66852193  0.37521353  1
  La3+  La46  1  0.86125973  0.67130055  0.62688212  1
  La3+  La47  1  0.84065415  0.66469273  0.87171685  1
  La3+  La48  1  0.00219838  0.14609014  0.39811980  1
  La3+  La49  1  0.50779674  0.50780633  0.88702348  1
  La3+  La50  1  0.49922143  0.16697886  0.86820220  1
  La3+  La51  1  0.00262298  0.16689718  0.11233854  1
  La3+  La52  1  -0.00668603  0.49708777  0.35899219  1
  La3+  La53  1  0.00304741  0.50461091  0.65778257  1
  La3+  La54  1  -0.00186901  0.15253484  0.37741328  1
  La3+  La55  1  0.49016568  0.48787042  0.61552546  1
  La3+  La56  1  -0.00405666  0.84308947  0.87075639  1
  La3+  La57  1  -0.00656580  0.83115555  0.13079721  1
  La3+  La58  1  0.50131981  0.83149568  0.37806259  1
  La3+  La59  1  -0.00361742  0.17299200  0.13144196  1
  La3+  La60  1  0.49981577  0.82832198  0.62125492  1
  La3+  La61  1  -0.00026095  0.82440673  0.11216187  1
  La3+  La62  1  0.50183844  0.16819361  0.12998586  1
  La3+  La63  1  -0.00370171  0.16204895  0.85911727  1
  La3+  La64  1  0.00328472  0.83467529  0.62651571  1
  La3+  La65  1  -0.00187377  0.49417964  0.12671230  1
  La3+  La66  1  0.49914493  0.83599599  0.13306918  1
  La3+  La67  1  0.00455461  0.83176019  0.38495466  1
  La3+  La68  1  0.50410809  0.49817123  0.36376458  1
  La3+  La69  1  0.50081746  0.82852328  0.11213085  1
  La3+  La70  1  0.48804795  0.17139780  0.37830293  1
  La3+  La71  1  0.00662749  0.50975284  0.63650731  1
  La3+  La72  1  0.25226897  0.51767824  0.46756141  1
  La3+  La73  1  0.75050788  0.22093995  0.72204694  1
  La3+  La74  1  0.25210320  0.81135828  0.29504781  1
  La3+  La75  1  0.74852545  0.12479847  0.24704861  1
  La3+  La76  1  0.25015199  0.08372518  0.52474701  1
  La3+  La77  1  0.23943041  0.17460113  0.22234692  1
  La3+  La78  1  0.74686029  0.45327730  0.27792675  1
  La3+  La79  1  0.75161394  0.49388222  0.73461479  1
  La3+  La80  1  0.25016936  0.44998925  0.03358604  1
  La3+  La81  1  0.25100297  0.49715852  0.67675766  1
  La3+  La82  1  0.75094462  0.83768366  -0.00007900  1
  La3+  La83  1  0.74877388  0.50123320  0.00087873  1
  Ru4+  Ru84  1  0.00493587  -0.00433622  -0.00758676  1
  Ru4+  Ru85  1  0.00216523  -0.00707934  0.24033767  1
  Ru4+  Ru86  1  -0.01044700  0.00072279  0.51414547  1
  Ru4+  Ru87  1  0.00415751  0.00495610  0.75337144  1
  Ru4+  Ru88  1  0.00414449  0.33894386  -0.01724482  1
  Ru4+  Ru89  1  0.00521680  0.32914437  0.24831050  1
  Ru4+  Ru90  1  0.00857426  0.32660939  0.49943171  1
  Ru4+  Ru91  1  0.00427902  0.32868815  0.76651305  1
  Ru4+  Ru92  1  0.00095009  0.65464460  -0.00824200  1
  Ru4+  Ru93  1  0.00375882  0.66658631  0.26192511  1
  Ru4+  Ru94  1  0.00160702  0.67304442  0.48249228  1
  Ru4+  Ru95  1  -0.00167358  0.67487564  0.75578321  1
  Ru4+  Ru96  1  0.50157027  -0.00176645  -0.00314139  1
  Ru4+  Ru97  1  0.50317113  0.00102809  0.25030500  1
  Ru4+  Ru98  1  0.50388644  0.00189744  0.50397476  1
  Ru4+  Ru99  1  0.50139084  0.00440951  0.75138737  1
  Ru4+  Ru100  1  0.49660651  0.33409392  0.01080269  1
  Ru4+  Ru101  1  0.51048122  0.33094430  0.24109078  1
  Ru4+  Ru102  1  0.50418271  0.32251312  0.48928524  1
  Ru4+  Ru103  1  0.49503713  0.33834566  0.76635393  1
  Ru4+  Ru104  1  0.50382959  0.66505670  -0.00534807  1
  Ru4+  Ru105  1  0.50010508  0.66449553  0.25767146  1
  Ru4+  Ru106  1  0.50259182  0.66506299  0.50559392  1
  Ru4+  Ru107  1  0.50889599  0.66011123  0.74246532  1
  Ru4+  Ru108  1  0.11155911  0.16891438  -0.00420244  1
  Ru4+  Ru109  1  0.11488628  0.17371454  0.24721554  1
  Ru4+  Ru110  1  0.10781591  0.17701856  0.51831864  1
  Ru4+  Ru111  1  0.11380257  0.16527844  0.74769661  1
  Ru4+  Ru112  1  0.10923287  0.50436406  -0.00048977  1
  Ru4+  Ru113  1  0.11381208  0.49330860  0.24853529  1
  Ru4+  Ru114  1  0.11102816  0.50146669  0.50222762  1
  Ru4+  Ru115  1  0.11579639  0.49428577  0.75455145  1
  Ru4+  Ru116  1  0.11551486  0.83892184  -0.00485646  1
  Ru4+  Ru117  1  0.11125310  0.82958588  0.26054223  1
  Ru4+  Ru118  1  0.11111269  0.83584441  0.50304988  1
  Ru4+  Ru119  1  0.11054890  0.83293309  0.74970593  1
  Ru4+  Ru120  1  0.61269209  0.16498752  -0.00160901  1
  Ru4+  Ru121  1  0.60738219  0.17351706  0.24142550  1
  Ru4+  Ru122  1  0.61199521  0.17684137  0.50503173  1
  Ru4+  Ru123  1  0.60832673  0.16787810  0.75145151  1
  Ru4+  Ru124  1  0.60900952  0.50248846  0.00360623  1
  Ru4+  Ru125  1  0.60747357  0.50020807  0.24870759  1
  Ru4+  Ru126  1  0.61249444  0.49469953  0.50020226  1
  Ru4+  Ru127  1  0.60796035  0.51429981  0.75882198  1
  Ru4+  Ru128  1  0.61365119  0.83173276  -0.01441309  1
  Ru4+  Ru129  1  0.61415163  0.83592419  0.25595224  1
  Ru4+  Ru130  1  0.61385743  0.83036982  0.49987478  1
  Ru4+  Ru131  1  0.61426986  0.82879820  0.74721609  1
  Ru4+  Ru132  1  0.38632792  0.17477389  -0.00027886  1
  Ru4+  Ru133  1  0.38373467  0.16007725  0.24965751  1
  Ru4+  Ru134  1  0.39458226  0.16838669  0.50262181  1
  Ru4+  Ru135  1  0.38639344  0.15882347  0.74815412  1
  Ru4+  Ru136  1  0.39004375  0.50402808  -0.00090269  1
  Ru4+  Ru137  1  0.39329607  0.50607528  0.25360821  1
  Ru4+  Ru138  1  0.39176400  0.49919672  0.50177096  1
  Ru4+  Ru139  1  0.38954221  0.49379360  0.74743802  1
  Ru4+  Ru140  1  0.38690157  0.83632566  -0.00731395  1
  Ru4+  Ru141  1  0.39715731  0.83342278  0.25529755  1
  Ru4+  Ru142  1  0.38754785  0.83970292  0.49989181  1
  Ru4+  Ru143  1  0.39063760  0.82988570  0.75456671  1
  Ru4+  Ru144  1  0.88281607  0.16632087  -0.00617813  1
  Ru4+  Ru145  1  0.88345250  0.17519481  0.24100819  1
  Ru4+  Ru146  1  0.88768672  0.15761754  0.51240075  1
  Ru4+  Ru147  1  0.89334873  0.16490946  0.74816811  1
  Ru4+  Ru148  1  0.89173609  0.50640753  -0.00715551  1
  Ru4+  Ru149  1  0.88105729  0.49923714  0.24835327  1
  Ru4+  Ru150  1  0.88921921  0.48839993  0.50105819  1
  Ru4+  Ru151  1  0.89079317  0.50255549  0.75176141  1
  Ru4+  Ru152  1  0.88531643  0.83366134  -0.00412065  1
  Ru4+  Ru153  1  0.88463702  0.83629359  0.25314598  1
  Ru4+  Ru154  1  0.88665279  0.83473397  0.50170774  1
  Ru4+  Ru155  1  0.88856347  0.83290400  0.74905261  1
  Ru4+  Ru156  1  0.25044846  0.25163799  0.53891648  1
  Ru4+  Ru157  1  0.24922144  0.38247666  0.77946071  1
  Ru4+  Ru158  1  0.74783124  0.27485589  0.23748128  1
  Ru4+  Ru159  1  0.24955729  0.60139064  -0.00831664  1
  Ru4+  Ru160  1  0.74839407  0.08211410  0.48241200  1
  Ru4+  Ru161  1  0.25501755  0.04165488  0.29035971  1
  Ru4+  Ru162  1  0.25058973  0.38808551  0.53707636  1
  Ru4+  Ru163  1  0.74947877  0.23843473  -0.01215223  1
  Ru4+  Ru164  1  0.75056500  0.76863883  0.24039986  1
  Ru4+  Ru165  1  0.25536092  0.30904740  0.25709866  1
  Ru4+  Ru166  1  0.74975485  0.07082534  0.76555030  1
  Ru4+  Ru167  1  0.75079942  0.57235314  0.49616561  1
  Ru4+  Ru168  1  0.25102323  0.92938025  0.20956689  1
  Ru4+  Ru169  1  0.25116462  0.92087179  0.76283329  1
  Ru4+  Ru170  1  0.24963008  0.69597529  0.19442921  1
  Ru4+  Ru171  1  0.24913460  0.56562505  0.24583682  1
  Ru4+  Ru172  1  0.24990856  0.07945348  -0.01147711  1
  Ru4+  Ru173  1  0.25051827  0.77052899  0.50199011  1
  Ru4+  Ru174  1  0.25075051  0.61554295  0.76812519  1
  Ru4+  Ru175  1  0.24909189  0.75637435  0.77628526  1
  Ru4+  Ru176  1  0.74938707  0.91691508  0.48573613  1
  Ru4+  Ru177  1  0.24848641  0.64071819  0.56440301  1
  Ru4+  Ru178  1  0.74949025  0.91032248  0.75736388  1
  Ru4+  Ru179  1  0.74961036  0.59623209  0.23147937  1
  O2-  O180  1  0.16430617  0.07884153  -0.00058675  1
  O2-  O181  1  0.16716337  0.07557684  0.25121558  1
  O2-  O182  1  0.15432388  0.08283532  0.50064825  1
  O2-  O183  1  0.16808380  0.08285751  0.74365668  1
  O2-  O184  1  0.16195939  0.40924333  -0.00440920  1
  O2-  O185  1  0.16677583  0.41542651  0.25144380  1
  O2-  O186  1  0.16667953  0.41454463  0.49970693  1
  O2-  O187  1  0.16922674  0.41207598  0.75292233  1
  O2-  O188  1  0.15778273  0.74613200  0.00094847  1
  O2-  O189  1  0.16390028  0.74381688  0.24927129  1
  O2-  O190  1  0.16760064  0.75182599  0.49975917  1
  O2-  O191  1  0.16358254  0.74780239  0.75263648  1
  O2-  O192  1  0.66040409  0.08073664  -0.00358711  1
  O2-  O193  1  0.65880918  0.07967829  0.25218439  1
  O2-  O194  1  0.66657828  0.08240268  0.50009248  1
  O2-  O195  1  0.66584226  0.07918731  0.75041642  1
  O2-  O196  1  0.66581358  0.41653016  -0.00211968  1
  O2-  O197  1  0.65682139  0.41155977  0.24397200  1
  O2-  O198  1  0.67041156  0.41832104  0.49571491  1
  O2-  O199  1  0.66105910  0.42149389  0.75116015  1
  O2-  O200  1  0.66930697  0.74771805  0.00629801  1
  O2-  O201  1  0.66976342  0.74961160  0.24940965  1
  O2-  O202  1  0.66196708  0.74736755  0.50410176  1
  O2-  O203  1  0.66935851  0.75227879  0.74332208  1
  O2-  O204  1  0.33274204  0.25286941  -0.00049023  1
  O2-  O205  1  0.33279211  0.25481978  0.25055389  1
  O2-  O206  1  0.33819726  0.25077772  0.49924758  1
  O2-  O207  1  0.33924148  0.24860642  0.75450222  1
  O2-  O208  1  0.33377008  0.58609491  -0.00092520  1
  O2-  O209  1  0.33152465  0.58418658  0.25175153  1
  O2-  O210  1  0.33802575  0.58664191  0.50166290  1
  O2-  O211  1  0.33462593  0.58855685  0.75014354  1
  O2-  O212  1  0.33388769  0.91820043  0.00163933  1
  O2-  O213  1  0.33414614  0.91885299  0.24872123  1
  O2-  O214  1  0.33279057  0.92002582  0.48919342  1
  O2-  O215  1  0.33657919  0.91853204  0.75045896  1
  O2-  O216  1  0.83089617  0.25366134  -0.00207220  1
  O2-  O217  1  0.82589311  0.25204934  0.25029885  1
  O2-  O218  1  0.83931667  0.24450987  0.50046288  1
  O2-  O219  1  0.84275841  0.25252971  0.74666276  1
  O2-  O220  1  0.83126080  0.58460893  0.00268785  1
  O2-  O221  1  0.83369644  0.58854346  0.25071483  1
  O2-  O222  1  0.83840063  0.58149196  0.50197904  1
  O2-  O223  1  0.83701520  0.58679467  0.73907623  1
  O2-  O224  1  0.83052724  0.91947867  -0.00193578  1
  O2-  O225  1  0.83102895  0.91594130  0.25030236  1
  O2-  O226  1  0.83245210  0.91951216  0.50166618  1
  O2-  O227  1  0.83242361  0.91706567  0.75090101  1
  O2-  O228  1  0.15919405  0.25212945  0.00004262  1
  O2-  O229  1  0.16495797  0.26368800  0.25204367  1
  O2-  O230  1  0.16728484  0.25485827  0.50596778  1
  O2-  O231  1  0.16336154  0.25114566  0.75235178  1
  O2-  O232  1  0.16472572  0.58932321  -0.00150461  1
  O2-  O233  1  0.16421569  0.58408467  0.24976818  1
  O2-  O234  1  0.16763071  0.58809974  0.50485731  1
  O2-  O235  1  0.16900177  0.59058204  0.74955800  1
  O2-  O236  1  0.17014847  0.91765756  0.00391577  1
  O2-  O237  1  0.17044635  0.91719447  0.24834575  1
  O2-  O238  1  0.16123027  0.92069327  0.49664925  1
  O2-  O239  1  0.17009489  0.92006978  0.75169788  1
  O2-  O240  1  0.66776492  0.25197123  -0.00434671  1
  O2-  O241  1  0.66878710  0.24954523  0.24824023  1
  O2-  O242  1  0.67349891  0.24396438  0.49629633  1
  O2-  O243  1  0.65914713  0.25391283  0.75043231  1
  O2-  O244  1  0.66800356  0.58462950  0.00470168  1
  O2-  O245  1  0.66790378  0.58700516  0.24957885  1
  O2-  O246  1  0.66660908  0.58358045  0.50224167  1
  O2-  O247  1  0.66940755  0.58239496  0.73891854  1
  O2-  O248  1  0.67125899  0.91705930  -0.00780170  1
  O2-  O249  1  0.66230119  0.92042968  0.25312818  1
  O2-  O250  1  0.66731212  0.92177277  0.50153223  1
  O2-  O251  1  0.66540044  0.91907788  0.75270120  1
  O2-  O252  1  0.33607577  0.08196236  -0.00140608  1
  O2-  O253  1  0.33335456  0.07560830  0.25349781  1
  O2-  O254  1  0.34184194  0.07525831  0.49286881  1
  O2-  O255  1  0.33292858  0.08050920  0.75092286  1
  O2-  O256  1  0.33747869  0.41180890  -0.00017511  1
  O2-  O257  1  0.34526456  0.41668225  0.25141906  1
  O2-  O258  1  0.33428242  0.41169773  0.49970868  1
  O2-  O259  1  0.32840919  0.40967768  0.75200032  1
  O2-  O260  1  0.33571485  0.74974244  -0.00093363  1
  O2-  O261  1  0.33628515  0.74594123  0.24885170  1
  O2-  O262  1  0.33536531  0.75230654  0.49877146  1
  O2-  O263  1  0.33108110  0.74887182  0.75363194  1
  O2-  O264  1  0.83571838  0.08181020  -0.00216810  1
  O2-  O265  1  0.83975750  0.08109695  0.25231120  1
  O2-  O266  1  0.83000587  0.07746618  0.50366666  1
  O2-  O267  1  0.83395432  0.08036359  0.74935820  1
  O2-  O268  1  0.82788828  0.41885099  -0.00230762  1
  O2-  O269  1  0.83414711  0.40848364  0.24953938  1
  O2-  O270  1  0.83001316  0.41307339  0.49799448  1
  O2-  O271  1  0.83802762  0.41391303  0.74481768  1
  O2-  O272  1  0.83394978  0.74644481  0.00402231  1
  O2-  O273  1  0.83484000  0.74715888  0.24820636  1
  O2-  O274  1  0.83773356  0.74910370  0.50572064  1
  O2-  O275  1  0.83707539  0.74990815  0.74124294  1
  O2-  O276  1  0.94348385  0.59024730  0.02962485  1
  O2-  O277  1  0.54166010  0.22239643  0.28259851  1
  O2-  O278  1  0.44424970  0.74896234  0.00297516  1
  O2-  O279  1  0.53464082  0.54952224  0.73281685  1
  O2-  O280  1  0.44788191  0.08633124  0.49415486  1
  O2-  O281  1  0.44797941  0.58413372  0.98439443  1
  O2-  O282  1  0.95150635  0.91195906  0.72972113  1
  O2-  O283  1  0.94790125  0.42015261  0.56054621  1
  O2-  O284  1  0.53458703  0.55523780  0.72379387  1
  O2-  O285  1  0.94504517  0.09562881  0.24196881  1
  O2-  O286  1  0.44816388  0.91111726  0.00571661  1
  O2-  O287  1  0.45222056  0.43530548  0.79300486  1
  O2-  O288  1  0.45211110  0.44177559  0.03642121  1
  O2-  O289  1  0.95244553  0.76118245  0.75719888  1
  O2-  O290  1  0.05317317  0.43272486  0.99991718  1
  O2-  O291  1  0.05648909  0.91497779  0.21704963  1
  O2-  O292  1  0.06099178  0.24799259  0.44767541  1
  O2-  O293  1  0.95410426  0.76681123  0.51282855  1
  O2-  O294  1  0.95218621  0.75596074  -0.00450149  1
  O2-  O295  1  0.04931798  0.42996713  0.47800443  1
  O2-  O296  1  0.49599268  0.21815613  0.51838015  1
  O2-  O297  1  0.55157762  0.75703922  0.98419652  1
  O2-  O298  1  0.55455130  0.08988993  0.23779030  1
  O2-  O299  1  0.95335543  0.09597772  0.73771122  1
  O2-  O300  1  0.04712603  0.56546378  0.24372675  1
  O2-  O301  1  0.04837573  0.08958839  0.52913554  1
  O2-  O302  1  0.95088494  0.23826331  0.50171186  1
  O2-  O303  1  0.05231146  0.08983237  0.26212153  1
  O2-  O304  1  0.44620513  0.08738379  0.26015353  1
  O2-  O305  1  0.05155610  0.09160501  0.24155655  1
  O2-  O306  1  0.54893885  0.10004962  0.75284535  1
  O2-  O307  1  0.94410742  0.56681876  0.23412945  1
  O2-  O308  1  0.55821168  0.09383218  0.45740411  1
  O2-  O309  1  0.04559999  0.23290229  0.75592598  1
  O2-  O310  1  0.04846647  0.57168566  0.76272135  1
  O2-  O311  1  0.56382764  0.91990217  0.03075241  1
  O2-  O312  1  0.95235252  0.09587079  0.00073274  1
  O2-  O313  1  0.95839293  0.76994503  0.26597368  1
  O2-  O314  1  0.95862212  0.23212330  0.27922569  1
  O2-  O315  1  0.45519901  0.42896863  0.47961682  1
  O2-  O316  1  0.44387447  0.23680691  0.23890517  1
  O2-  O317  1  0.54722435  0.89719651  0.49621043  1
  O2-  O318  1  0.45527408  0.76623307  0.49247037  1
  O2-  O319  1  0.45522306  0.09980413  0.98688666  1
  O2-  O320  1  0.96209694  0.44943044  0.98582365  1
  O2-  O321  1  0.95591996  0.42316723  0.23851973  1
  O2-  O322  1  0.55337525  0.41638731  0.98712042  1
  O2-  O323  1  0.44973468  0.90945076  0.99654871  1
  O2-  O324  1  0.06466200  0.07897760  0.76779092  1
  O2-  O325  1  0.05962879  0.90189127  0.20905798  1
  O2-  O326  1  0.05957996  0.91819307  0.76257489  1
  O2-  O327  1  0.43524988  0.24882366  0.07088692  1
  O2-  O328  1  0.42793323  0.56650099  0.17355658  1
  O2-  O329  1  0.07179761  0.90651435  0.92003691  1
  O2-  O330  1  0.93890262  0.91862357  0.97986671  1
  O2-  O331  1  0.43379375  0.40795826  0.95564023  1
  O2-  O332  1  0.92017911  0.38873523  0.98136801  1
  O2-  O333  1  0.57216180  0.42935428  0.57697289  1
  O2-  O334  1  0.93700893  0.92477789  0.21366702  1
  O2-  O335  1  0.06275841  0.40276605  0.21643556  1
  O2-  O336  1  0.06520398  0.91267553  0.06013255  1
  O2-  O337  1  0.56351431  0.92255816  0.03015538  1
  O2-  O338  1  0.94312304  0.41626905  0.56671761  1
  O2-  O339  1  0.93530075  0.41968163  0.21594947  1
  O2-  O340  1  0.56363890  0.58768732  0.27735589  1
  O2-  O341  1  0.55488221  0.75670023  0.72494092  1
  O2-  O342  1  0.06614224  0.25706100  0.43538618  1
  O2-  O343  1  0.93739704  0.07032594  0.57514208  1
  O2-  O344  1  0.56327921  0.59118436  0.01717238  1
  O2-  O345  1  0.06200504  0.74415107  0.54085783  1
  O2-  O346  1  0.91277036  0.25608485  0.16568102  1
  O2-  O347  1  0.06519475  0.59865517  0.76489563  1
  O2-  O348  1  0.94285809  0.58672355  0.02660719  1
  O2-  O349  1  0.91673511  0.43135095  0.40172192  1
  O2-  O350  1  0.43662826  0.06672681  0.71908674  1
  O2-  O351  1  0.94075325  0.07107258  0.21415822  1
  O2-  O352  1  0.56048201  0.58368078  0.46802687  1
  O2-  O353  1  0.57022706  0.07080393  0.54470581  1
  O2-  O354  1  0.56282169  0.74691106  0.22967796  1
  O2-  O355  1  0.05849074  0.59269697  0.53254967  1
  O2-  O356  1  0.05558337  0.28543901  0.59622318  1
  O2-  O357  1  0.42650600  0.24048714  0.92050886  1
  O2-  O358  1  0.57366511  0.63134488  0.83602819  1
  O2-  O359  1  0.43258994  0.26871768  0.23385013  1
  O2-  O360  1  0.40867921  0.42809233  0.64638011  1
  O2-  O361  1  0.57651085  0.24943954  0.42299581  1
  O2-  O362  1  0.43976791  0.93080025  0.53306324  1
  O2-  O363  1  0.44000285  0.73803713  0.78208059  1
  O2-  O364  1  0.57225423  0.28200514  0.16987733  1
  O2-  O365  1  0.43732229  0.59696465  0.32717038  1
  O2-  O366  1  0.58709233  0.25292808  0.57876529  1
  O2-  O367  1  0.05607598  0.93998267  0.37463126  1
  O2-  O368  1  0.93862718  0.60082911  0.22445167  1
  O2-  O369  1  0.93073076  0.05493570  0.42304445  1
  O2-  O370  1  0.44317527  0.42388181  0.80021818  1
  O2-  O371  1  0.57094961  0.42236423  0.42599083  1
  O2-  O372  1  0.75450054  0.66145143  0.85710665  1
  O2-  O373  1  0.74938422  -0.00850021  0.85851842  1
  O2-  O374  1  0.24809421  0.31633482  0.07484709  1
  O2-  O375  1  0.25140324  0.66878802  0.44214639  1
  O2-  O376  1  0.25069545  0.00522226  0.09995307  1
  O2-  O377  1  0.75081283  0.33162480  0.35199045  1
  O2-  O378  1  0.24965751  0.67233836  0.88659030  1
  O2-  O379  1  0.75012609  0.00507590  0.17166966  1
  O2-  O380  1  0.24982266  0.66341933  0.31368228  1
  O2-  O381  1  0.74898403  -0.00790071  0.65436631  1
  O2-  O382  1  0.74824858  0.00694690  0.37145092  1
  O2-  O383  1  0.75039758  0.67827122  0.14204957  1
  O2-  O384  1  0.25163861  0.37917072  0.35196822  1
  O2-  O385  1  0.25098040  0.00176404  0.89190362  1
  O2-  O386  1  0.74970617  0.67864500  0.31792521  1
  O2-  O387  1  0.74972769  -0.00347923  0.07964889  1
  O2-  O388  1  0.75096963  0.67110510  0.46045167  1
  O2-  O389  1  0.74804534  0.31798835  0.86469821  1
  O2-  O390  1  0.24958277  -0.01016867  0.63231836  1
  O2-  O391  1  0.25163734  0.32930042  0.42399009  1
  O2-  O392  1  0.24991949  0.36454338  0.15037129  1
  O2-  O393  1  0.24945951  0.67781670  0.07800487  1
  O2-  O394  1  0.25154603  0.34045754  0.65750046  1
  O2-  O395  1  0.75353809  0.32444223  0.62498553  1
  O2-  O396  1  0.24961009  0.50129393  0.33682634  1
  O2-  O397  1  0.24989399  0.50125341  0.15761484  1
  O2-  O398  1  0.25125070  0.16024912  0.89902006  1
  O2-  O399  1  0.74991905  0.84195134  0.84760318  1
  O2-  O400  1  0.25092050  0.18322382  0.63054296  1
  O2-  O401  1  0.25270899  0.12813785  0.35877637  1
  O2-  O402  1  0.24999118  0.51158006  0.91177584  1
  O2-  O403  1  0.75086428  0.50540357  0.40688914  1
  O2-  O404  1  0.75112946  0.49861871  0.86689921  1
  O2-  O405  1  0.25949168  0.14878808  0.09388529  1
  O2-  O406  1  0.24916139  0.20024338  0.44103693  1
  O2-  O407  1  0.75025337  0.15236917  0.85539688  1
  O2-  O408  1  0.25005966  0.83736958  0.86344046  1
  O2-  O409  1  0.24971912  0.83100066  0.68947641  1
  O2-  O410  1  0.74937355  0.18262997  0.09444932  1
  O2-  O411  1  0.25001726  0.49786061  0.82190727  1
  O2-  O412  1  0.75037531  0.51002584  0.14574742  1
  O2-  O413  1  0.24992204  0.85489398  0.56109063  1
  O2-  O414  1  0.75129559  0.16104854  0.40749124  1
  O2-  O415  1  0.24973579  0.16207217  0.81643838  1
  O2-  O416  1  0.74993751  0.84016855  0.41035642  1
  O2-  O417  1  0.74992109  0.82955167  0.14645410  1
  O2-  O418  1  0.24628279  0.19335458  0.02486854  1
  O2-  O419  1  0.75104743  0.51339198  0.59284366  1
  O2-  O420  1  0.48768033  0.35385230  0.13017030  1
  O2-  O421  1  0.04766758  0.33499253  0.87830946  1
  O2-  O422  1  0.95174446  0.00228703  0.86222193  1
  O2-  O423  1  0.95002078  0.31331777  0.85246745  1
  O2-  O424  1  0.51639805  0.00453234  0.12571342  1
  O2-  O425  1  0.50399391  0.31161456  0.88076015  1
  O2-  O426  1  0.01693950  0.02952756  0.11227680  1
  O2-  O427  1  0.03379724  0.02437522  0.88416140  1
  O2-  O428  1  0.52758109  0.66378066  0.13118024  1
  O2-  O429  1  0.52123623  -0.01797916  0.63436263  1
  O2-  O430  1  0.50546675  0.34278524  0.35943179  1
  O2-  O431  1  0.52576239  -0.00063968  0.87040394  1
  O2-  O432  1  0.46916884  0.68149072  0.12937542  1
  O2-  O433  1  0.52272378  0.34023128  0.65459254  1
  O2-  O434  1  0.04887322  0.67901680  0.37098680  1
  O2-  O435  1  0.98783211  0.33588855  0.11167942  1
  O2-  O436  1  0.95330007  0.65016039  0.38090026  1
  O2-  O437  1  0.52151728  0.69106528  0.37829464  1
  O2-  O438  1  0.98767168  0.33991650  0.36808008  1
  O2-  O439  1  0.45367884  0.66271025  0.62790387  1
  O2-  O440  1  0.47392411  0.32320125  0.60885615  1
  O2-  O441  1  0.02969310  0.67988519  0.12588318  1
  O2-  O442  1  0.54804285  0.66502419  0.60487072  1
  O2-  O443  1  0.51940457  -0.01029561  0.37235763  1
