# generated using pymatgen
data_La7(Ru4O11)2
_symmetry_space_group_name_H-M   'P 1'
_cell_length_a   23.99051465
_cell_length_b   16.83049797
_cell_length_c   15.42690527
_cell_angle_alpha   90.00048364
_cell_angle_beta   90.00043007
_cell_angle_gamma   90.00044495
_symmetry_Int_Tables_number   1
_chemical_formula_structural   La7(Ru4O11)2
_chemical_formula_sum   'La84 Ru96 O264'
_cell_volume   6228.95714555
_cell_formula_units_Z   12
loop_
 _symmetry_equiv_pos_site_id
 _symmetry_equiv_pos_as_xyz
  1  'x, y, z'
loop_
 _atom_type_symbol
 _atom_type_oxidation_number
  La3+  3.0
  Ru4+  4.0
  O2-  -2.0
loop_
 _atom_site_type_symbol
 _atom_site_label
 _atom_site_symmetry_multiplicity
 _atom_site_fract_x
 _atom_site_fract_y
 _atom_site_fract_z
 _atom_site_occupancy
  La3+  La0  1  0.13923975  -0.00060358  0.12553948  1
  La3+  La1  1  0.14031279  -0.00033956  0.37126930  1
  La3+  La2  1  0.13784152  0.00019176  0.62546493  1
  La3+  La3  1  0.14141804  -0.00082483  0.87334349  1
  La3+  La4  1  0.13750067  0.33653027  0.12360209  1
  La3+  La5  1  0.13774172  0.33643225  0.37298843  1
  La3+  La6  1  0.13723883  0.33647368  0.62687555  1
  La3+  La7  1  0.14153707  0.33520040  0.87714133  1
  La3+  La8  1  0.13605119  0.66405020  0.12499657  1
  La3+  La9  1  0.13887709  0.66648521  0.37160524  1
  La3+  La10  1  0.13964702  0.66966791  0.62478595  1
  La3+  La11  1  0.13928776  0.66617055  0.87522660  1
  La3+  La12  1  0.63989875  -0.00126058  0.12790267  1
  La3+  La13  1  0.63733737  -0.00285695  0.37257538  1
  La3+  La14  1  0.63584589  -0.00194238  0.62375686  1
  La3+  La15  1  0.63794899  -0.00038171  0.87474421  1
  La3+  La16  1  0.63608844  0.33571389  0.12418273  1
  La3+  La17  1  0.63522150  0.33412866  0.37498483  1
  La3+  La18  1  0.63589145  0.33539564  0.62557267  1
  La3+  La19  1  0.64079340  0.33425232  0.87584264  1
  La3+  La20  1  0.63298746  0.67346089  0.11567121  1
  La3+  La21  1  0.63983186  0.66746161  0.38015885  1
  La3+  La22  1  0.64287428  0.66630093  0.62288262  1
  La3+  La23  1  0.63856656  0.66910296  0.88135340  1
  La3+  La24  1  0.36345795  -0.00043279  0.12385517  1
  La3+  La25  1  0.36130892  -0.00049633  0.37154842  1
  La3+  La26  1  0.36266429  -0.00042147  0.62538410  1
  La3+  La27  1  0.35842008  0.00344581  0.87487102  1
  La3+  La28  1  0.35864123  0.33274960  0.12183573  1
  La3+  La29  1  0.35981054  0.33673112  0.37522708  1
  La3+  La30  1  0.36129957  0.33508288  0.62523540  1
  La3+  La31  1  0.35667842  0.33480208  0.87833412  1
  La3+  La32  1  0.36296103  0.66677264  0.12732793  1
  La3+  La33  1  0.36163930  0.66619650  0.37227320  1
  La3+  La34  1  0.36477980  0.66738036  0.62544390  1
  La3+  La35  1  0.36014537  0.66687449  0.87558414  1
  La3+  La36  1  0.86014862  -0.00202715  0.12804403  1
  La3+  La37  1  0.86326969  -0.00109345  0.37185678  1
  La3+  La38  1  0.86133563  -0.00068624  0.62632007  1
  La3+  La39  1  0.86275173  0.00026029  0.87495469  1
  La3+  La40  1  0.86423355  0.33529525  0.12190468  1
  La3+  La41  1  0.86237108  0.33319635  0.37376726  1
  La3+  La42  1  0.86323877  0.33506035  0.62741972  1
  La3+  La43  1  0.85998422  0.33659684  0.87714182  1
  La3+  La44  1  0.86284725  0.66768626  0.12685779  1
  La3+  La45  1  0.86276559  0.66660703  0.37648160  1
  La3+  La46  1  0.85619566  0.66725523  0.62460464  1
  La3+  La47  1  0.85831488  0.66578659  0.87317873  1
  La3+  La48  1  0.50153332  0.50228711  0.86400598  1
  La3+  La49  1  0.00154065  0.83306715  0.88837769  1
  La3+  La50  1  0.00121329  0.50180894  0.61709892  1
  La3+  La51  1  -0.00070174  0.49886738  0.14229233  1
  La3+  La52  1  -0.00353662  0.83482211  0.86739369  1
  La3+  La53  1  0.00649614  0.49517524  0.12307048  1
  La3+  La54  1  -0.00166892  0.16344080  0.62830903  1
  La3+  La55  1  0.49816692  0.83478768  0.89044091  1
  La3+  La56  1  0.49776038  0.16466554  0.13347001  1
  La3+  La57  1  0.50158830  0.16553047  0.63359910  1
  La3+  La58  1  -0.00076788  0.50000492  0.36565356  1
  La3+  La59  1  0.50241397  0.82638333  0.12643721  1
  La3+  La60  1  -0.00416346  0.16970686  0.12048204  1
  La3+  La61  1  0.49997782  0.16734460  0.38527207  1
  La3+  La62  1  0.50262540  0.82834305  0.87009829  1
  La3+  La63  1  0.50276719  0.50559828  0.38299606  1
  La3+  La64  1  0.00016740  0.50141091  0.38295884  1
  La3+  La65  1  -0.00135011  0.83237568  0.61299141  1
  La3+  La66  1  0.49949963  0.83278339  0.36517484  1
  La3+  La67  1  0.49746135  0.83619907  0.61247794  1
  La3+  La68  1  0.49915572  0.16623978  0.88608941  1
  La3+  La69  1  0.00299836  0.16839729  0.86296096  1
  La3+  La70  1  -0.00146328  0.50365743  0.87182063  1
  La3+  La71  1  0.00292087  0.83213734  0.35976553  1
  La3+  La72  1  0.24909668  0.83289924  0.50532148  1
  La3+  La73  1  0.74964463  0.16902484  0.44414702  1
  La3+  La74  1  0.24918032  0.87231052  -0.00079633  1
  La3+  La75  1  0.24983999  0.13539786  0.75685133  1
  La3+  La76  1  0.74982602  0.20471210  0.05451610  1
  La3+  La77  1  0.25013098  0.12816862  0.20205823  1
  La3+  La78  1  0.24979824  0.45572803  0.53809781  1
  La3+  La79  1  0.74989118  0.50695492  0.75367265  1
  La3+  La80  1  0.24994449  0.21239713  0.54605171  1
  La3+  La81  1  0.74996393  0.46079460  0.20927499  1
  La3+  La82  1  0.74982836  0.79226644  0.77006508  1
  La3+  La83  1  0.75017975  0.23363888  0.74727971  1
  Ru4+  Ru84  1  0.00015512  0.00030593  0.00201304  1
  Ru4+  Ru85  1  -0.00182341  0.00003440  0.25344432  1
  Ru4+  Ru86  1  0.00297979  -0.00166310  0.49542691  1
  Ru4+  Ru87  1  -0.00161373  -0.00146860  0.75232593  1
  Ru4+  Ru88  1  0.00360768  0.32731279  -0.00150579  1
  Ru4+  Ru89  1  -0.00362542  0.32388928  0.25037996  1
  Ru4+  Ru90  1  -0.00025558  0.32810894  0.49804152  1
  Ru4+  Ru91  1  -0.00379616  0.32764649  0.75171498  1
  Ru4+  Ru92  1  -0.00157533  0.67298211  0.00041119  1
  Ru4+  Ru93  1  0.00780129  0.67071445  0.24987903  1
  Ru4+  Ru94  1  -0.00123060  0.66776984  0.49751043  1
  Ru4+  Ru95  1  -0.00339397  0.66650904  0.74746124  1
  Ru4+  Ru96  1  0.50443409  -0.00230889  0.00447619  1
  Ru4+  Ru97  1  0.50125712  -0.00042391  0.24931581  1
  Ru4+  Ru98  1  0.49594956  0.00348740  0.50257681  1
  Ru4+  Ru99  1  0.50118028  0.00139019  0.74551068  1
  Ru4+  Ru100  1  0.50035714  0.33111780  0.00268261  1
  Ru4+  Ru101  1  0.50016519  0.33660022  0.24836361  1
  Ru4+  Ru102  1  0.50506564  0.33530742  0.49954469  1
  Ru4+  Ru103  1  0.50016966  0.33492075  0.75235382  1
  Ru4+  Ru104  1  0.50512752  0.66362733  0.00411428  1
  Ru4+  Ru105  1  0.49831516  0.66419031  0.24746108  1
  Ru4+  Ru106  1  0.50369202  0.66135847  0.50761427  1
  Ru4+  Ru107  1  0.50168262  0.66738881  0.74456007  1
  Ru4+  Ru108  1  0.11485539  0.16839013  -0.00192542  1
  Ru4+  Ru109  1  0.10982241  0.16581561  0.24934441  1
  Ru4+  Ru110  1  0.11049286  0.16637165  0.50118358  1
  Ru4+  Ru111  1  0.11153785  0.16789988  0.75052477  1
  Ru4+  Ru112  1  0.11789299  0.49379632  -0.00061553  1
  Ru4+  Ru113  1  0.11924083  0.50339082  0.25135920  1
  Ru4+  Ru114  1  0.11049539  0.49941846  0.50084004  1
  Ru4+  Ru115  1  0.11834734  0.50188338  0.74815449  1
  Ru4+  Ru116  1  0.11081356  0.83456604  -0.00085152  1
  Ru4+  Ru117  1  0.11393081  0.83476155  0.25030180  1
  Ru4+  Ru118  1  0.10868181  0.83347961  0.50049400  1
  Ru4+  Ru119  1  0.11542514  0.83333609  0.74946373  1
  Ru4+  Ru120  1  0.60937333  0.16708461  0.00012717  1
  Ru4+  Ru121  1  0.61300818  0.16355529  0.24990287  1
  Ru4+  Ru122  1  0.60977197  0.16688063  0.49925709  1
  Ru4+  Ru123  1  0.60906448  0.16709312  0.74997731  1
  Ru4+  Ru124  1  0.61465491  0.50236907  0.00017348  1
  Ru4+  Ru125  1  0.61054667  0.49718175  0.24706961  1
  Ru4+  Ru126  1  0.61071131  0.50205725  0.50285560  1
  Ru4+  Ru127  1  0.61108898  0.50086912  0.74997612  1
  Ru4+  Ru128  1  0.61182188  0.83049750  0.00111263  1
  Ru4+  Ru129  1  0.61289718  0.83500848  0.24785626  1
  Ru4+  Ru130  1  0.61557719  0.82658646  0.50039741  1
  Ru4+  Ru131  1  0.61210723  0.83174242  0.75265238  1
  Ru4+  Ru132  1  0.38428367  0.17207276  0.00028650  1
  Ru4+  Ru133  1  0.38893435  0.16533889  0.25195909  1
  Ru4+  Ru134  1  0.38831882  0.16540403  0.49966805  1
  Ru4+  Ru135  1  0.38973110  0.16881902  0.74980863  1
  Ru4+  Ru136  1  0.38578184  0.49948217  0.00220885  1
  Ru4+  Ru137  1  0.38656797  0.50078177  0.24772649  1
  Ru4+  Ru138  1  0.38658972  0.50390530  0.50302822  1
  Ru4+  Ru139  1  0.38728523  0.49788968  0.75076166  1
  Ru4+  Ru140  1  0.38463464  0.83928721  0.00248722  1
  Ru4+  Ru141  1  0.38659008  0.83608804  0.25061512  1
  Ru4+  Ru142  1  0.38676831  0.83933893  0.49826467  1
  Ru4+  Ru143  1  0.38499796  0.83005905  0.74873658  1
  Ru4+  Ru144  1  0.88938755  0.16704948  0.00088744  1
  Ru4+  Ru145  1  0.88670238  0.16482039  0.24943006  1
  Ru4+  Ru146  1  0.89010694  0.16906195  0.49877672  1
  Ru4+  Ru147  1  0.89022204  0.16726187  0.74939648  1
  Ru4+  Ru148  1  0.88109600  0.50329512  -0.00153014  1
  Ru4+  Ru149  1  0.88472687  0.49397776  0.25152088  1
  Ru4+  Ru150  1  0.88518266  0.50391092  0.49936081  1
  Ru4+  Ru151  1  0.88729695  0.50015572  0.74973090  1
  Ru4+  Ru152  1  0.88792301  0.83454491  0.00001213  1
  Ru4+  Ru153  1  0.88598613  0.83953924  0.24969765  1
  Ru4+  Ru154  1  0.88630616  0.83066049  0.50119401  1
  Ru4+  Ru155  1  0.88899081  0.83232126  0.74935780  1
  Ru4+  Ru156  1  0.25004597  0.91179452  0.74793137  1
  Ru4+  Ru157  1  0.75072458  0.75374029  0.00348887  1
  Ru4+  Ru158  1  0.74983186  0.24978400  0.24803941  1
  Ru4+  Ru159  1  0.75026066  0.93026949  0.73616473  1
  Ru4+  Ru160  1  0.75037248  0.91250671  0.00406508  1
  Ru4+  Ru161  1  0.74981819  0.59657245  0.24936003  1
  Ru4+  Ru162  1  0.24960695  0.58447623  0.49330119  1
  Ru4+  Ru163  1  0.24997772  0.73468394  0.00647409  1
  Ru4+  Ru164  1  0.75030698  0.90451098  0.50155619  1
  Ru4+  Ru165  1  0.24964800  0.70834744  0.49927805  1
  Ru4+  Ru166  1  0.74984312  0.04264681  0.49511639  1
  Ru4+  Ru167  1  0.24978516  0.95630158  0.47792504  1
  Ru4+  Ru168  1  0.24998013  0.08077706  0.49499625  1
  Ru4+  Ru169  1  0.25015609  0.57468830  0.75563179  1
  Ru4+  Ru170  1  0.74998173  0.06096759  -0.00560845  1
  Ru4+  Ru171  1  0.74999689  0.41706971  0.49544184  1
  Ru4+  Ru172  1  0.74979414  0.28951866  0.51353374  1
  Ru4+  Ru173  1  0.25019298  0.75323646  0.25860453  1
  Ru4+  Ru174  1  0.24989880  0.57037680  0.00453832  1
  Ru4+  Ru175  1  0.25009027  0.09101562  -0.00516403  1
  Ru4+  Ru176  1  0.25022251  0.28138944  0.76497106  1
  Ru4+  Ru177  1  0.74967648  0.06931867  0.74849084  1
  Ru4+  Ru178  1  0.25036126  0.26963313  0.24656578  1
  Ru4+  Ru179  1  0.74955954  0.76598190  0.24927951  1
  O2-  O180  1  0.16774838  0.08113665  0.00184148  1
  O2-  O181  1  0.16438707  0.08030613  0.25053545  1
  O2-  O182  1  0.16694642  0.07986467  0.49970788  1
  O2-  O183  1  0.16524977  0.07947550  0.74743192  1
  O2-  O184  1  0.16830713  0.41494297  -0.00007480  1
  O2-  O185  1  0.16713497  0.41415568  0.24827382  1
  O2-  O186  1  0.16609816  0.41178367  0.49992169  1
  O2-  O187  1  0.16609823  0.41520548  0.74936174  1
  O2-  O188  1  0.16698956  0.74540839  -0.00000094  1
  O2-  O189  1  0.16993076  0.74830253  0.24818258  1
  O2-  O190  1  0.16484255  0.74457885  0.49963498  1
  O2-  O191  1  0.16621687  0.74758965  0.74950079  1
  O2-  O192  1  0.66661831  0.07885004  0.00020287  1
  O2-  O193  1  0.66558381  0.08028642  0.25033301  1
  O2-  O194  1  0.66545523  0.07756015  0.49927583  1
  O2-  O195  1  0.66590577  0.07890990  0.74958411  1
  O2-  O196  1  0.66784883  0.41455251  0.00386588  1
  O2-  O197  1  0.66740962  0.41243171  0.25065501  1
  O2-  O198  1  0.66606974  0.41190278  0.50007241  1
  O2-  O199  1  0.66707558  0.41203865  0.74778030  1
  O2-  O200  1  0.66835021  0.74907592  0.00093132  1
  O2-  O201  1  0.66621959  0.74665211  0.24945236  1
  O2-  O202  1  0.66771501  0.75083245  0.49989710  1
  O2-  O203  1  0.66385081  0.74728039  0.74856656  1
  O2-  O204  1  0.33463956  0.25104868  -0.00044990  1
  O2-  O205  1  0.33393257  0.25311474  0.24893609  1
  O2-  O206  1  0.33477919  0.25353686  0.50127901  1
  O2-  O207  1  0.33313177  0.25246701  0.75113593  1
  O2-  O208  1  0.33235597  0.58439805  -0.00114274  1
  O2-  O209  1  0.33345891  0.58372380  0.25061868  1
  O2-  O210  1  0.33267015  0.58700087  0.49965403  1
  O2-  O211  1  0.33322052  0.58559217  0.74806163  1
  O2-  O212  1  0.33251146  0.92163920  -0.00083338  1
  O2-  O213  1  0.33559838  0.91692244  0.24889439  1
  O2-  O214  1  0.33346235  0.92108064  0.50078159  1
  O2-  O215  1  0.33236808  0.91893291  0.74888698  1
  O2-  O216  1  0.83462415  0.25255547  0.00068939  1
  O2-  O217  1  0.83257425  0.25390851  0.24939650  1
  O2-  O218  1  0.83483798  0.25423296  0.50025902  1
  O2-  O219  1  0.84007579  0.25620638  0.74934471  1
  O2-  O220  1  0.83145822  0.58538389  0.00334616  1
  O2-  O221  1  0.83325238  0.58783234  0.24849824  1
  O2-  O222  1  0.83319390  0.58372641  0.50037584  1
  O2-  O223  1  0.83413020  0.58541764  0.75067556  1
  O2-  O224  1  0.83259775  0.91866934  -0.00094151  1
  O2-  O225  1  0.83484583  0.91865331  0.25132143  1
  O2-  O226  1  0.83074806  0.91818489  0.49741133  1
  O2-  O227  1  0.83414954  0.92051273  0.75110566  1
  O2-  O228  1  0.16650965  0.25091920  0.00266222  1
  O2-  O229  1  0.16621371  0.25331249  0.24916911  1
  O2-  O230  1  0.16441616  0.25347591  0.50029553  1
  O2-  O231  1  0.16818929  0.25270186  0.75013326  1
  O2-  O232  1  0.16643671  0.58585716  -0.00124226  1
  O2-  O233  1  0.16630380  0.58735173  0.24802369  1
  O2-  O234  1  0.16534459  0.58656848  0.49990496  1
  O2-  O235  1  0.16932825  0.58476540  0.74869491  1
  O2-  O236  1  0.16509881  0.92122904  0.00055523  1
  O2-  O237  1  0.16397082  0.91697835  0.24937672  1
  O2-  O238  1  0.16440149  0.92258574  0.49925700  1
  O2-  O239  1  0.16951236  0.91800884  0.74813425  1
  O2-  O240  1  0.66637551  0.25389189  0.00128892  1
  O2-  O241  1  0.66773618  0.25385155  0.24902187  1
  O2-  O242  1  0.66774534  0.25586576  0.50100650  1
  O2-  O243  1  0.66040773  0.25604301  0.74772204  1
  O2-  O244  1  0.66443561  0.58435705  0.00219347  1
  O2-  O245  1  0.66624084  0.58727039  0.24905413  1
  O2-  O246  1  0.66599276  0.58330694  0.49968574  1
  O2-  O247  1  0.66442459  0.58437909  0.75061574  1
  O2-  O248  1  0.66571909  0.91869017  0.00053353  1
  O2-  O249  1  0.66443394  0.92057535  0.25055915  1
  O2-  O250  1  0.66711541  0.91874672  0.49807371  1
  O2-  O251  1  0.66647093  0.91988834  0.74926774  1
  O2-  O252  1  0.33209376  0.08076694  0.00051770  1
  O2-  O253  1  0.33402816  0.08057078  0.24918784  1
  O2-  O254  1  0.33340027  0.08088578  0.50091304  1
  O2-  O255  1  0.33416276  0.07891107  0.74748579  1
  O2-  O256  1  0.33305209  0.41712725  -0.00165857  1
  O2-  O257  1  0.33175994  0.41608535  0.25126675  1
  O2-  O258  1  0.33344713  0.41205662  0.50024137  1
  O2-  O259  1  0.33428841  0.41505760  0.74936870  1
  O2-  O260  1  0.33332580  0.74755577  -0.00173936  1
  O2-  O261  1  0.33205459  0.74763179  0.25014365  1
  O2-  O262  1  0.33575794  0.74507966  0.50046086  1
  O2-  O263  1  0.33192903  0.74845015  0.75075284  1
  O2-  O264  1  0.83090607  0.07909262  -0.00120533  1
  O2-  O265  1  0.83396027  0.08101270  0.25035233  1
  O2-  O266  1  0.83256094  0.07849926  0.49781044  1
  O2-  O267  1  0.83189709  0.07954748  0.75106939  1
  O2-  O268  1  0.83391405  0.41463370  0.00223360  1
  O2-  O269  1  0.83281697  0.40921237  0.24999142  1
  O2-  O270  1  0.83423517  0.41180004  0.50077596  1
  O2-  O271  1  0.83301750  0.41227497  0.74842593  1
  O2-  O272  1  0.83280137  0.74704748  0.00199772  1
  O2-  O273  1  0.83321763  0.74826435  0.24940875  1
  O2-  O274  1  0.83286664  0.75087660  0.49972533  1
  O2-  O275  1  0.83569150  0.74691487  0.75036612  1
  O2-  O276  1  0.53741399  0.77992383  0.71328675  1
  O2-  O277  1  0.95399037  0.43092839  0.51148378  1
  O2-  O278  1  0.95491828  0.90231124  0.23874817  1
  O2-  O279  1  0.54540068  0.76772676  0.99055133  1
  O2-  O280  1  0.94894298  0.56929733  0.73527866  1
  O2-  O281  1  0.95440560  0.43020877  0.97844378  1
  O2-  O282  1  0.44348802  0.41636528  0.46380148  1
  O2-  O283  1  0.95414680  0.24038837  0.48682836  1
  O2-  O284  1  0.44947653  0.76489793  0.01413340  1
  O2-  O285  1  0.45296716  0.09829021  0.01389910  1
  O2-  O286  1  0.45572084  0.23387276  0.51540861  1
  O2-  O287  1  0.04879413  0.42413850  0.76832508  1
  O2-  O288  1  0.04519136  0.43417544  0.26307443  1
  O2-  O289  1  0.04547931  0.76474996  0.76171617  1
  O2-  O290  1  0.96496307  0.88563845  0.46613456  1
  O2-  O291  1  0.46262982  0.44376643  0.27230245  1
  O2-  O292  1  0.96035142  0.10680968  0.47363585  1
  O2-  O293  1  0.05153092  0.56725132  0.00872179  1
  O2-  O294  1  0.54888786  0.43085231  0.49871366  1
  O2-  O295  1  0.04591861  0.10029221  0.73755047  1
  O2-  O296  1  0.95818638  0.56286921  0.03271074  1
  O2-  O297  1  0.95173917  0.42841923  0.01738343  1
  O2-  O298  1  0.55272810  0.75602871  0.01340048  1
  O2-  O299  1  0.45497272  0.43328909  0.96576093  1
  O2-  O300  1  0.45186756  0.76187379  0.51640821  1
  O2-  O301  1  0.54703289  0.43154454  0.50778257  1
  O2-  O302  1  0.04485196  0.10034287  0.23740311  1
  O2-  O303  1  0.44650859  0.90440346  0.04919587  1
  O2-  O304  1  0.95533213  0.56882318  0.26370061  1
  O2-  O305  1  0.54979111  0.43172443  0.76056375  1
  O2-  O306  1  0.05562772  0.08137367  0.03850301  1
  O2-  O307  1  0.45464482  0.76416415  0.47732927  1
  O2-  O308  1  0.54829662  0.90580884  0.51682895  1
  O2-  O309  1  0.94673093  0.76498195  0.26668429  1
  O2-  O310  1  0.04965472  0.42799319  0.72915972  1
  O2-  O311  1  0.46774302  0.55600828  0.00715981  1
  O2-  O312  1  0.54722609  0.90089383  0.47785146  1
  O2-  O313  1  0.55043873  0.90832448  0.01627581  1
  O2-  O314  1  0.95404085  0.76687807  0.01479681  1
  O2-  O315  1  0.03662339  0.55891175  0.74863207  1
  O2-  O316  1  0.95602050  0.76059027  0.23065262  1
  O2-  O317  1  0.45055028  0.43034069  0.76414114  1
  O2-  O318  1  0.54521433  0.23369160  0.23800884  1
  O2-  O319  1  0.45509139  0.09971960  0.74015528  1
  O2-  O320  1  0.54425366  0.44101603  0.03056649  1
  O2-  O321  1  0.46549735  0.44723965  0.25507463  1
  O2-  O322  1  0.95035728  0.42410895  0.76450983  1
  O2-  O323  1  0.96107724  0.11709152  0.96254753  1
  O2-  O324  1  0.93622696  0.58937026  0.47089827  1
  O2-  O325  1  0.93379001  0.07515728  0.72291685  1
  O2-  O326  1  0.56711001  0.59222591  0.29528720  1
  O2-  O327  1  0.07101799  0.06258680  0.91951477  1
  O2-  O328  1  0.43248848  0.74083521  0.02654285  1
  O2-  O329  1  0.08033554  0.61267316  0.71688333  1
  O2-  O330  1  0.43542259  0.39749975  0.55334543  1
  O2-  O331  1  0.57022730  0.40113262  0.96028659  1
  O2-  O332  1  0.06293079  0.40231794  0.53410721  1
  O2-  O333  1  0.56228364  0.59482253  0.53138234  1
  O2-  O334  1  0.06381668  0.93053439  0.78456096  1
  O2-  O335  1  0.06415873  0.59312939  0.02779597  1
  O2-  O336  1  0.06217137  0.41391767  0.28171314  1
  O2-  O337  1  0.43577288  0.07348415  0.02380812  1
  O2-  O338  1  0.93541896  0.74290432  0.52957300  1
  O2-  O339  1  0.43477482  0.59387781  0.52295738  1
  O2-  O340  1  0.56313493  0.93182605  0.78424763  1
  O2-  O341  1  0.92283691  0.93320666  0.54794043  1
  O2-  O342  1  0.06444253  0.73766871  0.96593553  1
  O2-  O343  1  0.92246927  0.06213115  0.04986315  1
  O2-  O344  1  0.93598367  0.58680479  0.27919669  1
  O2-  O345  1  0.42474348  0.60674376  0.03334115  1
  O2-  O346  1  0.56315437  0.74004294  0.53332362  1
  O2-  O347  1  0.43690701  0.73393642  0.81903748  1
  O2-  O348  1  0.56834872  0.72809474  0.96736406  1
  O2-  O349  1  0.93583890  0.74115665  0.72316887  1
  O2-  O350  1  0.43313804  0.59606359  0.22526442  1
  O2-  O351  1  0.44386896  0.91090619  0.04105589  1
  O2-  O352  1  0.43838895  0.07386614  0.46697240  1
  O2-  O353  1  0.43075263  0.94397871  0.91813132  1
  O2-  O354  1  0.43186605  0.74643831  0.68933166  1
  O2-  O355  1  0.57082315  0.71702292  0.80683991  1
  O2-  O356  1  0.05278461  0.09792710  0.04495393  1
  O2-  O357  1  0.06230867  0.26440673  0.78086075  1
  O2-  O358  1  0.56546205  0.25962326  0.47341492  1
  O2-  O359  1  0.41567806  0.38106554  0.20168609  1
  O2-  O360  1  0.42923499  0.39918280  0.04034061  1
  O2-  O361  1  0.06613389  0.40821439  0.02643375  1
  O2-  O362  1  0.06221647  0.26026833  0.96574180  1
  O2-  O363  1  0.43746769  0.07092816  0.28366642  1
  O2-  O364  1  0.44322500  0.41609840  0.46404653  1
  O2-  O365  1  0.43614886  0.92661684  0.46365084  1
  O2-  O366  1  0.92444545  0.60462632  0.95102166  1
  O2-  O367  1  0.06715303  0.74174775  0.27674366  1
  O2-  O368  1  0.56771432  0.40197486  0.21563301  1
  O2-  O369  1  0.92905620  0.07070732  0.54112720  1
  O2-  O370  1  0.06487517  0.07445693  0.52567437  1
  O2-  O371  1  0.56516287  0.59530894  0.19731841  1
  O2-  O372  1  0.75013308  0.66616920  0.42418949  1
  O2-  O373  1  0.25014286  -0.00253265  0.84245889  1
  O2-  O374  1  0.24970507  0.00376662  0.60613679  1
  O2-  O375  1  0.24996073  0.65730793  0.92106513  1
  O2-  O376  1  0.24945989  0.00186761  0.35426112  1
  O2-  O377  1  0.25038911  0.66988090  0.34195334  1
  O2-  O378  1  0.24978276  -0.00139193  0.07733666  1
  O2-  O379  1  0.25021724  0.33126155  0.42512099  1
  O2-  O380  1  0.74972707  0.66407545  0.92313032  1
  O2-  O381  1  0.74995248  0.66594957  0.83134303  1
  O2-  O382  1  0.75021576  0.66637761  0.65746418  1
  O2-  O383  1  0.75016374  0.33669745  0.82989611  1
  O2-  O384  1  0.25028724  0.32812431  0.89223988  1
  O2-  O385  1  0.74996069  0.67575034  0.33621933  1
  O2-  O386  1  0.24972288  -0.00191418  0.16952226  1
  O2-  O387  1  0.25003090  0.33395110  0.64788874  1
  O2-  O388  1  0.75020208  0.67046478  0.14936479  1
  O2-  O389  1  0.74984726  -0.00104733  0.85240622  1
  O2-  O390  1  0.24993926  0.66162412  0.10241598  1
  O2-  O391  1  0.24996339  0.34391036  0.33474920  1
  O2-  O392  1  0.74969213  -0.00307130  0.10007466  1
  O2-  O393  1  0.24994326  0.66990819  0.81502062  1
  O2-  O394  1  0.75018550  0.33203008  0.92316279  1
  O2-  O395  1  0.74994852  -0.00682695  0.60627618  1
  O2-  O396  1  0.24997996  0.16210019  0.91000796  1
  O2-  O397  1  0.75005936  0.16539318  0.31550041  1
  O2-  O398  1  0.25014020  0.16310573  0.41559791  1
  O2-  O399  1  0.75001854  0.83561127  0.91202497  1
  O2-  O400  1  0.74980855  0.50018326  0.95230349  1
  O2-  O401  1  0.75008727  0.51280665  0.55527954  1
  O2-  O402  1  0.75001977  0.50448330  0.34048381  1
  O2-  O403  1  0.74998493  0.13833592  0.65525539  1
  O2-  O404  1  0.74998308  0.16158572  0.92951082  1
  O2-  O405  1  0.75026687  0.50752667  0.42741830  1
  O2-  O406  1  0.25007667  0.83577444  0.64071732  1
  O2-  O407  1  0.24971213  0.50259000  0.08670234  1
  O2-  O408  1  0.75003500  0.82975205  0.15707301  1
  O2-  O409  1  0.75004412  0.49903019  0.87199912  1
  O2-  O410  1  0.75016173  0.49423534  0.63384141  1
  O2-  O411  1  0.24983103  0.50383638  0.40232263  1
  O2-  O412  1  0.74976817  0.14431085  0.84224832  1
  O2-  O413  1  0.25005927  0.50496527  0.83728174  1
  O2-  O414  1  0.25012481  0.83052996  0.36460700  1
  O2-  O415  1  0.74999906  0.83160599  0.33997480  1
  O2-  O416  1  0.24984399  0.17693808  0.32893067  1
  O2-  O417  1  0.75051472  0.17534587  0.57762555  1
  O2-  O418  1  0.75009088  0.84613450  0.63494531  1
  O2-  O419  1  0.24983676  0.50069380  0.31815244  1
  O2-  O420  1  0.96886668  0.65812235  0.62297325  1
  O2-  O421  1  0.47704502  0.00495736  0.13809919  1
  O2-  O422  1  0.47996244  0.67431013  0.13247566  1
  O2-  O423  1  0.95541964  0.33024020  0.13093754  1
  O2-  O424  1  0.52401643  0.67404829  0.38075076  1
  O2-  O425  1  0.54364267  0.00375513  0.62922214  1
  O2-  O426  1  0.03455677  -0.00742613  0.62741631  1
  O2-  O427  1  0.02684494  0.66952312  0.12976583  1
  O2-  O428  1  0.45663936  -0.00225462  0.62446010  1
  O2-  O429  1  0.03054843  -0.01050022  0.13267643  1
  O2-  O430  1  0.02514580  0.32956312  0.37763370  1
  O2-  O431  1  0.97216267  -0.00297691  0.87492009  1
  O2-  O432  1  0.97246095  -0.00264695  0.13085776  1
  O2-  O433  1  0.97399151  0.00137429  0.37029038  1
  O2-  O434  1  0.97347959  -0.00429716  0.63457738  1
  O2-  O435  1  0.52428452  0.32317257  0.87169957  1
  O2-  O436  1  0.04012325  0.65775997  0.38280361  1
  O2-  O437  1  0.97541688  0.67414443  0.86955137  1
  O2-  O438  1  0.47905845  0.31703492  0.12270495  1
  O2-  O439  1  0.52716121  0.33422379  0.36782768  1
  O2-  O440  1  0.96393848  0.67770726  0.37579848  1
  O2-  O441  1  0.04050809  0.32621081  0.13359720  1
  O2-  O442  1  0.03451872  0.67391722  0.61564959  1
  O2-  O443  1  0.47899007  0.66139295  0.62640466  1
