# generated using pymatgen
data_La7(Ru4O11)2
_symmetry_space_group_name_H-M   'P 1'
_cell_length_a   23.99117381
_cell_length_b   16.83221385
_cell_length_c   15.42828735
_cell_angle_alpha   89.99998628
_cell_angle_beta   89.99791832
_cell_angle_gamma   89.99893343
_symmetry_Int_Tables_number   1
_chemical_formula_structural   La7(Ru4O11)2
_chemical_formula_sum   'La84 Ru96 O264'
_cell_volume   6230.32147179
_cell_formula_units_Z   12
loop_
 _symmetry_equiv_pos_site_id
 _symmetry_equiv_pos_as_xyz
  1  'x, y, z'
loop_
 _atom_type_symbol
 _atom_type_oxidation_number
  La3+  3.0
  Ru4+  4.0
  O2-  -2.0
loop_
 _atom_site_type_symbol
 _atom_site_label
 _atom_site_symmetry_multiplicity
 _atom_site_fract_x
 _atom_site_fract_y
 _atom_site_fract_z
 _atom_site_occupancy
  La3+  La0  1  0.14120933  -0.00223951  0.12084089  1
  La3+  La1  1  0.13539923  -0.00051194  0.37504972  1
  La3+  La2  1  0.13543991  0.00149333  0.62536629  1
  La3+  La3  1  0.13834431  -0.00249960  0.87705718  1
  La3+  La4  1  0.13376539  0.32968236  0.12599224  1
  La3+  La5  1  0.14025743  0.33466595  0.38075872  1
  La3+  La6  1  0.13739779  0.33304898  0.62108281  1
  La3+  La7  1  0.13559396  0.33203109  0.87455173  1
  La3+  La8  1  0.13694638  0.66974025  0.12820478  1
  La3+  La9  1  0.13703250  0.66740219  0.37386734  1
  La3+  La10  1  0.14066572  0.66394105  0.63109606  1
  La3+  La11  1  0.14052187  0.66688522  0.87094157  1
  La3+  La12  1  0.64579944  -0.00015524  0.12550326  1
  La3+  La13  1  0.64305331  -0.00141265  0.36955209  1
  La3+  La14  1  0.63699491  -0.00286189  0.62657370  1
  La3+  La15  1  0.64395904  0.00157262  0.87958396  1
  La3+  La16  1  0.64736167  0.33311913  0.12659700  1
  La3+  La17  1  0.64363908  0.33290286  0.37442213  1
  La3+  La18  1  0.64034904  0.33373362  0.61998653  1
  La3+  La19  1  0.63826578  0.33414327  0.87700589  1
  La3+  La20  1  0.64084209  0.66677790  0.12781211  1
  La3+  La21  1  0.64342772  0.66874975  0.37256152  1
  La3+  La22  1  0.64133043  0.66702938  0.62633234  1
  La3+  La23  1  0.64510508  0.66718186  0.87903263  1
  La3+  La24  1  0.36028091  -0.00203730  0.12146904  1
  La3+  La25  1  0.36581800  0.00013439  0.37373565  1
  La3+  La26  1  0.35963576  0.00008186  0.62626845  1
  La3+  La27  1  0.36049454  -0.00407522  0.87889181  1
  La3+  La28  1  0.36807924  0.33245011  0.12577036  1
  La3+  La29  1  0.36839387  0.34122839  0.38820756  1
  La3+  La30  1  0.36748176  0.34123488  0.61620881  1
  La3+  La31  1  0.36457666  0.33572126  0.87030121  1
  La3+  La32  1  0.37321671  0.66196062  0.12911448  1
  La3+  La33  1  0.37076825  0.65780862  0.36310767  1
  La3+  La34  1  0.36245363  0.66314663  0.62942589  1
  La3+  La35  1  0.36410346  0.66409010  0.87400050  1
  La3+  La36  1  0.85483479  0.00001017  0.12324222  1
  La3+  La37  1  0.85760632  -0.00083079  0.37083696  1
  La3+  La38  1  0.86242275  -0.00182387  0.62644190  1
  La3+  La39  1  0.85960316  -0.00355724  0.87755023  1
  La3+  La40  1  0.85266164  0.33440723  0.12586073  1
  La3+  La41  1  0.85548548  0.33373624  0.37071038  1
  La3+  La42  1  0.85178201  0.33044341  0.62045823  1
  La3+  La43  1  0.85496822  0.32886191  0.88016488  1
  La3+  La44  1  0.86299971  0.66078388  0.12601712  1
  La3+  La45  1  0.85644348  0.66715579  0.37106632  1
  La3+  La46  1  0.85978398  0.67246661  0.62291694  1
  La3+  La47  1  0.85522449  0.66692028  0.87927319  1
  La3+  La48  1  0.00067027  0.83303581  0.13535724  1
  La3+  La49  1  0.00000717  0.16820177  0.38885128  1
  La3+  La50  1  0.49305146  0.49743333  0.36940566  1
  La3+  La51  1  0.49455044  0.82797196  0.62555973  1
  La3+  La52  1  0.50118685  0.83400865  0.86929752  1
  La3+  La53  1  0.49880369  0.16799135  0.88460885  1
  La3+  La54  1  -0.00187391  0.83347869  0.86958431  1
  La3+  La55  1  0.49809301  0.17064132  0.63997723  1
  La3+  La56  1  -0.00362714  0.16837056  0.36673765  1
  La3+  La57  1  0.49406278  0.50734627  0.12091515  1
  La3+  La58  1  -0.00198574  0.49702074  0.37771984  1
  La3+  La59  1  0.00112895  0.16599108  0.88217916  1
  La3+  La60  1  0.00290975  0.50939276  0.62966292  1
  La3+  La61  1  0.50805966  0.16884073  0.36252643  1
  La3+  La62  1  0.50200693  0.82909410  0.35938052  1
  La3+  La63  1  0.00266233  0.84290118  0.62632760  1
  La3+  La64  1  -0.00111444  0.49797968  0.87191538  1
  La3+  La65  1  -0.00859274  0.49610361  0.88337174  1
  La3+  La66  1  0.49124345  0.49959140  0.38638013  1
  La3+  La67  1  0.00066618  0.50141101  0.11907941  1
  La3+  La68  1  0.50546441  0.17926882  0.38150385  1
  La3+  La69  1  0.49913969  0.50209767  0.87467157  1
  La3+  La70  1  0.00429021  0.50774106  0.62965601  1
  La3+  La71  1  0.50763679  0.16083782  0.12648402  1
  La3+  La72  1  0.25103419  0.78790966  0.78415685  1
  La3+  La73  1  0.75011150  0.49942713  0.00933515  1
  La3+  La74  1  0.25341221  0.52329693  -0.01857652  1
  La3+  La75  1  0.25029717  0.17563634  0.79915625  1
  La3+  La76  1  0.25002649  0.84469325  0.52355393  1
  La3+  La77  1  0.24952581  0.10645581  -0.03378866  1
  La3+  La78  1  0.24866851  0.55009007  0.30348748  1
  La3+  La79  1  0.75031380  0.20960943  0.49136269  1
  La3+  La80  1  0.75018690  0.16064955  -0.02858837  1
  La3+  La81  1  0.24960334  0.14279429  0.30965379  1
  La3+  La82  1  0.75033401  0.83853675  0.03716681  1
  La3+  La83  1  0.74965904  0.20005524  0.74205946  1
  Ru4+  Ru84  1  -0.00106724  0.00084256  0.00732101  1
  Ru4+  Ru85  1  -0.00283778  -0.00045242  0.24766567  1
  Ru4+  Ru86  1  -0.00204739  0.00199919  0.50129328  1
  Ru4+  Ru87  1  0.00458612  0.00600000  0.74895738  1
  Ru4+  Ru88  1  0.00076654  0.32721833  0.00489206  1
  Ru4+  Ru89  1  -0.00225322  0.33337252  0.25155221  1
  Ru4+  Ru90  1  0.00053143  0.33239705  0.50085289  1
  Ru4+  Ru91  1  0.00232505  0.32831665  0.74468694  1
  Ru4+  Ru92  1  0.00423444  0.67620680  0.00197704  1
  Ru4+  Ru93  1  0.00283789  0.67199879  0.25016984  1
  Ru4+  Ru94  1  -0.00448988  0.66909108  0.49293396  1
  Ru4+  Ru95  1  0.00318889  0.67254890  0.75326238  1
  Ru4+  Ru96  1  0.50165198  -0.00400065  0.00325900  1
  Ru4+  Ru97  1  0.50420976  -0.00875966  0.24496343  1
  Ru4+  Ru98  1  0.49864765  0.00031039  0.50345212  1
  Ru4+  Ru99  1  0.50099991  -0.00261797  0.75266988  1
  Ru4+  Ru100  1  0.50037068  0.33242934  -0.00422066  1
  Ru4+  Ru101  1  0.50230556  0.34218612  0.24643803  1
  Ru4+  Ru102  1  0.49985490  0.34191882  0.50860556  1
  Ru4+  Ru103  1  0.49785367  0.33983328  0.75067176  1
  Ru4+  Ru104  1  0.50014613  0.67478142  0.00209967  1
  Ru4+  Ru105  1  0.50056271  0.66216992  0.24665927  1
  Ru4+  Ru106  1  0.50032440  0.66566322  0.50007637  1
  Ru4+  Ru107  1  0.49888274  0.66307149  0.75034431  1
  Ru4+  Ru108  1  0.10905576  0.16670148  0.00024092  1
  Ru4+  Ru109  1  0.11007484  0.16697392  0.24839174  1
  Ru4+  Ru110  1  0.11292188  0.16894752  0.49961043  1
  Ru4+  Ru111  1  0.10870924  0.16607454  0.75101868  1
  Ru4+  Ru112  1  0.11369920  0.50143707  0.00391816  1
  Ru4+  Ru113  1  0.10922106  0.50113149  0.25153233  1
  Ru4+  Ru114  1  0.11348119  0.49521957  0.49899435  1
  Ru4+  Ru115  1  0.11747360  0.50371250  0.75153014  1
  Ru4+  Ru116  1  0.11208523  0.83554940  0.00075714  1
  Ru4+  Ru117  1  0.11030821  0.83291950  0.24946446  1
  Ru4+  Ru118  1  0.11184826  0.83427340  0.50046318  1
  Ru4+  Ru119  1  0.11154119  0.83123923  0.74962364  1
  Ru4+  Ru120  1  0.61058742  0.16684308  -0.00114514  1
  Ru4+  Ru121  1  0.61840393  0.16863154  0.24762142  1
  Ru4+  Ru122  1  0.61429923  0.16115119  0.50200328  1
  Ru4+  Ru123  1  0.60992185  0.16987568  0.75173541  1
  Ru4+  Ru124  1  0.61211599  0.50231394  -0.00113833  1
  Ru4+  Ru125  1  0.61513583  0.50075189  0.25022352  1
  Ru4+  Ru126  1  0.61375864  0.49882261  0.50041096  1
  Ru4+  Ru127  1  0.60918651  0.50002019  0.74831238  1
  Ru4+  Ru128  1  0.61177812  0.83011427  0.00214198  1
  Ru4+  Ru129  1  0.61548124  0.83015095  0.24937524  1
  Ru4+  Ru130  1  0.61358983  0.82868427  0.50095470  1
  Ru4+  Ru131  1  0.61222924  0.83586512  0.75141098  1
  Ru4+  Ru132  1  0.38990998  0.16827243  -0.00092076  1
  Ru4+  Ru133  1  0.38056407  0.16798011  0.24794955  1
  Ru4+  Ru134  1  0.38633542  0.16830367  0.50430680  1
  Ru4+  Ru135  1  0.39046754  0.16664396  0.75057692  1
  Ru4+  Ru136  1  0.38686415  0.49412854  0.00501862  1
  Ru4+  Ru137  1  0.39028606  0.49984084  0.25029898  1
  Ru4+  Ru138  1  0.38715984  0.49841749  0.49933762  1
  Ru4+  Ru139  1  0.38746905  0.50287918  0.74713895  1
  Ru4+  Ru140  1  0.38754529  0.83547410  -0.00114010  1
  Ru4+  Ru141  1  0.38951236  0.83026546  0.25128730  1
  Ru4+  Ru142  1  0.39140421  0.83497866  0.50091870  1
  Ru4+  Ru143  1  0.38976054  0.83002814  0.75054559  1
  Ru4+  Ru144  1  0.88878716  0.16701858  -0.00033191  1
  Ru4+  Ru145  1  0.88290513  0.16714919  0.24915550  1
  Ru4+  Ru146  1  0.89091942  0.16486814  0.50157605  1
  Ru4+  Ru147  1  0.89079870  0.17034862  0.74801540  1
  Ru4+  Ru148  1  0.88393594  0.49584270  -0.00080432  1
  Ru4+  Ru149  1  0.88335390  0.49723644  0.25032083  1
  Ru4+  Ru150  1  0.88408505  0.49645426  0.49797767  1
  Ru4+  Ru151  1  0.88333881  0.49792279  0.75009806  1
  Ru4+  Ru152  1  0.88679374  0.83185462  0.00045452  1
  Ru4+  Ru153  1  0.88294661  0.83392555  0.25014095  1
  Ru4+  Ru154  1  0.88635539  0.82971290  0.49983452  1
  Ru4+  Ru155  1  0.88332737  0.82685674  0.75146494  1
  Ru4+  Ru156  1  0.24967264  0.08929947  0.50301783  1
  Ru4+  Ru157  1  0.25017452  0.29432404  0.73157657  1
  Ru4+  Ru158  1  0.25017242  0.92253208  0.75299300  1
  Ru4+  Ru159  1  0.25010620  0.76258097  0.24393216  1
  Ru4+  Ru160  1  0.74949228  0.57381501  0.75866268  1
  Ru4+  Ru161  1  0.75029569  0.06650598  0.49223823  1
  Ru4+  Ru162  1  0.25008554  0.76656640  0.00308197  1
  Ru4+  Ru163  1  0.75009660  0.91478066  0.74892463  1
  Ru4+  Ru164  1  0.75003211  0.57498338  0.49117229  1
  Ru4+  Ru165  1  0.24999390  0.26414690  0.24765553  1
  Ru4+  Ru166  1  0.25003734  0.56802454  0.51164347  1
  Ru4+  Ru167  1  0.24976375  0.03176679  0.22564023  1
  Ru4+  Ru168  1  0.25067241  0.71495315  0.50681142  1
  Ru4+  Ru169  1  0.25019534  0.96491068  0.46487275  1
  Ru4+  Ru170  1  0.75002502  0.05415867  0.75944707  1
  Ru4+  Ru171  1  0.24999376  0.24890897  -0.01285613  1
  Ru4+  Ru172  1  0.74949942  0.42768557  0.74487154  1
  Ru4+  Ru173  1  0.75029931  0.90759501  0.48844540  1
  Ru4+  Ru174  1  0.25029885  0.05167888  0.73741889  1
  Ru4+  Ru175  1  0.24948985  0.64129045  0.04019303  1
  Ru4+  Ru176  1  0.24982415  0.90273414  0.25590894  1
  Ru4+  Ru177  1  0.24989263  0.41213681  0.26461123  1
  Ru4+  Ru178  1  0.24955260  0.39165627  -0.01645829  1
  Ru4+  Ru179  1  0.25004827  0.42471004  0.73200929  1
  O2-  O180  1  0.16139392  0.07925844  0.00135033  1
  O2-  O181  1  0.16502063  0.07813124  0.25023115  1
  O2-  O182  1  0.16663334  0.07919820  0.50023749  1
  O2-  O183  1  0.16743916  0.07959946  0.74928542  1
  O2-  O184  1  0.16728315  0.41185860  -0.00164982  1
  O2-  O185  1  0.16562882  0.41254878  0.25092328  1
  O2-  O186  1  0.16444668  0.41463010  0.50227927  1
  O2-  O187  1  0.16737596  0.41172474  0.75103171  1
  O2-  O188  1  0.16643934  0.74674487  0.00066700  1
  O2-  O189  1  0.16613347  0.74819846  0.25118240  1
  O2-  O190  1  0.16837654  0.74414058  0.49725060  1
  O2-  O191  1  0.16543375  0.74523066  0.74945724  1
  O2-  O192  1  0.66506887  0.08305340  0.00078242  1
  O2-  O193  1  0.66541446  0.07977673  0.24979678  1
  O2-  O194  1  0.66734755  0.07928151  0.50200606  1
  O2-  O195  1  0.66782618  0.07992791  0.74842898  1
  O2-  O196  1  0.66548866  0.41475022  -0.00425802  1
  O2-  O197  1  0.66416876  0.41490800  0.25096770  1
  O2-  O198  1  0.66483323  0.41569379  0.49996092  1
  O2-  O199  1  0.66805926  0.41491664  0.75171369  1
  O2-  O200  1  0.66845678  0.74916535  0.00118686  1
  O2-  O201  1  0.66619327  0.74918807  0.25013897  1
  O2-  O202  1  0.66815095  0.74979684  0.49979829  1
  O2-  O203  1  0.66346163  0.74994376  0.74914508  1
  O2-  O204  1  0.33194780  0.25212218  0.00056289  1
  O2-  O205  1  0.33379305  0.25670067  0.25132852  1
  O2-  O206  1  0.33662801  0.25276668  0.50175108  1
  O2-  O207  1  0.33168010  0.25633428  0.74806097  1
  O2-  O208  1  0.33708555  0.58954695  0.00052076  1
  O2-  O209  1  0.33506093  0.58812502  0.24994435  1
  O2-  O210  1  0.33598685  0.58428066  0.49859060  1
  O2-  O211  1  0.33442767  0.58398606  0.74831182  1
  O2-  O212  1  0.33493127  0.91716575  0.00187269  1
  O2-  O213  1  0.33381023  0.91965715  0.25200196  1
  O2-  O214  1  0.33312620  0.92223064  0.49601283  1
  O2-  O215  1  0.33381339  0.92007818  0.75241048  1
  O2-  O216  1  0.83266956  0.24969063  0.00061487  1
  O2-  O217  1  0.83306668  0.25022985  0.24647980  1
  O2-  O218  1  0.83862084  0.25091808  0.49844778  1
  O2-  O219  1  0.83079125  0.25338134  0.75105773  1
  O2-  O220  1  0.83313250  0.58414454  0.00387937  1
  O2-  O221  1  0.83560557  0.58498707  0.24929050  1
  O2-  O222  1  0.83381090  0.58582422  0.50115691  1
  O2-  O223  1  0.82843516  0.58413953  0.75033448  1
  O2-  O224  1  0.83261985  0.91844745  -0.00133394  1
  O2-  O225  1  0.83281885  0.91771971  0.24937330  1
  O2-  O226  1  0.83369169  0.91783185  0.50038477  1
  O2-  O227  1  0.83363035  0.91750451  0.74753280  1
  O2-  O228  1  0.16747876  0.25395105  -0.00155213  1
  O2-  O229  1  0.16557851  0.25435447  0.25077337  1
  O2-  O230  1  0.16347566  0.25181519  0.50275445  1
  O2-  O231  1  0.16555457  0.25540355  0.74918564  1
  O2-  O232  1  0.16684231  0.58845473  -0.00225375  1
  O2-  O233  1  0.16223114  0.58916318  0.24829427  1
  O2-  O234  1  0.16681922  0.58609678  0.49899709  1
  O2-  O235  1  0.16697944  0.58502874  0.75217259  1
  O2-  O236  1  0.16324368  0.91848557  0.00115458  1
  O2-  O237  1  0.16642316  0.91947576  0.25116959  1
  O2-  O238  1  0.16386627  0.92186181  0.49925170  1
  O2-  O239  1  0.16585377  0.92078390  0.75078062  1
  O2-  O240  1  0.66617138  0.25304394  -0.00484880  1
  O2-  O241  1  0.66680224  0.25218263  0.25009044  1
  O2-  O242  1  0.66319017  0.25272865  0.50026306  1
  O2-  O243  1  0.66514182  0.25476782  0.75179759  1
  O2-  O244  1  0.66840594  0.58395979  0.00250937  1
  O2-  O245  1  0.66427359  0.58555615  0.25052185  1
  O2-  O246  1  0.66699765  0.58650435  0.50135869  1
  O2-  O247  1  0.66818471  0.58347899  0.75061255  1
  O2-  O248  1  0.66316867  0.91578535  0.00049655  1
  O2-  O249  1  0.66296488  0.91796116  0.24946163  1
  O2-  O250  1  0.66603397  0.91735567  0.50067686  1
  O2-  O251  1  0.66898277  0.92053256  0.74630378  1
  O2-  O252  1  0.33808754  0.07986803  0.00181373  1
  O2-  O253  1  0.33384748  0.07641548  0.24998166  1
  O2-  O254  1  0.33274572  0.08019527  0.49675961  1
  O2-  O255  1  0.33485680  0.07974484  0.75164949  1
  O2-  O256  1  0.33305950  0.41117253  0.00146782  1
  O2-  O257  1  0.33460982  0.41299437  0.25227420  1
  O2-  O258  1  0.33138219  0.41463293  0.50113750  1
  O2-  O259  1  0.33228283  0.41403635  0.74700350  1
  O2-  O260  1  0.33217914  0.74820873  0.00234311  1
  O2-  O261  1  0.33455809  0.74796108  0.24961552  1
  O2-  O262  1  0.33661929  0.74509341  0.49905129  1
  O2-  O263  1  0.33780626  0.74476049  0.74673480  1
  O2-  O264  1  0.83468337  0.08294767  -0.00194784  1
  O2-  O265  1  0.83595890  0.08064181  0.24935302  1
  O2-  O266  1  0.83184118  0.07960676  0.50441365  1
  O2-  O267  1  0.83380380  0.08040869  0.74929973  1
  O2-  O268  1  0.83029467  0.41605671  -0.00099489  1
  O2-  O269  1  0.83307361  0.41654313  0.24914384  1
  O2-  O270  1  0.83153717  0.41959908  0.50124225  1
  O2-  O271  1  0.82740328  0.41663493  0.75028277  1
  O2-  O272  1  0.83493463  0.74787057  0.00315906  1
  O2-  O273  1  0.83738663  0.74780584  0.24884889  1
  O2-  O274  1  0.82988661  0.74859638  0.49864734  1
  O2-  O275  1  0.83067107  0.74869484  0.74592906  1
  O2-  O276  1  0.94850168  0.90512965  0.76256235  1
  O2-  O277  1  0.05810693  0.42646273  0.73508349  1
  O2-  O278  1  0.54864625  0.43765097  0.50994356  1
  O2-  O279  1  0.45007552  0.09620827  0.23008911  1
  O2-  O280  1  0.54757586  0.42983597  0.74237054  1
  O2-  O281  1  0.94453054  0.75812726  0.51642048  1
  O2-  O282  1  0.45414663  0.09297407  0.01121460  1
  O2-  O283  1  0.54593291  0.42974926  0.98821834  1
  O2-  O284  1  0.54327709  0.24345592  0.51305163  1
  O2-  O285  1  0.96505285  0.45041439  0.74388268  1
  O2-  O286  1  0.45528678  0.10808364  0.46046000  1
  O2-  O287  1  0.53066758  0.79079197  0.00148844  1
  O2-  O288  1  0.03901796  0.78425896  0.49807457  1
  O2-  O289  1  0.55111969  0.09472152  0.23910125  1
  O2-  O290  1  0.45846388  0.56207018  0.25253725  1
  O2-  O291  1  0.04594631  0.57092477  0.50334060  1
  O2-  O292  1  0.54053065  0.10589175  0.54688081  1
  O2-  O293  1  0.45537831  0.23843531  0.22886545  1
  O2-  O294  1  0.03881518  0.43569724  0.97557936  1
  O2-  O295  1  0.96395887  0.44378392  0.52858288  1
  O2-  O296  1  0.96100311  0.57661333  0.78277722  1
  O2-  O297  1  0.95073919  0.90398660  0.01632254  1
  O2-  O298  1  0.46412032  0.88951986  0.46255375  1
  O2-  O299  1  0.96212360  0.77591258  0.71568448  1
  O2-  O300  1  0.96641863  0.11676476  0.54406489  1
  O2-  O301  1  0.45498768  0.43691294  0.49637794  1
  O2-  O302  1  0.04615867  0.23518745  0.23827286  1
  O2-  O303  1  0.95035065  0.56858688  0.01372045  1
  O2-  O304  1  0.46506504  0.23054233  0.03855903  1
  O2-  O305  1  0.04848781  0.90014537  0.76488560  1
  O2-  O306  1  0.45108022  0.90376014  0.76411950  1
  O2-  O307  1  0.04698882  0.08906104  0.26129032  1
  O2-  O308  1  0.45005376  0.57426870  0.27369479  1
  O2-  O309  1  0.45047422  0.23817504  0.26732953  1
  O2-  O310  1  0.95115424  0.56707181  0.23279302  1
  O2-  O311  1  0.95355109  0.23305345  0.99135971  1
  O2-  O312  1  0.54429634  0.10046490  0.76079156  1
  O2-  O313  1  0.44807383  0.42523980  0.47346107  1
  O2-  O314  1  0.53824176  0.78112960  0.46977918  1
  O2-  O315  1  0.96782281  0.44526370  0.74976010  1
  O2-  O316  1  0.54685360  0.57296614  0.73607613  1
  O2-  O317  1  0.55112899  0.90852391  0.70014595  1
  O2-  O318  1  0.54525703  0.43486948  0.23536206  1
  O2-  O319  1  0.04625312  0.23251894  0.76284631  1
  O2-  O320  1  0.45345632  0.90598876  0.26133558  1
  O2-  O321  1  0.44989670  0.09308225  0.26927217  1
  O2-  O322  1  0.45106998  0.56653833  0.98730737  1
  O2-  O323  1  0.04220733  0.56739683  0.96595271  1
  O2-  O324  1  0.42073051  0.26865136  0.94566146  1
  O2-  O325  1  0.94188102  0.91598917  0.02404780  1
  O2-  O326  1  0.57027050  0.04947448  0.43831715  1
  O2-  O327  1  0.43233516  0.59660466  0.22267779  1
  O2-  O328  1  0.42754392  0.06608027  0.56722037  1
  O2-  O329  1  0.91122971  0.39649851  0.82595840  1
  O2-  O330  1  0.91981531  0.39594085  0.44881673  1
  O2-  O331  1  0.92177952  0.38646235  0.65954407  1
  O2-  O332  1  0.43500219  0.40238262  0.21778498  1
  O2-  O333  1  0.43194565  0.74120260  0.02534191  1
  O2-  O334  1  0.06558445  0.07291419  0.77578051  1
  O2-  O335  1  0.57162759  0.71614038  0.56282717  1
  O2-  O336  1  0.56581294  0.25780072  0.52131027  1
  O2-  O337  1  0.93436537  0.92156947  0.29678736  1
  O2-  O338  1  0.43403108  0.59182071  0.77666972  1
  O2-  O339  1  0.91722610  0.59747271  0.69538388  1
  O2-  O340  1  0.43629144  0.40545336  0.03635316  1
  O2-  O341  1  0.06413624  0.59010114  0.72619970  1
  O2-  O342  1  0.06524020  0.74281883  0.72404015  1
  O2-  O343  1  0.93663281  0.25292595  0.68454599  1
  O2-  O344  1  0.06508512  0.25623386  0.02520569  1
  O2-  O345  1  0.92062777  0.06222222  0.44940151  1
  O2-  O346  1  0.43310031  0.40229642  0.52903763  1
  O2-  O347  1  0.43325272  0.41113007  0.77577145  1
  O2-  O348  1  0.56322165  0.26557058  0.21700757  1
  O2-  O349  1  0.42812407  0.93488203  0.56502515  1
  O2-  O350  1  0.92276803  0.72949551  0.80630877  1
  O2-  O351  1  0.43849569  0.59612013  0.97609918  1
  O2-  O352  1  0.93736697  0.59504186  0.03121088  1
  O2-  O353  1  0.93379323  0.93188478  0.77542361  1
  O2-  O354  1  0.93797640  0.41245123  0.27462038  1
  O2-  O355  1  0.07772301  0.40141286  0.05443912  1
  O2-  O356  1  0.06567591  0.06964423  0.46577434  1
  O2-  O357  1  0.07740982  0.60483966  0.05540172  1
  O2-  O358  1  0.07807817  0.72539503  0.53096831  1
  O2-  O359  1  0.93253116  0.24739785  0.80976218  1
  O2-  O360  1  0.93440353  0.25492851  0.27393292  1
  O2-  O361  1  0.56246578  0.73403068  0.22008215  1
  O2-  O362  1  0.93973595  0.74994669  0.52319419  1
  O2-  O363  1  0.55559845  0.91595177  0.69235454  1
  O2-  O364  1  0.93419888  0.92231115  0.19921441  1
  O2-  O365  1  0.56247557  0.59538216  0.96454765  1
  O2-  O366  1  0.57604514  0.71697694  0.04348586  1
  O2-  O367  1  0.43750337  0.25508406  0.77472017  1
  O2-  O368  1  0.43714743  0.92831601  0.96610434  1
  O2-  O369  1  0.93480695  0.40731180  0.97961684  1
  O2-  O370  1  0.57866886  0.92634930  0.83197566  1
  O2-  O371  1  0.93843713  0.59525473  0.21794957  1
  O2-  O372  1  0.25010427  0.33246002  0.43902145  1
  O2-  O373  1  0.74984171  0.33243861  0.42034276  1
  O2-  O374  1  0.74977661  -0.00200017  0.09571620  1
  O2-  O375  1  0.25023251  0.32201097  0.08001192  1
  O2-  O376  1  0.74851124  0.32895735  0.60754797  1
  O2-  O377  1  0.25050389  0.33321323  0.34811032  1
  O2-  O378  1  0.75007189  -0.00715202  0.60003320  1
  O2-  O379  1  0.75020193  0.66438493  0.33244406  1
  O2-  O380  1  0.24974123  0.00604218  0.60277521  1
  O2-  O381  1  0.75042735  0.66956234  0.42229216  1
  O2-  O382  1  0.24998002  -0.00128267  0.88828146  1
  O2-  O383  1  0.24945998  0.32350790  0.88018578  1
  O2-  O384  1  0.74950742  0.33292242  0.33079727  1
  O2-  O385  1  0.75039620  0.33526262  0.09318338  1
  O2-  O386  1  0.24997719  0.66191682  0.82030490  1
  O2-  O387  1  0.24984572  0.67534696  0.30237599  1
  O2-  O388  1  0.24942422  0.67560475  0.91286296  1
  O2-  O389  1  0.24991190  0.34919569  0.16576365  1
  O2-  O390  1  0.74931135  0.65664714  0.89568057  1
  O2-  O391  1  0.25022012  0.65510203  0.61310356  1
  O2-  O392  1  0.75085247  0.00705510  0.89188753  1
  O2-  O393  1  0.24997278  0.00251785  0.10437605  1
  O2-  O394  1  0.25029321  0.64112182  0.41802230  1
  O2-  O395  1  0.74980095  -0.00678697  0.39731599  1
  O2-  O396  1  0.24988286  0.16612333  0.65563188  1
  O2-  O397  1  0.24986726  0.17566522  0.43136134  1
  O2-  O398  1  0.74992694  0.16702429  0.10269621  1
  O2-  O399  1  0.24975284  0.49227677  0.42505945  1
  O2-  O400  1  0.24989978  0.17040005  0.16965969  1
  O2-  O401  1  0.24892413  0.48855609  0.86394578  1
  O2-  O402  1  0.25091325  0.49589545  0.18591660  1
  O2-  O403  1  0.75003424  0.50357621  0.41491024  1
  O2-  O404  1  0.24972940  0.49623455  0.65040684  1
  O2-  O405  1  0.24991889  0.83387293  0.37419274  1
  O2-  O406  1  0.74988570  0.82655128  0.81266282  1
  O2-  O407  1  0.24848829  0.49704996  0.10458410  1
  O2-  O408  1  0.25001994  0.83307558  0.15094514  1
  O2-  O409  1  0.74994306  0.16066333  0.35975730  1
  O2-  O410  1  0.24986552  0.84059673  0.65596231  1
  O2-  O411  1  0.24996247  0.17581983  0.07979672  1
  O2-  O412  1  0.74998885  0.16659190  0.18499710  1
  O2-  O413  1  0.24986370  0.83677714  0.91614470  1
  O2-  O414  1  0.74992569  0.83127100  0.16257005  1
  O2-  O415  1  0.25031522  0.17969401  0.56996396  1
  O2-  O416  1  0.74986074  0.83492180  0.89805091  1
  O2-  O417  1  0.74994306  0.50137279  0.14792568  1
  O2-  O418  1  0.74999091  0.83993466  0.35564139  1
  O2-  O419  1  0.25003883  0.52106140  0.78880647  1
  O2-  O420  1  0.47199690  0.66789460  0.62372133  1
  O2-  O421  1  0.47872868  0.66636841  0.12481458  1
  O2-  O422  1  0.96986430  0.00736357  0.87983284  1
  O2-  O423  1  0.98235134  0.01589796  0.12354214  1
  O2-  O424  1  0.03013019  -0.00397476  0.88746790  1
  O2-  O425  1  0.02762555  -0.00201615  0.62468029  1
  O2-  O426  1  0.02869588  0.66046997  0.62926664  1
  O2-  O427  1  0.02382746  0.67919413  0.13154047  1
  O2-  O428  1  0.51981679  0.01031859  0.88784925  1
  O2-  O429  1  0.52750973  -0.00199228  0.12124162  1
  O2-  O430  1  0.48485980  0.34190459  0.87470244  1
  O2-  O431  1  0.04438424  0.33333150  0.87227777  1
  O2-  O432  1  0.02910569  0.33283239  0.62075710  1
  O2-  O433  1  0.52990635  0.33240627  0.37630092  1
  O2-  O434  1  0.96955184  0.66322334  0.61787292  1
  O2-  O435  1  0.98407941  0.00139480  0.37456515  1
  O2-  O436  1  0.47926279  0.67939152  0.87405096  1
  O2-  O437  1  0.52305666  0.32845380  0.63270131  1
  O2-  O438  1  0.97418212  0.32719885  0.88655720  1
  O2-  O439  1  0.97821732  0.66398253  0.88957212  1
  O2-  O440  1  0.52747502  0.66138531  0.37274626  1
  O2-  O441  1  0.04733258  0.33617775  0.37665249  1
  O2-  O442  1  0.96926492  0.32032125  0.37943644  1
  O2-  O443  1  0.01776308  0.33726879  0.13467006  1
