# generated using pymatgen
data_La7(Ru4O11)2
_symmetry_space_group_name_H-M   'P 1'
_cell_length_a   23.98889725
_cell_length_b   16.82842621
_cell_length_c   15.42546511
_cell_angle_alpha   90.00014097
_cell_angle_beta   89.99992962
_cell_angle_gamma   89.99995228
_symmetry_Int_Tables_number   1
_chemical_formula_structural   La7(Ru4O11)2
_chemical_formula_sum   'La84 Ru96 O264'
_cell_volume   6227.18911109
_cell_formula_units_Z   12
loop_
 _symmetry_equiv_pos_site_id
 _symmetry_equiv_pos_as_xyz
  1  'x, y, z'
loop_
 _atom_type_symbol
 _atom_type_oxidation_number
  La3+  3.0
  Ru4+  4.0
  O2-  -2.0
loop_
 _atom_site_type_symbol
 _atom_site_label
 _atom_site_symmetry_multiplicity
 _atom_site_fract_x
 _atom_site_fract_y
 _atom_site_fract_z
 _atom_site_occupancy
  La3+  La0  1  0.13779441  -0.00123450  0.12646480  1
  La3+  La1  1  0.13770610  -0.00089513  0.37616333  1
  La3+  La2  1  0.13893780  -0.00020287  0.62408832  1
  La3+  La3  1  0.13872799  0.00002021  0.87393285  1
  La3+  La4  1  0.13812550  0.33374121  0.12422530  1
  La3+  La5  1  0.13739803  0.33287797  0.37428021  1
  La3+  La6  1  0.13893898  0.33306113  0.62598868  1
  La3+  La7  1  0.13936784  0.33366892  0.87546844  1
  La3+  La8  1  0.14006029  0.66700523  0.12556396  1
  La3+  La9  1  0.13942732  0.66745291  0.37397093  1
  La3+  La10  1  0.13680951  0.66757063  0.62433070  1
  La3+  La11  1  0.13915959  0.66679317  0.87607472  1
  La3+  La12  1  0.63850731  0.00090392  0.12590154  1
  La3+  La13  1  0.63916577  0.00028686  0.37617527  1
  La3+  La14  1  0.63838235  -0.00111164  0.62284763  1
  La3+  La15  1  0.63816432  -0.00016046  0.87506741  1
  La3+  La16  1  0.63917819  0.33399075  0.12435327  1
  La3+  La17  1  0.63916437  0.33351716  0.37498750  1
  La3+  La18  1  0.63869941  0.33414414  0.62425850  1
  La3+  La19  1  0.63807527  0.33448606  0.87545533  1
  La3+  La20  1  0.63883915  0.66639968  0.12360309  1
  La3+  La21  1  0.63736636  0.66695043  0.37495905  1
  La3+  La22  1  0.63858911  0.66709972  0.62644819  1
  La3+  La23  1  0.63976402  0.66624367  0.87532040  1
  La3+  La24  1  0.36193282  -0.00113469  0.12525875  1
  La3+  La25  1  0.36122059  -0.00099139  0.37544572  1
  La3+  La26  1  0.36030387  -0.00000304  0.62541989  1
  La3+  La27  1  0.36228030  -0.00033240  0.87423190  1
  La3+  La28  1  0.36183338  0.33390569  0.12420093  1
  La3+  La29  1  0.36393044  0.33241034  0.37620193  1
  La3+  La30  1  0.36191719  0.33183602  0.62410847  1
  La3+  La31  1  0.36067188  0.33329914  0.87585220  1
  La3+  La32  1  0.35996559  0.66738544  0.12491931  1
  La3+  La33  1  0.36092281  0.66759313  0.37336844  1
  La3+  La34  1  0.36307715  0.66742415  0.62454694  1
  La3+  La35  1  0.36103509  0.66665339  0.87596077  1
  La3+  La36  1  0.86205712  0.00032479  0.12596807  1
  La3+  La37  1  0.86226766  0.00158938  0.37658282  1
  La3+  La38  1  0.86233085  0.00101089  0.62204972  1
  La3+  La39  1  0.86209921  0.00001554  0.87502107  1
  La3+  La40  1  0.86155810  0.33370057  0.12433543  1
  La3+  La41  1  0.86083170  0.33347104  0.37536353  1
  La3+  La42  1  0.86137198  0.33364045  0.62496987  1
  La3+  La43  1  0.86181111  0.33405297  0.87532979  1
  La3+  La44  1  0.86088741  0.66634760  0.12331747  1
  La3+  La45  1  0.86179302  0.66707847  0.37474448  1
  La3+  La46  1  0.86135003  0.66673384  0.62729809  1
  La3+  La47  1  0.86035309  0.66547243  0.87464641  1
  La3+  La48  1  0.00107093  0.83317021  0.61544787  1
  La3+  La49  1  -0.00024925  0.50331350  0.88834880  1
  La3+  La50  1  -0.00233226  0.49726600  0.63321101  1
  La3+  La51  1  -0.00024803  0.49945206  0.36464477  1
  La3+  La52  1  -0.00083184  0.83347098  0.88630101  1
  La3+  La53  1  0.49914261  0.16798487  0.63343201  1
  La3+  La54  1  0.50039113  0.16477596  0.86935540  1
  La3+  La55  1  0.50049511  0.49972900  0.38377641  1
  La3+  La56  1  -0.00007352  0.16730897  0.38507843  1
  La3+  La57  1  0.49736200  0.16613763  0.36997434  1
  La3+  La58  1  0.00144555  0.16528709  0.13316548  1
  La3+  La59  1  0.50047676  0.16812599  0.61650589  1
  La3+  La60  1  0.00119695  0.83299886  0.63278896  1
  La3+  La61  1  -0.00006668  0.16666308  0.61369870  1
  La3+  La62  1  0.50004317  0.50065679  0.88643345  1
  La3+  La63  1  -0.00022805  0.83375376  0.86411839  1
  La3+  La64  1  0.50070837  0.16560709  0.11653114  1
  La3+  La65  1  0.00148373  0.50310784  0.61270156  1
  La3+  La66  1  0.50042366  0.50042725  0.61389733  1
  La3+  La67  1  0.00048430  0.16617810  0.86656626  1
  La3+  La68  1  0.49917670  0.83095665  0.13286711  1
  La3+  La69  1  0.00200309  0.49912897  0.86625662  1
  La3+  La70  1  -0.00172889  0.16260424  0.63003321  1
  La3+  La71  1  0.49976878  0.83304637  0.63623194  1
  La3+  La72  1  0.24997383  0.50003942  0.45890226  1
  La3+  La73  1  0.24987181  0.46227593  0.76300193  1
  La3+  La74  1  0.75007410  0.16988900  0.75845355  1
  La3+  La75  1  0.75006178  0.47469927  0.24948873  1
  La3+  La76  1  0.25007559  0.16667750  0.74853499  1
  La3+  La77  1  0.24986786  0.19396173  -0.03201843  1
  La3+  La78  1  0.25002004  0.86098838  0.46746307  1
  La3+  La79  1  0.25006205  0.19436956  0.28157993  1
  La3+  La80  1  0.24989625  0.13957588  0.48101781  1
  La3+  La81  1  0.24996878  0.86267346  0.78019577  1
  La3+  La82  1  0.74994638  0.47241172  0.52107793  1
  La3+  La83  1  0.75010966  0.79968114  0.00756486  1
  Ru4+  Ru84  1  -0.00208995  0.00140908  0.00117407  1
  Ru4+  Ru85  1  -0.00117168  0.00053254  0.24949400  1
  Ru4+  Ru86  1  -0.00158947  0.00155278  0.49962481  1
  Ru4+  Ru87  1  -0.00025101  -0.00112955  0.74964838  1
  Ru4+  Ru88  1  -0.00020687  0.33329153  0.00349845  1
  Ru4+  Ru89  1  0.00146212  0.33568956  0.24708354  1
  Ru4+  Ru90  1  0.00043737  0.33237657  0.49950544  1
  Ru4+  Ru91  1  0.00145692  0.33823192  0.74988264  1
  Ru4+  Ru92  1  -0.00172657  0.66548545  0.00032138  1
  Ru4+  Ru93  1  -0.00124456  0.66719850  0.25065207  1
  Ru4+  Ru94  1  -0.00150333  0.66353377  0.49893727  1
  Ru4+  Ru95  1  0.00101899  0.67319678  0.74851996  1
  Ru4+  Ru96  1  0.49923028  -0.00110159  -0.00167440  1
  Ru4+  Ru97  1  0.49884550  0.00181474  0.24965572  1
  Ru4+  Ru98  1  0.49952807  0.00067923  0.49973255  1
  Ru4+  Ru99  1  0.49917896  -0.00055324  0.75116572  1
  Ru4+  Ru100  1  0.50111218  0.33597395  -0.00078531  1
  Ru4+  Ru101  1  0.49626365  0.33866557  0.25054063  1
  Ru4+  Ru102  1  0.49741926  0.33409966  0.49696722  1
  Ru4+  Ru103  1  0.50256410  0.33449160  0.75175150  1
  Ru4+  Ru104  1  0.50100379  0.66651657  0.00033523  1
  Ru4+  Ru105  1  0.50198867  0.66931632  0.25226362  1
  Ru4+  Ru106  1  0.50171212  0.66560744  0.49786224  1
  Ru4+  Ru107  1  0.50002700  0.66624668  0.74883960  1
  Ru4+  Ru108  1  0.11217847  0.16759531  0.00005114  1
  Ru4+  Ru109  1  0.11237615  0.16708281  0.24963962  1
  Ru4+  Ru110  1  0.11354306  0.16869269  0.49986343  1
  Ru4+  Ru111  1  0.11385295  0.16597673  0.75030306  1
  Ru4+  Ru112  1  0.11319842  0.49935350  0.00054749  1
  Ru4+  Ru113  1  0.11413576  0.49956895  0.25008107  1
  Ru4+  Ru114  1  0.11164178  0.49988569  0.49980791  1
  Ru4+  Ru115  1  0.11349028  0.49771369  0.75009647  1
  Ru4+  Ru116  1  0.11526915  0.83233860  0.00005773  1
  Ru4+  Ru117  1  0.11512353  0.83160057  0.24994633  1
  Ru4+  Ru118  1  0.11453460  0.83368827  0.49963341  1
  Ru4+  Ru119  1  0.11197810  0.83402825  0.75030721  1
  Ru4+  Ru120  1  0.61246784  0.16641594  0.00017753  1
  Ru4+  Ru121  1  0.61580552  0.16172950  0.24914902  1
  Ru4+  Ru122  1  0.61429646  0.16399374  0.49980379  1
  Ru4+  Ru123  1  0.61209422  0.16693853  0.75009676  1
  Ru4+  Ru124  1  0.61373907  0.50075224  -0.00023303  1
  Ru4+  Ru125  1  0.61122295  0.49992642  0.24981843  1
  Ru4+  Ru126  1  0.61209058  0.49965446  0.50009501  1
  Ru4+  Ru127  1  0.61352384  0.50027760  0.75005984  1
  Ru4+  Ru128  1  0.61154933  0.83210772  -0.00020083  1
  Ru4+  Ru129  1  0.61346093  0.83158202  0.25042258  1
  Ru4+  Ru130  1  0.61463936  0.83247740  0.49981930  1
  Ru4+  Ru131  1  0.61326262  0.83225829  0.75005520  1
  Ru4+  Ru132  1  0.38630092  0.16486326  0.00021270  1
  Ru4+  Ru133  1  0.38802887  0.16764406  0.25043468  1
  Ru4+  Ru134  1  0.38777101  0.16900301  0.49987115  1
  Ru4+  Ru135  1  0.38678340  0.16503901  0.74955035  1
  Ru4+  Ru136  1  0.38689404  0.49960866  -0.00030813  1
  Ru4+  Ru137  1  0.38580705  0.49940799  0.24996750  1
  Ru4+  Ru138  1  0.38794023  0.49881506  0.49998766  1
  Ru4+  Ru139  1  0.38720220  0.50104691  0.75012715  1
  Ru4+  Ru140  1  0.38616659  0.83424207  -0.00050015  1
  Ru4+  Ru141  1  0.38613739  0.83242825  0.25014327  1
  Ru4+  Ru142  1  0.38673790  0.83566046  0.49990534  1
  Ru4+  Ru143  1  0.38776182  0.83408976  0.75015826  1
  Ru4+  Ru144  1  0.88752845  0.16716403  0.00037842  1
  Ru4+  Ru145  1  0.88617390  0.16464962  0.25047011  1
  Ru4+  Ru146  1  0.88786074  0.16478452  0.50011788  1
  Ru4+  Ru147  1  0.88641086  0.16428799  0.74988202  1
  Ru4+  Ru148  1  0.88604571  0.50112415  0.00087200  1
  Ru4+  Ru149  1  0.88812184  0.49969183  0.25029201  1
  Ru4+  Ru150  1  0.88777751  0.50029233  0.49966834  1
  Ru4+  Ru151  1  0.88392044  0.49889970  0.74951373  1
  Ru4+  Ru152  1  0.88815892  0.83246346  0.00004681  1
  Ru4+  Ru153  1  0.88708322  0.83379673  0.25037592  1
  Ru4+  Ru154  1  0.88602062  0.83343982  0.49962901  1
  Ru4+  Ru155  1  0.88743214  0.83241603  0.75012185  1
  Ru4+  Ru156  1  0.74994708  0.24648619  0.49649017  1
  Ru4+  Ru157  1  0.25014284  0.58194433  -0.00090271  1
  Ru4+  Ru158  1  0.75002617  0.08575677  0.00033817  1
  Ru4+  Ru159  1  0.24998844  0.42290233  0.24891379  1
  Ru4+  Ru160  1  0.25010107  0.73350368  0.49875028  1
  Ru4+  Ru161  1  0.75004420  0.60295567  0.24534182  1
  Ru4+  Ru162  1  0.24989881  0.38612569  0.50500492  1
  Ru4+  Ru163  1  0.25009785  0.91243874  0.00048180  1
  Ru4+  Ru164  1  0.74994378  0.60062394  0.49328706  1
  Ru4+  Ru165  1  0.74996817  0.27463016  0.74886369  1
  Ru4+  Ru166  1  0.75010674  0.91256213  0.24968009  1
  Ru4+  Ru167  1  0.74993648  0.75624967  0.50178470  1
  Ru4+  Ru168  1  0.75014279  0.24722395  0.00006922  1
  Ru4+  Ru169  1  0.75019847  0.24657201  0.25090852  1
  Ru4+  Ru170  1  0.24988624  0.61410065  0.50231489  1
  Ru4+  Ru171  1  0.75008864  0.93849977  0.00016514  1
  Ru4+  Ru172  1  0.24994799  0.60080119  0.75391183  1
  Ru4+  Ru173  1  0.75011505  0.91274131  0.74822847  1
  Ru4+  Ru174  1  0.74994682  0.75409978  0.24832375  1
  Ru4+  Ru175  1  0.25005714  0.06536636  0.24410851  1
  Ru4+  Ru176  1  0.24988980  0.06155865  0.00084748  1
  Ru4+  Ru177  1  0.74991035  0.06559784  0.75212017  1
  Ru4+  Ru178  1  0.24990236  0.26725266  0.50195848  1
  Ru4+  Ru179  1  0.24994529  0.73360472  0.75246369  1
  O2-  O180  1  0.16719576  0.07990382  -0.00006072  1
  O2-  O181  1  0.16736501  0.08017342  0.24971883  1
  O2-  O182  1  0.16704425  0.08039793  0.50032969  1
  O2-  O183  1  0.16782754  0.08108635  0.75067771  1
  O2-  O184  1  0.16747506  0.41457405  0.00039574  1
  O2-  O185  1  0.16747619  0.41377990  0.24994849  1
  O2-  O186  1  0.16688461  0.41321817  0.50006274  1
  O2-  O187  1  0.16650676  0.41393143  0.74964478  1
  O2-  O188  1  0.16728823  0.74838115  0.00020048  1
  O2-  O189  1  0.16609590  0.74901377  0.25006380  1
  O2-  O190  1  0.16719142  0.74720066  0.50009717  1
  O2-  O191  1  0.16779100  0.74640999  0.74996820  1
  O2-  O192  1  0.66807628  0.08053243  -0.00051330  1
  O2-  O193  1  0.66807562  0.08094311  0.24995150  1
  O2-  O194  1  0.66678902  0.08144618  0.49996307  1
  O2-  O195  1  0.66636548  0.07951469  0.74991929  1
  O2-  O196  1  0.66723863  0.41427895  -0.00024912  1
  O2-  O197  1  0.66746564  0.41386658  0.24979875  1
  O2-  O198  1  0.66730623  0.41380826  0.49973827  1
  O2-  O199  1  0.66744256  0.41398332  0.75006614  1
  O2-  O200  1  0.66647370  0.74738869  -0.00001568  1
  O2-  O201  1  0.66791504  0.74809617  0.24960636  1
  O2-  O202  1  0.66768144  0.74763828  0.49975438  1
  O2-  O203  1  0.66714869  0.74815483  0.74986348  1
  O2-  O204  1  0.33263219  0.25289807  0.00078495  1
  O2-  O205  1  0.33238190  0.25333366  0.24956054  1
  O2-  O206  1  0.33253735  0.25301302  0.49981929  1
  O2-  O207  1  0.33182914  0.25229255  0.75023604  1
  O2-  O208  1  0.33145590  0.58537549  0.00018192  1
  O2-  O209  1  0.33262474  0.58466809  0.24994901  1
  O2-  O210  1  0.33339860  0.58664034  0.50070153  1
  O2-  O211  1  0.33304219  0.58622621  0.74956751  1
  O2-  O212  1  0.33197541  0.91889692  0.00066335  1
  O2-  O213  1  0.33310572  0.91921634  0.24943531  1
  O2-  O214  1  0.33309622  0.91903636  0.50023834  1
  O2-  O215  1  0.33311007  0.91942831  0.75011767  1
  O2-  O216  1  0.83152266  0.25261231  -0.00066806  1
  O2-  O217  1  0.83168400  0.25256135  0.24980608  1
  O2-  O218  1  0.83283520  0.25244549  0.50019181  1
  O2-  O219  1  0.83302484  0.25352187  0.74991228  1
  O2-  O220  1  0.83268507  0.58444577  -0.00014988  1
  O2-  O221  1  0.83293568  0.58683516  0.25010482  1
  O2-  O222  1  0.83293426  0.58679514  0.49981254  1
  O2-  O223  1  0.83252567  0.58507012  0.74953709  1
  O2-  O224  1  0.83239703  0.92029992  -0.00015681  1
  O2-  O225  1  0.83098954  0.91915452  0.24974486  1
  O2-  O226  1  0.83219729  0.91877510  0.49953619  1
  O2-  O227  1  0.83202120  0.91982566  0.75013934  1
  O2-  O228  1  0.16786050  0.25273060  0.00070431  1
  O2-  O229  1  0.16815097  0.25352816  0.24966875  1
  O2-  O230  1  0.16729423  0.25302289  0.50011057  1
  O2-  O231  1  0.16824873  0.25202523  0.75001990  1
  O2-  O232  1  0.16799466  0.58545798  -0.00006336  1
  O2-  O233  1  0.16742692  0.58512307  0.25019957  1
  O2-  O234  1  0.16692329  0.58676819  0.50018388  1
  O2-  O235  1  0.16761794  0.58686339  0.74972411  1
  O2-  O236  1  0.16786597  0.91946910  0.00023869  1
  O2-  O237  1  0.16750546  0.91931864  0.24965378  1
  O2-  O238  1  0.16728923  0.91919090  0.50009954  1
  O2-  O239  1  0.16693868  0.91965079  0.75049773  1
  O2-  O240  1  0.66802096  0.25279239  -0.00049123  1
  O2-  O241  1  0.66758573  0.25258275  0.25013414  1
  O2-  O242  1  0.66792373  0.25286872  0.50034063  1
  O2-  O243  1  0.66689163  0.25354207  0.75005269  1
  O2-  O244  1  0.66741482  0.58460346  0.00037039  1
  O2-  O245  1  0.66749276  0.58631125  0.24979976  1
  O2-  O246  1  0.66739491  0.58659814  0.50008357  1
  O2-  O247  1  0.66708177  0.58539127  0.74966862  1
  O2-  O248  1  0.66729563  0.91997951  -0.00021368  1
  O2-  O249  1  0.66862406  0.91910386  0.24969628  1
  O2-  O250  1  0.66746713  0.91852501  0.49946041  1
  O2-  O251  1  0.66763238  0.91958749  0.75011490  1
  O2-  O252  1  0.33289122  0.08048238  0.00015827  1
  O2-  O253  1  0.33284200  0.07984741  0.24965614  1
  O2-  O254  1  0.33276547  0.08036410  0.50025927  1
  O2-  O255  1  0.33163819  0.08137538  0.75033043  1
  O2-  O256  1  0.33274740  0.41438846  0.00056321  1
  O2-  O257  1  0.33199547  0.41362921  0.24975829  1
  O2-  O258  1  0.33277266  0.41371604  0.50019358  1
  O2-  O259  1  0.33290284  0.41363517  0.74972871  1
  O2-  O260  1  0.33249941  0.74835650  0.00041000  1
  O2-  O261  1  0.33259342  0.74855890  0.24966111  1
  O2-  O262  1  0.33256558  0.74664413  0.50045446  1
  O2-  O263  1  0.33285312  0.74656316  0.74968103  1
  O2-  O264  1  0.83209362  0.08046199  -0.00044622  1
  O2-  O265  1  0.83252387  0.08107621  0.24961436  1
  O2-  O266  1  0.83187623  0.08130170  0.49992266  1
  O2-  O267  1  0.83370252  0.07994437  0.74999809  1
  O2-  O268  1  0.83251699  0.41419472  -0.00041634  1
  O2-  O269  1  0.83236919  0.41362948  0.25010681  1
  O2-  O270  1  0.83293904  0.41333021  0.49992170  1
  O2-  O271  1  0.83242977  0.41389627  0.74979851  1
  O2-  O272  1  0.83359137  0.74775910  -0.00027109  1
  O2-  O273  1  0.83223894  0.74785004  0.25002205  1
  O2-  O274  1  0.83227397  0.74720344  0.49961711  1
  O2-  O275  1  0.83261735  0.74771624  0.75000128  1
  O2-  O276  1  0.54521848  0.09743346  0.76390191  1
  O2-  O277  1  0.45980594  0.44013014  0.72427992  1
  O2-  O278  1  0.04548149  0.56802186  0.01528489  1
  O2-  O279  1  0.04478358  0.09872195  0.98535645  1
  O2-  O280  1  0.45787928  0.22781770  0.77484760  1
  O2-  O281  1  0.95346505  0.09729582  0.76440534  1
  O2-  O282  1  0.04790032  0.76397282  0.51632068  1
  O2-  O283  1  0.54732669  0.76629284  0.98594178  1
  O2-  O284  1  0.05232998  0.24596860  0.27167771  1
  O2-  O285  1  0.45321203  0.23651221  0.01911560  1
  O2-  O286  1  0.95830838  0.10565857  0.51246609  1
  O2-  O287  1  0.04500583  0.90104075  0.23060358  1
  O2-  O288  1  0.45324345  0.23588084  0.48632015  1
  O2-  O289  1  0.04593995  0.43116154  0.01543933  1
  O2-  O290  1  0.46947125  0.54590093  0.23370166  1
  O2-  O291  1  0.54763251  0.23497202  0.01467704  1
  O2-  O292  1  0.54715279  0.90368827  0.51668175  1
  O2-  O293  1  0.46248384  0.77996243  0.99336011  1
  O2-  O294  1  0.04646766  0.90452692  0.51592433  1
  O2-  O295  1  0.95214420  0.09658861  0.48778706  1
  O2-  O296  1  0.45967787  0.10357191  0.52471281  1
  O2-  O297  1  0.04874812  0.09658464  0.48474255  1
  O2-  O298  1  0.04641813  0.09779430  0.73598856  1
  O2-  O299  1  0.95299582  0.23461385  0.73000957  1
  O2-  O300  1  0.95312383  0.23488605  0.76926060  1
  O2-  O301  1  0.95392321  0.43030565  0.76334286  1
  O2-  O302  1  0.55428584  0.24831180  0.28153568  1
  O2-  O303  1  0.45468320  0.56779912  0.48569545  1
  O2-  O304  1  0.45828856  0.22851249  0.51261596  1
  O2-  O305  1  0.04170407  0.89402960  0.02695344  1
  O2-  O306  1  0.95799175  0.22731871  0.22624575  1
  O2-  O307  1  0.54101063  0.89708512  0.22613958  1
  O2-  O308  1  0.04514007  0.90103953  0.26972907  1
  O2-  O309  1  0.54558883  0.43208982  0.23492471  1
  O2-  O310  1  0.95302271  0.43111902  0.98602022  1
  O2-  O311  1  0.45410736  0.23542237  0.97977217  1
  O2-  O312  1  0.45257753  0.76316676  0.51711359  1
  O2-  O313  1  0.54512371  0.76531995  0.26412942  1
  O2-  O314  1  0.95201036  0.57049054  0.76574513  1
  O2-  O315  1  0.95375754  0.90013446  0.01408652  1
  O2-  O316  1  0.04348187  0.22873042  0.72392518  1
  O2-  O317  1  0.95443715  0.43154958  0.51295683  1
  O2-  O318  1  0.04274758  0.56215608  0.72519691  1
  O2-  O319  1  0.45491614  0.09701700  0.01507507  1
  O2-  O320  1  0.54619547  0.23534365  0.76350312  1
  O2-  O321  1  0.45505665  0.09801179  0.23548208  1
  O2-  O322  1  0.95381399  0.76529814  0.51498888  1
  O2-  O323  1  0.54904848  0.23951648  0.53483199  1
  O2-  O324  1  0.93331277  0.06606537  0.53338593  1
  O2-  O325  1  0.43465584  0.40319977  0.27986518  1
  O2-  O326  1  0.42614234  0.72456775  0.96314086  1
  O2-  O327  1  0.43159761  0.39495783  0.79426496  1
  O2-  O328  1  0.43577089  0.59450276  0.96954924  1
  O2-  O329  1  0.55434906  0.24841770  0.28113580  1
  O2-  O330  1  0.93515889  0.26269485  0.03003761  1
  O2-  O331  1  0.06408067  0.26439341  0.03287909  1
  O2-  O332  1  0.56838511  0.93744913  0.29335215  1
  O2-  O333  1  0.42951170  0.26944853  0.70835272  1
  O2-  O334  1  0.93591048  0.93051091  0.45166283  1
  O2-  O335  1  0.07045800  0.60338239  0.79174426  1
  O2-  O336  1  0.56678623  0.26929091  0.20247346  1
  O2-  O337  1  0.06457648  0.73705375  0.71947754  1
  O2-  O338  1  0.93589530  0.93011679  0.54831746  1
  O2-  O339  1  0.05716149  0.25154380  0.27424074  1
  O2-  O340  1  0.43489654  0.07024629  0.78013644  1
  O2-  O341  1  0.93506679  0.59703766  0.02963286  1
  O2-  O342  1  0.06572895  0.73730454  0.95402352  1
  O2-  O343  1  0.56200634  0.93001461  0.53105022  1
  O2-  O344  1  0.93581710  0.93208116  0.28235372  1
  O2-  O345  1  0.43599183  0.73652776  0.28175849  1
  O2-  O346  1  0.06340147  0.73887150  0.53080941  1
  O2-  O347  1  0.06547825  0.73763525  0.04549934  1
  O2-  O348  1  0.56451005  0.40399555  0.53047427  1
  O2-  O349  1  0.56531485  0.59647153  0.27988302  1
  O2-  O350  1  0.56925330  0.27145387  0.43832194  1
  O2-  O351  1  0.43222883  0.26657083  0.53149573  1
  O2-  O352  1  0.93768683  0.59595598  0.78211987  1
  O2-  O353  1  0.06389230  0.06865704  0.21720013  1
  O2-  O354  1  0.06197915  0.06976127  0.46858743  1
  O2-  O355  1  0.06893134  0.93834083  0.95619461  1
  O2-  O356  1  0.56491544  0.59631194  0.47062034  1
  O2-  O357  1  0.43517232  0.40461098  0.46955160  1
  O2-  O358  1  0.06534022  0.59545067  0.20473572  1
  O2-  O359  1  0.43187699  0.06064565  0.45578557  1
  O2-  O360  1  0.07001869  0.26983213  0.79103869  1
  O2-  O361  1  0.43210621  0.60235404  0.30632578  1
  O2-  O362  1  0.43753283  0.73710692  0.53149050  1
  O2-  O363  1  0.56418893  0.06906086  0.21682416  1
  O2-  O364  1  0.42620160  0.61322001  0.19437862  1
  O2-  O365  1  0.06394080  0.59815316  0.29842396  1
  O2-  O366  1  0.06484888  0.26271024  0.46973435  1
  O2-  O367  1  0.43498259  0.92987016  0.97071982  1
  O2-  O368  1  0.56444257  0.59595777  0.96982939  1
  O2-  O369  1  0.55713376  0.25030461  0.53912824  1
  O2-  O370  1  0.06276322  0.92835312  0.53037370  1
  O2-  O371  1  0.93011968  0.26927138  0.29147927  1
  O2-  O372  1  0.74996870  0.66704911  0.09581122  1
  O2-  O373  1  0.74999655  0.33393164  0.17044280  1
  O2-  O374  1  0.25001429  0.66634050  0.65259920  1
  O2-  O375  1  0.75001161  0.66654430  0.67113384  1
  O2-  O376  1  0.75000026  0.33423229  0.42048015  1
  O2-  O377  1  0.24997311  0.00058693  0.42174745  1
  O2-  O378  1  0.25000498  -0.00403820  0.33193007  1
  O2-  O379  1  0.74991276  0.33393506  0.07946928  1
  O2-  O380  1  0.75007393  0.66919726  0.34486731  1
  O2-  O381  1  0.75003597  0.67008109  0.58377990  1
  O2-  O382  1  0.24996700  0.66689718  0.34655928  1
  O2-  O383  1  0.75004912  0.00028347  0.57883844  1
  O2-  O384  1  0.25000492  -0.00015940  0.65742817  1
  O2-  O385  1  0.75001715  0.33299501  0.59287458  1
  O2-  O386  1  0.25002601  0.33280317  0.83091490  1
  O2-  O387  1  0.75004923  -0.00338699  0.66526121  1
  O2-  O388  1  0.25006230  0.33310556  0.91909332  1
  O2-  O389  1  0.25000100  0.33370434  0.65555672  1
  O2-  O390  1  0.75002321  0.66731284  0.90704496  1
  O2-  O391  1  0.24996530  0.66618415  0.16767048  1
  O2-  O392  1  0.24996135  0.66702578  0.08151533  1
  O2-  O393  1  0.75005674  0.33412506  0.32879104  1
  O2-  O394  1  0.25003252  0.66505425  0.90761414  1
  O2-  O395  1  0.74993830  -0.00181141  0.84538464  1
  O2-  O396  1  0.74995348  0.16618434  0.64765183  1
  O2-  O397  1  0.74998486  0.49992764  0.83986077  1
  O2-  O398  1  0.75001312  0.16905504  0.41072543  1
  O2-  O399  1  0.24996704  0.83484483  0.91210894  1
  O2-  O400  1  0.74998507  0.83784232  0.12227329  1
  O2-  O401  1  0.75002917  0.83160011  0.58850196  1
  O2-  O402  1  0.25000009  0.16346641  0.08580757  1
  O2-  O403  1  0.74999382  0.16629600  0.09080846  1
  O2-  O404  1  0.74998475  0.83053911  0.81769841  1
  O2-  O405  1  0.25000618  0.16830760  0.60826199  1
  O2-  O406  1  0.75002466  0.50226596  0.39248830  1
  O2-  O407  1  0.25000370  0.83435654  0.15822369  1
  O2-  O408  1  0.25003390  0.50651286  0.65541734  1
  O2-  O409  1  0.25000748  0.83278748  0.34140454  1
  O2-  O410  1  0.24992690  0.83039403  0.58625819  1
  O2-  O411  1  0.24999507  0.49795174  0.33862503  1
  O2-  O412  1  0.74998753  0.16642054  0.86729891  1
  O2-  O413  1  0.24990957  0.16348624  0.16480480  1
  O2-  O414  1  0.24999038  0.49785535  0.16078864  1
  O2-  O415  1  0.25005324  0.49935127  0.58151790  1
  O2-  O416  1  0.74998584  0.16469768  0.57007755  1
  O2-  O417  1  0.24999801  0.50609365  0.87315862  1
  O2-  O418  1  0.24994917  0.83020720  0.66323537  1
  O2-  O419  1  0.75003440  0.83789952  0.89598920  1
  O2-  O420  1  0.53021906  0.33390712  0.62949312  1
  O2-  O421  1  0.47462718  0.00020157  0.87442913  1
  O2-  O422  1  0.47392620  0.33058344  0.37423405  1
  O2-  O423  1  0.96695773  0.33340479  0.62478563  1
  O2-  O424  1  0.47208223  -0.00004898  0.62606447  1
  O2-  O425  1  0.97013739  0.33541217  0.37815979  1
  O2-  O426  1  0.47178596  0.66610473  0.87026650  1
  O2-  O427  1  0.52577825  0.66888577  0.37573626  1
  O2-  O428  1  0.02601945  0.66379844  0.62544654  1
  O2-  O429  1  0.02510533  0.66728602  0.87480503  1
  O2-  O430  1  0.52765192  0.66707368  0.12505532  1
  O2-  O431  1  0.96810673  0.33298400  0.87522587  1
  O2-  O432  1  0.52927336  0.66778391  0.87196334  1
  O2-  O433  1  0.97050075  0.66831958  0.12720341  1
  O2-  O434  1  0.02737548  0.00123629  0.62747213  1
  O2-  O435  1  0.02923209  0.33730873  0.37535615  1
  O2-  O436  1  0.47084526  0.33730631  0.62521117  1
  O2-  O437  1  0.97320270  0.33498699  0.12704285  1
  O2-  O438  1  0.97233202  -0.00079894  0.87521984  1
  O2-  O439  1  0.52817488  0.33441843  0.87539241  1
  O2-  O440  1  0.02724544  0.66730811  0.12545257  1
  O2-  O441  1  0.03308701  0.33372086  0.62479720  1
  O2-  O442  1  0.03072820  0.33531986  0.87753126  1
  O2-  O443  1  0.97203477  0.00150691  0.12518396  1
