# generated using pymatgen
data_La7(Ru4O11)2
_symmetry_space_group_name_H-M   'P 1'
_cell_length_a   23.99800844
_cell_length_b   16.83725489
_cell_length_c   15.43258141
_cell_angle_alpha   89.99521406
_cell_angle_beta   89.99488406
_cell_angle_gamma   90.00030902
_symmetry_Int_Tables_number   1
_chemical_formula_structural   La7(Ru4O11)2
_chemical_formula_sum   'La84 Ru96 O264'
_cell_volume   6235.69782361
_cell_formula_units_Z   12
loop_
 _symmetry_equiv_pos_site_id
 _symmetry_equiv_pos_as_xyz
  1  'x, y, z'
loop_
 _atom_type_symbol
 _atom_type_oxidation_number
  La3+  3.0
  Ru4+  4.0
  O2-  -2.0
loop_
 _atom_site_type_symbol
 _atom_site_label
 _atom_site_symmetry_multiplicity
 _atom_site_fract_x
 _atom_site_fract_y
 _atom_site_fract_z
 _atom_site_occupancy
  La3+  La0  1  0.13436288  0.00177784  0.12303559  1
  La3+  La1  1  0.13460236  0.00448260  0.37155658  1
  La3+  La2  1  0.14587583  0.00480906  0.62929094  1
  La3+  La3  1  0.13822707  0.00402048  0.87344964  1
  La3+  La4  1  0.14015263  0.33946387  0.12709458  1
  La3+  La5  1  0.13137347  0.34081270  0.37887701  1
  La3+  La6  1  0.14895068  0.33928734  0.62957960  1
  La3+  La7  1  0.15144452  0.33683607  0.86949163  1
  La3+  La8  1  0.13135679  0.65974759  0.12365109  1
  La3+  La9  1  0.14722951  0.66070215  0.37300870  1
  La3+  La10  1  0.13949239  0.65925292  0.62774946  1
  La3+  La11  1  0.14278634  0.65307235  0.87780543  1
  La3+  La12  1  0.64477007  -0.00527322  0.13012578  1
  La3+  La13  1  0.64692095  -0.00513142  0.38016817  1
  La3+  La14  1  0.63489055  -0.00684765  0.62625158  1
  La3+  La15  1  0.64876378  0.00373364  0.87805428  1
  La3+  La16  1  0.64347075  0.33741586  0.12710795  1
  La3+  La17  1  0.64425592  0.33235471  0.37946069  1
  La3+  La18  1  0.64263964  0.33738651  0.62090963  1
  La3+  La19  1  0.63704451  0.33265852  0.87813094  1
  La3+  La20  1  0.63974490  0.67180696  0.12292868  1
  La3+  La21  1  0.64502279  0.65925004  0.37927448  1
  La3+  La22  1  0.64825752  0.66531999  0.62226457  1
  La3+  La23  1  0.64807489  0.66671026  0.87304960  1
  La3+  La24  1  0.34939652  0.01118029  0.11538002  1
  La3+  La25  1  0.36880792  -0.00298032  0.36127447  1
  La3+  La26  1  0.35230563  0.00564891  0.62875941  1
  La3+  La27  1  0.36649634  0.00120000  0.87361968  1
  La3+  La28  1  0.35175862  0.34236887  0.12658148  1
  La3+  La29  1  0.36487391  0.33772629  0.37406535  1
  La3+  La30  1  0.34802138  0.33462081  0.63207755  1
  La3+  La31  1  0.34591693  0.32908468  0.86882134  1
  La3+  La32  1  0.35824150  0.65677231  0.12425619  1
  La3+  La33  1  0.35797914  0.66521490  0.37264287  1
  La3+  La34  1  0.35822272  0.66275555  0.63104359  1
  La3+  La35  1  0.36083072  0.66032804  0.88009224  1
  La3+  La36  1  0.86418738  0.00392249  0.12766845  1
  La3+  La37  1  0.85393778  0.01021540  0.38194813  1
  La3+  La38  1  0.86249549  0.00288010  0.62580366  1
  La3+  La39  1  0.85623178  -0.00374222  0.87239826  1
  La3+  La40  1  0.86750890  0.33423111  0.12009929  1
  La3+  La41  1  0.84513598  0.31383379  0.36968782  1
  La3+  La42  1  0.86829580  0.34170916  0.61676062  1
  La3+  La43  1  0.86018721  0.34026267  0.88044741  1
  La3+  La44  1  0.85930931  0.67034961  0.11810614  1
  La3+  La45  1  0.85597317  0.66161253  0.38063352  1
  La3+  La46  1  0.85776232  0.66429726  0.61595285  1
  La3+  La47  1  0.85112267  0.66599695  0.87361753  1
  La3+  La48  1  0.50286714  0.49733406  0.62677385  1
  La3+  La49  1  0.50258138  0.16269073  0.37342702  1
  La3+  La50  1  0.00840602  0.50064925  0.63712413  1
  La3+  La51  1  0.00205499  0.82909426  0.36127156  1
  La3+  La52  1  0.49845182  0.50723871  0.11863045  1
  La3+  La53  1  -0.00120401  0.83518482  0.87190804  1
  La3+  La54  1  0.51073224  0.83997638  0.38209013  1
  La3+  La55  1  -0.00534356  0.82508611  0.89031581  1
  La3+  La56  1  0.50382476  0.17318986  0.66094692  1
  La3+  La57  1  0.50135968  0.18313722  0.64163518  1
  La3+  La58  1  -0.00402273  0.84988237  0.62598476  1
  La3+  La59  1  0.00288457  0.83651677  0.12801025  1
  La3+  La60  1  0.49952716  0.49277560  0.60546337  1
  La3+  La61  1  -0.00054928  0.17397326  0.62555327  1
  La3+  La62  1  0.50893563  0.84026922  0.38435972  1
  La3+  La63  1  0.49977987  0.16368434  0.10706918  1
  La3+  La64  1  0.00076016  0.48990384  0.11705670  1
  La3+  La65  1  0.50240042  0.49906438  0.87971306  1
  La3+  La66  1  -0.00388604  0.82755787  0.38155111  1
  La3+  La67  1  0.50284741  0.17283966  0.12697987  1
  La3+  La68  1  0.48239704  0.82171473  0.61907842  1
  La3+  La69  1  0.50112355  0.50962697  0.36666611  1
  La3+  La70  1  0.50862325  0.84443342  0.87816786  1
  La3+  La71  1  -0.00545604  0.85394648  0.64176045  1
  La3+  La72  1  0.24837591  0.11646256  -0.03193539  1
  La3+  La73  1  0.74858650  0.15585881  0.73205272  1
  La3+  La74  1  0.24668643  0.77858106  -0.02087593  1
  La3+  La75  1  0.24842135  0.75798051  0.74902761  1
  La3+  La76  1  0.24884752  0.49552804  -0.01851790  1
  La3+  La77  1  0.24979915  0.17150060  0.56417298  1
  La3+  La78  1  0.75243458  0.87375885  0.25254923  1
  La3+  La79  1  0.24901688  0.89032417  0.48318805  1
  La3+  La80  1  0.75069637  0.54392084  0.23827818  1
  La3+  La81  1  0.74977130  0.16335377  -0.05388928  1
  La3+  La82  1  0.25006127  0.77781129  0.22378552  1
  La3+  La83  1  0.24699849  0.13482966  0.24774157  1
  Ru4+  Ru84  1  -0.00159998  0.00679183  -0.00705798  1
  Ru4+  Ru85  1  0.00119801  -0.01917791  0.24245279  1
  Ru4+  Ru86  1  -0.00090548  0.01296685  0.49964069  1
  Ru4+  Ru87  1  -0.00041355  0.01439738  0.77088676  1
  Ru4+  Ru88  1  -0.00089442  0.33134273  0.00114333  1
  Ru4+  Ru89  1  0.00883280  0.31241667  0.24956582  1
  Ru4+  Ru90  1  0.00247380  0.34406128  0.49459482  1
  Ru4+  Ru91  1  0.00035268  0.34591798  0.73664502  1
  Ru4+  Ru92  1  -0.00024762  0.66254882  -0.00594926  1
  Ru4+  Ru93  1  0.00319505  0.65626738  0.24021186  1
  Ru4+  Ru94  1  -0.00623275  0.66431950  0.49964518  1
  Ru4+  Ru95  1  -0.00022585  0.66293979  0.76997366  1
  Ru4+  Ru96  1  0.51702705  -0.00939612  0.01129585  1
  Ru4+  Ru97  1  0.50095331  -0.00015697  0.24674084  1
  Ru4+  Ru98  1  0.50074204  0.01380368  0.49201882  1
  Ru4+  Ru99  1  0.48452287  -0.01146865  0.74510672  1
  Ru4+  Ru100  1  0.49632589  0.31422715  -0.01848135  1
  Ru4+  Ru101  1  0.49901536  0.32663766  0.25601048  1
  Ru4+  Ru102  1  0.49834670  0.33449717  0.49398770  1
  Ru4+  Ru103  1  0.49327048  0.32449935  0.76088775  1
  Ru4+  Ru104  1  0.49341159  0.67877446  -0.00038789  1
  Ru4+  Ru105  1  0.49890298  0.67194431  0.23989499  1
  Ru4+  Ru106  1  0.50376450  0.66791178  0.48570225  1
  Ru4+  Ru107  1  0.48973664  0.66393293  0.75022188  1
  Ru4+  Ru108  1  0.10560405  0.17142574  0.00084097  1
  Ru4+  Ru109  1  0.10258774  0.17705320  0.25492267  1
  Ru4+  Ru110  1  0.10801088  0.16945753  0.49006967  1
  Ru4+  Ru111  1  0.11932805  0.16219987  0.75459207  1
  Ru4+  Ru112  1  0.10865121  0.49921194  -0.00410987  1
  Ru4+  Ru113  1  0.11497761  0.49269827  0.24769333  1
  Ru4+  Ru114  1  0.11038740  0.50281975  0.49580389  1
  Ru4+  Ru115  1  0.10851678  0.49514160  0.75620772  1
  Ru4+  Ru116  1  0.10809654  0.82887115  0.00304950  1
  Ru4+  Ru117  1  0.10722388  0.83623411  0.24144923  1
  Ru4+  Ru118  1  0.11062868  0.82608309  0.49576175  1
  Ru4+  Ru119  1  0.11042453  0.83943514  0.74619290  1
  Ru4+  Ru120  1  0.60362527  0.16106411  -0.00986133  1
  Ru4+  Ru121  1  0.61533592  0.16916642  0.25765614  1
  Ru4+  Ru122  1  0.61196148  0.15589859  0.48594907  1
  Ru4+  Ru123  1  0.60942354  0.16596033  0.75410801  1
  Ru4+  Ru124  1  0.60895122  0.50140030  -0.00142981  1
  Ru4+  Ru125  1  0.60930235  0.49302560  0.24891647  1
  Ru4+  Ru126  1  0.61928074  0.49854777  0.49629473  1
  Ru4+  Ru127  1  0.61148295  0.50256946  0.75273921  1
  Ru4+  Ru128  1  0.60656557  0.83834548  0.00492293  1
  Ru4+  Ru129  1  0.61219629  0.83135771  0.24366660  1
  Ru4+  Ru130  1  0.62111828  0.82138733  0.50899117  1
  Ru4+  Ru131  1  0.61267993  0.84718605  0.74530498  1
  Ru4+  Ru132  1  0.39111498  0.17953245  0.00188536  1
  Ru4+  Ru133  1  0.39046323  0.17198742  0.25728677  1
  Ru4+  Ru134  1  0.38833144  0.16649914  0.48873955  1
  Ru4+  Ru135  1  0.38637396  0.16892934  0.75861767  1
  Ru4+  Ru136  1  0.38908370  0.49608753  0.00115829  1
  Ru4+  Ru137  1  0.38782027  0.49737417  0.25350555  1
  Ru4+  Ru138  1  0.39228727  0.49871381  0.49091514  1
  Ru4+  Ru139  1  0.38456066  0.50696641  0.75352028  1
  Ru4+  Ru140  1  0.40054460  0.82294900  0.00998274  1
  Ru4+  Ru141  1  0.39662571  0.83072343  0.23038527  1
  Ru4+  Ru142  1  0.38524574  0.83340738  0.49997130  1
  Ru4+  Ru143  1  0.38931092  0.84025424  0.74648533  1
  Ru4+  Ru144  1  0.89465344  0.16652903  0.00698723  1
  Ru4+  Ru145  1  0.89229780  0.17237773  0.24720453  1
  Ru4+  Ru146  1  0.89236945  0.17114077  0.49644872  1
  Ru4+  Ru147  1  0.88860077  0.17347120  0.74871340  1
  Ru4+  Ru148  1  0.89067616  0.49888062  -0.00606519  1
  Ru4+  Ru149  1  0.89370672  0.49670210  0.25477332  1
  Ru4+  Ru150  1  0.88671820  0.48976378  0.49305604  1
  Ru4+  Ru151  1  0.88993026  0.50297109  0.75223010  1
  Ru4+  Ru152  1  0.88589604  0.83146514  0.00156526  1
  Ru4+  Ru153  1  0.89311162  0.84012454  0.24609385  1
  Ru4+  Ru154  1  0.88470096  0.82933274  0.50581994  1
  Ru4+  Ru155  1  0.89010122  0.83833267  0.75244961  1
  Ru4+  Ru156  1  0.75045851  0.43799722  0.74518852  1
  Ru4+  Ru157  1  0.75207969  0.03029372  0.02851132  1
  Ru4+  Ru158  1  0.74934421  0.56798254  0.00842617  1
  Ru4+  Ru159  1  0.75159926  0.89681010  0.48844998  1
  Ru4+  Ru160  1  0.25032171  0.05920871  0.46332590  1
  Ru4+  Ru161  1  0.24870334  0.93633659  0.22709932  1
  Ru4+  Ru162  1  0.74890916  0.24420661  0.50296855  1
  Ru4+  Ru163  1  0.25208086  0.57521518  0.51559734  1
  Ru4+  Ru164  1  0.75185032  0.89016254  0.00351085  1
  Ru4+  Ru165  1  0.75102686  0.08721855  0.25611061  1
  Ru4+  Ru166  1  0.75337815  0.28053899  0.04434908  1
  Ru4+  Ru167  1  0.24970265  0.94066894  0.76685181  1
  Ru4+  Ru168  1  0.25041907  0.71639448  0.50356427  1
  Ru4+  Ru169  1  0.75058032  0.74091121  0.74927475  1
  Ru4+  Ru170  1  0.75124795  0.39809121  0.24534047  1
  Ru4+  Ru171  1  0.25141564  0.43178386  0.50897808  1
  Ru4+  Ru172  1  0.25012474  0.93188019  -0.00508945  1
  Ru4+  Ru173  1  0.24817891  0.26257008  0.00686023  1
  Ru4+  Ru174  1  0.75268947  0.72870130  0.24365029  1
  Ru4+  Ru175  1  0.75043920  -0.00453032  0.75081240  1
  Ru4+  Ru176  1  0.24894794  0.28141459  0.45449478  1
  Ru4+  Ru177  1  0.25073095  0.28145861  0.23889201  1
  Ru4+  Ru178  1  0.75191311  0.29936893  0.69587497  1
  Ru4+  Ru179  1  0.24876212  0.56947931  0.23698934  1
  O2-  O180  1  0.15371585  0.07904726  0.00283555  1
  O2-  O181  1  0.15262304  0.08389592  0.24738486  1
  O2-  O182  1  0.16698898  0.08196349  0.49662909  1
  O2-  O183  1  0.16701860  0.07914209  0.75299423  1
  O2-  O184  1  0.16694509  0.41715095  0.00215605  1
  O2-  O185  1  0.17133877  0.41684319  0.25495185  1
  O2-  O186  1  0.17008086  0.42172562  0.49807931  1
  O2-  O187  1  0.16812545  0.42312280  0.75591212  1
  O2-  O188  1  0.15660655  0.73916081  0.00931518  1
  O2-  O189  1  0.16164343  0.73975180  0.25084374  1
  O2-  O190  1  0.16404955  0.73984325  0.50451150  1
  O2-  O191  1  0.15193778  0.74107051  0.75229887  1
  O2-  O192  1  0.67061629  0.08375954  0.00119115  1
  O2-  O193  1  0.66808108  0.08039294  0.25273016  1
  O2-  O194  1  0.66463255  0.07733214  0.51494286  1
  O2-  O195  1  0.66910282  0.07517683  0.74235532  1
  O2-  O196  1  0.65556503  0.41505297  -0.00121573  1
  O2-  O197  1  0.66702136  0.41475873  0.25627653  1
  O2-  O198  1  0.66996533  0.41521579  0.50299449  1
  O2-  O199  1  0.66561155  0.41838681  0.75216990  1
  O2-  O200  1  0.65640531  0.74937383  -0.00233848  1
  O2-  O201  1  0.67208566  0.74712169  0.24927199  1
  O2-  O202  1  0.67458450  0.74261712  0.50902748  1
  O2-  O203  1  0.66440122  0.75490917  0.74998459  1
  O2-  O204  1  0.33063133  0.25355669  0.00187945  1
  O2-  O205  1  0.33179943  0.25479981  0.25545130  1
  O2-  O206  1  0.32972812  0.25732337  0.49203853  1
  O2-  O207  1  0.33415797  0.24981089  0.75388272  1
  O2-  O208  1  0.32775822  0.58082748  -0.00384105  1
  O2-  O209  1  0.32890178  0.57999992  0.25378166  1
  O2-  O210  1  0.33507938  0.58223266  0.50395630  1
  O2-  O211  1  0.32806496  0.58654360  0.75275380  1
  O2-  O212  1  0.33246427  0.91340940  -0.00490506  1
  O2-  O213  1  0.32818518  0.91241415  0.25686696  1
  O2-  O214  1  0.34162103  0.92693265  0.49539755  1
  O2-  O215  1  0.33241192  0.92458220  0.75764630  1
  O2-  O216  1  0.83085992  0.24684094  -0.00742146  1
  O2-  O217  1  0.83667560  0.24639570  0.23542509  1
  O2-  O218  1  0.83147939  0.25185578  0.50995747  1
  O2-  O219  1  0.82997187  0.25415428  0.75192982  1
  O2-  O220  1  0.83301874  0.58345195  0.00170659  1
  O2-  O221  1  0.83863719  0.58900513  0.24695179  1
  O2-  O222  1  0.83253410  0.58211599  0.49569517  1
  O2-  O223  1  0.84083568  0.58719320  0.74768258  1
  O2-  O224  1  0.83444307  0.91910751  0.00352242  1
  O2-  O225  1  0.84267512  0.92660240  0.25056094  1
  O2-  O226  1  0.83556894  0.91763132  0.49846413  1
  O2-  O227  1  0.82750267  0.92495358  0.74614770  1
  O2-  O228  1  0.16550474  0.25209637  0.00123244  1
  O2-  O229  1  0.17161312  0.25685868  0.25279052  1
  O2-  O230  1  0.16874911  0.25582802  0.49698535  1
  O2-  O231  1  0.15453525  0.25665895  0.74806696  1
  O2-  O232  1  0.17136610  0.58197226  0.00471686  1
  O2-  O233  1  0.16734282  0.58286153  0.24494260  1
  O2-  O234  1  0.16931172  0.58544775  0.50498746  1
  O2-  O235  1  0.16228860  0.58282404  0.75048789  1
  O2-  O236  1  0.16576384  0.91985765  -0.00262542  1
  O2-  O237  1  0.16108141  0.92265181  0.24330482  1
  O2-  O238  1  0.15405804  0.92291881  0.49993731  1
  O2-  O239  1  0.16645442  0.92286426  0.75703274  1
  O2-  O240  1  0.66541770  0.24628632  -0.00579971  1
  O2-  O241  1  0.66083070  0.25342172  0.25219157  1
  O2-  O242  1  0.66073430  0.24776468  0.50132727  1
  O2-  O243  1  0.66695902  0.25404031  0.74931685  1
  O2-  O244  1  0.66523848  0.58645173  0.00076248  1
  O2-  O245  1  0.66140917  0.58937247  0.24657251  1
  O2-  O246  1  0.67161664  0.58454618  0.50275201  1
  O2-  O247  1  0.66209125  0.58736871  0.75042538  1
  O2-  O248  1  0.67169071  0.91384892  0.00563171  1
  O2-  O249  1  0.66431785  0.91963087  0.25232801  1
  O2-  O250  1  0.66786143  0.91409884  0.50524952  1
  O2-  O251  1  0.68459589  0.92086078  0.73815139  1
  O2-  O252  1  0.34373932  0.08388682  -0.01045422  1
  O2-  O253  1  0.33606480  0.08035435  0.25338285  1
  O2-  O254  1  0.33540553  0.08009813  0.48895365  1
  O2-  O255  1  0.33611238  0.08492818  0.75147829  1
  O2-  O256  1  0.33431969  0.41690194  0.00057545  1
  O2-  O257  1  0.33511816  0.41500300  0.25833447  1
  O2-  O258  1  0.33406448  0.41750253  0.49592230  1
  O2-  O259  1  0.33848974  0.41905236  0.75345106  1
  O2-  O260  1  0.33321230  0.74886021  0.00300876  1
  O2-  O261  1  0.33789722  0.74517350  0.25484801  1
  O2-  O262  1  0.33644991  0.74019423  0.50095842  1
  O2-  O263  1  0.34143027  0.74758152  0.75506690  1
  O2-  O264  1  0.83446825  0.08086641  -0.00078707  1
  O2-  O265  1  0.83831082  0.08187137  0.24904092  1
  O2-  O266  1  0.83772281  0.08368781  0.50871956  1
  O2-  O267  1  0.82870223  0.07816275  0.75131297  1
  O2-  O268  1  0.83714322  0.41647567  -0.00026512  1
  O2-  O269  1  0.83519261  0.41617926  0.24673605  1
  O2-  O270  1  0.82474068  0.42621161  0.51731336  1
  O2-  O271  1  0.83253393  0.41896471  0.75221309  1
  O2-  O272  1  0.83399975  0.74726365  -0.00188751  1
  O2-  O273  1  0.83337946  0.74804567  0.24809353  1
  O2-  O274  1  0.83088401  0.74487303  0.49707991  1
  O2-  O275  1  0.83216746  0.75077804  0.74887514  1
  O2-  O276  1  0.94934245  0.42124060  0.98446623  1
  O2-  O277  1  0.94174746  0.75651039  0.55567301  1
  O2-  O278  1  0.53812967  0.11067027  0.53570432  1
  O2-  O279  1  0.52835267  0.10499709  0.96643489  1
  O2-  O280  1  0.45568650  0.75158310  0.31159964  1
  O2-  O281  1  0.04394570  0.43238577  0.81088694  1
  O2-  O282  1  0.04350818  0.90827889  0.49109048  1
  O2-  O283  1  0.55558553  0.23681047  0.94033164  1
  O2-  O284  1  0.94502521  0.57996587  0.01529550  1
  O2-  O285  1  0.45468899  0.42395165  0.26117391  1
  O2-  O286  1  0.46150498  0.89634997  0.27122832  1
  O2-  O287  1  0.55726220  0.76074560  0.55441081  1
  O2-  O288  1  0.94791899  0.42163020  0.00446968  1
  O2-  O289  1  0.04032490  0.89710993  0.99827687  1
  O2-  O290  1  0.53698239  0.88980838  0.70205070  1
  O2-  O291  1  0.94060903  0.09307156  0.73900218  1
  O2-  O292  1  0.04889975  0.10447133  0.75158176  1
  O2-  O293  1  0.04585979  0.23240824  0.00059924  1
  O2-  O294  1  0.95481979  0.56802706  0.26580437  1
  O2-  O295  1  0.95566609  0.56491028  0.24582468  1
  O2-  O296  1  0.05760958  0.42308462  0.97419192  1
  O2-  O297  1  0.44939899  0.76155577  0.48228652  1
  O2-  O298  1  0.54576252  0.88455403  0.06726359  1
  O2-  O299  1  0.44031524  0.91425114  0.99042852  1
  O2-  O300  1  0.48654725  0.78788049  0.00762502  1
  O2-  O301  1  0.46899006  0.88961585  0.25787689  1
  O2-  O302  1  0.04062810  0.76395878  0.73234333  1
  O2-  O303  1  0.94592232  0.42786133  0.76443917  1
  O2-  O304  1  0.95372493  0.44025768  0.53143286  1
  O2-  O305  1  0.45649417  0.20682591  0.95340247  1
  O2-  O306  1  0.44688319  0.57655127  0.24960028  1
  O2-  O307  1  0.95777520  0.22267803  0.24357158  1
  O2-  O308  1  0.55862146  0.90346181  0.49317328  1
  O2-  O309  1  0.04866160  0.57967342  0.75842511  1
  O2-  O310  1  0.05106196  0.58838801  0.52122431  1
  O2-  O311  1  0.54399767  0.57360013  0.74976014  1
  O2-  O312  1  0.05293994  0.76777545  0.55965379  1
  O2-  O313  1  0.95215410  0.09196544  0.01563926  1
  O2-  O314  1  0.95377476  0.76287743  0.23808186  1
  O2-  O315  1  0.44997928  0.57142464  0.98829536  1
  O2-  O316  1  0.95789174  0.43457773  0.53642047  1
  O2-  O317  1  0.05854286  0.41893952  0.49677390  1
  O2-  O318  1  0.45787667  0.43570725  0.75406697  1
  O2-  O319  1  0.45292601  0.91549853  0.50013208  1
  O2-  O320  1  0.45967115  0.41824505  0.00804795  1
  O2-  O321  1  0.06143904  0.42055990  0.49542635  1
  O2-  O322  1  0.05257860  0.09840255  0.73311719  1
  O2-  O323  1  0.54912550  0.56242477  0.23693368  1
  O2-  O324  1  0.56471976  0.92601907  0.46371684  1
  O2-  O325  1  0.58896794  0.75860185  0.41445309  1
  O2-  O326  1  0.57669022  0.93521466  0.94522497  1
  O2-  O327  1  0.56253280  0.74765928  0.22066615  1
  O2-  O328  1  0.06301758  0.93524079  0.71343571  1
  O2-  O329  1  0.57625318  0.05692030  0.07009356  1
  O2-  O330  1  0.43360123  0.58197036  0.81662939  1
  O2-  O331  1  0.43478363  0.90802766  0.81810184  1
  O2-  O332  1  0.55978865  0.28933715  0.08457633  1
  O2-  O333  1  0.44165481  0.25202626  0.50264329  1
  O2-  O334  1  0.06707971  0.24161016  0.17530314  1
  O2-  O335  1  0.89862595  0.40330499  0.41945378  1
  O2-  O336  1  0.57134215  0.07090747  0.40918093  1
  O2-  O337  1  0.43160017  0.72619957  0.18225326  1
  O2-  O338  1  0.44189509  0.08427571  0.23170248  1
  O2-  O339  1  0.39998533  0.92525036  0.17016491  1
  O2-  O340  1  0.43613811  0.09787625  0.81347857  1
  O2-  O341  1  0.56632295  0.92876668  0.29227558  1
  O2-  O342  1  0.55876127  0.08511577  0.22794809  1
  O2-  O343  1  0.94289332  0.71661939  0.39591424  1
  O2-  O344  1  0.44191592  0.07050788  0.65712801  1
  O2-  O345  1  0.93184389  0.23354159  0.42458734  1
  O2-  O346  1  0.93448197  0.59522409  0.53968543  1
  O2-  O347  1  0.45462893  0.57829399  0.99001244  1
  O2-  O348  1  0.94498162  0.75222556  0.01830626  1
  O2-  O349  1  0.94131411  0.26494316  0.73088082  1
  O2-  O350  1  0.42598090  0.57025874  0.66519158  1
  O2-  O351  1  0.59034793  0.93371522  0.80305426  1
  O2-  O352  1  0.55714414  0.57944873  0.48968157  1
  O2-  O353  1  0.43913090  0.27188632  0.82292620  1
  O2-  O354  1  0.05952560  0.74092999  0.21601448  1
  O2-  O355  1  0.41734052  0.70864794  0.02663323  1
  O2-  O356  1  0.05805376  0.25053952  0.47857133  1
  O2-  O357  1  0.92988922  0.25121606  0.57036674  1
  O2-  O358  1  0.93907999  0.07562304  0.46969938  1
  O2-  O359  1  0.06389597  0.59478897  0.99047338  1
  O2-  O360  1  0.94645693  0.74981991  0.55389533  1
  O2-  O361  1  0.06215779  0.07436560  0.46332967  1
  O2-  O362  1  0.42185109  0.24890517  0.67392298  1
  O2-  O363  1  0.05799272  0.41232354  0.23507412  1
  O2-  O364  1  0.93704316  0.26047333  0.01720690  1
  O2-  O365  1  0.07426107  0.39828310  0.69208698  1
  O2-  O366  1  0.42835538  0.92667401  0.67042680  1
  O2-  O367  1  0.43460749  0.28070435  0.07935813  1
  O2-  O368  1  0.06057539  0.72330678  0.41348722  1
  O2-  O369  1  0.55840258  0.41492512  0.47857902  1
  O2-  O370  1  0.06542629  0.25476219  0.32332168  1
  O2-  O371  1  0.43817477  0.74702920  0.72614141  1
  O2-  O372  1  0.74917097  0.67770933  0.65304597  1
  O2-  O373  1  0.75240349  -0.01059866  0.39429797  1
  O2-  O374  1  0.74988143  0.65632840  0.10620960  1
  O2-  O375  1  0.75246562  0.00635688  0.15528322  1
  O2-  O376  1  0.24874509  0.33008536  0.67792992  1
  O2-  O377  1  0.74832211  0.34157705  0.95081097  1
  O2-  O378  1  0.24901436  0.35340636  0.92467967  1
  O2-  O379  1  0.74734477  0.67788109  0.84767205  1
  O2-  O380  1  0.74490015  0.31634918  0.33410964  1
  O2-  O381  1  0.75132190  0.01042039  0.89234844  1
  O2-  O382  1  0.24788160  0.65486768  0.62531293  1
  O2-  O383  1  0.25044999  0.63297740  0.39455325  1
  O2-  O384  1  0.25037222  0.33184844  0.56397039  1
  O2-  O385  1  0.74918283  0.32744838  0.15276913  1
  O2-  O386  1  0.25063854  0.00656707  0.87774962  1
  O2-  O387  1  0.24870049  0.33635178  0.83392392  1
  O2-  O388  1  0.24687643  0.01350985  0.34361992  1
  O2-  O389  1  0.24935782  0.00362075  0.56676760  1
  O2-  O390  1  0.24909596  0.33743720  0.11482055  1
  O2-  O391  1  0.24692524  0.00797634  0.11118286  1
  O2-  O392  1  0.24863484  0.67202494  0.87283394  1
  O2-  O393  1  0.24909938  0.02534394  0.68306053  1
  O2-  O394  1  0.74770532  0.33735435  0.42426226  1
  O2-  O395  1  0.75018711  0.33873136  0.81273258  1
  O2-  O396  1  0.74908584  0.17418693  0.18759592  1
  O2-  O397  1  0.24959685  0.17267994  0.39497318  1
  O2-  O398  1  0.24952570  0.87991664  0.67009112  1
  O2-  O399  1  0.74886323  0.17357798  0.59502044  1
  O2-  O400  1  0.74855968  0.49759308  0.09904268  1
  O2-  O401  1  0.75084047  0.83681905  0.10628468  1
  O2-  O402  1  0.25119339  0.50272790  0.61141870  1
  O2-  O403  1  0.75055514  0.84035331  0.90464209  1
  O2-  O404  1  0.74985261  0.82782758  0.39784823  1
  O2-  O405  1  0.24914089  0.86199885  0.86840068  1
  O2-  O406  1  0.74926776  0.51770248  0.90913850  1
  O2-  O407  1  0.25110301  0.79264218  0.58848040  1
  O2-  O408  1  0.25078366  0.52047503  0.13254073  1
  O2-  O409  1  0.24874701  0.86198583  0.10847876  1
  O2-  O410  1  0.75063666  0.17405327  0.33378538  1
  O2-  O411  1  0.24828495  0.19319537  0.86654178  1
  O2-  O412  1  0.24750296  0.16838054  0.68944114  1
  O2-  O413  1  0.74940315  0.49519781  0.65335063  1
  O2-  O414  1  0.25044922  0.18404752  0.10708486  1
  O2-  O415  1  0.24880597  0.77482591  0.40303346  1
  O2-  O416  1  0.24368892  0.87139637  0.32411577  1
  O2-  O417  1  0.74980917  0.16808634  0.09615628  1
  O2-  O418  1  0.74935358  0.15848936  0.42036426  1
  O2-  O419  1  0.75206383  0.85005741  0.58869313  1
  O2-  O420  1  0.49013124  0.69753655  0.87112763  1
  O2-  O421  1  0.02263971  0.31096532  0.61820167  1
  O2-  O422  1  0.47557394  0.00401402  0.90486360  1
  O2-  O423  1  0.53795821  0.65744659  0.35236481  1
  O2-  O424  1  0.04504706  -0.00668496  0.88182401  1
  O2-  O425  1  0.96806153  -0.00778768  0.62210822  1
  O2-  O426  1  0.95247839  0.35660476  0.17089009  1
  O2-  O427  1  0.03874154  0.34969717  0.09621467  1
  O2-  O428  1  0.53429778  0.35825066  0.86870293  1
  O2-  O429  1  0.95110017  -0.01667544  0.87919093  1
  O2-  O430  1  0.02702426  -0.00173351  0.11811491  1
  O2-  O431  1  0.52412470  0.64970558  0.11452153  1
  O2-  O432  1  0.48129365  0.01228349  0.11821087  1
  O2-  O433  1  0.44633054  0.62855742  0.41119104  1
  O2-  O434  1  0.98663720  0.66334143  0.11669020  1
  O2-  O435  1  0.94848065  0.67236335  0.86487260  1
  O2-  O436  1  0.47083269  0.01537870  0.37371880  1
  O2-  O437  1  0.04589759  0.70134803  0.88387413  1
  O2-  O438  1  0.52259338  0.31194749  0.37566547  1
  O2-  O439  1  0.45538198  0.37420290  0.59855036  1
  O2-  O440  1  0.54912155  0.32812170  0.64107857  1
  O2-  O441  1  0.48745438  0.66179250  0.60863027  1
  O2-  O442  1  0.52084649  0.01623073  0.84875837  1
  O2-  O443  1  0.98480485  0.34763020  0.35356567  1
