# generated using pymatgen
data_La7(Ru4O11)2
_symmetry_space_group_name_H-M   'P 1'
_cell_length_a   23.99004888
_cell_length_b   16.83017498
_cell_length_c   15.42633682
_cell_angle_alpha   90.00169257
_cell_angle_beta   90.00147961
_cell_angle_gamma   90.00071972
_symmetry_Int_Tables_number   1
_chemical_formula_structural   La7(Ru4O11)2
_chemical_formula_sum   'La84 Ru96 O264'
_cell_volume   6228.48715771
_cell_formula_units_Z   12
loop_
 _symmetry_equiv_pos_site_id
 _symmetry_equiv_pos_as_xyz
  1  'x, y, z'
loop_
 _atom_type_symbol
 _atom_type_oxidation_number
  La3+  3.0
  Ru4+  4.0
  O2-  -2.0
loop_
 _atom_site_type_symbol
 _atom_site_label
 _atom_site_symmetry_multiplicity
 _atom_site_fract_x
 _atom_site_fract_y
 _atom_site_fract_z
 _atom_site_occupancy
  La3+  La0  1  0.13748810  -0.00233626  0.12248213  1
  La3+  La1  1  0.13623729  -0.00130926  0.37671479  1
  La3+  La2  1  0.14261493  -0.00127784  0.62851812  1
  La3+  La3  1  0.13591453  -0.00434740  0.87464551  1
  La3+  La4  1  0.14517672  0.33428051  0.12874928  1
  La3+  La5  1  0.13862778  0.33431214  0.37376640  1
  La3+  La6  1  0.13710998  0.33743247  0.62684848  1
  La3+  La7  1  0.13647462  0.33359323  0.87375900  1
  La3+  La8  1  0.13984275  0.66443699  0.12710121  1
  La3+  La9  1  0.14195512  0.66248352  0.37646847  1
  La3+  La10  1  0.14152314  0.66283654  0.62233050  1
  La3+  La11  1  0.14068319  0.66339182  0.87380102  1
  La3+  La12  1  0.63962573  0.00088656  0.12912883  1
  La3+  La13  1  0.64265594  -0.00073668  0.37220441  1
  La3+  La14  1  0.63725516  -0.00350356  0.62198221  1
  La3+  La15  1  0.63822964  0.00017812  0.87577608  1
  La3+  La16  1  0.63471801  0.33600784  0.11976894  1
  La3+  La17  1  0.63727228  0.33020878  0.37169438  1
  La3+  La18  1  0.64068889  0.33312452  0.62331000  1
  La3+  La19  1  0.63302768  0.34088844  0.88251048  1
  La3+  La20  1  0.63930838  0.66675130  0.12524474  1
  La3+  La21  1  0.63942401  0.67222123  0.36902765  1
  La3+  La22  1  0.63529844  0.66632313  0.62849545  1
  La3+  La23  1  0.64119430  0.66159358  0.87563652  1
  La3+  La24  1  0.36178933  -0.00066236  0.12499415  1
  La3+  La25  1  0.36530221  -0.00089293  0.37825038  1
  La3+  La26  1  0.36544915  0.00287134  0.63602256  1
  La3+  La27  1  0.36838084  0.00503371  0.86137776  1
  La3+  La28  1  0.35617207  0.33487726  0.13042811  1
  La3+  La29  1  0.36125390  0.33534413  0.37169625  1
  La3+  La30  1  0.36118152  0.33490927  0.62211526  1
  La3+  La31  1  0.36014696  0.33440596  0.87680002  1
  La3+  La32  1  0.35937149  0.66373071  0.12382202  1
  La3+  La33  1  0.35465614  0.66355360  0.37796887  1
  La3+  La34  1  0.36369745  0.67241731  0.63213987  1
  La3+  La35  1  0.36729694  0.67060591  0.86817709  1
  La3+  La36  1  0.86513264  -0.00118013  0.12958570  1
  La3+  La37  1  0.85702610  -0.00234410  0.36806655  1
  La3+  La38  1  0.86661835  -0.00154934  0.62811090  1
  La3+  La39  1  0.86344753  0.00047743  0.87651839  1
  La3+  La40  1  0.85976654  0.33344612  0.12636573  1
  La3+  La41  1  0.86156394  0.33181307  0.37319146  1
  La3+  La42  1  0.86077913  0.33476061  0.62483321  1
  La3+  La43  1  0.86130557  0.33547559  0.87373314  1
  La3+  La44  1  0.85929228  0.66899867  0.12638670  1
  La3+  La45  1  0.86011168  0.66803412  0.37493832  1
  La3+  La46  1  0.86329430  0.66725780  0.62520249  1
  La3+  La47  1  0.85693057  0.66386319  0.87649870  1
  La3+  La48  1  0.49576362  0.49564436  0.62642331  1
  La3+  La49  1  0.49790148  0.16262610  0.85935056  1
  La3+  La50  1  0.50062790  0.16586168  0.36246382  1
  La3+  La51  1  -0.00297296  0.83421165  0.88417807  1
  La3+  La52  1  0.50512469  0.49596707  0.89447166  1
  La3+  La53  1  0.49676040  0.50526443  0.38374449  1
  La3+  La54  1  0.00343497  0.17192017  0.11113988  1
  La3+  La55  1  -0.00006031  0.16662184  0.13224515  1
  La3+  La56  1  0.00547086  0.17315519  0.62283524  1
  La3+  La57  1  -0.00139004  0.49523882  0.61894820  1
  La3+  La58  1  0.50577643  0.83520187  0.12660166  1
  La3+  La59  1  0.49546822  0.82940790  0.87902084  1
  La3+  La60  1  0.49716841  0.16266010  0.87611519  1
  La3+  La61  1  0.50521500  0.50039476  0.87408450  1
  La3+  La62  1  0.50067673  0.16759165  0.11645068  1
  La3+  La63  1  0.00448182  0.83098828  0.62111772  1
  La3+  La64  1  0.00157008  0.50331073  0.13491680  1
  La3+  La65  1  0.50141494  0.50114189  0.64622545  1
  La3+  La66  1  0.49856946  0.83210997  0.37207580  1
  La3+  La67  1  0.00283374  0.84182135  0.13642205  1
  La3+  La68  1  0.00335741  0.83544023  0.86356558  1
  La3+  La69  1  0.50108320  0.83289924  0.86127711  1
  La3+  La70  1  0.49353856  0.15689421  0.62909202  1
  La3+  La71  1  0.00096101  0.49708252  0.86040173  1
  La3+  La72  1  0.24858598  0.12113715  0.80279524  1
  La3+  La73  1  0.75024896  0.78213269  0.01712256  1
  La3+  La74  1  0.75010532  0.87243429  0.46645223  1
  La3+  La75  1  0.25024558  0.79576013  0.53045338  1
  La3+  La76  1  0.75030155  0.45876150  0.47062051  1
  La3+  La77  1  0.25060049  0.20857617  0.01087197  1
  La3+  La78  1  0.24998719  0.79452241  0.26863112  1
  La3+  La79  1  0.74961533  0.46373201  0.24028034  1
  La3+  La80  1  0.75024086  0.21399744  0.49038631  1
  La3+  La81  1  0.75006608  0.50139800  0.74122155  1
  La3+  La82  1  0.74968795  0.17444427  0.73454053  1
  La3+  La83  1  0.24965110  0.10423396  0.49274942  1
  Ru4+  Ru84  1  -0.00036408  0.00212795  -0.00274266  1
  Ru4+  Ru85  1  0.00117611  0.00297499  0.24967585  1
  Ru4+  Ru86  1  0.00408658  0.00123874  0.50044035  1
  Ru4+  Ru87  1  0.00544718  0.00610017  0.74881843  1
  Ru4+  Ru88  1  0.00121570  0.33330828  0.00074139  1
  Ru4+  Ru89  1  -0.00059178  0.33444111  0.25152503  1
  Ru4+  Ru90  1  0.00052864  0.32901224  0.50248226  1
  Ru4+  Ru91  1  -0.00370477  0.32799750  0.74879654  1
  Ru4+  Ru92  1  -0.00032980  0.66364752  -0.00223784  1
  Ru4+  Ru93  1  0.00519396  0.66451433  0.24655305  1
  Ru4+  Ru94  1  0.00082335  0.66644664  0.50576854  1
  Ru4+  Ru95  1  0.00096246  0.66684009  0.75289904  1
  Ru4+  Ru96  1  0.50025718  0.00062064  -0.00200371  1
  Ru4+  Ru97  1  0.49960676  0.00152675  0.24711690  1
  Ru4+  Ru98  1  0.49868617  0.00876125  0.49892586  1
  Ru4+  Ru99  1  0.49890115  0.00129337  0.75522706  1
  Ru4+  Ru100  1  0.50064243  0.33406963  -0.00460009  1
  Ru4+  Ru101  1  0.49431990  0.33907628  0.25202652  1
  Ru4+  Ru102  1  0.49427754  0.33554795  0.49888008  1
  Ru4+  Ru103  1  0.50470910  0.32936318  0.75124048  1
  Ru4+  Ru104  1  0.50411584  0.67060595  -0.00026684  1
  Ru4+  Ru105  1  0.49836555  0.65582741  0.24866100  1
  Ru4+  Ru106  1  0.49925105  0.66952743  0.50368555  1
  Ru4+  Ru107  1  0.49953284  0.67641150  0.74842270  1
  Ru4+  Ru108  1  0.11028479  0.16916616  -0.00191552  1
  Ru4+  Ru109  1  0.11321971  0.16794622  0.25171777  1
  Ru4+  Ru110  1  0.11019926  0.16873458  0.49769328  1
  Ru4+  Ru111  1  0.10785381  0.16629220  0.75200011  1
  Ru4+  Ru112  1  0.11323538  0.50224013  0.00017923  1
  Ru4+  Ru113  1  0.11452949  0.50227994  0.24894732  1
  Ru4+  Ru114  1  0.11634414  0.49711774  0.49803196  1
  Ru4+  Ru115  1  0.11515811  0.50459504  0.74934253  1
  Ru4+  Ru116  1  0.11760083  0.82829709  -0.00015221  1
  Ru4+  Ru117  1  0.11168953  0.83097828  0.24915985  1
  Ru4+  Ru118  1  0.11077932  0.83527167  0.49893718  1
  Ru4+  Ru119  1  0.11315740  0.83536359  0.74982612  1
  Ru4+  Ru120  1  0.61037238  0.16801234  -0.00081227  1
  Ru4+  Ru121  1  0.61629795  0.16121642  0.24780651  1
  Ru4+  Ru122  1  0.61327000  0.16164693  0.50049736  1
  Ru4+  Ru123  1  0.61079899  0.16811492  0.75023851  1
  Ru4+  Ru124  1  0.61438554  0.50032343  0.00359592  1
  Ru4+  Ru125  1  0.60983862  0.50120745  0.24687979  1
  Ru4+  Ru126  1  0.61292549  0.50161931  0.49633335  1
  Ru4+  Ru127  1  0.61713932  0.49721903  0.75135703  1
  Ru4+  Ru128  1  0.61177461  0.83141515  0.00064468  1
  Ru4+  Ru129  1  0.61808714  0.83712826  0.24984027  1
  Ru4+  Ru130  1  0.61316186  0.83022801  0.50253067  1
  Ru4+  Ru131  1  0.61113386  0.83226035  0.75212492  1
  Ru4+  Ru132  1  0.38983841  0.16996836  -0.00268397  1
  Ru4+  Ru133  1  0.38501743  0.16732728  0.25127559  1
  Ru4+  Ru134  1  0.38906537  0.16543359  0.50165171  1
  Ru4+  Ru135  1  0.38915374  0.16381061  0.75128987  1
  Ru4+  Ru136  1  0.38273441  0.49728291  0.00215640  1
  Ru4+  Ru137  1  0.38512759  0.49790105  0.25017548  1
  Ru4+  Ru138  1  0.38302506  0.50231930  0.49811793  1
  Ru4+  Ru139  1  0.38346210  0.50400859  0.75096697  1
  Ru4+  Ru140  1  0.38805422  0.83326382  -0.00083268  1
  Ru4+  Ru141  1  0.38729728  0.83283043  0.24916292  1
  Ru4+  Ru142  1  0.38830891  0.82892560  0.50069259  1
  Ru4+  Ru143  1  0.38762597  0.83360301  0.75170464  1
  Ru4+  Ru144  1  0.88367269  0.17148576  -0.00130573  1
  Ru4+  Ru145  1  0.88612945  0.16699721  0.25200622  1
  Ru4+  Ru146  1  0.88880534  0.16815450  0.49762161  1
  Ru4+  Ru147  1  0.88792453  0.16948248  0.75259318  1
  Ru4+  Ru148  1  0.88659973  0.50232676  0.00004200  1
  Ru4+  Ru149  1  0.88984520  0.50062946  0.24934903  1
  Ru4+  Ru150  1  0.88901358  0.49813273  0.50037080  1
  Ru4+  Ru151  1  0.88813375  0.50033656  0.75097436  1
  Ru4+  Ru152  1  0.88781307  0.83511043  -0.00211084  1
  Ru4+  Ru153  1  0.88410716  0.82766765  0.25328189  1
  Ru4+  Ru154  1  0.88572124  0.83717919  0.49814976  1
  Ru4+  Ru155  1  0.88406911  0.82929376  0.74944441  1
  Ru4+  Ru156  1  0.74919955  0.24816219  0.25385136  1
  Ru4+  Ru157  1  0.74934799  0.73776674  0.51085938  1
  Ru4+  Ru158  1  0.75010381  0.60635663  0.26022669  1
  Ru4+  Ru159  1  0.74993745  0.04023346  0.77280245  1
  Ru4+  Ru160  1  0.75008928  0.93371724  0.01101476  1
  Ru4+  Ru161  1  0.74966934  0.30980036  0.75206350  1
  Ru4+  Ru162  1  0.24973265  0.43034957  0.74985496  1
  Ru4+  Ru163  1  0.75000714  0.09061626  -0.00213229  1
  Ru4+  Ru164  1  0.74998506  0.91206947  0.73409737  1
  Ru4+  Ru165  1  0.74972227  0.74510371  0.73828642  1
  Ru4+  Ru166  1  0.25083606  0.90282246  0.00614975  1
  Ru4+  Ru167  1  0.75058841  0.06093074  0.48797312  1
  Ru4+  Ru168  1  0.25001958  0.08285856  0.24112245  1
  Ru4+  Ru169  1  0.74937995  0.24399626  -0.00213981  1
  Ru4+  Ru170  1  0.24992026  0.26586731  0.48766122  1
  Ru4+  Ru171  1  0.25010468  0.25877252  0.75266131  1
  Ru4+  Ru172  1  0.25033846  0.94001413  0.50332596  1
  Ru4+  Ru173  1  0.25050513  0.07049685  0.00667981  1
  Ru4+  Ru174  1  0.25006078  0.94240664  0.24690870  1
  Ru4+  Ru175  1  0.24913927  0.74951063  0.74435867  1
  Ru4+  Ru176  1  0.75016211  0.59761531  0.51106259  1
  Ru4+  Ru177  1  0.24962167  0.41680213  0.01225319  1
  Ru4+  Ru178  1  0.75064742  0.42855788  -0.00580660  1
  Ru4+  Ru179  1  0.25095268  0.75481375  0.00748483  1
  O2-  O180  1  0.16503511  0.07902813  0.00086099  1
  O2-  O181  1  0.16604181  0.08005597  0.24922279  1
  O2-  O182  1  0.15893988  0.07754090  0.50056784  1
  O2-  O183  1  0.16327193  0.08002358  0.74911039  1
  O2-  O184  1  0.16618468  0.41408026  0.00047864  1
  O2-  O185  1  0.16315983  0.41514210  0.25182755  1
  O2-  O186  1  0.16486010  0.41458592  0.49992482  1
  O2-  O187  1  0.16707770  0.41669398  0.74947284  1
  O2-  O188  1  0.16957248  0.74730867  0.00179498  1
  O2-  O189  1  0.16534117  0.74393250  0.24980720  1
  O2-  O190  1  0.16122469  0.74771225  0.50084214  1
  O2-  O191  1  0.16936756  0.74659868  0.74953369  1
  O2-  O192  1  0.66669850  0.08046389  0.00025076  1
  O2-  O193  1  0.66537748  0.07999646  0.24821884  1
  O2-  O194  1  0.66740419  0.07985395  0.50019901  1
  O2-  O195  1  0.66596297  0.07822363  0.75006362  1
  O2-  O196  1  0.67001113  0.41549041  -0.00049564  1
  O2-  O197  1  0.66545247  0.41322051  0.25329836  1
  O2-  O198  1  0.66391170  0.41222812  0.49741035  1
  O2-  O199  1  0.66951775  0.41216146  0.74843868  1
  O2-  O200  1  0.66246712  0.74580655  -0.00236098  1
  O2-  O201  1  0.66664056  0.75013823  0.24801522  1
  O2-  O202  1  0.66610745  0.74762824  0.50081295  1
  O2-  O203  1  0.66692266  0.74653586  0.74752873  1
  O2-  O204  1  0.33661525  0.25418731  -0.00060454  1
  O2-  O205  1  0.33358817  0.25108440  0.25154891  1
  O2-  O206  1  0.33437537  0.25308486  0.49976390  1
  O2-  O207  1  0.33560453  0.25311956  0.75053420  1
  O2-  O208  1  0.33359250  0.58432607  -0.00240736  1
  O2-  O209  1  0.33574583  0.58511955  0.24930288  1
  O2-  O210  1  0.33323538  0.58338171  0.50377584  1
  O2-  O211  1  0.33142014  0.58716476  0.74951860  1
  O2-  O212  1  0.33425803  0.91920348  -0.00003737  1
  O2-  O213  1  0.33368508  0.92022836  0.24968073  1
  O2-  O214  1  0.33309553  0.91924135  0.50168627  1
  O2-  O215  1  0.33586223  0.91723779  0.74880903  1
  O2-  O216  1  0.83216009  0.25322334  0.00012426  1
  O2-  O217  1  0.83099967  0.25187569  0.24960412  1
  O2-  O218  1  0.83933625  0.25560001  0.49915462  1
  O2-  O219  1  0.83145498  0.25655581  0.75078441  1
  O2-  O220  1  0.83692595  0.58384053  0.00034832  1
  O2-  O221  1  0.83334566  0.58520650  0.25059385  1
  O2-  O222  1  0.83392921  0.58673668  0.50235992  1
  O2-  O223  1  0.83524490  0.58669281  0.74645740  1
  O2-  O224  1  0.83319082  0.92153050  0.00171432  1
  O2-  O225  1  0.83607220  0.91774495  0.24718570  1
  O2-  O226  1  0.83481069  0.92112760  0.50259579  1
  O2-  O227  1  0.83255325  0.91957861  0.74975821  1
  O2-  O228  1  0.16543420  0.25531038  0.00051475  1
  O2-  O229  1  0.16401873  0.25206049  0.25171167  1
  O2-  O230  1  0.16757882  0.25372056  0.49936324  1
  O2-  O231  1  0.16700329  0.25370316  0.74952027  1
  O2-  O232  1  0.16483462  0.58469358  -0.00158460  1
  O2-  O233  1  0.16797167  0.58506776  0.24845510  1
  O2-  O234  1  0.16544817  0.58386476  0.50125502  1
  O2-  O235  1  0.16611694  0.58481190  0.75063864  1
  O2-  O236  1  0.16712282  0.91788103  0.00160339  1
  O2-  O237  1  0.16612616  0.92097201  0.25072153  1
  O2-  O238  1  0.16885970  0.92058355  0.50082132  1
  O2-  O239  1  0.16406604  0.91760706  0.75016324  1
  O2-  O240  1  0.66776054  0.25293223  -0.00068881  1
  O2-  O241  1  0.66877025  0.25194909  0.25113745  1
  O2-  O242  1  0.66108670  0.25512298  0.49854447  1
  O2-  O243  1  0.66762288  0.25595349  0.74933727  1
  O2-  O244  1  0.66302115  0.58391417  -0.00161989  1
  O2-  O245  1  0.66789516  0.58448140  0.25143154  1
  O2-  O246  1  0.66967786  0.58655222  0.50300839  1
  O2-  O247  1  0.66655072  0.58729061  0.74623784  1
  O2-  O248  1  0.66599556  0.92175291  0.00083043  1
  O2-  O249  1  0.66468910  0.92050768  0.24680227  1
  O2-  O250  1  0.66392469  0.92211693  0.50159802  1
  O2-  O251  1  0.66601067  0.92011752  0.74900635  1
  O2-  O252  1  0.33434052  0.07795985  -0.00001596  1
  O2-  O253  1  0.33304517  0.08027341  0.24937195  1
  O2-  O254  1  0.33821489  0.07691579  0.50186395  1
  O2-  O255  1  0.33332155  0.08088859  0.74907545  1
  O2-  O256  1  0.33252728  0.41473535  -0.00039290  1
  O2-  O257  1  0.33249880  0.41650864  0.25314702  1
  O2-  O258  1  0.33429496  0.41325581  0.50066954  1
  O2-  O259  1  0.33307184  0.41455289  0.74834726  1
  O2-  O260  1  0.33146656  0.74691323  -0.00077683  1
  O2-  O261  1  0.33392315  0.74508611  0.24615478  1
  O2-  O262  1  0.33758980  0.74767230  0.50193650  1
  O2-  O263  1  0.33033205  0.74835070  0.74863427  1
  O2-  O264  1  0.83216453  0.08054027  0.00047961  1
  O2-  O265  1  0.83543137  0.08256699  0.24636064  1
  O2-  O266  1  0.83111633  0.07972536  0.50068711  1
  O2-  O267  1  0.83270059  0.07843160  0.75046165  1
  O2-  O268  1  0.83331863  0.41277814  -0.00021839  1
  O2-  O269  1  0.83661187  0.41221093  0.25048217  1
  O2-  O270  1  0.83682846  0.41202502  0.49894954  1
  O2-  O271  1  0.83076880  0.41193983  0.74890317  1
  O2-  O272  1  0.83961404  0.74407699  -0.00044486  1
  O2-  O273  1  0.83226732  0.74909787  0.24830289  1
  O2-  O274  1  0.83347101  0.74823182  0.50205643  1
  O2-  O275  1  0.83284174  0.74652620  0.74826659  1
  O2-  O276  1  0.95788734  0.89234395  0.52302861  1
  O2-  O277  1  0.45413459  0.76938651  0.76220816  1
  O2-  O278  1  0.45008053  0.43103869  0.50893204  1
  O2-  O279  1  0.04962472  0.43041211  0.73337530  1
  O2-  O280  1  0.45900203  0.78239805  0.21781184  1
  O2-  O281  1  0.55004487  0.57035965  0.01227677  1
  O2-  O282  1  0.04688685  0.56251868  0.47962607  1
  O2-  O283  1  0.45172657  0.42961268  0.76215712  1
  O2-  O284  1  0.04382723  0.56603418  0.73576518  1
  O2-  O285  1  0.54895036  0.42634383  0.98136704  1
  O2-  O286  1  0.94635027  0.09625273  0.70247714  1
  O2-  O287  1  0.54877274  0.23444144  0.51926522  1
  O2-  O288  1  0.95745014  0.89998220  0.26952875  1
  O2-  O289  1  0.45421929  0.23583545  0.73666635  1
  O2-  O290  1  0.54639637  0.09436525  0.48619252  1
  O2-  O291  1  0.95233939  0.23897337  0.50954515  1
  O2-  O292  1  0.04526775  0.23581163  0.26358128  1
  O2-  O293  1  0.53797377  0.44277119  0.28481265  1
  O2-  O294  1  0.54942310  0.42736937  0.48251481  1
  O2-  O295  1  0.04507216  0.90763019  0.98679571  1
  O2-  O296  1  0.95055980  0.76433418  0.01510536  1
  O2-  O297  1  0.95616378  0.90384571  0.73529447  1
  O2-  O298  1  0.54355198  0.24074184  0.48123757  1
  O2-  O299  1  0.53639610  0.55924629  0.53027853  1
  O2-  O300  1  0.95394281  0.09861685  0.24265889  1
  O2-  O301  1  0.95532617  0.43236562  0.23845637  1
  O2-  O302  1  0.04674128  0.57479732  0.51653829  1
  O2-  O303  1  0.95834690  0.10294175  0.52395825  1
  O2-  O304  1  0.45448196  0.76211844  0.49069298  1
  O2-  O305  1  0.95557693  0.75959105  0.21144388  1
  O2-  O306  1  0.95162576  0.75643305  0.51301646  1
  O2-  O307  1  0.95537440  0.10156815  0.98087766  1
  O2-  O308  1  0.04886204  0.09757933  0.76073044  1
  O2-  O309  1  0.44782735  0.75966432  0.73782306  1
  O2-  O310  1  0.45537195  0.09833632  0.98973408  1
  O2-  O311  1  0.44983677  0.90165103  0.48273805  1
  O2-  O312  1  0.95013887  0.09660508  0.01891624  1
  O2-  O313  1  0.54485699  0.23704420  0.23730554  1
  O2-  O314  1  0.54572971  0.57158503  0.76305361  1
  O2-  O315  1  0.45262531  0.55945430  0.01359147  1
  O2-  O316  1  0.94817458  0.90488206  0.23351578  1
  O2-  O317  1  0.45195145  0.09363048  0.76320147  1
  O2-  O318  1  0.45175031  0.57757090  0.97947794  1
  O2-  O319  1  0.04280488  0.77880656  0.03799042  1
  O2-  O320  1  0.54598849  0.90763555  0.26065950  1
  O2-  O321  1  0.55102742  0.90144252  0.51599555  1
  O2-  O322  1  0.54433607  0.90181122  0.98693573  1
  O2-  O323  1  0.55039222  0.76680393  0.26429506  1
  O2-  O324  1  0.43760262  0.07024471  0.28081885  1
  O2-  O325  1  0.06368529  0.59030741  0.27575226  1
  O2-  O326  1  0.42370051  0.72850972  0.29817355  1
  O2-  O327  1  0.06368149  0.40224482  0.72186020  1
  O2-  O328  1  0.92160115  0.74221288  0.32895915  1
  O2-  O329  1  0.57110843  0.40273433  0.02825915  1
  O2-  O330  1  0.56453648  0.41814268  0.96874749  1
  O2-  O331  1  0.43450572  0.25064679  0.19018752  1
  O2-  O332  1  0.43718720  0.58968330  0.78777821  1
  O2-  O333  1  0.58245223  0.60534154  0.44730492  1
  O2-  O334  1  0.43415445  0.40959404  0.22390526  1
  O2-  O335  1  0.56607436  0.25487404  0.22842895  1
  O2-  O336  1  0.43398496  0.59234986  0.47497609  1
  O2-  O337  1  0.93565004  0.73641359  0.53430091  1
  O2-  O338  1  0.55955261  0.93346353  0.52836264  1
  O2-  O339  1  0.43082771  0.73296105  0.78993553  1
  O2-  O340  1  0.93477394  0.92184362  0.72768956  1
  O2-  O341  1  0.43829414  0.07354137  0.46733842  1
  O2-  O342  1  0.56339886  0.74181002  0.02622272  1
  O2-  O343  1  0.56486171  0.40993093  0.77534254  1
  O2-  O344  1  0.06684016  0.92128712  0.97437082  1
  O2-  O345  1  0.06437335  0.26007241  0.97693628  1
  O2-  O346  1  0.43705950  0.92948741  0.78313636  1
  O2-  O347  1  0.55932830  0.59376183  0.78545254  1
  O2-  O348  1  0.93132647  0.06675894  0.45238418  1
  O2-  O349  1  0.93616548  0.41012681  0.77715448  1
  O2-  O350  1  0.43461280  0.06849914  0.71289053  1
  O2-  O351  1  0.07793058  0.73044089  0.95062974  1
  O2-  O352  1  0.56547506  0.74102212  0.27804538  1
  O2-  O353  1  0.94092338  0.74347345  0.18543413  1
  O2-  O354  1  0.06546299  0.74495231  0.22090540  1
  O2-  O355  1  0.57454638  0.39806629  0.20238056  1
  O2-  O356  1  0.56250084  0.26002410  0.67789281  1
  O2-  O357  1  0.56564868  0.59241161  0.22401933  1
  O2-  O358  1  0.94207071  0.09155439  0.71168198  1
  O2-  O359  1  0.43984967  0.93151083  0.46735826  1
  O2-  O360  1  0.56404316  0.06992020  0.78286545  1
  O2-  O361  1  0.06315557  0.93181879  0.46938024  1
  O2-  O362  1  0.06362860  0.26562138  0.46719479  1
  O2-  O363  1  0.93468942  0.26504624  0.28246543  1
  O2-  O364  1  0.43421600  0.25722266  0.30793956  1
  O2-  O365  1  0.93150817  0.05535931  0.82134356  1
  O2-  O366  1  0.93171090  0.93253609  0.44996539  1
  O2-  O367  1  0.06481109  0.26100184  0.77212472  1
  O2-  O368  1  0.93555700  0.25794651  0.72312463  1
  O2-  O369  1  0.43670008  0.74145780  0.02427501  1
  O2-  O370  1  0.43970119  0.07744723  0.77444966  1
  O2-  O371  1  0.56818040  0.24653307  0.81079499  1
  O2-  O372  1  0.75036934  0.33184743  0.90697685  1
  O2-  O373  1  0.24985248  -0.00767911  0.10276575  1
  O2-  O374  1  0.24981080  -0.00087686  0.63912653  1
  O2-  O375  1  0.74951785  -0.00177411  0.64359137  1
  O2-  O376  1  0.75006748  0.67791910  0.16708480  1
  O2-  O377  1  0.25029034  -0.01014402  0.91728988  1
  O2-  O378  1  0.74980335  0.33425642  0.34582013  1
  O2-  O379  1  0.24955086  0.33660520  0.13851510  1
  O2-  O380  1  0.24997543  0.67295298  0.40010339  1
  O2-  O381  1  0.75013661  0.33028937  0.15687822  1
  O2-  O382  1  0.74996005  0.66416160  0.82639874  1
  O2-  O383  1  0.74969918  0.66405496  0.39802437  1
  O2-  O384  1  0.25015328  0.67219370  0.09086201  1
  O2-  O385  1  0.75002250  0.67067036  0.91779035  1
  O2-  O386  1  0.25020860  0.34671523  0.82492661  1
  O2-  O387  1  0.25001014  -0.00545092  0.82499262  1
  O2-  O388  1  0.75043146  0.66046048  0.07830808  1
  O2-  O389  1  0.75000640  0.00604347  0.90202345  1
  O2-  O390  1  0.25026220  0.67531844  0.60833989  1
  O2-  O391  1  0.24993810  0.32850413  0.94237642  1
  O2-  O392  1  0.24975111  0.34444926  0.56803866  1
  O2-  O393  1  0.74946871  0.00143851  0.36405707  1
  O2-  O394  1  0.74999655  0.33153547  0.60177855  1
  O2-  O395  1  0.25029358  0.34316049  0.67146980  1
  O2-  O396  1  0.75030563  0.49436945  0.08864642  1
  O2-  O397  1  0.24998643  0.49933108  0.33543853  1
  O2-  O398  1  0.75013123  0.83011197  0.81317632  1
  O2-  O399  1  0.24996983  0.50312176  0.08235860  1
  O2-  O400  1  0.74990734  0.14631734  0.60330475  1
  O2-  O401  1  0.24986712  0.16005689  0.15364037  1
  O2-  O402  1  0.25007770  0.84038412  0.12611904  1
  O2-  O403  1  0.25065576  0.16852953  0.67725961  1
  O2-  O404  1  0.74978575  0.84925880  0.90025850  1
  O2-  O405  1  0.24994149  0.84898191  0.39811804  1
  O2-  O406  1  0.25022166  0.18737066  0.38870328  1
  O2-  O407  1  0.25000719  0.49948963  0.16704639  1
  O2-  O408  1  0.24975927  0.83002239  0.90708469  1
  O2-  O409  1  0.75006116  0.16701902  0.09302462  1
  O2-  O410  1  0.24981138  0.18910649  0.59100536  1
  O2-  O411  1  0.74983156  0.16403748  0.87851132  1
  O2-  O412  1  0.75008586  0.16233153  0.36379235  1
  O2-  O413  1  0.75010485  0.51072178  0.60034587  1
  O2-  O414  1  0.74981989  0.85497082  0.12559888  1
  O2-  O415  1  0.74999424  0.82925687  0.34686893  1
  O2-  O416  1  0.75022607  0.49285352  0.87843741  1
  O2-  O417  1  0.24996178  0.17654940  0.30232634  1
  O2-  O418  1  0.25014395  0.49939557  0.41513004  1
  O2-  O419  1  0.74984803  0.82200673  0.61665547  1
  O2-  O420  1  0.97330070  -0.00370980  0.12224231  1
  O2-  O421  1  0.46755195  0.65992159  0.13155280  1
  O2-  O422  1  0.95399816  0.66632099  0.87488129  1
  O2-  O423  1  0.52653727  0.32136532  0.11801850  1
  O2-  O424  1  0.02698179  -0.00095112  0.87046869  1
  O2-  O425  1  0.46830543  0.33734456  0.10972841  1
  O2-  O426  1  0.98104248  -0.00386267  0.61908612  1
  O2-  O427  1  0.52733901  0.66984797  0.13048107  1
  O2-  O428  1  0.96872232  0.32861030  0.88459552  1
  O2-  O429  1  0.02985251  0.67358812  0.37689614  1
  O2-  O430  1  0.97278608  0.33122950  0.11929118  1
  O2-  O431  1  0.47201508  0.33435119  0.62575924  1
  O2-  O432  1  0.45210825  0.32906817  0.88059825  1
  O2-  O433  1  0.52906622  0.66904275  0.62335995  1
  O2-  O434  1  0.53448918  0.33000530  0.88385518  1
  O2-  O435  1  0.03985531  0.65693229  0.86286701  1
  O2-  O436  1  0.47563037  0.34039997  0.38112957  1
  O2-  O437  1  0.02687316  0.67238006  0.62653239  1
  O2-  O438  1  0.02413767  0.65440657  0.12317491  1
  O2-  O439  1  0.02753418  0.34614791  0.87158079  1
  O2-  O440  1  0.97524805  0.34252179  0.62239496  1
  O2-  O441  1  0.47126290  0.65809181  0.37488369  1
  O2-  O442  1  0.52759781  0.67099533  0.37343408  1
  O2-  O443  1  0.97357190  0.65449066  0.38166678  1
