# generated using pymatgen
data_La7(Ru4O11)2
_symmetry_space_group_name_H-M   'P 1'
_cell_length_a   23.99944817
_cell_length_b   16.83887492
_cell_length_c   15.43579254
_cell_angle_alpha   90.00443971
_cell_angle_beta   89.99536861
_cell_angle_gamma   89.99414585
_symmetry_Int_Tables_number   1
_chemical_formula_structural   La7(Ru4O11)2
_chemical_formula_sum   'La84 Ru96 O264'
_cell_volume   6237.96961382
_cell_formula_units_Z   12
loop_
 _symmetry_equiv_pos_site_id
 _symmetry_equiv_pos_as_xyz
  1  'x, y, z'
loop_
 _atom_type_symbol
 _atom_type_oxidation_number
  La3+  3.0
  Ru4+  4.0
  O2-  -2.0
loop_
 _atom_site_type_symbol
 _atom_site_label
 _atom_site_symmetry_multiplicity
 _atom_site_fract_x
 _atom_site_fract_y
 _atom_site_fract_z
 _atom_site_occupancy
  La3+  La0  1  0.16130214  0.00887452  0.12393910  1
  La3+  La1  1  0.13067840  -0.00179624  0.37339755  1
  La3+  La2  1  0.14761265  -0.00906337  0.62602131  1
  La3+  La3  1  0.15208959  0.01778102  0.88160973  1
  La3+  La4  1  0.13873769  0.32258048  0.11992143  1
  La3+  La5  1  0.13939927  0.33635344  0.37609178  1
  La3+  La6  1  0.14200195  0.34182691  0.62943460  1
  La3+  La7  1  0.13981906  0.33197551  0.87857253  1
  La3+  La8  1  0.13892260  0.66960008  0.12117068  1
  La3+  La9  1  0.15279649  0.67280199  0.37608342  1
  La3+  La10  1  0.14782471  0.66628097  0.62689229  1
  La3+  La11  1  0.15281857  0.67746301  0.87342848  1
  La3+  La12  1  0.63344965  0.00097599  0.11988789  1
  La3+  La13  1  0.64008883  -0.00218676  0.37789756  1
  La3+  La14  1  0.63938932  -0.00706799  0.62546021  1
  La3+  La15  1  0.65087048  0.00071134  0.86957272  1
  La3+  La16  1  0.64128439  0.33273989  0.12325496  1
  La3+  La17  1  0.65495492  0.33191790  0.37055155  1
  La3+  La18  1  0.63440623  0.33814927  0.62666383  1
  La3+  La19  1  0.64731001  0.33541287  0.87582347  1
  La3+  La20  1  0.64586099  0.66811659  0.11697634  1
  La3+  La21  1  0.64385562  0.65940704  0.38082541  1
  La3+  La22  1  0.64796852  0.66455916  0.63127429  1
  La3+  La23  1  0.63121949  0.67910934  0.87684114  1
  La3+  La24  1  0.36298764  -0.00430063  0.12118641  1
  La3+  La25  1  0.36000828  -0.00655445  0.37374431  1
  La3+  La26  1  0.35876856  -0.00445629  0.62422556  1
  La3+  La27  1  0.35596240  -0.00409686  0.88281797  1
  La3+  La28  1  0.35990256  0.33872084  0.11676021  1
  La3+  La29  1  0.36573545  0.32734389  0.37512798  1
  La3+  La30  1  0.34466415  0.32710210  0.62126005  1
  La3+  La31  1  0.35484576  0.32560496  0.87572381  1
  La3+  La32  1  0.36805548  0.67402020  0.11966868  1
  La3+  La33  1  0.36149931  0.67211097  0.37496086  1
  La3+  La34  1  0.35681615  0.66427633  0.62820432  1
  La3+  La35  1  0.34926139  0.67080191  0.87253360  1
  La3+  La36  1  0.86271827  0.00187672  0.11867374  1
  La3+  La37  1  0.85105199  0.01047173  0.37293402  1
  La3+  La38  1  0.86169703  -0.00770837  0.63249937  1
  La3+  La39  1  0.85148801  -0.00526673  0.86817778  1
  La3+  La40  1  0.86205682  0.33288775  0.12282894  1
  La3+  La41  1  0.85198988  0.32728370  0.37203668  1
  La3+  La42  1  0.85798329  0.32539555  0.62550863  1
  La3+  La43  1  0.85483178  0.33590744  0.87811312  1
  La3+  La44  1  0.84946259  0.65843222  0.12901742  1
  La3+  La45  1  0.86586382  0.66384476  0.37525469  1
  La3+  La46  1  0.85222307  0.66012619  0.62226968  1
  La3+  La47  1  0.86525652  0.67544632  0.87750603  1
  La3+  La48  1  0.00056827  0.52129964  0.88181314  1
  La3+  La49  1  -0.00288079  0.15695459  0.62015374  1
  La3+  La50  1  0.51079368  0.16060590  0.39272238  1
  La3+  La51  1  0.00367763  0.83876991  0.36578160  1
  La3+  La52  1  0.00167864  0.18128539  0.35077060  1
  La3+  La53  1  -0.00812255  0.17271202  0.87214594  1
  La3+  La54  1  0.50026776  0.50795026  0.89379005  1
  La3+  La55  1  0.00524129  0.80439086  0.12706340  1
  La3+  La56  1  -0.00062253  0.52487854  0.89777856  1
  La3+  La57  1  0.48093700  0.16809013  0.11275608  1
  La3+  La58  1  0.50143771  0.16348272  0.88073351  1
  La3+  La59  1  0.00637428  0.17649812  0.12367538  1
  La3+  La60  1  0.00052429  0.50091367  0.35969707  1
  La3+  La61  1  0.00302359  0.83144852  0.38671437  1
  La3+  La62  1  0.48836860  0.15489649  0.63046933  1
  La3+  La63  1  0.49953506  0.83483386  0.37516048  1
  La3+  La64  1  -0.00231982  0.49099917  0.62823940  1
  La3+  La65  1  0.01382456  0.85548224  0.86909674  1
  La3+  La66  1  0.49837703  0.50045045  0.36440688  1
  La3+  La67  1  0.00040552  0.18897377  0.37143291  1
  La3+  La68  1  0.48785893  0.14988815  0.64637518  1
  La3+  La69  1  -0.01380762  0.84198030  0.63963326  1
  La3+  La70  1  0.50551415  0.83098975  0.13609114  1
  La3+  La71  1  0.49870584  0.50121159  0.38707254  1
  La3+  La72  1  0.75048978  0.43885321  0.24950815  1
  La3+  La73  1  0.74922782  0.17995085  0.25397412  1
  La3+  La74  1  0.25269863  0.48941400  0.35251083  1
  La3+  La75  1  0.24918007  0.18230396  0.76973446  1
  La3+  La76  1  0.75000255  0.17176825  0.77173831  1
  La3+  La77  1  0.75000542  0.54425947  0.74058627  1
  La3+  La78  1  0.25223000  0.11076541  0.28375484  1
  La3+  La79  1  0.25010476  0.82244643  0.25720889  1
  La3+  La80  1  0.74740589  0.16660317  0.52496528  1
  La3+  La81  1  0.25285021  0.82966666  0.52288505  1
  La3+  La82  1  0.25139378  0.51179165  -0.10549378  1
  La3+  La83  1  0.74988432  0.84836129  0.24046915  1
  Ru4+  Ru84  1  -0.00834239  0.00803964  -0.00094627  1
  Ru4+  Ru85  1  -0.01065994  -0.00364822  0.23892302  1
  Ru4+  Ru86  1  0.00639100  0.00394475  0.50957994  1
  Ru4+  Ru87  1  -0.00444941  0.00241380  0.75451586  1
  Ru4+  Ru88  1  0.00718425  0.33989617  -0.01041413  1
  Ru4+  Ru89  1  0.00703629  0.34647240  0.23763472  1
  Ru4+  Ru90  1  0.00335719  0.33965782  0.50415952  1
  Ru4+  Ru91  1  -0.00109595  0.33383290  0.76112543  1
  Ru4+  Ru92  1  -0.01252102  0.67637433  0.00633686  1
  Ru4+  Ru93  1  0.00520377  0.63798544  0.24290645  1
  Ru4+  Ru94  1  0.00852535  0.67393975  0.50610359  1
  Ru4+  Ru95  1  -0.01388237  0.67767011  0.73850432  1
  Ru4+  Ru96  1  0.50519791  -0.01200215  -0.00734114  1
  Ru4+  Ru97  1  0.49947575  0.00600396  0.25380428  1
  Ru4+  Ru98  1  0.50314665  -0.00543928  0.50841756  1
  Ru4+  Ru99  1  0.49997722  -0.02095975  0.72773828  1
  Ru4+  Ru100  1  0.51135523  0.35145134  0.00937502  1
  Ru4+  Ru101  1  0.50261082  0.31010217  0.24495805  1
  Ru4+  Ru102  1  0.50780141  0.32782281  0.51283561  1
  Ru4+  Ru103  1  0.48145413  0.35929474  0.72603835  1
  Ru4+  Ru104  1  0.49118375  0.66486572  0.00456904  1
  Ru4+  Ru105  1  0.49849172  0.66962082  0.25483695  1
  Ru4+  Ru106  1  0.51404643  0.68646117  0.51282314  1
  Ru4+  Ru107  1  0.50579399  0.68564445  0.73738009  1
  Ru4+  Ru108  1  0.11341355  0.16237088  0.00366962  1
  Ru4+  Ru109  1  0.11716539  0.16849203  0.24084078  1
  Ru4+  Ru110  1  0.11644095  0.16207397  0.52061465  1
  Ru4+  Ru111  1  0.10882012  0.17023969  0.74247448  1
  Ru4+  Ru112  1  0.10866716  0.49290704  0.02005490  1
  Ru4+  Ru113  1  0.10531363  0.51173467  0.25173991  1
  Ru4+  Ru114  1  0.10783761  0.49742655  0.49936969  1
  Ru4+  Ru115  1  0.11248790  0.49546989  0.74456890  1
  Ru4+  Ru116  1  0.10932082  0.85874638  0.00174032  1
  Ru4+  Ru117  1  0.11109465  0.83733501  0.24351379  1
  Ru4+  Ru118  1  0.11004606  0.82881823  0.50125985  1
  Ru4+  Ru119  1  0.11304919  0.83044617  0.75039954  1
  Ru4+  Ru120  1  0.61072887  0.16955456  -0.00390107  1
  Ru4+  Ru121  1  0.60494101  0.17599149  0.25762375  1
  Ru4+  Ru122  1  0.60913992  0.17706785  0.49678237  1
  Ru4+  Ru123  1  0.60872906  0.15976406  0.75178421  1
  Ru4+  Ru124  1  0.60996463  0.48687196  -0.00088116  1
  Ru4+  Ru125  1  0.60238987  0.49745005  0.24892441  1
  Ru4+  Ru126  1  0.61031899  0.50424278  0.50107308  1
  Ru4+  Ru127  1  0.60905174  0.50062837  0.75015101  1
  Ru4+  Ru128  1  0.60727643  0.83500234  -0.00726883  1
  Ru4+  Ru129  1  0.61173272  0.83779630  0.24560333  1
  Ru4+  Ru130  1  0.60087788  0.81977827  0.49998588  1
  Ru4+  Ru131  1  0.60408199  0.82296320  0.75285667  1
  Ru4+  Ru132  1  0.38613986  0.16266808  -0.00417138  1
  Ru4+  Ru133  1  0.39389846  0.16874204  0.24937096  1
  Ru4+  Ru134  1  0.38487616  0.16865386  0.49779133  1
  Ru4+  Ru135  1  0.39456604  0.16411932  0.75367393  1
  Ru4+  Ru136  1  0.39574822  0.50616482  0.00527762  1
  Ru4+  Ru137  1  0.38803796  0.49712324  0.25326234  1
  Ru4+  Ru138  1  0.38785120  0.49821909  0.49557371  1
  Ru4+  Ru139  1  0.39595694  0.48440773  0.74746553  1
  Ru4+  Ru140  1  0.39047495  0.82782806  -0.01166160  1
  Ru4+  Ru141  1  0.38851949  0.83791429  0.25186252  1
  Ru4+  Ru142  1  0.39367128  0.83257729  0.49765514  1
  Ru4+  Ru143  1  0.39177520  0.82829238  0.76033914  1
  Ru4+  Ru144  1  0.89173444  0.15950260  -0.00693750  1
  Ru4+  Ru145  1  0.88583207  0.16416825  0.24113023  1
  Ru4+  Ru146  1  0.88765523  0.16586077  0.50728058  1
  Ru4+  Ru147  1  0.88794751  0.16826761  0.74992647  1
  Ru4+  Ru148  1  0.88280783  0.50128108  -0.00072010  1
  Ru4+  Ru149  1  0.89043777  0.49835402  0.24432404  1
  Ru4+  Ru150  1  0.89070962  0.50717402  0.49386984  1
  Ru4+  Ru151  1  0.89079300  0.49281837  0.74707388  1
  Ru4+  Ru152  1  0.88742144  0.81791108  -0.00130551  1
  Ru4+  Ru153  1  0.89104785  0.83618228  0.25779248  1
  Ru4+  Ru154  1  0.88670692  0.83162209  0.50415339  1
  Ru4+  Ru155  1  0.88728660  0.82150388  0.74887501  1
  Ru4+  Ru156  1  0.25080739  0.60039355  0.22991457  1
  Ru4+  Ru157  1  0.74998563  0.71087247  0.28274968  1
  Ru4+  Ru158  1  0.25011555  0.07145015  0.48993597  1
  Ru4+  Ru159  1  0.75154972  0.44761707  0.49799128  1
  Ru4+  Ru160  1  0.25087325  0.25374145  0.21956282  1
  Ru4+  Ru161  1  0.75083857  0.99468236  0.20661843  1
  Ru4+  Ru162  1  0.24956878  0.60901720  0.02250495  1
  Ru4+  Ru163  1  0.24957413  0.89612109  0.75944856  1
  Ru4+  Ru164  1  0.75087486  0.24905057  0.00338466  1
  Ru4+  Ru165  1  0.74909782  0.02631583  0.54816009  1
  Ru4+  Ru166  1  0.24947525  0.33863474  0.75580525  1
  Ru4+  Ru167  1  0.25000897  0.39623292  0.00216152  1
  Ru4+  Ru168  1  0.75034324  0.90599153  -0.00275124  1
  Ru4+  Ru169  1  0.24860239  0.58252834  0.51633270  1
  Ru4+  Ru170  1  0.74789220  0.88741277  0.51738548  1
  Ru4+  Ru171  1  0.74923147  0.09663731  -0.00481162  1
  Ru4+  Ru172  1  0.75054548  0.74990078  0.49707932  1
  Ru4+  Ru173  1  0.24716637  0.26390263  0.49549171  1
  Ru4+  Ru174  1  0.74869941  0.89121274  0.74969554  1
  Ru4+  Ru175  1  0.74731195  0.39635930  0.75772699  1
  Ru4+  Ru176  1  0.24833675  0.40354371  0.22379597  1
  Ru4+  Ru177  1  0.74967739  0.31161371  0.54656354  1
  Ru4+  Ru178  1  0.74618074  0.58172331  0.23851937  1
  Ru4+  Ru179  1  0.25264254  0.03185426  0.74042081  1
  O2-  O180  1  0.17342034  0.08606370  0.00075000  1
  O2-  O181  1  0.16118888  0.07625517  0.26101751  1
  O2-  O182  1  0.16739397  0.07687500  0.49359093  1
  O2-  O183  1  0.16823632  0.07919794  0.74255966  1
  O2-  O184  1  0.16917027  0.41415301  -0.00406093  1
  O2-  O185  1  0.16204883  0.41850664  0.24915546  1
  O2-  O186  1  0.15813452  0.41524820  0.50101397  1
  O2-  O187  1  0.17532380  0.41189370  0.75586032  1
  O2-  O188  1  0.14741483  0.75488308  0.00281395  1
  O2-  O189  1  0.15818855  0.74641321  0.24387186  1
  O2-  O190  1  0.16614741  0.74906923  0.50805660  1
  O2-  O191  1  0.16301323  0.74643962  0.74622247  1
  O2-  O192  1  0.66706806  0.08375746  -0.00055436  1
  O2-  O193  1  0.65311288  0.08487835  0.24440907  1
  O2-  O194  1  0.66249457  0.08053673  0.50174140  1
  O2-  O195  1  0.67172560  0.08450200  0.74308951  1
  O2-  O196  1  0.66781777  0.41530506  0.00045029  1
  O2-  O197  1  0.65813751  0.41228286  0.24285911  1
  O2-  O198  1  0.67024467  0.42184022  0.50374963  1
  O2-  O199  1  0.66570903  0.41513722  0.74910914  1
  O2-  O200  1  0.66219196  0.74986899  -0.00172085  1
  O2-  O201  1  0.66620914  0.74554793  0.25413685  1
  O2-  O202  1  0.67019048  0.74741128  0.50178279  1
  O2-  O203  1  0.66855423  0.75024476  0.75988158  1
  O2-  O204  1  0.33963420  0.25036334  0.00519840  1
  O2-  O205  1  0.32970186  0.24640184  0.25359687  1
  O2-  O206  1  0.33046867  0.25327787  0.49163762  1
  O2-  O207  1  0.33172619  0.25355450  0.75057636  1
  O2-  O208  1  0.32880271  0.58544224  0.00374529  1
  O2-  O209  1  0.33120285  0.58570417  0.25249547  1
  O2-  O210  1  0.33078242  0.58279963  0.50048693  1
  O2-  O211  1  0.34738001  0.57424794  0.74677130  1
  O2-  O212  1  0.33906502  0.91578323  0.00571224  1
  O2-  O213  1  0.33210549  0.92206312  0.24842489  1
  O2-  O214  1  0.33968797  0.91827500  0.49986302  1
  O2-  O215  1  0.33159646  0.91467324  0.75362394  1
  O2-  O216  1  0.83628786  0.24738860  -0.00043839  1
  O2-  O217  1  0.83684036  0.25136591  0.24067177  1
  O2-  O218  1  0.83108372  0.25081781  0.50007596  1
  O2-  O219  1  0.83104428  0.24998765  0.74861321  1
  O2-  O220  1  0.83786055  0.59065441  -0.00427089  1
  O2-  O221  1  0.82905735  0.57774394  0.25920674  1
  O2-  O222  1  0.83524907  0.58482620  0.49780770  1
  O2-  O223  1  0.84226648  0.58640233  0.75592271  1
  O2-  O224  1  0.83679050  0.91439286  -0.00159691  1
  O2-  O225  1  0.83250251  0.92242510  0.24285851  1
  O2-  O226  1  0.83297034  0.91344678  0.50645350  1
  O2-  O227  1  0.83016521  0.90662675  0.74806026  1
  O2-  O228  1  0.16373833  0.24745507  -0.00595216  1
  O2-  O229  1  0.16982445  0.25219454  0.25458599  1
  O2-  O230  1  0.16260463  0.25562853  0.50082981  1
  O2-  O231  1  0.16525254  0.25586404  0.75081600  1
  O2-  O232  1  0.16534554  0.58476231  -0.00117411  1
  O2-  O233  1  0.16894548  0.58340354  0.24621905  1
  O2-  O234  1  0.16470484  0.58202398  0.50403421  1
  O2-  O235  1  0.16050131  0.58183984  0.75025743  1
  O2-  O236  1  0.17764872  0.91330500  -0.00182491  1
  O2-  O237  1  0.16512747  0.92038038  0.25792063  1
  O2-  O238  1  0.16137440  0.91596305  0.49637835  1
  O2-  O239  1  0.16729449  0.91524925  0.75533837  1
  O2-  O240  1  0.66658195  0.25013217  -0.00232692  1
  O2-  O241  1  0.66445459  0.24851833  0.23905333  1
  O2-  O242  1  0.66925384  0.25686127  0.50926402  1
  O2-  O243  1  0.66754405  0.25010573  0.74555695  1
  O2-  O244  1  0.65385771  0.58297091  -0.00060605  1
  O2-  O245  1  0.66195343  0.57921366  0.24664268  1
  O2-  O246  1  0.66236774  0.58507508  0.50356599  1
  O2-  O247  1  0.65852837  0.58850055  0.76385464  1
  O2-  O248  1  0.66721990  0.91350699  0.00214350  1
  O2-  O249  1  0.66841396  0.92367787  0.24961659  1
  O2-  O250  1  0.66353011  0.90237891  0.50886051  1
  O2-  O251  1  0.66567182  0.91232974  0.74735158  1
  O2-  O252  1  0.33566737  0.07760062  0.00618114  1
  O2-  O253  1  0.34006659  0.07909480  0.24155864  1
  O2-  O254  1  0.33288485  0.07779082  0.49633302  1
  O2-  O255  1  0.33436111  0.07472738  0.75108693  1
  O2-  O256  1  0.33327170  0.42037641  -0.00770123  1
  O2-  O257  1  0.33370920  0.41243974  0.24822762  1
  O2-  O258  1  0.33956644  0.41518123  0.49439202  1
  O2-  O259  1  0.31983163  0.41923149  0.76377101  1
  O2-  O260  1  0.33432724  0.74642487  0.00626905  1
  O2-  O261  1  0.33812536  0.74832595  0.24935844  1
  O2-  O262  1  0.34151857  0.74776198  0.50096938  1
  O2-  O263  1  0.33949200  0.75031877  0.74245928  1
  O2-  O264  1  0.83073142  0.08496267  -0.00162444  1
  O2-  O265  1  0.83008409  0.08142111  0.23608798  1
  O2-  O266  1  0.82865077  0.07580608  0.50744248  1
  O2-  O267  1  0.82299423  0.08090107  0.74433613  1
  O2-  O268  1  0.83725051  0.41356531  0.00424071  1
  O2-  O269  1  0.84025916  0.40682130  0.24778307  1
  O2-  O270  1  0.83768542  0.42001123  0.50212771  1
  O2-  O271  1  0.82709579  0.41299700  0.75268802  1
  O2-  O272  1  0.82683421  0.75207053  -0.01151459  1
  O2-  O273  1  0.83289928  0.74918818  0.25284036  1
  O2-  O274  1  0.83296203  0.74474950  0.50122563  1
  O2-  O275  1  0.82865726  0.74595726  0.75825394  1
  O2-  O276  1  0.95283112  0.91125889  0.49477135  1
  O2-  O277  1  0.95512908  0.56979024  0.74559837  1
  O2-  O278  1  0.94617844  0.75326464  0.50437386  1
  O2-  O279  1  0.05261134  0.11728097  0.46105784  1
  O2-  O280  1  0.44858527  0.08143432  -0.00449808  1
  O2-  O281  1  0.04590221  0.09949660  0.73716869  1
  O2-  O282  1  0.55446000  0.90810155  0.74955667  1
  O2-  O283  1  0.45041693  0.91420079  0.23799864  1
  O2-  O284  1  0.04836659  0.10340030  0.24376132  1
  O2-  O285  1  0.46703835  0.55708783  0.04925168  1
  O2-  O286  1  0.94758452  0.10498550  0.44766299  1
  O2-  O287  1  0.53782043  0.22273121  0.75657745  1
  O2-  O288  1  0.44521355  0.75941080  0.24608676  1
  O2-  O289  1  0.02681081  0.88241784  1.00581135  1
  O2-  O290  1  0.96198784  0.88768217  0.21340826  1
  O2-  O291  1  0.94908697  0.25472591  0.01815391  1
  O2-  O292  1  0.55263558  0.76091584  0.25217175  1
  O2-  O293  1  0.03641846  0.53795972  0.20168423  1
  O2-  O294  1  0.05212640  0.91016772  0.73206079  1
  O2-  O295  1  0.95906984  0.11071536  0.03393090  1
  O2-  O296  1  0.05940959  0.09507156  0.94882646  1
  O2-  O297  1  0.05928350  0.42983448  0.94422681  1
  O2-  O298  1  0.53967277  0.22375205  0.55203581  1
  O2-  O299  1  0.04770702  0.77713521  0.55886570  1
  O2-  O300  1  0.94575068  0.41840253  0.22630948  1
  O2-  O301  1  0.50781522  0.80696388  0.51861708  1
  O2-  O302  1  0.95359157  0.74907359  0.28015019  1
  O2-  O303  1  0.02001244  0.88781851  0.01905026  1
  O2-  O304  1  0.06165145  0.25702493  0.23277557  1
  O2-  O305  1  0.96473882  0.77805526  0.78434003  1
  O2-  O306  1  0.44743902  0.42252761  0.00108823  1
  O2-  O307  1  0.48205181  0.47392866  0.73571171  1
  O2-  O308  1  0.94518664  0.25162234  0.25132688  1
  O2-  O309  1  0.95274503  0.43630077  0.98568734  1
  O2-  O310  1  0.54687064  0.10124768  0.01402252  1
  O2-  O311  1  0.47696216  0.47954016  0.75303689  1
  O2-  O312  1  0.55660256  0.73400624  0.98331845  1
  O2-  O313  1  0.54944300  0.21801192  0.18078809  1
  O2-  O314  1  0.04635468  0.58026431  0.01381911  1
  O2-  O315  1  0.53094832  0.77616283  0.80527248  1
  O2-  O316  1  0.44174518  0.92523303  0.97998221  1
  O2-  O317  1  0.53514036  0.87815561  1.01046627  1
  O2-  O318  1  0.96538076  0.44019360  0.79060361  1
  O2-  O319  1  0.54950669  0.09514535  0.51424275  1
  O2-  O320  1  0.44317149  0.75077563  0.04929154  1
  O2-  O321  1  0.46047686  0.21910055  0.29955955  1
  O2-  O322  1  0.95443920  0.77930481  0.95164923  1
  O2-  O323  1  0.05070619  0.07986948  0.27312561  1
  O2-  O324  1  0.57803122  0.72143624  0.70572225  1
  O2-  O325  1  0.94841136  0.59164184  0.45715017  1
  O2-  O326  1  0.92264913  0.92662764  0.33611486  1
  O2-  O327  1  0.44005858  0.75869923  0.05364536  1
  O2-  O328  1  0.41113882  0.39669256  0.67747925  1
  O2-  O329  1  0.93388228  0.26694732  0.46530515  1
  O2-  O330  1  0.91680399  0.72027773  0.06180393  1
  O2-  O331  1  0.56906606  0.28026188  0.30561302  1
  O2-  O332  1  0.92430322  0.04552021  0.93087462  1
  O2-  O333  1  0.93884875  0.08465463  0.76769015  1
  O2-  O334  1  0.06443343  0.71880596  0.42368786  1
  O2-  O335  1  0.06106042  0.25599544  0.03163793  1
  O2-  O336  1  0.57543008  0.98001481  0.94021348  1
  O2-  O337  1  0.56750127  0.73573410  0.41751705  1
  O2-  O338  1  0.44040374  0.25067165  0.46610648  1
  O2-  O339  1  0.44267985  0.35439918  0.83828472  1
  O2-  O340  1  0.91811194  0.72743289  0.67853279  1
  O2-  O341  1  0.05620262  0.10022977  0.94336240  1
  O2-  O342  1  0.06869420  0.60837082  0.31882911  1
  O2-  O343  1  0.56679883  0.92316815  0.46998333  1
  O2-  O344  1  0.41504219  0.77302348  0.88444482  1
  O2-  O345  1  0.56678348  0.41631713  0.07104675  1
  O2-  O346  1  0.57518677  0.28505370  0.44529474  1
  O2-  O347  1  0.43363638  0.92219894  0.74709220  1
  O2-  O348  1  0.09712890  0.91971472  0.90101402  1
  O2-  O349  1  0.10227087  0.91580885  0.09971683  1
  O2-  O350  1  0.94479189  0.74085506  0.28643223  1
  O2-  O351  1  0.55415615  0.42440081  0.50705254  1
  O2-  O352  1  0.44158836  0.58111218  0.47532416  1
  O2-  O353  1  0.56414687  0.93725088  0.21630797  1
  O2-  O354  1  0.91859058  0.08585506  0.58486325  1
  O2-  O355  1  0.41848422  0.26917944  0.19293397  1
  O2-  O356  1  0.93119816  0.92338953  0.78088635  1
  O2-  O357  1  0.06119119  0.40622487  0.70595623  1
  O2-  O358  1  0.41713419  0.60070622  0.94131460  1
  O2-  O359  1  0.08953487  0.10501833  0.10682277  1
  O2-  O360  1  0.58054825  0.72712958  0.56091440  1
  O2-  O361  1  0.93121326  0.59317053  0.23502390  1
  O2-  O362  1  0.56265713  0.39865474  0.91483704  1
  O2-  O363  1  0.06755792  0.40339057  0.08730746  1
  O2-  O364  1  0.43612044  0.07166721  0.28464376  1
  O2-  O365  1  0.43948637  0.58467859  0.27780099  1
  O2-  O366  1  0.91863663  0.41041458  0.67022036  1
  O2-  O367  1  0.54844468  0.41538472  0.23397549  1
  O2-  O368  1  0.06870326  0.04440183  0.57751789  1
  O2-  O369  1  0.44107934  0.08431418  0.50734475  1
  O2-  O370  1  0.94814479  0.42077640  0.23448407  1
  O2-  O371  1  0.93664524  0.07863131  0.28540945  1
  O2-  O372  1  0.25040732  0.33018962  0.31893064  1
  O2-  O373  1  0.75485734  0.35256713  0.42626090  1
  O2-  O374  1  0.74972002  0.00350635  0.90848245  1
  O2-  O375  1  0.24822255  0.68111737  0.92010203  1
  O2-  O376  1  0.25555762  0.00283366  0.86741732  1
  O2-  O377  1  0.24833065  0.36487700  0.45202746  1
  O2-  O378  1  0.74975756  0.31629199  0.89467600  1
  O2-  O379  1  0.24799207  0.64234430  0.83612420  1
  O2-  O380  1  0.25204004  0.00128509  0.38822353  1
  O2-  O381  1  0.74782239  -0.02737386  0.43527106  1
  O2-  O382  1  0.75157713  0.32900473  0.09768838  1
  O2-  O383  1  0.75232058  0.67364546  0.40184816  1
  O2-  O384  1  0.74778859  -0.00055202  0.07922514  1
  O2-  O385  1  0.74751036  0.03102453  0.31474804  1
  O2-  O386  1  0.74673653  0.66742001  0.14341879  1
  O2-  O387  1  0.24976054  0.68428890  0.30893934  1
  O2-  O388  1  0.74826027  0.31698682  0.29006544  1
  O2-  O389  1  0.25104684  0.00316189  0.60075358  1
  O2-  O390  1  0.24445614  0.33155204  0.62598499  1
  O2-  O391  1  0.25061110  0.33366001  0.11384764  1
  O2-  O392  1  0.25110148  0.66542103  0.44424791  1
  O2-  O393  1  0.24837832  0.33381803  0.88884297  1
  O2-  O394  1  0.24857728  0.65985563  0.61029727  1
  O2-  O395  1  0.24734956  0.67890875  0.12936645  1
  O2-  O396  1  0.24907847  0.83383031  0.66360837  1
  O2-  O397  1  0.24814133  0.16766436  0.14340489  1
  O2-  O398  1  0.75063355  0.83014532  0.39974044  1
  O2-  O399  1  0.25069247  0.84576264  0.90620713  1
  O2-  O400  1  0.24903465  0.85329419  0.12061479  1
  O2-  O401  1  0.75055518  0.50221549  0.94437721  1
  O2-  O402  1  0.74852889  0.47904992  0.86276487  1
  O2-  O403  1  0.24874651  0.17518255  0.40998064  1
  O2-  O404  1  0.24991555  0.50280951  0.17549679  1
  O2-  O405  1  0.24916577  0.80875033  0.83131493  1
  O2-  O406  1  0.74943121  0.16623779  0.09330418  1
  O2-  O407  1  0.25161410  0.15765212  0.63882698  1
  O2-  O408  1  0.25263471  0.16633406  0.98719806  1
  O2-  O409  1  0.24861612  0.81989735  0.04650955  1
  O2-  O410  1  0.25088696  0.16637971  0.90491241  1
  O2-  O411  1  0.24853433  0.16413460  0.55301347  1
  O2-  O412  1  0.75076031  0.48271365  0.61218685  1
  O2-  O413  1  0.24911259  0.83580349  0.38868168  1
  O2-  O414  1  0.74966675  0.84730120  0.63654086  1
  O2-  O415  1  0.75094189  0.84018212  0.09050438  1
  O2-  O416  1  0.74910778  0.50181089  0.39122592  1
  O2-  O417  1  0.75114501  0.17190536  0.39161601  1
  O2-  O418  1  0.74926056  0.84592990  0.85244943  1
  O2-  O419  1  0.24912458  0.49914638  0.05880954  1
  O2-  O420  1  0.97813846  -0.01896345  0.63194671  1
  O2-  O421  1  0.98910120  0.63715841  0.61857928  1
  O2-  O422  1  0.00849154  -0.00466747  0.87081768  1
  O2-  O423  1  0.48354692  0.32632030  0.11715667  1
  O2-  O424  1  0.99274804  0.66420620  0.12731561  1
  O2-  O425  1  0.49052610  0.65058641  0.85129690  1
  O2-  O426  1  0.45699223  0.29824239  0.61172366  1
  O2-  O427  1  0.98626192  0.31086468  0.62281433  1
  O2-  O428  1  0.95311684  -0.00252302  0.11699480  1
  O2-  O429  1  0.45635650  0.00256841  0.62150326  1
  O2-  O430  1  0.94979998  0.31228076  0.86199479  1
  O2-  O431  1  0.04291442  -0.01889534  0.16736515  1
  O2-  O432  1  0.04572049  0.31598751  0.86149194  1
  O2-  O433  1  0.54473950  0.34620890  0.64544571  1
  O2-  O434  1  0.53209126  0.62481443  0.62105285  1
  O2-  O435  1  0.97214637  0.65681795  0.87950656  1
  O2-  O436  1  0.47705018  0.36511173  0.37294527  1
  O2-  O437  1  0.02972334  -0.01768753  0.38009238  1
  O2-  O438  1  0.02889595  0.34730977  0.37751325  1
  O2-  O439  1  0.52429602  0.01113999  0.37456124  1
  O2-  O440  1  0.54983540  0.00988082  0.63133905  1
  O2-  O441  1  0.47736962  0.68322316  0.38353002  1
  O2-  O442  1  0.49688358  0.65498965  0.13799114  1
  O2-  O443  1  0.44971482  0.67934653  0.63857248  1
