# generated using pymatgen
data_La7(Ru4O11)2
_symmetry_space_group_name_H-M   'P 1'
_cell_length_a   23.99087569
_cell_length_b   16.83030949
_cell_length_c   15.42720912
_cell_angle_alpha   89.99969245
_cell_angle_beta   89.99990904
_cell_angle_gamma   90.00186352
_symmetry_Int_Tables_number   1
_chemical_formula_structural   La7(Ru4O11)2
_chemical_formula_sum   'La84 Ru96 O264'
_cell_volume   6229.10381458
_cell_formula_units_Z   12
loop_
 _symmetry_equiv_pos_site_id
 _symmetry_equiv_pos_as_xyz
  1  'x, y, z'
loop_
 _atom_type_symbol
 _atom_type_oxidation_number
  La3+  3.0
  Ru4+  4.0
  O2-  -2.0
loop_
 _atom_site_type_symbol
 _atom_site_label
 _atom_site_symmetry_multiplicity
 _atom_site_fract_x
 _atom_site_fract_y
 _atom_site_fract_z
 _atom_site_occupancy
  La3+  La0  1  0.13847531  -0.00117602  0.12687018  1
  La3+  La1  1  0.13668548  0.00209025  0.37287087  1
  La3+  La2  1  0.13857423  -0.00016047  0.62555903  1
  La3+  La3  1  0.14182747  -0.00231058  0.87730681  1
  La3+  La4  1  0.14051200  0.33337767  0.12221210  1
  La3+  La5  1  0.13827328  0.33259092  0.37544661  1
  La3+  La6  1  0.13840532  0.33222718  0.62668172  1
  La3+  La7  1  0.14164259  0.33111209  0.87533205  1
  La3+  La8  1  0.14208119  0.66409158  0.12253219  1
  La3+  La9  1  0.13706141  0.66691178  0.37106585  1
  La3+  La10  1  0.13109177  0.65849962  0.63368871  1
  La3+  La11  1  0.13310113  0.66174068  0.87282056  1
  La3+  La12  1  0.64005765  0.00020165  0.12544878  1
  La3+  La13  1  0.64013796  0.00208676  0.37491770  1
  La3+  La14  1  0.63764421  -0.00181041  0.62594647  1
  La3+  La15  1  0.63859023  -0.00387818  0.87389006  1
  La3+  La16  1  0.64001257  0.33477056  0.12371715  1
  La3+  La17  1  0.63674042  0.33359427  0.37241321  1
  La3+  La18  1  0.63870085  0.33269254  0.62574497  1
  La3+  La19  1  0.63641714  0.33530257  0.87958934  1
  La3+  La20  1  0.64117052  0.66424490  0.12548957  1
  La3+  La21  1  0.64219760  0.66562759  0.37694176  1
  La3+  La22  1  0.64403791  0.66637379  0.62474029  1
  La3+  La23  1  0.63926831  0.66726491  0.87214209  1
  La3+  La24  1  0.36166449  0.00120257  0.12675593  1
  La3+  La25  1  0.35940573  0.00533721  0.37037776  1
  La3+  La26  1  0.35974029  0.00551261  0.62769316  1
  La3+  La27  1  0.35995527  -0.00083993  0.87383342  1
  La3+  La28  1  0.35921980  0.33340811  0.12000497  1
  La3+  La29  1  0.36163294  0.33326997  0.37526214  1
  La3+  La30  1  0.36200499  0.33323680  0.62503935  1
  La3+  La31  1  0.35917542  0.33219076  0.87772078  1
  La3+  La32  1  0.35629741  0.66767605  0.12243155  1
  La3+  La33  1  0.35641757  0.67182223  0.37323633  1
  La3+  La34  1  0.36313972  0.66568921  0.62595386  1
  La3+  La35  1  0.36282399  0.66599286  0.87663710  1
  La3+  La36  1  0.86114281  -0.00248238  0.12576510  1
  La3+  La37  1  0.86192134  0.00139836  0.37373898  1
  La3+  La38  1  0.86195263  -0.00099511  0.62615447  1
  La3+  La39  1  0.86170742  -0.00378039  0.87593162  1
  La3+  La40  1  0.85873122  0.33529205  0.12500128  1
  La3+  La41  1  0.86526060  0.33546538  0.37496026  1
  La3+  La42  1  0.86168498  0.33344592  0.62397871  1
  La3+  La43  1  0.86192441  0.33504362  0.87735047  1
  La3+  La44  1  0.85938622  0.66811152  0.12743002  1
  La3+  La45  1  0.85579068  0.66648299  0.37516780  1
  La3+  La46  1  0.85573241  0.66779995  0.62664831  1
  La3+  La47  1  0.85866540  0.66761716  0.87289206  1
  La3+  La48  1  0.00044248  0.16530038  0.13626822  1
  La3+  La49  1  0.49905680  0.16327689  0.88426692  1
  La3+  La50  1  0.50569505  0.82743353  0.38198844  1
  La3+  La51  1  0.00000686  0.49923432  0.13210911  1
  La3+  La52  1  0.00067158  0.83445422  0.61921527  1
  La3+  La53  1  0.00115549  0.83504991  0.64016252  1
  La3+  La54  1  0.49887780  0.17111342  0.38154439  1
  La3+  La55  1  0.00290835  0.49658623  0.63761039  1
  La3+  La56  1  0.50155701  0.17154910  0.86379136  1
  La3+  La57  1  -0.00137416  0.83924570  0.38383148  1
  La3+  La58  1  0.50484207  0.17022876  0.13747049  1
  La3+  La59  1  -0.00064113  0.83297401  0.87271161  1
  La3+  La60  1  0.50094165  0.83487364  0.63498621  1
  La3+  La61  1  0.50795364  0.50255190  0.13346904  1
  La3+  La62  1  0.00052912  0.16662387  0.63210654  1
  La3+  La63  1  -0.00560182  0.49850219  0.36618188  1
  La3+  La64  1  0.49833200  0.83252160  0.11588022  1
  La3+  La65  1  -0.00008439  0.16785332  0.11361087  1
  La3+  La66  1  0.00149481  0.50838538  0.61946480  1
  La3+  La67  1  -0.00035925  0.83803342  0.36679968  1
  La3+  La68  1  0.00289405  0.50469012  0.87862065  1
  La3+  La69  1  0.50082683  0.50063956  0.62856622  1
  La3+  La70  1  0.00152322  0.50147432  0.38529004  1
  La3+  La71  1  0.50400520  0.50459408  0.86339864  1
  La3+  La72  1  0.75019641  0.12140381  0.52336322  1
  La3+  La73  1  0.74999563  0.54155579  0.50234653  1
  La3+  La74  1  0.24958235  0.16787114  0.71664286  1
  La3+  La75  1  0.24968075  0.12820360  0.21321345  1
  La3+  La76  1  0.74987633  0.50101502  0.22918766  1
  La3+  La77  1  0.74952954  0.79484028  0.27360647  1
  La3+  La78  1  0.24907789  0.82592536  0.47211533  1
  La3+  La79  1  0.74978705  0.20388116  -0.03022887  1
  La3+  La80  1  0.74964270  0.19701528  0.77633429  1
  La3+  La81  1  0.24946096  0.82762784  0.72224207  1
  La3+  La82  1  0.25027496  0.89186412  0.25009895  1
  La3+  La83  1  0.25062789  0.50047182  0.50042558  1
  Ru4+  Ru84  1  -0.00165088  -0.00105009  0.00168721  1
  Ru4+  Ru85  1  0.00438779  0.00405905  0.25042587  1
  Ru4+  Ru86  1  -0.00139174  0.00438456  0.49807464  1
  Ru4+  Ru87  1  0.00170912  0.00290974  0.74788049  1
  Ru4+  Ru88  1  -0.00061136  0.33506374  0.00079300  1
  Ru4+  Ru89  1  -0.00075858  0.32843214  0.25103439  1
  Ru4+  Ru90  1  0.00439964  0.32213787  0.49804834  1
  Ru4+  Ru91  1  0.00092240  0.33186592  0.74888762  1
  Ru4+  Ru92  1  -0.00082420  0.66753061  -0.00057383  1
  Ru4+  Ru93  1  0.00047002  0.66448382  0.24241095  1
  Ru4+  Ru94  1  0.00054451  0.66637778  0.50404078  1
  Ru4+  Ru95  1  0.00046619  0.66655656  0.75395919  1
  Ru4+  Ru96  1  0.49909310  0.00048106  0.00154115  1
  Ru4+  Ru97  1  0.50338653  -0.00493661  0.24754846  1
  Ru4+  Ru98  1  0.50138043  -0.00165717  0.50523301  1
  Ru4+  Ru99  1  0.50265406  -0.00181472  0.74622687  1
  Ru4+  Ru100  1  0.49942608  0.33247409  0.00395052  1
  Ru4+  Ru101  1  0.50332843  0.33663123  0.24809094  1
  Ru4+  Ru102  1  0.50015799  0.33475468  0.50045879  1
  Ru4+  Ru103  1  0.49921950  0.33180456  0.74612434  1
  Ru4+  Ru104  1  0.49478217  0.66998272  -0.01282522  1
  Ru4+  Ru105  1  0.50355958  0.66143935  0.25717661  1
  Ru4+  Ru106  1  0.50024512  0.65524525  0.49614841  1
  Ru4+  Ru107  1  0.50413749  0.67585994  0.75562239  1
  Ru4+  Ru108  1  0.11319673  0.16940580  -0.00016214  1
  Ru4+  Ru109  1  0.11070706  0.16563816  0.25082912  1
  Ru4+  Ru110  1  0.11173724  0.16761463  0.49982097  1
  Ru4+  Ru111  1  0.10895378  0.16262405  0.75016684  1
  Ru4+  Ru112  1  0.11286568  0.50347951  -0.00212367  1
  Ru4+  Ru113  1  0.11435962  0.50452687  0.24884651  1
  Ru4+  Ru114  1  0.11419959  0.50219257  0.50296457  1
  Ru4+  Ru115  1  0.11153900  0.50064404  0.75451308  1
  Ru4+  Ru116  1  0.11397784  0.82945937  -0.00161026  1
  Ru4+  Ru117  1  0.11255874  0.83793514  0.24333218  1
  Ru4+  Ru118  1  0.11083577  0.82950717  0.50093435  1
  Ru4+  Ru119  1  0.10783447  0.83165614  0.75001488  1
  Ru4+  Ru120  1  0.61557930  0.16155439  0.00290061  1
  Ru4+  Ru121  1  0.61465142  0.16536743  0.25015192  1
  Ru4+  Ru122  1  0.61110744  0.16792259  0.50046700  1
  Ru4+  Ru123  1  0.61013591  0.16833912  0.74860895  1
  Ru4+  Ru124  1  0.61572287  0.49401892  -0.00111131  1
  Ru4+  Ru125  1  0.61264503  0.49898304  0.25038465  1
  Ru4+  Ru126  1  0.61073293  0.50224514  0.50177923  1
  Ru4+  Ru127  1  0.61386719  0.50215307  0.74946159  1
  Ru4+  Ru128  1  0.61586285  0.83935461  -0.00003295  1
  Ru4+  Ru129  1  0.61131869  0.83282899  0.24981014  1
  Ru4+  Ru130  1  0.61477808  0.83171287  0.50016679  1
  Ru4+  Ru131  1  0.61297500  0.83131490  0.75246515  1
  Ru4+  Ru132  1  0.38510072  0.16819327  0.00023644  1
  Ru4+  Ru133  1  0.38154176  0.16744201  0.24830202  1
  Ru4+  Ru134  1  0.38798106  0.16712858  0.50089267  1
  Ru4+  Ru135  1  0.38892493  0.16573887  0.74851129  1
  Ru4+  Ru136  1  0.38154255  0.50300043  -0.00190233  1
  Ru4+  Ru137  1  0.38435112  0.50254205  0.24960557  1
  Ru4+  Ru138  1  0.39137219  0.50416806  0.49915376  1
  Ru4+  Ru139  1  0.38527852  0.49683173  0.75066486  1
  Ru4+  Ru140  1  0.38657288  0.83068519  0.00079910  1
  Ru4+  Ru141  1  0.38496048  0.83498660  0.24730510  1
  Ru4+  Ru142  1  0.38535548  0.83549491  0.49953798  1
  Ru4+  Ru143  1  0.39007509  0.83413911  0.75001085  1
  Ru4+  Ru144  1  0.88927204  0.16685305  0.00122607  1
  Ru4+  Ru145  1  0.88622036  0.16410507  0.25059597  1
  Ru4+  Ru146  1  0.89102225  0.16552310  0.49947776  1
  Ru4+  Ru147  1  0.88965174  0.16800548  0.74946576  1
  Ru4+  Ru148  1  0.88688434  0.49816143  -0.00039996  1
  Ru4+  Ru149  1  0.88622979  0.49992174  0.24876558  1
  Ru4+  Ru150  1  0.88439881  0.50553510  0.50028900  1
  Ru4+  Ru151  1  0.88446354  0.50154490  0.75149100  1
  Ru4+  Ru152  1  0.88690170  0.83499906  -0.00099578  1
  Ru4+  Ru153  1  0.88645979  0.82613868  0.24762029  1
  Ru4+  Ru154  1  0.88509710  0.83335236  0.50066125  1
  Ru4+  Ru155  1  0.88513852  0.83173842  0.75077904  1
  Ru4+  Ru156  1  0.74997320  0.26409591  0.49042831  1
  Ru4+  Ru157  1  0.24935076  0.73509173  0.24125815  1
  Ru4+  Ru158  1  0.25004252  0.08990490  0.50984424  1
  Ru4+  Ru159  1  0.24934384  0.27302787  0.24716219  1
  Ru4+  Ru160  1  0.24981577  0.95563339  0.50349082  1
  Ru4+  Ru161  1  0.24985691  0.70458986  0.77617559  1
  Ru4+  Ru162  1  0.24991045  0.25376873  0.50693287  1
  Ru4+  Ru163  1  0.25027535  0.57233636  0.75307586  1
  Ru4+  Ru164  1  0.25006185  0.41860780  0.75543316  1
  Ru4+  Ru165  1  0.75010598  0.76065591  -0.00302619  1
  Ru4+  Ru166  1  0.24980850  0.08720966  0.00988946  1
  Ru4+  Ru167  1  0.74967310  0.93680183  0.25838642  1
  Ru4+  Ru168  1  0.75011378  0.25399899  0.24605915  1
  Ru4+  Ru169  1  0.24976926  0.70072376  0.52874169  1
  Ru4+  Ru170  1  0.75045563  0.06318429  -0.00863255  1
  Ru4+  Ru171  1  0.75008274  0.40111846  0.48993089  1
  Ru4+  Ru172  1  0.74965781  0.42098500  0.75265966  1
  Ru4+  Ru173  1  0.24948639  0.41938430  0.24432337  1
  Ru4+  Ru174  1  0.24953216  0.96228924  0.73500043  1
  Ru4+  Ru175  1  0.24938005  0.41918564  0.00651471  1
  Ru4+  Ru176  1  0.25013967  0.91976496  0.00765780  1
  Ru4+  Ru177  1  0.74980568  0.90953798  0.50367534  1
  Ru4+  Ru178  1  0.75029683  0.56983253  -0.00417139  1
  Ru4+  Ru179  1  0.75004364  0.05773858  0.74868874  1
  O2-  O180  1  0.16623575  0.08005984  0.00092667  1
  O2-  O181  1  0.16399762  0.07986259  0.25221600  1
  O2-  O182  1  0.16609755  0.08120739  0.49996656  1
  O2-  O183  1  0.17058397  0.08296825  0.74814964  1
  O2-  O184  1  0.16626826  0.41474925  -0.00121981  1
  O2-  O185  1  0.16842395  0.41380309  0.24991262  1
  O2-  O186  1  0.16855855  0.41319693  0.49932391  1
  O2-  O187  1  0.16777151  0.41474415  0.74904399  1
  O2-  O188  1  0.16669632  0.74877150  -0.00058600  1
  O2-  O189  1  0.16689657  0.74799943  0.25180496  1
  O2-  O190  1  0.16564917  0.74429973  0.50081501  1
  O2-  O191  1  0.16588759  0.74304809  0.75060857  1
  O2-  O192  1  0.66798724  0.07898435  -0.00175635  1
  O2-  O193  1  0.66529537  0.08130623  0.25032049  1
  O2-  O194  1  0.66503399  0.07840534  0.49953024  1
  O2-  O195  1  0.66787577  0.07869614  0.75088667  1
  O2-  O196  1  0.66757044  0.41455096  0.00034577  1
  O2-  O197  1  0.66748253  0.41386278  0.25065341  1
  O2-  O198  1  0.66530267  0.41325406  0.49982441  1
  O2-  O199  1  0.66931884  0.41282436  0.74944393  1
  O2-  O200  1  0.66879269  0.74797470  -0.00092195  1
  O2-  O201  1  0.66317952  0.74599369  0.25086074  1
  O2-  O202  1  0.66424318  0.74986514  0.49915853  1
  O2-  O203  1  0.66662096  0.75037515  0.75006091  1
  O2-  O204  1  0.33397324  0.25050436  0.00104395  1
  O2-  O205  1  0.33164210  0.25431738  0.24896286  1
  O2-  O206  1  0.33189905  0.25426762  0.50115325  1
  O2-  O207  1  0.33184020  0.25433135  0.74755472  1
  O2-  O208  1  0.33367288  0.58665205  -0.00297696  1
  O2-  O209  1  0.33082703  0.58057210  0.25053705  1
  O2-  O210  1  0.33013885  0.58300510  0.50157999  1
  O2-  O211  1  0.33328206  0.58473198  0.75157483  1
  O2-  O212  1  0.33454220  0.91988257  0.00037538  1
  O2-  O213  1  0.33630744  0.92252069  0.25244629  1
  O2-  O214  1  0.33238678  0.92070481  0.50076682  1
  O2-  O215  1  0.33372920  0.92049859  0.74903919  1
  O2-  O216  1  0.83258683  0.25604575  -0.00219876  1
  O2-  O217  1  0.83383339  0.25376506  0.25074389  1
  O2-  O218  1  0.83432758  0.25299426  0.50089170  1
  O2-  O219  1  0.83491155  0.25524176  0.75019943  1
  O2-  O220  1  0.83383294  0.58635452  0.00052449  1
  O2-  O221  1  0.83320416  0.58539420  0.24988397  1
  O2-  O222  1  0.83616925  0.58904864  0.50106650  1
  O2-  O223  1  0.83371957  0.58344409  0.74942367  1
  O2-  O224  1  0.83268354  0.91776911  -0.00051555  1
  O2-  O225  1  0.83382575  0.92011391  0.25219395  1
  O2-  O226  1  0.83257609  0.92011888  0.49975456  1
  O2-  O227  1  0.83480849  0.91949756  0.74952227  1
  O2-  O228  1  0.16375645  0.25108388  -0.00012869  1
  O2-  O229  1  0.16808299  0.25421552  0.25010107  1
  O2-  O230  1  0.16818550  0.25385609  0.50113447  1
  O2-  O231  1  0.16825476  0.25190596  0.74897662  1
  O2-  O232  1  0.16553594  0.58456653  -0.00329215  1
  O2-  O233  1  0.16551145  0.58390238  0.25126822  1
  O2-  O234  1  0.16922077  0.58577089  0.50044983  1
  O2-  O235  1  0.16734584  0.58490438  0.74897965  1
  O2-  O236  1  0.16533860  0.91846176  0.00245021  1
  O2-  O237  1  0.16421160  0.92403071  0.25220989  1
  O2-  O238  1  0.16561748  0.92257081  0.49861702  1
  O2-  O239  1  0.16724239  0.92155881  0.74898097  1
  O2-  O240  1  0.66662100  0.25441853  -0.00089886  1
  O2-  O241  1  0.66761655  0.25327670  0.24979554  1
  O2-  O242  1  0.66693358  0.25226500  0.50108704  1
  O2-  O243  1  0.66531944  0.25479329  0.74943475  1
  O2-  O244  1  0.66685411  0.58580418  -0.00000976  1
  O2-  O245  1  0.66515754  0.58525400  0.25124377  1
  O2-  O246  1  0.66393859  0.58576922  0.49926046  1
  O2-  O247  1  0.66518892  0.58334846  0.74989898  1
  O2-  O248  1  0.66590285  0.91937291  -0.00067277  1
  O2-  O249  1  0.66633182  0.92122616  0.25170958  1
  O2-  O250  1  0.66787064  0.92022452  0.49931326  1
  O2-  O251  1  0.66555784  0.91946500  0.74992267  1
  O2-  O252  1  0.33284405  0.08025568  0.00131029  1
  O2-  O253  1  0.33424980  0.07890437  0.25037821  1
  O2-  O254  1  0.33369363  0.08117432  0.50059100  1
  O2-  O255  1  0.33280366  0.08201606  0.75024154  1
  O2-  O256  1  0.33078133  0.41513118  0.00021258  1
  O2-  O257  1  0.33281235  0.41435112  0.24983298  1
  O2-  O258  1  0.33244092  0.41446807  0.50052008  1
  O2-  O259  1  0.33245541  0.41446785  0.74957879  1
  O2-  O260  1  0.33498642  0.74853366  -0.00314148  1
  O2-  O261  1  0.33140552  0.74983492  0.24977453  1
  O2-  O262  1  0.33261868  0.74624631  0.50208250  1
  O2-  O263  1  0.33406103  0.74456206  0.75237449  1
  O2-  O264  1  0.83372342  0.07948563  -0.00195465  1
  O2-  O265  1  0.83492968  0.08206994  0.24994858  1
  O2-  O266  1  0.83692960  0.07796772  0.50050051  1
  O2-  O267  1  0.83161139  0.07930989  0.75024050  1
  O2-  O268  1  0.83533956  0.41274688  -0.00146458  1
  O2-  O269  1  0.83270674  0.41366703  0.25117867  1
  O2-  O270  1  0.83230534  0.41225689  0.50015574  1
  O2-  O271  1  0.83075305  0.41331934  0.75047034  1
  O2-  O272  1  0.83181187  0.74857404  0.00083012  1
  O2-  O273  1  0.83411735  0.74570780  0.25103048  1
  O2-  O274  1  0.83521003  0.74941608  0.49979484  1
  O2-  O275  1  0.83292994  0.74932606  0.74891139  1
  O2-  O276  1  0.45270750  0.09619067  0.27156099  1
  O2-  O277  1  0.45533404  0.75123942  0.48625070  1
  O2-  O278  1  0.95832041  0.89863698  0.23296443  1
  O2-  O279  1  0.55578214  0.75418503  0.79391471  1
  O2-  O280  1  0.04494198  0.90019316  0.50620635  1
  O2-  O281  1  0.04441137  0.10130742  0.98719494  1
  O2-  O282  1  0.45425778  0.42296569  0.52173337  1
  O2-  O283  1  0.04870414  0.42902041  0.51530762  1
  O2-  O284  1  0.46538629  0.44784283  0.00624224  1
  O2-  O285  1  0.95013841  0.23141117  0.25904554  1
  O2-  O286  1  0.04643738  0.43208029  0.25893028  1
  O2-  O287  1  0.54984717  0.75743595  0.97017499  1
  O2-  O288  1  0.45125299  0.57090664  0.73594417  1
  O2-  O289  1  0.45463546  0.43178701  0.76087810  1
  O2-  O290  1  0.44589339  0.24674786  0.27924152  1
  O2-  O291  1  0.53863344  0.10707204  0.47060943  1
  O2-  O292  1  0.94633593  0.09959854  0.73401607  1
  O2-  O293  1  0.47036002  0.77732150  0.24638449  1
  O2-  O294  1  0.54630073  0.23683579  0.98804165  1
  O2-  O295  1  0.04440993  0.43513780  0.01118691  1
  O2-  O296  1  0.44949783  0.76481481  0.73518065  1
  O2-  O297  1  0.46489732  0.88559188  0.49640625  1
  O2-  O298  1  0.46007548  0.77167663  0.28139282  1
  O2-  O299  1  0.47052320  0.54394602  0.26480972  1
  O2-  O300  1  0.94968605  0.90055257  0.26986525  1
  O2-  O301  1  0.02808271  0.13736751  0.77485631  1
  O2-  O302  1  0.54436621  0.90520177  0.76635910  1
  O2-  O303  1  0.95155015  0.42479743  0.74168947  1
  O2-  O304  1  0.03994486  0.21755533  0.28708568  1
  O2-  O305  1  0.54871492  0.09523728  0.26424271  1
  O2-  O306  1  0.95425277  0.76423084  0.50834264  1
  O2-  O307  1  0.46497634  0.87818472  0.50715239  1
  O2-  O308  1  0.47054394  0.54486094  0.24521678  1
  O2-  O309  1  0.47736438  0.54075799  0.47671246  1
  O2-  O310  1  0.45473348  0.23458714  0.73225249  1
  O2-  O311  1  0.06501569  0.76057669  0.30317806  1
  O2-  O312  1  0.94880889  0.57182308  0.73689787  1
  O2-  O313  1  0.44932789  0.10036167  0.23282793  1
  O2-  O314  1  0.05282281  0.57702994  0.73428833  1
  O2-  O315  1  0.95528648  0.10244340  0.48911039  1
  O2-  O316  1  0.54841657  0.56495601  0.01584359  1
  O2-  O317  1  0.46263458  0.11758397  0.03622547  1
  O2-  O318  1  0.46461736  0.90123814  0.28494122  1
  O2-  O319  1  0.95357214  0.43161403  0.48823174  1
  O2-  O320  1  0.55552921  0.90076320  0.51151612  1
  O2-  O321  1  0.45983292  0.44036132  1.00951565  1
  O2-  O322  1  0.54547898  0.10065423  0.73715991  1
  O2-  O323  1  0.04466440  0.56309581  0.75462710  1
  O2-  O324  1  0.43263850  0.26857122  0.19313671  1
  O2-  O325  1  0.93677453  0.40429843  0.21590041  1
  O2-  O326  1  0.56261286  0.40513442  0.21459841  1
  O2-  O327  1  0.41701894  0.38839681  0.96111572  1
  O2-  O328  1  0.93714806  0.26409885  0.03235222  1
  O2-  O329  1  0.93743953  0.73321689  0.68129621  1
  O2-  O330  1  0.42570782  0.61096819  0.43754760  1
  O2-  O331  1  0.41832018  0.60460897  0.18078269  1
  O2-  O332  1  0.42616253  0.61864712  0.32229460  1
  O2-  O333  1  0.43257795  0.60755204  0.57305748  1
  O2-  O334  1  0.56804218  0.72433662  0.67177885  1
  O2-  O335  1  0.93580790  0.92448672  0.97246358  1
  O2-  O336  1  0.56498762  0.40782368  0.97277665  1
  O2-  O337  1  0.07580159  0.07287192  0.68116281  1
  O2-  O338  1  0.04008123  0.75732345  0.29873314  1
  O2-  O339  1  0.55362456  0.75272395  0.96696539  1
  O2-  O340  1  0.06765734  0.60080597  0.78550641  1
  O2-  O341  1  0.93715800  0.59509432  0.28354056  1
  O2-  O342  1  0.07496406  0.73074283  0.17095417  1
  O2-  O343  1  0.44602434  0.24662910  0.27926764  1
  O2-  O344  1  0.56368116  0.59805960  0.53560771  1
  O2-  O345  1  0.56472750  0.25621254  0.97154812  1
  O2-  O346  1  0.56254269  0.59238468  0.02832532  1
  O2-  O347  1  0.06452159  0.40470948  0.78594646  1
  O2-  O348  1  0.06291662  0.26319838  0.71503889  1
  O2-  O349  1  0.08076936  0.05629125  0.81149131  1
  O2-  O350  1  0.42839355  0.05089294  0.94141641  1
  O2-  O351  1  0.06649418  0.92549898  0.22362751  1
  O2-  O352  1  0.43555109  0.25720782  0.97282750  1
  O2-  O353  1  0.93474832  0.41157878  0.47394724  1
  O2-  O354  1  0.55029612  0.75844173  0.79163478  1
  O2-  O355  1  0.43886552  0.59942756  0.72171637  1
  O2-  O356  1  0.42618790  0.95596272  0.42104045  1
  O2-  O357  1  0.56499782  0.06862627  0.03360634  1
  O2-  O358  1  0.07598108  0.27278019  0.20241720  1
  O2-  O359  1  0.42640361  0.93533475  0.20324930  1
  O2-  O360  1  0.57249844  0.74176856  0.05086882  1
  O2-  O361  1  0.42542321  0.95472923  0.57963246  1
  O2-  O362  1  0.56539159  0.26118643  0.47475240  1
  O2-  O363  1  0.93462836  0.74490477  0.81036116  1
  O2-  O364  1  0.57518876  0.06161079  0.54619842  1
  O2-  O365  1  0.41464219  0.72351961  0.19588968  1
  O2-  O366  1  0.43389759  0.74440603  0.46730176  1
  O2-  O367  1  0.93480396  0.74127205  0.97372192  1
  O2-  O368  1  0.93498925  0.73691628  0.21582229  1
  O2-  O369  1  0.06465420  0.59816611  0.53226421  1
  O2-  O370  1  0.56648426  0.25827583  0.27868801  1
  O2-  O371  1  0.06322283  0.73689336  0.96489271  1
  O2-  O372  1  0.75025036  0.66526335  0.66866659  1
  O2-  O373  1  0.74993922  0.66713882  0.92144831  1
  O2-  O374  1  0.75006195  0.66738255  0.07897876  1
  O2-  O375  1  0.74981456  0.66623598  0.17144066  1
  O2-  O376  1  0.75004187  -0.01189093  0.08081344  1
  O2-  O377  1  0.25007163  0.00074025  0.92732615  1
  O2-  O378  1  0.74987630  0.33214500  0.15638674  1
  O2-  O379  1  0.25005689  0.66403065  0.15117184  1
  O2-  O380  1  0.24964828  0.65543288  0.42014353  1
  O2-  O381  1  0.24985495  0.65621479  0.32492638  1
  O2-  O382  1  0.25008310  0.00037254  0.14781914  1
  O2-  O383  1  0.24956511  0.66281640  0.64791575  1
  O2-  O384  1  0.75058374  0.66647321  0.40135421  1
  O2-  O385  1  0.25000873  0.00543511  0.38986409  1
  O2-  O386  1  0.74972098  -0.00446512  0.40618701  1
  O2-  O387  1  0.25020843  0.33535591  0.09533110  1
  O2-  O388  1  0.25006818  0.00976163  0.61502973  1
  O2-  O389  1  0.25034072  0.01741496  0.83491059  1
  O2-  O390  1  0.75005887  0.01212685  0.16906051  1
  O2-  O391  1  0.75004964  0.33289856  0.60427317  1
  O2-  O392  1  0.75008876  0.66580430  0.57964247  1
  O2-  O393  1  0.74988793  0.66795557  0.83211713  1
  O2-  O394  1  0.25024431  0.34020213  0.35142710  1
  O2-  O395  1  0.24978886  0.34129677  0.90212359  1
  O2-  O396  1  0.75008876  0.50152221  0.90886995  1
  O2-  O397  1  0.75000978  0.49326368  0.36790191  1
  O2-  O398  1  0.25012587  0.16438980  0.84799726  1
  O2-  O399  1  0.24996988  0.16986011  0.42995204  1
  O2-  O400  1  0.75016263  0.84044126  0.58458470  1
  O2-  O401  1  0.24985791  0.16908091  0.08415128  1
  O2-  O402  1  0.25018757  0.17389679  0.34201961  1
  O2-  O403  1  0.25024722  0.83482230  0.59827465  1
  O2-  O404  1  0.75016572  0.82983532  0.85019032  1
  O2-  O405  1  0.75006027  0.50241006  0.08616484  1
  O2-  O406  1  0.25012840  0.81474200  0.34961726  1
  O2-  O407  1  0.24999487  0.82379417  0.06109630  1
  O2-  O408  1  0.74997023  0.16193114  0.31648946  1
  O2-  O409  1  0.74993736  0.83623849  0.13786496  1
  O2-  O410  1  0.74997735  0.17827322  0.40181272  1
  O2-  O411  1  0.25011868  0.83440649  0.84990234  1
  O2-  O412  1  0.75001673  0.16242410  0.09612633  1
  O2-  O413  1  0.24972265  0.49360807  0.08903322  1
  O2-  O414  1  0.25000854  0.82748955  0.93429772  1
  O2-  O415  1  0.75007075  0.16143754  0.18424766  1
  O2-  O416  1  0.25003810  0.81882069  0.14729995  1
  O2-  O417  1  0.75005644  0.16701244  0.64897218  1
  O2-  O418  1  0.25020447  0.17211994  0.93401062  1
  O2-  O419  1  0.24990318  0.49755450  0.65393346  1
  O2-  O420  1  0.04074949  0.00679197  0.11911694  1
  O2-  O421  1  0.04330102  0.00025016  0.37526754  1
  O2-  O422  1  0.52389734  -0.00569017  0.63237800  1
  O2-  O423  1  0.95464707  -0.00330731  0.62403253  1
  O2-  O424  1  0.95622117  0.00407420  0.12454996  1
  O2-  O425  1  0.04365476  0.33457091  0.38221597  1
  O2-  O426  1  0.03733293  -0.00950451  0.61566626  1
  O2-  O427  1  0.52960658  0.66159767  0.13956189  1
  O2-  O428  1  0.02726712  -0.01263427  0.88282760  1
  O2-  O429  1  0.95960690  0.33053569  0.36668125  1
  O2-  O430  1  0.97811476  0.65320261  0.87850930  1
  O2-  O431  1  0.47355124  0.67161821  0.10718857  1
  O2-  O432  1  0.02619986  0.65515018  0.38272619  1
  O2-  O433  1  0.02090506  0.65388421  0.11435821  1
  O2-  O434  1  0.52803944  0.34289224  0.37422688  1
  O2-  O435  1  0.53081847  0.66928041  0.37544962  1
  O2-  O436  1  0.47711847  0.00042730  0.11865764  1
  O2-  O437  1  0.53743640  0.33611066  0.86017757  1
  O2-  O438  1  0.46892091  0.34040109  0.38573005  1
  O2-  O439  1  0.52208006  0.64725118  0.87744251  1
  O2-  O440  1  0.96958804  0.00446251  0.86957367  1
  O2-  O441  1  0.02384778  0.33551480  0.12023236  1
  O2-  O442  1  0.46472644  0.32887771  0.86412117  1
  O2-  O443  1  0.95707963  -0.00264092  0.37506525  1
