# generated using pymatgen
data_La7(Ru4O11)2
_symmetry_space_group_name_H-M   'P 1'
_cell_length_a   23.98993043
_cell_length_b   16.82986894
_cell_length_c   15.42702207
_cell_angle_alpha   89.99948258
_cell_angle_beta   89.99948774
_cell_angle_gamma   89.99856861
_symmetry_Int_Tables_number   1
_chemical_formula_structural   La7(Ru4O11)2
_chemical_formula_sum   'La84 Ru96 O264'
_cell_volume   6228.61981730
_cell_formula_units_Z   12
loop_
 _symmetry_equiv_pos_site_id
 _symmetry_equiv_pos_as_xyz
  1  'x, y, z'
loop_
 _atom_type_symbol
 _atom_type_oxidation_number
  La3+  3.0
  Ru4+  4.0
  O2-  -2.0
loop_
 _atom_site_type_symbol
 _atom_site_label
 _atom_site_symmetry_multiplicity
 _atom_site_fract_x
 _atom_site_fract_y
 _atom_site_fract_z
 _atom_site_occupancy
  La3+  La0  1  0.13870982  -0.00094332  0.12439091  1
  La3+  La1  1  0.14128360  -0.00417245  0.37386521  1
  La3+  La2  1  0.13244661  0.00481541  0.62959848  1
  La3+  La3  1  0.13000522  0.00139344  0.86835866  1
  La3+  La4  1  0.13627375  0.33534675  0.13064549  1
  La3+  La5  1  0.14155378  0.33350661  0.37317865  1
  La3+  La6  1  0.13409183  0.33347894  0.62434642  1
  La3+  La7  1  0.13518381  0.33352567  0.87415312  1
  La3+  La8  1  0.13545561  0.66228090  0.11866845  1
  La3+  La9  1  0.14133302  0.66837879  0.37031430  1
  La3+  La10  1  0.14036690  0.66770988  0.62655131  1
  La3+  La11  1  0.13598851  0.66268251  0.88155215  1
  La3+  La12  1  0.63749492  0.00053899  0.12524201  1
  La3+  La13  1  0.63826381  -0.00218415  0.37635908  1
  La3+  La14  1  0.64026431  -0.00261572  0.62442615  1
  La3+  La15  1  0.63746213  -0.00034412  0.87295449  1
  La3+  La16  1  0.63843077  0.33527245  0.12465005  1
  La3+  La17  1  0.63650943  0.33606194  0.37595343  1
  La3+  La18  1  0.64248645  0.33559871  0.62770854  1
  La3+  La19  1  0.63784989  0.33436964  0.87215435  1
  La3+  La20  1  0.64171753  0.66607226  0.12398384  1
  La3+  La21  1  0.63972011  0.66490982  0.37910369  1
  La3+  La22  1  0.64183915  0.66520484  0.61972476  1
  La3+  La23  1  0.64078938  0.66743039  0.87478786  1
  La3+  La24  1  0.35955182  -0.00160895  0.12452836  1
  La3+  La25  1  0.35882009  -0.00078502  0.37392027  1
  La3+  La26  1  0.35652489  -0.00221176  0.62266398  1
  La3+  La27  1  0.36302841  -0.00218547  0.87560631  1
  La3+  La28  1  0.36226947  0.33106508  0.12478836  1
  La3+  La29  1  0.35836744  0.33341455  0.37319189  1
  La3+  La30  1  0.36861409  0.32647606  0.62976809  1
  La3+  La31  1  0.37105687  0.32503763  0.86468234  1
  La3+  La32  1  0.35560519  0.66801480  0.12592243  1
  La3+  La33  1  0.35796929  0.66672032  0.37254215  1
  La3+  La34  1  0.35862531  0.66787452  0.62646362  1
  La3+  La35  1  0.35929351  0.66832942  0.87454281  1
  La3+  La36  1  0.86218706  -0.00005101  0.12606283  1
  La3+  La37  1  0.85923084  -0.00170334  0.37910408  1
  La3+  La38  1  0.86238873  -0.00048400  0.62506349  1
  La3+  La39  1  0.86134452  0.00066595  0.87205608  1
  La3+  La40  1  0.86125850  0.33473894  0.12356721  1
  La3+  La41  1  0.86421978  0.33660243  0.37643317  1
  La3+  La42  1  0.85588853  0.33531443  0.62927274  1
  La3+  La43  1  0.86110637  0.33280514  0.87230339  1
  La3+  La44  1  0.85885149  0.66644275  0.12342756  1
  La3+  La45  1  0.85864829  0.66703052  0.37729332  1
  La3+  La46  1  0.86212812  0.66082759  0.62689570  1
  La3+  La47  1  0.86692093  0.65922932  0.86670001  1
  La3+  La48  1  0.50115848  0.83168767  0.62113587  1
  La3+  La49  1  0.00056241  0.16559812  0.11733491  1
  La3+  La50  1  0.00190575  0.49414073  0.36314672  1
  La3+  La51  1  0.00177673  0.16400558  0.87628823  1
  La3+  La52  1  0.49858488  0.16425785  0.12002740  1
  La3+  La53  1  0.00156255  0.83158566  0.87489378  1
  La3+  La54  1  0.00175282  0.49927743  0.63267219  1
  La3+  La55  1  0.00243150  0.16426606  0.38748887  1
  La3+  La56  1  0.50505746  0.50189342  0.37465767  1
  La3+  La57  1  0.50285628  0.17095025  0.37572826  1
  La3+  La58  1  0.00242322  0.83842102  0.63395404  1
  La3+  La59  1  0.49884854  0.16848119  0.63581840  1
  La3+  La60  1  -0.00194818  0.16554718  0.63724835  1
  La3+  La61  1  0.49935397  0.49842160  0.39482904  1
  La3+  La62  1  0.50359179  0.83840454  0.39320293  1
  La3+  La63  1  -0.00084638  0.50826178  0.88022821  1
  La3+  La64  1  -0.00085250  0.16411671  0.85939825  1
  La3+  La65  1  0.49689158  0.17430608  0.87240282  1
  La3+  La66  1  -0.00245461  0.83126009  0.61410493  1
  La3+  La67  1  0.00162356  0.51155614  0.11731189  1
  La3+  La68  1  0.50048731  0.83394750  0.11456965  1
  La3+  La69  1  0.50289339  0.83856531  0.37653602  1
  La3+  La70  1  0.49691528  0.49149991  0.62692912  1
  La3+  La71  1  0.50025942  0.83298434  0.86370089  1
  La3+  La72  1  0.24989650  0.12886697  -0.04903686  1
  La3+  La73  1  0.74955978  0.17947413  0.46852924  1
  La3+  La74  1  0.25026898  0.10749718  0.50974687  1
  La3+  La75  1  0.75004797  0.78428685  0.01952926  1
  La3+  La76  1  0.24933359  0.82948354  -0.01574031  1
  La3+  La77  1  0.74995421  0.50545073  -0.00390852  1
  La3+  La78  1  0.75019253  0.79682924  0.28533708  1
  La3+  La79  1  0.24925549  0.16559429  0.27816532  1
  La3+  La80  1  0.74961478  0.21418105  0.01611717  1
  La3+  La81  1  0.24964157  0.50436871  0.21327215  1
  La3+  La82  1  0.75010162  0.13269465  0.27431426  1
  La3+  La83  1  0.25099741  0.13184853  0.74847921  1
  Ru4+  Ru84  1  -0.00059736  -0.00005221  0.00275947  1
  Ru4+  Ru85  1  0.00387779  -0.00281360  0.25616953  1
  Ru4+  Ru86  1  -0.00374400  -0.00434958  0.49119970  1
  Ru4+  Ru87  1  0.00118228  0.00270806  0.75609584  1
  Ru4+  Ru88  1  -0.00100842  0.33451896  -0.00222374  1
  Ru4+  Ru89  1  0.00277048  0.32816321  0.25477754  1
  Ru4+  Ru90  1  -0.00253673  0.32962121  0.50210850  1
  Ru4+  Ru91  1  -0.00415953  0.34354691  0.74976755  1
  Ru4+  Ru92  1  0.00312246  0.66944975  -0.00202495  1
  Ru4+  Ru93  1  -0.00387538  0.67037171  0.24939823  1
  Ru4+  Ru94  1  -0.00013380  0.66573430  0.50136750  1
  Ru4+  Ru95  1  0.00290386  0.66335185  0.75303354  1
  Ru4+  Ru96  1  0.50079790  0.00030958  -0.00307094  1
  Ru4+  Ru97  1  0.49890836  0.00211594  0.25616121  1
  Ru4+  Ru98  1  0.50154121  0.00232247  0.49477826  1
  Ru4+  Ru99  1  0.50346050  0.00002128  0.75415244  1
  Ru4+  Ru100  1  0.49871491  0.33245995  0.00429834  1
  Ru4+  Ru101  1  0.50461514  0.32963059  0.24389519  1
  Ru4+  Ru102  1  0.50316600  0.33610856  0.50516606  1
  Ru4+  Ru103  1  0.49944525  0.32854819  0.74958413  1
  Ru4+  Ru104  1  0.49940011  0.66703395  -0.00303486  1
  Ru4+  Ru105  1  0.49913869  0.66678281  0.24594908  1
  Ru4+  Ru106  1  0.49744699  0.67389083  0.50152458  1
  Ru4+  Ru107  1  0.50221900  0.66523087  0.75309861  1
  Ru4+  Ru108  1  0.10915209  0.16602362  -0.00222057  1
  Ru4+  Ru109  1  0.11023677  0.16937246  0.24931556  1
  Ru4+  Ru110  1  0.11294898  0.16626015  0.49898289  1
  Ru4+  Ru111  1  0.11508997  0.16125067  0.75198424  1
  Ru4+  Ru112  1  0.11258333  0.50088963  0.00090216  1
  Ru4+  Ru113  1  0.11225221  0.49919096  0.25049007  1
  Ru4+  Ru114  1  0.11467796  0.50499543  0.49956467  1
  Ru4+  Ru115  1  0.11076937  0.50397818  0.75301531  1
  Ru4+  Ru116  1  0.11055101  0.83177997  0.00100863  1
  Ru4+  Ru117  1  0.11248890  0.83636611  0.24864257  1
  Ru4+  Ru118  1  0.11565970  0.83163006  0.49633376  1
  Ru4+  Ru119  1  0.11795680  0.82735556  0.75098913  1
  Ru4+  Ru120  1  0.61109050  0.16712965  -0.00070092  1
  Ru4+  Ru121  1  0.61126563  0.17129222  0.24960484  1
  Ru4+  Ru122  1  0.61028798  0.16703869  0.49992246  1
  Ru4+  Ru123  1  0.61164596  0.16578133  0.74946504  1
  Ru4+  Ru124  1  0.61223571  0.50034084  -0.00011859  1
  Ru4+  Ru125  1  0.61374008  0.49970349  0.24711405  1
  Ru4+  Ru126  1  0.61862196  0.49581058  0.50375637  1
  Ru4+  Ru127  1  0.61261715  0.49856881  0.75118381  1
  Ru4+  Ru128  1  0.61048288  0.83477401  0.00002032  1
  Ru4+  Ru129  1  0.61245506  0.83016617  0.24768793  1
  Ru4+  Ru130  1  0.61613194  0.83365352  0.50066717  1
  Ru4+  Ru131  1  0.61324028  0.83288879  0.75054430  1
  Ru4+  Ru132  1  0.39043618  0.16624969  -0.00278243  1
  Ru4+  Ru133  1  0.38689017  0.16591825  0.24822607  1
  Ru4+  Ru134  1  0.38751277  0.16223413  0.50264793  1
  Ru4+  Ru135  1  0.39049318  0.16825555  0.75152891  1
  Ru4+  Ru136  1  0.38618698  0.50151391  -0.00019933  1
  Ru4+  Ru137  1  0.38561248  0.50050071  0.24645165  1
  Ru4+  Ru138  1  0.38516550  0.49939019  0.50195155  1
  Ru4+  Ru139  1  0.38873326  0.49657031  0.75061933  1
  Ru4+  Ru140  1  0.38817190  0.83106623  -0.00027681  1
  Ru4+  Ru141  1  0.38547411  0.83090139  0.24770278  1
  Ru4+  Ru142  1  0.38555719  0.83382205  0.50027981  1
  Ru4+  Ru143  1  0.38730152  0.83121875  0.74957687  1
  Ru4+  Ru144  1  0.88889848  0.16725001  -0.00024478  1
  Ru4+  Ru145  1  0.88995869  0.16389458  0.24950336  1
  Ru4+  Ru146  1  0.88958591  0.16743429  0.49817578  1
  Ru4+  Ru147  1  0.88193677  0.17406365  0.75261644  1
  Ru4+  Ru148  1  0.89085322  0.50142255  -0.00175682  1
  Ru4+  Ru149  1  0.88891301  0.50094177  0.25057648  1
  Ru4+  Ru150  1  0.88612565  0.50147949  0.50219253  1
  Ru4+  Ru151  1  0.88745073  0.49883628  0.74723938  1
  Ru4+  Ru152  1  0.89107395  0.83142634  0.00033407  1
  Ru4+  Ru153  1  0.89132630  0.82974979  0.25165151  1
  Ru4+  Ru154  1  0.88269809  0.83352075  0.49796096  1
  Ru4+  Ru155  1  0.88662214  0.82888950  0.75076160  1
  Ru4+  Ru156  1  0.24978614  0.74912553  0.50086842  1
  Ru4+  Ru157  1  0.25004059  0.41480299  0.00566391  1
  Ru4+  Ru158  1  0.25021501  0.41758055  0.74299233  1
  Ru4+  Ru159  1  0.74959218  0.30816004  0.51935891  1
  Ru4+  Ru160  1  0.75005621  0.92646524  -0.00525507  1
  Ru4+  Ru161  1  0.24996151  0.58573059  0.74304921  1
  Ru4+  Ru162  1  0.74991032  0.93237407  0.23429472  1
  Ru4+  Ru163  1  0.25018794  0.26728750  0.51324594  1
  Ru4+  Ru164  1  0.75048174  0.40996375  0.26465151  1
  Ru4+  Ru165  1  0.24978481  0.41535888  0.50944083  1
  Ru4+  Ru166  1  0.74996653  0.07407796  -0.00770384  1
  Ru4+  Ru167  1  0.74988394  0.76329021  0.74468682  1
  Ru4+  Ru168  1  0.75062171  0.59394644  0.25712893  1
  Ru4+  Ru169  1  0.25121846  0.58238369  0.00457855  1
  Ru4+  Ru170  1  0.24991868  0.27550216  0.00297481  1
  Ru4+  Ru171  1  0.75012999  0.90381007  0.74530220  1
  Ru4+  Ru172  1  0.75003191  0.08859779  0.75009334  1
  Ru4+  Ru173  1  0.24971691  0.91310887  0.24466782  1
  Ru4+  Ru174  1  0.24940803  0.27458365  0.76057526  1
  Ru4+  Ru175  1  0.24962954  0.59042507  0.51215915  1
  Ru4+  Ru176  1  0.74963069  0.05342487  0.51834757  1
  Ru4+  Ru177  1  0.75042317  0.27244011  0.25327273  1
  Ru4+  Ru178  1  0.74908970  0.57880613  0.73852176  1
  Ru4+  Ru179  1  0.24978779  0.91265437  0.74725872  1
  O2-  O180  1  0.16950442  0.07762802  -0.00059939  1
  O2-  O181  1  0.16649467  0.08261562  0.24717865  1
  O2-  O182  1  0.16271601  0.07898503  0.50062285  1
  O2-  O183  1  0.16839050  0.07664868  0.75054352  1
  O2-  O184  1  0.16457288  0.41533228  0.00048889  1
  O2-  O185  1  0.16922738  0.41613912  0.24566096  1
  O2-  O186  1  0.16614894  0.41408615  0.50275006  1
  O2-  O187  1  0.16604627  0.41266055  0.74977120  1
  O2-  O188  1  0.16559953  0.74620861  -0.00117742  1
  O2-  O189  1  0.16599695  0.75072784  0.25167854  1
  O2-  O190  1  0.16891291  0.74923605  0.50153821  1
  O2-  O191  1  0.16526606  0.74658347  0.74856794  1
  O2-  O192  1  0.66556215  0.08039935  0.00047245  1
  O2-  O193  1  0.66427369  0.07886033  0.24912287  1
  O2-  O194  1  0.66589301  0.07793436  0.49970650  1
  O2-  O195  1  0.67017686  0.08008213  0.74943857  1
  O2-  O196  1  0.66684660  0.41235705  -0.00144848  1
  O2-  O197  1  0.66857743  0.41436822  0.24981082  1
  O2-  O198  1  0.66958326  0.41358594  0.49893121  1
  O2-  O199  1  0.66524292  0.41640831  0.75306463  1
  O2-  O200  1  0.66115614  0.74538922  -0.00108185  1
  O2-  O201  1  0.66489741  0.74521242  0.24896138  1
  O2-  O202  1  0.66328507  0.74673926  0.49933513  1
  O2-  O203  1  0.66784919  0.74919589  0.74771167  1
  O2-  O204  1  0.33036151  0.25459078  -0.00185718  1
  O2-  O205  1  0.33418107  0.25174881  0.25002326  1
  O2-  O206  1  0.33393393  0.25245946  0.49951176  1
  O2-  O207  1  0.33100334  0.25156346  0.75041588  1
  O2-  O208  1  0.33562113  0.58436586  -0.00048998  1
  O2-  O209  1  0.33385754  0.58379779  0.24979303  1
  O2-  O210  1  0.33270516  0.58721072  0.50090163  1
  O2-  O211  1  0.33529053  0.58478903  0.74932168  1
  O2-  O212  1  0.33266659  0.92209669  -0.00277549  1
  O2-  O213  1  0.33209373  0.91714401  0.24876978  1
  O2-  O214  1  0.33501790  0.91798687  0.49981666  1
  O2-  O215  1  0.33266729  0.92159180  0.74983036  1
  O2-  O216  1  0.83671282  0.25699328  -0.00019722  1
  O2-  O217  1  0.83415758  0.25517850  0.25127901  1
  O2-  O218  1  0.83445251  0.25548839  0.49981846  1
  O2-  O219  1  0.83138431  0.25287412  0.75136336  1
  O2-  O220  1  0.83524152  0.58664034  -0.00277230  1
  O2-  O221  1  0.83375607  0.58679109  0.24964472  1
  O2-  O222  1  0.83575708  0.58501107  0.49868588  1
  O2-  O223  1  0.83194176  0.58789560  0.75114956  1
  O2-  O224  1  0.83518374  0.91975588  -0.00115981  1
  O2-  O225  1  0.83265810  0.91854735  0.24781060  1
  O2-  O226  1  0.83359629  0.91772424  0.49966863  1
  O2-  O227  1  0.83144598  0.92053172  0.75100869  1
  O2-  O228  1  0.16625565  0.25458917  -0.00196814  1
  O2-  O229  1  0.16742007  0.25139141  0.24652970  1
  O2-  O230  1  0.16570516  0.25304115  0.50285504  1
  O2-  O231  1  0.16602152  0.25452039  0.75026574  1
  O2-  O232  1  0.16838398  0.58385315  -0.00010883  1
  O2-  O233  1  0.16470351  0.58362154  0.24893684  1
  O2-  O234  1  0.16591856  0.58589933  0.50160749  1
  O2-  O235  1  0.16619865  0.58502711  0.74883534  1
  O2-  O236  1  0.16598017  0.92066659  -0.00184282  1
  O2-  O237  1  0.16860112  0.91676376  0.24694091  1
  O2-  O238  1  0.16570891  0.91743653  0.50130229  1
  O2-  O239  1  0.16879432  0.92086916  0.74919532  1
  O2-  O240  1  0.66240744  0.25697085  -0.00108728  1
  O2-  O241  1  0.66863184  0.25459327  0.25132641  1
  O2-  O242  1  0.66648392  0.25509679  0.49937699  1
  O2-  O243  1  0.66342686  0.24991474  0.75235765  1
  O2-  O244  1  0.66457127  0.58538089  -0.00099440  1
  O2-  O245  1  0.66666699  0.58673663  0.24886599  1
  O2-  O246  1  0.66615831  0.58497285  0.49825348  1
  O2-  O247  1  0.66653791  0.58573625  0.74903550  1
  O2-  O248  1  0.66779545  0.91918194  0.00071890  1
  O2-  O249  1  0.66590195  0.92032949  0.24969985  1
  O2-  O250  1  0.66589247  0.91826691  0.50050239  1
  O2-  O251  1  0.66904441  0.91868774  0.74918194  1
  O2-  O252  1  0.33349259  0.07840547  -0.00117713  1
  O2-  O253  1  0.33101463  0.08071968  0.24996406  1
  O2-  O254  1  0.34011982  0.07655541  0.49777670  1
  O2-  O255  1  0.33714320  0.07858574  0.75220646  1
  O2-  O256  1  0.33134319  0.41281328  0.00067164  1
  O2-  O257  1  0.33023533  0.41531848  0.24897405  1
  O2-  O258  1  0.33334597  0.41358735  0.50013241  1
  O2-  O259  1  0.33167843  0.41272934  0.74962637  1
  O2-  O260  1  0.33486331  0.74784404  -0.00142111  1
  O2-  O261  1  0.33325116  0.75138898  0.25216039  1
  O2-  O262  1  0.33093881  0.74839361  0.50125519  1
  O2-  O263  1  0.33654315  0.74821432  0.74943666  1
  O2-  O264  1  0.83338766  0.07979683  0.00006352  1
  O2-  O265  1  0.83590870  0.07911698  0.24896413  1
  O2-  O266  1  0.83228776  0.07862773  0.50114645  1
  O2-  O267  1  0.83170306  0.08119859  0.75006580  1
  O2-  O268  1  0.83309349  0.41152625  0.00055197  1
  O2-  O269  1  0.83381487  0.41243314  0.25051380  1
  O2-  O270  1  0.83437773  0.41316783  0.49890055  1
  O2-  O271  1  0.83884562  0.41514346  0.75257141  1
  O2-  O272  1  0.83826473  0.74402533  -0.00395548  1
  O2-  O273  1  0.83693682  0.74578869  0.24797743  1
  O2-  O274  1  0.83718293  0.74722495  0.49882133  1
  O2-  O275  1  0.83338111  0.74739818  0.74963152  1
  O2-  O276  1  0.53722359  0.55803502  0.71634032  1
  O2-  O277  1  0.04950472  0.23848329  0.77106204  1
  O2-  O278  1  0.04507485  0.42645108  0.01643051  1
  O2-  O279  1  0.54551275  0.24087300  0.01236941  1
  O2-  O280  1  0.94725405  0.75684019  0.26742326  1
  O2-  O281  1  0.46108803  0.77835524  0.28205189  1
  O2-  O282  1  0.44941193  0.57474098  0.26401594  1
  O2-  O283  1  0.04753040  0.90085625  0.76254030  1
  O2-  O284  1  0.05067315  0.56781506  0.01436264  1
  O2-  O285  1  0.45487432  0.89867646  0.98572730  1
  O2-  O286  1  0.45636799  0.23167044  0.74080930  1
  O2-  O287  1  0.04846941  0.43394286  0.48494053  1
  O2-  O288  1  0.44942432  0.24064393  0.76527635  1
  O2-  O289  1  0.45057872  0.23518607  0.51723629  1
  O2-  O290  1  0.04475363  0.43626101  0.76299671  1
  O2-  O291  1  0.55057885  0.57393551  0.48468212  1
  O2-  O292  1  0.45675258  0.10717596  0.28449920  1
  O2-  O293  1  0.04783411  0.76986901  0.01214889  1
  O2-  O294  1  0.04709597  0.23943355  0.73206788  1
  O2-  O295  1  0.94707341  0.10117721  0.73918052  1
  O2-  O296  1  0.04399581  0.10091229  0.76375539  1
  O2-  O297  1  0.45347154  0.23714346  0.23952632  1
  O2-  O298  1  0.54563895  0.90011328  0.25891176  1
  O2-  O299  1  0.95301984  0.56111054  0.74576197  1
  O2-  O300  1  0.54513769  0.09934469  0.98919572  1
  O2-  O301  1  0.04501368  0.89764843  0.49090893  1
  O2-  O302  1  0.95100901  0.90269119  0.76536741  1
  O2-  O303  1  0.45402607  0.09227745  0.76389491  1
  O2-  O304  1  0.54798535  0.10206497  0.25252711  1
  O2-  O305  1  0.54368867  0.76503381  0.98552844  1
  O2-  O306  1  0.04355400  0.76664012  0.28082839  1
  O2-  O307  1  0.45835921  0.43327948  0.27902855  1
  O2-  O308  1  0.95461251  0.23376432  0.23466564  1
  O2-  O309  1  0.04428154  0.23518743  0.50959139  1
  O2-  O310  1  0.54440736  0.56569837  0.52161934  1
  O2-  O311  1  0.95140981  0.57769929  0.76811548  1
  O2-  O312  1  0.45475278  0.90124612  0.51595333  1
  O2-  O313  1  0.96257537  0.89018456  0.25415112  1
  O2-  O314  1  0.95255100  0.76549579  0.00951542  1
  O2-  O315  1  0.04083751  0.56783675  0.98998170  1
  O2-  O316  1  0.45548048  0.09527268  0.51712404  1
  O2-  O317  1  0.54817432  0.10028340  0.24279096  1
  O2-  O318  1  0.04314223  0.43905658  0.20982482  1
  O2-  O319  1  0.05537106  0.90391052  0.26273276  1
  O2-  O320  1  0.03888146  0.09902781  0.54240387  1
  O2-  O321  1  0.04710817  0.90153248  0.51107723  1
  O2-  O322  1  0.55106450  0.57254415  0.25594887  1
  O2-  O323  1  0.05016421  0.09409671  0.73826575  1
  O2-  O324  1  0.56246661  0.73702572  0.21450651  1
  O2-  O325  1  0.42238995  0.06222001  0.19907454  1
  O2-  O326  1  0.93461925  0.07550469  0.02510147  1
  O2-  O327  1  0.06560092  0.07540486  0.02760522  1
  O2-  O328  1  0.93333596  0.92256015  0.52776256  1
  O2-  O329  1  0.93800837  0.26166717  0.78345969  1
  O2-  O330  1  0.06966424  0.39994705  0.33228231  1
  O2-  O331  1  0.56160788  0.40014730  0.71769707  1
  O2-  O332  1  0.93613303  0.07373389  0.46560467  1
  O2-  O333  1  0.43271178  0.25658096  0.02537863  1
  O2-  O334  1  0.43341676  0.41093840  0.95551448  1
  O2-  O335  1  0.92646744  0.94795498  0.28945747  1
  O2-  O336  1  0.56511678  0.26117959  0.18017001  1
  O2-  O337  1  0.93872096  0.26147503  0.96669968  1
  O2-  O338  1  0.06313008  0.25996408  0.17774487  1
  O2-  O339  1  0.06414365  0.73375375  0.46829840  1
  O2-  O340  1  0.07231154  0.73349497  0.21217102  1
  O2-  O341  1  0.43849539  0.26464392  0.53041243  1
  O2-  O342  1  0.06119730  0.08652525  0.55365191  1
  O2-  O343  1  0.56646411  0.92483775  0.02819743  1
  O2-  O344  1  0.56751060  0.08487650  0.81412058  1
  O2-  O345  1  0.56227966  0.74438203  0.78216717  1
  O2-  O346  1  0.57283680  0.60668389  0.80979121  1
  O2-  O347  1  0.43712072  0.40658024  0.53099587  1
  O2-  O348  1  0.07184517  0.06717664  0.78537950  1
  O2-  O349  1  0.56607102  0.40798107  0.27536272  1
  O2-  O350  1  0.43233934  0.41468185  0.81129539  1
  O2-  O351  1  0.56385713  0.92266826  0.77407659  1
  O2-  O352  1  0.06622159  0.92176473  0.77612894  1
  O2-  O353  1  0.43372246  0.41111812  0.04554595  1
  O2-  O354  1  0.56349309  0.40295238  0.53237641  1
  O2-  O355  1  0.56247563  0.07024933  0.67759300  1
  O2-  O356  1  0.05595635  0.41348329  0.19081921  1
  O2-  O357  1  0.56702067  0.25351829  0.31228104  1
  O2-  O358  1  0.06335145  0.25304647  0.31955752  1
  O2-  O359  1  0.43193036  0.26669410  0.71455304  1
  O2-  O360  1  0.43452034  0.59358266  0.46641479  1
  O2-  O361  1  0.42966089  0.71786481  0.18457540  1
  O2-  O362  1  0.56365511  0.92314185  0.47689469  1
  O2-  O363  1  0.06985067  0.59946705  0.96810190  1
  O2-  O364  1  0.43509637  0.40925056  0.68319192  1
  O2-  O365  1  0.43687276  0.74222275  0.46705089  1
  O2-  O366  1  0.93166197  0.59973607  0.71672774  1
  O2-  O367  1  0.07741936  0.06771041  0.42184931  1
  O2-  O368  1  0.93502791  0.07211405  0.72551493  1
  O2-  O369  1  0.42551669  0.39612325  0.20561703  1
  O2-  O370  1  0.06173425  0.40452261  0.47478284  1
  O2-  O371  1  0.06304569  0.07582934  0.27114755  1
  O2-  O372  1  0.75023834  -0.01086970  0.61483360  1
  O2-  O373  1  0.24953528  0.67098577  0.08048770  1
  O2-  O374  1  0.25058327  0.33109612  0.32229560  1
  O2-  O375  1  0.75036426  0.66762021  0.34798045  1
  O2-  O376  1  0.75010670  0.00861630  0.32837578  1
  O2-  O377  1  0.75052583  -0.00052245  0.89300841  1
  O2-  O378  1  0.74972482  0.66726707  0.57960417  1
  O2-  O379  1  0.75039903  0.33068189  0.64049064  1
  O2-  O380  1  0.25095901  -0.00060272  0.60835738  1
  O2-  O381  1  0.25045402  -0.00438467  0.34022391  1
  O2-  O382  1  0.25023802  0.66649796  0.32876185  1
  O2-  O383  1  0.25061355  0.33929542  0.41592305  1
  O2-  O384  1  0.75047247  0.66871841  0.84139171  1
  O2-  O385  1  0.24983445  0.67021509  0.93397662  1
  O2-  O386  1  0.25052348  0.66486043  0.64970407  1
  O2-  O387  1  0.75008478  0.66483614  0.10195479  1
  O2-  O388  1  0.75008349  0.00066559  0.10310319  1
  O2-  O389  1  0.24991583  0.66015124  0.17055312  1
  O2-  O390  1  0.75040343  0.33824284  0.14583946  1
  O2-  O391  1  0.25009073  0.66616736  0.81557069  1
  O2-  O392  1  0.24987648  0.33646234  0.64580418  1
  O2-  O393  1  0.75003635  -0.01633513  0.41687618  1
  O2-  O394  1  0.24974933  0.66838981  0.42071151  1
  O2-  O395  1  0.75031968  0.67272267  0.67065294  1
  O2-  O396  1  0.25012548  0.49947089  0.34580721  1
  O2-  O397  1  0.75003540  0.15356480  0.88175921  1
  O2-  O398  1  0.25046340  0.84437158  0.12529305  1
  O2-  O399  1  0.24999658  0.17943106  0.07241493  1
  O2-  O400  1  0.74996760  0.48156621  0.79767397  1
  O2-  O401  1  0.74994291  0.83302209  0.61441086  1
  O2-  O402  1  0.75002054  0.16390993  0.14249950  1
  O2-  O403  1  0.74986626  0.84737170  0.14415741  1
  O2-  O404  1  0.25003693  0.50281913  0.43313269  1
  O2-  O405  1  0.74967932  0.50243073  0.87756508  1
  O2-  O406  1  0.25009542  0.49976737  0.81608933  1
  O2-  O407  1  0.25012691  0.50018379  0.59393922  1
  O2-  O408  1  0.25048659  0.16353979  0.15481042  1
  O2-  O409  1  0.74998578  0.49643320  0.11739262  1
  O2-  O410  1  0.75005166  0.15704937  0.61338964  1
  O2-  O411  1  0.74982414  0.50071806  0.20022437  1
  O2-  O412  1  0.24980095  0.18515166  0.40456594  1
  O2-  O413  1  0.74999673  0.84362722  0.88010615  1
  O2-  O414  1  0.74986124  0.50529422  0.65958409  1
  O2-  O415  1  0.24991496  0.18457178  0.62316368  1
  O2-  O416  1  0.24982040  0.49811611  0.93295722  1
  O2-  O417  1  0.25024714  0.83989801  0.83397591  1
  O2-  O418  1  0.75007564  0.50013605  0.34163696  1
  O2-  O419  1  0.75010261  0.83540351  0.40529673  1
  O2-  O420  1  0.02493087  0.33975560  0.62294289  1
  O2-  O421  1  0.47140760  0.66822210  0.87607610  1
  O2-  O422  1  0.47043358  -0.00862423  0.11719105  1
  O2-  O423  1  0.54108526  0.00504168  0.37172601  1
  O2-  O424  1  0.95995236  0.66062755  0.12586428  1
  O2-  O425  1  0.96865190  0.00158090  0.61723795  1
  O2-  O426  1  0.52145425  0.33466816  0.38559863  1
  O2-  O427  1  0.01741736  -0.00609854  0.37194368  1
  O2-  O428  1  0.51934956  -0.00651496  0.88300806  1
  O2-  O429  1  0.02969113  -0.00376736  0.12972063  1
  O2-  O430  1  0.52913355  0.67148760  0.37420537  1
  O2-  O431  1  0.47290582  0.32036415  0.88417393  1
  O2-  O432  1  0.53966522  0.33325918  0.87654827  1
  O2-  O433  1  0.45451235  -0.00535601  0.37525037  1
  O2-  O434  1  0.96852926  0.33296792  0.37815866  1
  O2-  O435  1  0.02326487  -0.00241103  0.88665267  1
  O2-  O436  1  0.02778788  0.66641935  0.62720237  1
  O2-  O437  1  0.03311412  0.65982195  0.12236977  1
  O2-  O438  1  0.52966236  0.00268580  0.13038435  1
  O2-  O439  1  0.02721004  0.33248164  0.87773608  1
  O2-  O440  1  0.03615572  -0.01466791  0.63927676  1
  O2-  O441  1  0.97027224  -0.00402322  0.12868836  1
  O2-  O442  1  0.02452231  0.67479388  0.87213123  1
  O2-  O443  1  0.48362487  0.32664613  0.12399222  1
