# generated using pymatgen
data_La7(Ru4O11)2
_symmetry_space_group_name_H-M   'P 1'
_cell_length_a   23.99187241
_cell_length_b   16.83176201
_cell_length_c   15.42903807
_cell_angle_alpha   90.00274013
_cell_angle_beta   89.99913918
_cell_angle_gamma   89.99711670
_symmetry_Int_Tables_number   1
_chemical_formula_structural   La7(Ru4O11)2
_chemical_formula_sum   'La84 Ru96 O264'
_cell_volume   6230.63879030
_cell_formula_units_Z   12
loop_
 _symmetry_equiv_pos_site_id
 _symmetry_equiv_pos_as_xyz
  1  'x, y, z'
loop_
 _atom_type_symbol
 _atom_type_oxidation_number
  La3+  3.0
  Ru4+  4.0
  O2-  -2.0
loop_
 _atom_site_type_symbol
 _atom_site_label
 _atom_site_symmetry_multiplicity
 _atom_site_fract_x
 _atom_site_fract_y
 _atom_site_fract_z
 _atom_site_occupancy
  La3+  La0  1  0.13620758  0.00386634  0.12166634  1
  La3+  La1  1  0.14371032  0.00200234  0.37814825  1
  La3+  La2  1  0.15267592  -0.00058742  0.62470476  1
  La3+  La3  1  0.14484415  0.00361921  0.87784773  1
  La3+  La4  1  0.14820133  0.33103583  0.12813607  1
  La3+  La5  1  0.14743930  0.33117924  0.37491310  1
  La3+  La6  1  0.13576221  0.33245358  0.62736622  1
  La3+  La7  1  0.14517817  0.33510590  0.87440221  1
  La3+  La8  1  0.13612584  0.67018701  0.12939880  1
  La3+  La9  1  0.14854172  0.65999919  0.37519090  1
  La3+  La10  1  0.13666209  0.66557589  0.62421984  1
  La3+  La11  1  0.14021330  0.66781100  0.87653909  1
  La3+  La12  1  0.64239631  -0.00159013  0.12647183  1
  La3+  La13  1  0.63894538  0.00117329  0.37208751  1
  La3+  La14  1  0.64183189  0.00246521  0.62587943  1
  La3+  La15  1  0.63970164  -0.00518800  0.87710182  1
  La3+  La16  1  0.64377815  0.33465814  0.12880717  1
  La3+  La17  1  0.63663005  0.33490027  0.37401996  1
  La3+  La18  1  0.63528040  0.33675898  0.61977148  1
  La3+  La19  1  0.63771300  0.33517540  0.87967474  1
  La3+  La20  1  0.62974383  0.67214089  0.13012045  1
  La3+  La21  1  0.63267502  0.66923991  0.37155932  1
  La3+  La22  1  0.63385985  0.66897884  0.62588308  1
  La3+  La23  1  0.64595270  0.66464642  0.87227180  1
  La3+  La24  1  0.36257964  0.00262482  0.12479920  1
  La3+  La25  1  0.35436347  0.00463153  0.37721236  1
  La3+  La26  1  0.34862328  0.00058139  0.62284666  1
  La3+  La27  1  0.35258259  0.00024466  0.87430611  1
  La3+  La28  1  0.35292125  0.33280610  0.12576894  1
  La3+  La29  1  0.35426688  0.32902958  0.37040532  1
  La3+  La30  1  0.36221960  0.33430115  0.62212508  1
  La3+  La31  1  0.36139737  0.33483343  0.87846433  1
  La3+  La32  1  0.36547935  0.66088779  0.12933500  1
  La3+  La33  1  0.36562062  0.66074511  0.37200085  1
  La3+  La34  1  0.36001684  0.66230738  0.62335382  1
  La3+  La35  1  0.36154289  0.66570136  0.87811735  1
  La3+  La36  1  0.85765514  -0.00467782  0.13039793  1
  La3+  La37  1  0.86352637  -0.00255355  0.37232851  1
  La3+  La38  1  0.86220854  -0.00040479  0.62369485  1
  La3+  La39  1  0.86352928  -0.00045924  0.87694235  1
  La3+  La40  1  0.86633503  0.34200154  0.11839772  1
  La3+  La41  1  0.85925792  0.32784384  0.37357829  1
  La3+  La42  1  0.86585843  0.32824233  0.62133782  1
  La3+  La43  1  0.86967817  0.33823087  0.87973521  1
  La3+  La44  1  0.86337062  0.66583103  0.12608026  1
  La3+  La45  1  0.85821194  0.66297584  0.37191976  1
  La3+  La46  1  0.86563937  0.66987827  0.62908373  1
  La3+  La47  1  0.85509813  0.67195506  0.87124881  1
  La3+  La48  1  -0.00488268  0.17161604  0.36300979  1
  La3+  La49  1  0.50921962  0.82953447  0.35783734  1
  La3+  La50  1  0.49739361  0.83440652  0.13489789  1
  La3+  La51  1  0.00186589  0.48949141  0.12536043  1
  La3+  La52  1  0.50287782  0.16299882  0.88381744  1
  La3+  La53  1  0.49981565  0.16780725  0.12373865  1
  La3+  La54  1  0.49693134  0.17266208  0.59640296  1
  La3+  La55  1  0.49562156  0.17641314  0.14332269  1
  La3+  La56  1  -0.00220044  0.49808326  0.88632572  1
  La3+  La57  1  0.00175289  0.50122657  0.37390387  1
  La3+  La58  1  0.50805946  0.83147703  0.37454405  1
  La3+  La59  1  -0.00611814  0.48873415  0.86702267  1
  La3+  La60  1  0.00594218  0.83965305  0.63319786  1
  La3+  La61  1  -0.00283305  0.15859764  0.60999842  1
  La3+  La62  1  0.50154097  0.49854745  0.88546096  1
  La3+  La63  1  0.50120316  0.16637371  0.86184309  1
  La3+  La64  1  0.00528106  0.17319232  0.86872975  1
  La3+  La65  1  0.49820098  0.82443214  0.89630118  1
  La3+  La66  1  -0.00089322  0.83649345  0.38150582  1
  La3+  La67  1  0.00357757  0.18110088  0.88333335  1
  La3+  La68  1  -0.00130861  0.48328594  0.14027717  1
  La3+  La69  1  0.48948351  0.17792044  0.61441878  1
  La3+  La70  1  0.00323610  0.83340178  0.87404419  1
  La3+  La71  1  0.50451053  0.82293438  0.63787284  1
  La3+  La72  1  0.74916274  0.49384288  0.27676928  1
  La3+  La73  1  0.75156387  0.14577793  0.74187959  1
  La3+  La74  1  0.25055451  0.12143613  0.78314523  1
  La3+  La75  1  0.74937275  0.20556499  0.01713410  1
  La3+  La76  1  0.24992895  0.53643489  0.00795572  1
  La3+  La77  1  0.75025595  0.82218341  0.75004464  1
  La3+  La78  1  0.74962840  0.53283302  0.50400011  1
  La3+  La79  1  0.74800488  0.53804838  0.01229724  1
  La3+  La80  1  0.75004373  0.16858069  0.49489546  1
  La3+  La81  1  0.24888903  0.87430674  0.50720928  1
  La3+  La82  1  0.75026827  0.55378586  0.74621286  1
  La3+  La83  1  0.74974442  0.86325817  0.51560885  1
  Ru4+  Ru84  1  -0.00051469  0.00090018  0.00214181  1
  Ru4+  Ru85  1  0.00186853  0.00238956  0.25777460  1
  Ru4+  Ru86  1  0.00380697  0.00390768  0.49593981  1
  Ru4+  Ru87  1  -0.00533157  -0.00091795  0.74774215  1
  Ru4+  Ru88  1  -0.00384636  0.33014770  0.01063071  1
  Ru4+  Ru89  1  -0.00252252  0.34274161  0.24216055  1
  Ru4+  Ru90  1  0.01086399  0.34020505  0.49918558  1
  Ru4+  Ru91  1  0.00286211  0.33554201  0.73694866  1
  Ru4+  Ru92  1  -0.00016705  0.67409089  -0.00212787  1
  Ru4+  Ru93  1  0.00577753  0.66413565  0.24955657  1
  Ru4+  Ru94  1  0.00265609  0.65647278  0.50665684  1
  Ru4+  Ru95  1  0.00449245  0.66531244  0.73998940  1
  Ru4+  Ru96  1  0.49782840  0.00164764  -0.00000806  1
  Ru4+  Ru97  1  0.49635112  -0.00076189  0.24291235  1
  Ru4+  Ru98  1  0.49420077  -0.00189229  0.49773141  1
  Ru4+  Ru99  1  0.50602789  -0.00748838  0.75284850  1
  Ru4+  Ru100  1  0.50555313  0.33325265  0.00549711  1
  Ru4+  Ru101  1  0.49139178  0.35345547  0.26261431  1
  Ru4+  Ru102  1  0.49365940  0.33598692  0.49156349  1
  Ru4+  Ru103  1  0.49986577  0.33229687  0.75686411  1
  Ru4+  Ru104  1  0.49877712  0.67234090  0.00198518  1
  Ru4+  Ru105  1  0.50104820  0.64806610  0.24525006  1
  Ru4+  Ru106  1  0.49498588  0.65654567  0.50295184  1
  Ru4+  Ru107  1  0.50239716  0.66896019  0.74707823  1
  Ru4+  Ru108  1  0.11888383  0.16484313  0.00205467  1
  Ru4+  Ru109  1  0.11144361  0.16650981  0.24614201  1
  Ru4+  Ru110  1  0.11311990  0.16354994  0.50034424  1
  Ru4+  Ru111  1  0.11005516  0.17180525  0.75037899  1
  Ru4+  Ru112  1  0.11414326  0.50448040  0.00149169  1
  Ru4+  Ru113  1  0.11614511  0.50117656  0.24919104  1
  Ru4+  Ru114  1  0.10618264  0.49783062  0.50084589  1
  Ru4+  Ru115  1  0.11317730  0.49470570  0.74379625  1
  Ru4+  Ru116  1  0.11231960  0.83224829  0.00044549  1
  Ru4+  Ru117  1  0.10849338  0.83138969  0.25342309  1
  Ru4+  Ru118  1  0.10852519  0.83221932  0.50190929  1
  Ru4+  Ru119  1  0.11352417  0.83316980  0.75078637  1
  Ru4+  Ru120  1  0.60401123  0.16727424  -0.00187224  1
  Ru4+  Ru121  1  0.61335690  0.16970233  0.25136761  1
  Ru4+  Ru122  1  0.60908084  0.16759380  0.49967761  1
  Ru4+  Ru123  1  0.60959527  0.16657049  0.75393748  1
  Ru4+  Ru124  1  0.61088017  0.50042904  -0.00107799  1
  Ru4+  Ru125  1  0.60437610  0.50861077  0.24987021  1
  Ru4+  Ru126  1  0.60928908  0.51090091  0.50026273  1
  Ru4+  Ru127  1  0.60588427  0.50030864  0.75070848  1
  Ru4+  Ru128  1  0.61067466  0.82554735  -0.00390039  1
  Ru4+  Ru129  1  0.61648703  0.83894478  0.24964247  1
  Ru4+  Ru130  1  0.61474009  0.83721969  0.49850040  1
  Ru4+  Ru131  1  0.60856634  0.83707470  0.74966514  1
  Ru4+  Ru132  1  0.38223601  0.16621360  -0.00297485  1
  Ru4+  Ru133  1  0.38438229  0.17057381  0.25640822  1
  Ru4+  Ru134  1  0.38530220  0.16758034  0.50060030  1
  Ru4+  Ru135  1  0.39338399  0.16682860  0.75052020  1
  Ru4+  Ru136  1  0.38763152  0.50670932  0.00072645  1
  Ru4+  Ru137  1  0.39220796  0.49186376  0.25245194  1
  Ru4+  Ru138  1  0.38934927  0.49831721  0.50373893  1
  Ru4+  Ru139  1  0.38587961  0.49820821  0.74911461  1
  Ru4+  Ru140  1  0.38582269  0.83693671  0.00019226  1
  Ru4+  Ru141  1  0.38677955  0.83132767  0.24983946  1
  Ru4+  Ru142  1  0.39308111  0.83490343  0.50493198  1
  Ru4+  Ru143  1  0.38762342  0.83503623  0.75026624  1
  Ru4+  Ru144  1  0.88896806  0.16496065  0.00679238  1
  Ru4+  Ru145  1  0.88670684  0.16968378  0.24916911  1
  Ru4+  Ru146  1  0.88590788  0.16134266  0.49895072  1
  Ru4+  Ru147  1  0.88473034  0.15898038  0.75063878  1
  Ru4+  Ru148  1  0.88802610  0.50385532  0.00049535  1
  Ru4+  Ru149  1  0.89375283  0.49744172  0.24582396  1
  Ru4+  Ru150  1  0.89161243  0.49809906  0.49878088  1
  Ru4+  Ru151  1  0.89008070  0.49897909  0.74993161  1
  Ru4+  Ru152  1  0.88850233  0.83466683  0.00177292  1
  Ru4+  Ru153  1  0.88459433  0.83921339  0.24920652  1
  Ru4+  Ru154  1  0.89174837  0.82931708  0.49522807  1
  Ru4+  Ru155  1  0.88808949  0.84410618  0.75199399  1
  Ru4+  Ru156  1  0.24969568  0.10677605  0.26403377  1
  Ru4+  Ru157  1  0.74998047  0.92839758  0.01775502  1
  Ru4+  Ru158  1  0.75015280  0.98675036  0.45663439  1
  Ru4+  Ru159  1  0.74972916  0.39022915  0.01204767  1
  Ru4+  Ru160  1  0.74999946  0.28272694  0.76194694  1
  Ru4+  Ru161  1  0.25088645  0.76165310  0.75365085  1
  Ru4+  Ru162  1  0.24924714  0.90547892  -0.01286637  1
  Ru4+  Ru163  1  0.75060525  0.39275938  0.50968063  1
  Ru4+  Ru164  1  0.74922183  0.74855363  0.24105675  1
  Ru4+  Ru165  1  0.24974161  0.42932385  0.48395050  1
  Ru4+  Ru166  1  0.74963007  0.72258628  0.49306857  1
  Ru4+  Ru167  1  0.74988980  0.41641416  0.75354144  1
  Ru4+  Ru168  1  0.74914781  0.01809097  0.79259062  1
  Ru4+  Ru169  1  0.25068517  0.76349864  0.25110000  1
  Ru4+  Ru170  1  0.24956240  0.57764563  0.75671080  1
  Ru4+  Ru171  1  0.75013155  0.08230877  0.23892402  1
  Ru4+  Ru172  1  0.24984089  0.90782953  0.25034300  1
  Ru4+  Ru173  1  0.24956024  0.39357025  -0.00306938  1
  Ru4+  Ru174  1  0.24976909  0.71959259  0.49890496  1
  Ru4+  Ru175  1  0.24992240  0.57222847  0.48676356  1
  Ru4+  Ru176  1  0.25045362  0.76288386  -0.00759375  1
  Ru4+  Ru177  1  0.74957936  0.73660561  0.01572203  1
  Ru4+  Ru178  1  0.25127103  0.26396291  0.73716782  1
  Ru4+  Ru179  1  0.74924629  0.06249537  -0.00503575  1
  O2-  O180  1  0.17014878  0.08133608  0.00268614  1
  O2-  O181  1  0.16934942  0.07989446  0.24771031  1
  O2-  O182  1  0.16586424  0.08581587  0.49692455  1
  O2-  O183  1  0.15769574  0.08084038  0.75058767  1
  O2-  O184  1  0.16715929  0.41457837  0.00185608  1
  O2-  O185  1  0.16089242  0.41491577  0.25022086  1
  O2-  O186  1  0.16784912  0.41776842  0.50183373  1
  O2-  O187  1  0.16978015  0.41582683  0.74741369  1
  O2-  O188  1  0.17032644  0.74898641  0.00150852  1
  O2-  O189  1  0.17105995  0.75001311  0.24619787  1
  O2-  O190  1  0.16789425  0.74566483  0.50384830  1
  O2-  O191  1  0.16893653  0.74623869  0.74812501  1
  O2-  O192  1  0.66705776  0.07967327  0.00026271  1
  O2-  O193  1  0.66576518  0.07936385  0.25067959  1
  O2-  O194  1  0.66374802  0.08124073  0.49587963  1
  O2-  O195  1  0.66941723  0.07722218  0.74899649  1
  O2-  O196  1  0.67002055  0.41356173  0.00145265  1
  O2-  O197  1  0.66263544  0.41923434  0.25305924  1
  O2-  O198  1  0.66631626  0.41543037  0.50228191  1
  O2-  O199  1  0.66464756  0.41460733  0.74820721  1
  O2-  O200  1  0.66843605  0.74643572  0.00276211  1
  O2-  O201  1  0.66588140  0.74702922  0.24964242  1
  O2-  O202  1  0.66534158  0.74554323  0.50277127  1
  O2-  O203  1  0.66384057  0.75170319  0.74829402  1
  O2-  O204  1  0.33712831  0.25295465  -0.00390893  1
  O2-  O205  1  0.33241157  0.24958292  0.24913952  1
  O2-  O206  1  0.33703286  0.25377808  0.50562945  1
  O2-  O207  1  0.33368850  0.25645146  0.75114795  1
  O2-  O208  1  0.33534724  0.59133859  0.00244884  1
  O2-  O209  1  0.33656463  0.58392468  0.25163012  1
  O2-  O210  1  0.33062559  0.58329842  0.49699395  1
  O2-  O211  1  0.33283855  0.58659157  0.75167831  1
  O2-  O212  1  0.33022960  0.91758039  0.00016256  1
  O2-  O213  1  0.32948235  0.91879643  0.25038747  1
  O2-  O214  1  0.33582460  0.91614397  0.50218971  1
  O2-  O215  1  0.33856338  0.91680319  0.74906305  1
  O2-  O216  1  0.83877289  0.25571124  -0.00024187  1
  O2-  O217  1  0.83945486  0.25283791  0.24873743  1
  O2-  O218  1  0.83455200  0.25417409  0.50269908  1
  O2-  O219  1  0.83524601  0.25671723  0.74898092  1
  O2-  O220  1  0.83646086  0.59113703  0.00702906  1
  O2-  O221  1  0.83558686  0.58601704  0.24540220  1
  O2-  O222  1  0.83663972  0.58690766  0.50185146  1
  O2-  O223  1  0.84199881  0.58933980  0.74701289  1
  O2-  O224  1  0.83464728  0.91727544  0.00017021  1
  O2-  O225  1  0.83215115  0.91505597  0.25117187  1
  O2-  O226  1  0.83624863  0.92024951  0.50014444  1
  O2-  O227  1  0.83170701  0.91921582  0.75411537  1
  O2-  O228  1  0.16583890  0.25093337  0.00227801  1
  O2-  O229  1  0.16199512  0.24873417  0.25021927  1
  O2-  O230  1  0.16307801  0.25009790  0.50274366  1
  O2-  O231  1  0.17056860  0.25488885  0.74910104  1
  O2-  O232  1  0.16395802  0.59235717  0.00327922  1
  O2-  O233  1  0.16647937  0.58691928  0.24535588  1
  O2-  O234  1  0.16726110  0.58015039  0.50710942  1
  O2-  O235  1  0.16687577  0.58696731  0.74815852  1
  O2-  O236  1  0.16734212  0.91749729  -0.00077112  1
  O2-  O237  1  0.16525729  0.91590417  0.24897316  1
  O2-  O238  1  0.15939659  0.91864277  0.49843637  1
  O2-  O239  1  0.16218513  0.91633956  0.75219456  1
  O2-  O240  1  0.66134397  0.25612459  -0.00142922  1
  O2-  O241  1  0.66162749  0.25207581  0.25241464  1
  O2-  O242  1  0.66303211  0.25394767  0.50277704  1
  O2-  O243  1  0.66387415  0.25569729  0.74818727  1
  O2-  O244  1  0.65890813  0.58960467  0.00277844  1
  O2-  O245  1  0.66751186  0.58319273  0.25039555  1
  O2-  O246  1  0.66306199  0.58742732  0.50038310  1
  O2-  O247  1  0.65770539  0.58615492  0.74660298  1
  O2-  O248  1  0.66429911  0.91631933  0.00288566  1
  O2-  O249  1  0.66420007  0.92102632  0.25206820  1
  O2-  O250  1  0.66451866  0.92579373  0.49899524  1
  O2-  O251  1  0.66865078  0.91684036  0.75562223  1
  O2-  O252  1  0.33215617  0.07906762  0.00197156  1
  O2-  O253  1  0.33101754  0.08032956  0.24860194  1
  O2-  O254  1  0.33853972  0.08265597  0.50056440  1
  O2-  O255  1  0.34064960  0.07809363  0.74778264  1
  O2-  O256  1  0.33250851  0.41592388  -0.00262668  1
  O2-  O257  1  0.33312285  0.42099998  0.25291966  1
  O2-  O258  1  0.33003742  0.41680190  0.50162667  1
  O2-  O259  1  0.33642727  0.41467599  0.74844166  1
  O2-  O260  1  0.33106863  0.74820626  0.00100401  1
  O2-  O261  1  0.33272677  0.74603519  0.25274763  1
  O2-  O262  1  0.33062733  0.74817118  0.49660187  1
  O2-  O263  1  0.33439091  0.74595002  0.75116434  1
  O2-  O264  1  0.82830414  0.08190037  -0.00279833  1
  O2-  O265  1  0.83545499  0.08012661  0.25021879  1
  O2-  O266  1  0.83482992  0.07992812  0.49805926  1
  O2-  O267  1  0.83372195  0.07301648  0.75021709  1
  O2-  O268  1  0.83043144  0.41426202  0.00169815  1
  O2-  O269  1  0.83784083  0.41365699  0.25085806  1
  O2-  O270  1  0.83478064  0.41300693  0.50303030  1
  O2-  O271  1  0.83237806  0.41335523  0.74751533  1
  O2-  O272  1  0.83285360  0.74693949  0.00603170  1
  O2-  O273  1  0.83605064  0.74675198  0.24715669  1
  O2-  O274  1  0.83283427  0.74455992  0.50362119  1
  O2-  O275  1  0.83899065  0.75146992  0.74657497  1
  O2-  O276  1  0.53262297  0.11705060  0.71713485  1
  O2-  O277  1  0.04524028  0.22925320  0.04418601  1
  O2-  O278  1  0.04721885  0.90648765  0.74634642  1
  O2-  O279  1  0.53045528  0.88001233  0.78640284  1
  O2-  O280  1  0.03167945  0.77119777  0.20747492  1
  O2-  O281  1  0.55104593  0.90813596  0.47830007  1
  O2-  O282  1  0.54578387  0.42264530  0.48516227  1
  O2-  O283  1  0.94879470  0.24641726  0.52043959  1
  O2-  O284  1  0.55362860  0.76174511  0.48590004  1
  O2-  O285  1  0.03875771  0.10545571  -0.01445675  1
  O2-  O286  1  0.45017614  0.24053625  0.26954070  1
  O2-  O287  1  0.55276728  0.43226510  0.52120169  1
  O2-  O288  1  0.54378364  0.09826203  0.48209400  1
  O2-  O289  1  0.46945650  0.47257549  0.22458290  1
  O2-  O290  1  0.44885055  0.43901261  0.01666207  1
  O2-  O291  1  0.95478586  0.43640945  1.00227509  1
  O2-  O292  1  0.05112904  0.90433592  0.26579710  1
  O2-  O293  1  0.95497470  0.09749000  0.95759591  1
  O2-  O294  1  0.03446227  0.12082140  0.21645689  1
  O2-  O295  1  0.05333385  0.42289464  0.72742721  1
  O2-  O296  1  0.94988896  0.24360088  0.48143185  1
  O2-  O297  1  0.04166101  0.55245379  0.55114329  1
  O2-  O298  1  0.55476508  0.42874680  0.26483258  1
  O2-  O299  1  0.45874299  0.89572676  0.55377642  1
  O2-  O300  1  0.05076302  0.24413108  0.48386858  1
  O2-  O301  1  0.03569422  0.11036210  0.46471972  1
  O2-  O302  1  0.94833993  0.76464485  0.73392293  1
  O2-  O303  1  0.94540092  0.42533830  0.02328726  1
  O2-  O304  1  0.05390896  0.42480985  0.02202015  1
  O2-  O305  1  0.96042761  0.23102853  0.76226912  1
  O2-  O306  1  0.54650555  0.76760845  0.24408755  1
  O2-  O307  1  0.54694047  0.57360456  0.48395205  1
  O2-  O308  1  0.96444246  0.78081908  0.53315929  1
  O2-  O309  1  0.54724236  0.09881935  0.24472415  1
  O2-  O310  1  0.44722898  0.76848724  0.01259419  1
  O2-  O311  1  0.45227883  0.41908749  0.98450082  1
  O2-  O312  1  0.96057369  0.77996229  0.04138199  1
  O2-  O313  1  0.04714196  0.57530463  0.75916465  1
  O2-  O314  1  0.02823540  0.78500285  0.24281210  1
  O2-  O315  1  0.94982013  0.56716403  0.47952015  1
  O2-  O316  1  0.94872523  0.23904858  0.01965314  1
  O2-  O317  1  0.45573194  0.77518986  0.45895665  1
  O2-  O318  1  0.96150724  0.57717584  0.04916924  1
  O2-  O319  1  0.04880082  0.10658977  0.96128016  1
  O2-  O320  1  0.05425729  0.24265558  0.69424749  1
  O2-  O321  1  0.55490105  0.76078175  0.04990939  1
  O2-  O322  1  0.54415975  0.43350342  0.73867212  1
  O2-  O323  1  0.95262880  0.75591550  0.77152043  1
  O2-  O324  1  0.93006369  0.72125902  0.43196334  1
  O2-  O325  1  0.55908665  0.73819979  0.45759022  1
  O2-  O326  1  0.07505495  0.06499238  0.29329722  1
  O2-  O327  1  0.06342220  0.73793972  0.78826985  1
  O2-  O328  1  0.57765555  0.93483780  0.69258491  1
  O2-  O329  1  0.06433983  0.73754627  0.03120427  1
  O2-  O330  1  0.44802068  0.24316150  0.27041092  1
  O2-  O331  1  0.92911165  0.60164116  0.92196401  1
  O2-  O332  1  0.94134298  0.23681385  0.78729279  1
  O2-  O333  1  0.05715816  0.41614890  0.72541475  1
  O2-  O334  1  0.43250637  0.39628701  0.33742337  1
  O2-  O335  1  0.58022305  0.07145846  0.81065214  1
  O2-  O336  1  0.56122708  0.59117901  0.17824925  1
  O2-  O337  1  0.06195905  0.40838561  0.42295362  1
  O2-  O338  1  0.43692712  0.08165808  0.02109801  1
  O2-  O339  1  0.94054009  0.93031729  0.82985477  1
  O2-  O340  1  0.92834138  0.40233891  0.97235433  1
  O2-  O341  1  0.06092000  0.59711812  0.96614555  1
  O2-  O342  1  0.06770119  0.61531071  0.43920305  1
  O2-  O343  1  0.93102069  0.91532161  0.68237323  1
  O2-  O344  1  0.08069818  0.72069558  0.31846983  1
  O2-  O345  1  0.43201740  0.59639895  0.22853111  1
  O2-  O346  1  0.56027111  0.73968645  0.23232581  1
  O2-  O347  1  0.06785525  0.06938189  0.02337926  1
  O2-  O348  1  0.43381210  0.08154128  0.22014367  1
  O2-  O349  1  0.42297965  0.93427052  0.44084232  1
  O2-  O350  1  0.56544585  0.73893867  0.72734902  1
  O2-  O351  1  0.56482159  0.41343574  0.96965287  1
  O2-  O352  1  0.93862606  0.92506058  0.47425567  1
  O2-  O353  1  0.93304081  0.73893545  0.94171860  1
  O2-  O354  1  0.57047637  0.72989162  0.90565614  1
  O2-  O355  1  0.55585956  0.75165187  0.05268555  1
  O2-  O356  1  0.42161652  0.39626596  0.18640896  1
  O2-  O357  1  0.43520096  0.91894160  0.23404654  1
  O2-  O358  1  0.43537003  0.58524483  0.53123142  1
  O2-  O359  1  0.08366589  0.24736213  0.83330847  1
  O2-  O360  1  0.07199766  0.04582867  0.56839219  1
  O2-  O361  1  0.91653556  0.06069126  0.05675499  1
  O2-  O362  1  0.42838055  0.72986018  0.57381965  1
  O2-  O363  1  0.43902192  0.59291432  0.97083964  1
  O2-  O364  1  0.93593428  0.40455379  0.77117192  1
  O2-  O365  1  0.05134223  0.24964875  0.68954124  1
  O2-  O366  1  0.06796608  0.26948284  0.96911439  1
  O2-  O367  1  0.06060868  0.40060308  0.56456859  1
  O2-  O368  1  0.56242507  0.59662629  0.31727577  1
  O2-  O369  1  0.05486507  0.57917081  0.27587325  1
  O2-  O370  1  0.93754983  0.92232287  0.27651307  1
  O2-  O371  1  0.43156240  0.40572500  0.52473826  1
  O2-  O372  1  0.24908267  0.33245859  0.42335085  1
  O2-  O373  1  0.25017067  0.67348268  0.90420013  1
  O2-  O374  1  0.25142573  -0.00869033  0.59962188  1
  O2-  O375  1  0.75059583  0.66973914  0.82734978  1
  O2-  O376  1  0.24963935  -0.00582229  0.41806397  1
  O2-  O377  1  0.24885118  -0.00124768  0.32506610  1
  O2-  O378  1  0.24864466  0.33373554  0.33354310  1
  O2-  O379  1  0.75065165  -0.00103654  0.14410409  1
  O2-  O380  1  0.75071318  0.66145285  0.92234800  1
  O2-  O381  1  0.74996356  0.01853490  0.56781074  1
  O2-  O382  1  0.24854273  0.33677374  0.17058370  1
  O2-  O383  1  0.24809787  -0.00381748  0.86138892  1
  O2-  O384  1  0.75111501  0.34466968  0.32999521  1
  O2-  O385  1  0.75081911  0.33269908  0.87564620  1
  O2-  O386  1  0.74983246  0.31868384  0.41663720  1
  O2-  O387  1  0.75215004  0.33761575  0.12623070  1
  O2-  O388  1  0.74988417  0.67211618  0.67714582  1
  O2-  O389  1  0.75027612  -0.02152442  0.68431854  1
  O2-  O390  1  0.74996709  0.64495639  0.58881787  1
  O2-  O391  1  0.24897754  0.31670654  0.08314493  1
  O2-  O392  1  0.74985012  0.33471543  0.63765660  1
  O2-  O393  1  0.74958455  0.63497012  0.40813474  1
  O2-  O394  1  0.74969613  0.00304377  0.33878853  1
  O2-  O395  1  0.75096594  0.65927306  0.31523047  1
  O2-  O396  1  0.24922315  0.49715900  0.13486972  1
  O2-  O397  1  0.74975505  0.83643787  0.87317951  1
  O2-  O398  1  0.25052130  0.18936615  0.64787116  1
  O2-  O399  1  0.74969578  0.16073021  0.88083249  1
  O2-  O400  1  0.74996835  0.15892814  0.15294361  1
  O2-  O401  1  0.75003947  0.81552663  0.62945818  1
  O2-  O402  1  0.24910946  0.50299183  0.37852216  1
  O2-  O403  1  0.74994955  0.84292212  0.30650512  1
  O2-  O404  1  0.25013679  0.82434345  0.84506251  1
  O2-  O405  1  0.74996277  0.48335949  0.87681872  1
  O2-  O406  1  0.75037391  0.18305679  0.29043083  1
  O2-  O407  1  0.25005178  0.15843757  0.16587424  1
  O2-  O408  1  0.25043993  0.15536235  0.38012950  1
  O2-  O409  1  0.75068916  0.49600101  0.14448988  1
  O2-  O410  1  0.74878960  0.18047047  0.61818417  1
  O2-  O411  1  0.75045356  0.83349581  0.95590779  1
  O2-  O412  1  0.75044248  0.83205971  0.08698426  1
  O2-  O413  1  0.75050910  0.81777260  0.39146580  1
  O2-  O414  1  0.24997437  0.17984181  0.89749719  1
  O2-  O415  1  0.25024939  0.82214818  0.65688175  1
  O2-  O416  1  0.74981845  0.15922252  0.37177108  1
  O2-  O417  1  0.25024319  0.50497991  0.83970637  1
  O2-  O418  1  0.75005016  0.84062833  0.17410888  1
  O2-  O419  1  0.25061087  0.83068568  0.14853338  1
  O2-  O420  1  0.52386242  0.66032792  0.62151315  1
  O2-  O421  1  0.54959703  0.32508312  0.12108632  1
  O2-  O422  1  0.48148162  0.00769044  0.36339653  1
  O2-  O423  1  0.55016453  -0.00235227  0.11778416  1
  O2-  O424  1  0.47529162  0.67341537  0.86273771  1
  O2-  O425  1  0.97049269  0.66064279  0.62742443  1
  O2-  O426  1  0.51904901  0.01074266  0.61629311  1
  O2-  O427  1  0.46273354  -0.01246701  0.11660951  1
  O2-  O428  1  0.03061390  -0.01503052  0.13135523  1
  O2-  O429  1  0.47533809  0.32144817  0.63184307  1
  O2-  O430  1  0.45268666  0.00521447  0.86804339  1
  O2-  O431  1  0.97139641  -0.01068396  0.13750899  1
  O2-  O432  1  0.04026821  -0.02196254  0.38966583  1
  O2-  O433  1  0.97591343  0.01542707  0.61905229  1
  O2-  O434  1  0.96535191  0.31190947  0.89100960  1
  O2-  O435  1  0.54397649  0.31343783  0.86592266  1
  O2-  O436  1  0.54366521  -0.01125917  0.90445545  1
  O2-  O437  1  0.03803741  0.36591562  0.87249750  1
  O2-  O438  1  0.47201062  0.67042721  0.12085245  1
  O2-  O439  1  0.45286133  0.32660674  0.86791934  1
  O2-  O440  1  0.96115856  0.02889053  0.37277013  1
  O2-  O441  1  0.46999743  0.66620955  0.37040288  1
  O2-  O442  1  0.45821854  0.30819551  0.09895134  1
  O2-  O443  1  0.52823229  0.32404021  0.37783798  1
