# generated using pymatgen
data_La7(Ru4O11)2
_symmetry_space_group_name_H-M   'P 1'
_cell_length_a   23.99550698
_cell_length_b   16.83585260
_cell_length_c   15.43058541
_cell_angle_alpha   89.99692672
_cell_angle_beta   90.00281805
_cell_angle_gamma   89.99657162
_symmetry_Int_Tables_number   1
_chemical_formula_structural   La7(Ru4O11)2
_chemical_formula_sum   'La84 Ru96 O264'
_cell_volume   6233.72221806
_cell_formula_units_Z   12
loop_
 _symmetry_equiv_pos_site_id
 _symmetry_equiv_pos_as_xyz
  1  'x, y, z'
loop_
 _atom_type_symbol
 _atom_type_oxidation_number
  La3+  3.0
  Ru4+  4.0
  O2-  -2.0
loop_
 _atom_site_type_symbol
 _atom_site_label
 _atom_site_symmetry_multiplicity
 _atom_site_fract_x
 _atom_site_fract_y
 _atom_site_fract_z
 _atom_site_occupancy
  La3+  La0  1  0.14038682  0.00332377  0.12529448  1
  La3+  La1  1  0.14311316  -0.00100175  0.36896810  1
  La3+  La2  1  0.14925688  0.00586150  0.62333724  1
  La3+  La3  1  0.13549246  0.00557730  0.87750784  1
  La3+  La4  1  0.14092858  0.33805993  0.12885578  1
  La3+  La5  1  0.13643923  0.34336803  0.37355434  1
  La3+  La6  1  0.13425090  0.33316781  0.62668489  1
  La3+  La7  1  0.13521226  0.32903677  0.86907361  1
  La3+  La8  1  0.14182702  0.66547276  0.12536099  1
  La3+  La9  1  0.13391928  0.66713825  0.37121701  1
  La3+  La10  1  0.13051519  0.66904499  0.62715915  1
  La3+  La11  1  0.12872154  0.66702685  0.86803620  1
  La3+  La12  1  0.64565667  0.00100663  0.12015725  1
  La3+  La13  1  0.63186524  -0.00100736  0.37546123  1
  La3+  La14  1  0.63708462  -0.00565355  0.62847189  1
  La3+  La15  1  0.63598322  -0.00327648  0.87244140  1
  La3+  La16  1  0.64784335  0.33810277  0.12489849  1
  La3+  La17  1  0.63330538  0.33631427  0.37502105  1
  La3+  La18  1  0.64656784  0.33292461  0.63265742  1
  La3+  La19  1  0.65238957  0.33826890  0.87050815  1
  La3+  La20  1  0.64316780  0.66606838  0.12359678  1
  La3+  La21  1  0.63777915  0.67118679  0.37674326  1
  La3+  La22  1  0.65042943  0.67223496  0.62546800  1
  La3+  La23  1  0.63797143  0.66731916  0.87517103  1
  La3+  La24  1  0.34263155  -0.00892305  0.13228032  1
  La3+  La25  1  0.35696568  -0.00845733  0.37304738  1
  La3+  La26  1  0.36890684  -0.00094526  0.62251386  1
  La3+  La27  1  0.36341164  0.00088733  0.87400121  1
  La3+  La28  1  0.36564299  0.33272504  0.12984041  1
  La3+  La29  1  0.35467717  0.33094927  0.36725549  1
  La3+  La30  1  0.36902486  0.33641347  0.62574144  1
  La3+  La31  1  0.35888482  0.33229225  0.87392767  1
  La3+  La32  1  0.35931877  0.66375128  0.12330577  1
  La3+  La33  1  0.36770349  0.66748428  0.37005543  1
  La3+  La34  1  0.36832604  0.66982074  0.62255541  1
  La3+  La35  1  0.35804304  0.66161477  0.87486559  1
  La3+  La36  1  0.86322303  0.00443310  0.12621332  1
  La3+  La37  1  0.85918878  0.00215010  0.37489518  1
  La3+  La38  1  0.87041626  -0.00364238  0.63116033  1
  La3+  La39  1  0.85965237  -0.00332363  0.86810327  1
  La3+  La40  1  0.85300369  0.33722608  0.12268274  1
  La3+  La41  1  0.86263478  0.33415040  0.37997201  1
  La3+  La42  1  0.84723608  0.33199204  0.63418172  1
  La3+  La43  1  0.84390875  0.33614183  0.87147070  1
  La3+  La44  1  0.85766833  0.66499353  0.12538006  1
  La3+  La45  1  0.86190726  0.66773391  0.37745996  1
  La3+  La46  1  0.85283748  0.67146234  0.62602425  1
  La3+  La47  1  0.85784142  0.66973078  0.87794741  1
  La3+  La48  1  0.50518083  0.84817484  0.14457988  1
  La3+  La49  1  0.00337372  0.48688188  0.60286808  1
  La3+  La50  1  0.49729105  0.17026751  0.88039972  1
  La3+  La51  1  0.00323039  0.83528121  0.87290343  1
  La3+  La52  1  0.49850708  0.50377881  0.37306081  1
  La3+  La53  1  0.50099886  0.16252369  0.86099480  1
  La3+  La54  1  0.49964742  0.16667207  0.61586684  1
  La3+  La55  1  0.50245016  0.49380639  0.11813530  1
  La3+  La56  1  0.00825980  0.16697806  0.88309247  1
  La3+  La57  1  0.51041161  0.51117784  0.63484075  1
  La3+  La58  1  0.00357994  0.16031711  0.13977250  1
  La3+  La59  1  -0.00661147  0.16313486  0.37518297  1
  La3+  La60  1  0.49523353  0.83383330  0.89395580  1
  La3+  La61  1  0.49431632  0.50284421  0.85877659  1
  La3+  La62  1  0.00426243  0.48626303  0.62018524  1
  La3+  La63  1  -0.00445188  0.15712532  0.12155512  1
  La3+  La64  1  0.00000702  0.82848476  0.12651584  1
  La3+  La65  1  -0.00328127  0.83641660  0.39625323  1
  La3+  La66  1  0.49000133  0.83034837  0.39137495  1
  La3+  La67  1  -0.00281285  0.49217591  0.11497794  1
  La3+  La68  1  0.50650797  0.16914559  0.12077255  1
  La3+  La69  1  0.00144553  0.17178864  0.62542081  1
  La3+  La70  1  0.00131969  0.16159232  0.86412222  1
  La3+  La71  1  0.00238420  0.82796163  0.37769893  1
  La3+  La72  1  0.74979643  0.79505484  0.23032481  1
  La3+  La73  1  0.74937919  0.20403020  0.03723515  1
  La3+  La74  1  0.24903281  0.76562554  0.47725729  1
  La3+  La75  1  0.75048174  0.45044028  0.28732711  1
  La3+  La76  1  0.25241372  0.55486290  0.52281796  1
  La3+  La77  1  0.24862737  0.46507798  0.78857998  1
  La3+  La78  1  0.74967036  0.44542229  0.52585722  1
  La3+  La79  1  0.74860425  0.20936654  0.46772024  1
  La3+  La80  1  0.25047854  0.88523150  0.73982198  1
  La3+  La81  1  0.74913474  0.82949954  0.78589831  1
  La3+  La82  1  0.24914029  0.23220258  0.48080722  1
  La3+  La83  1  0.24754398  0.80890629  0.05908957  1
  Ru4+  Ru84  1  -0.00292530  -0.01185414  -0.00204345  1
  Ru4+  Ru85  1  0.00336108  -0.00740246  0.25370622  1
  Ru4+  Ru86  1  -0.00090431  0.00501860  0.50112044  1
  Ru4+  Ru87  1  0.00791054  -0.00977942  0.74233882  1
  Ru4+  Ru88  1  -0.00443974  0.35531122  -0.00502162  1
  Ru4+  Ru89  1  0.00091929  0.34479694  0.24495166  1
  Ru4+  Ru90  1  -0.00485209  0.32407702  0.50314781  1
  Ru4+  Ru91  1  -0.00523141  0.33814216  0.75124264  1
  Ru4+  Ru92  1  0.00353172  0.66847429  0.00136752  1
  Ru4+  Ru93  1  -0.00949288  0.65501657  0.24482240  1
  Ru4+  Ru94  1  -0.00093516  0.66448893  0.50125821  1
  Ru4+  Ru95  1  -0.00157599  0.65572176  0.74947170  1
  Ru4+  Ru96  1  0.49997751  -0.00241813  -0.00281557  1
  Ru4+  Ru97  1  0.49197494  0.01663999  0.25958484  1
  Ru4+  Ru98  1  0.50322388  0.00600380  0.49255633  1
  Ru4+  Ru99  1  0.49945749  -0.00467632  0.74270301  1
  Ru4+  Ru100  1  0.51122993  0.34115236  0.01228784  1
  Ru4+  Ru101  1  0.49498077  0.32802585  0.24568743  1
  Ru4+  Ru102  1  0.49863585  0.33532426  0.50445889  1
  Ru4+  Ru103  1  0.49525500  0.32611066  0.74536202  1
  Ru4+  Ru104  1  0.49039405  0.66657744  -0.02377905  1
  Ru4+  Ru105  1  0.50261520  0.66622392  0.25082063  1
  Ru4+  Ru106  1  0.49769350  0.66867710  0.50429349  1
  Ru4+  Ru107  1  0.50977279  0.68323592  0.75916510  1
  Ru4+  Ru108  1  0.12052895  0.17589335  0.00232096  1
  Ru4+  Ru109  1  0.11505498  0.16646561  0.25780239  1
  Ru4+  Ru110  1  0.10639535  0.16958419  0.49910317  1
  Ru4+  Ru111  1  0.11922385  0.16406305  0.74765228  1
  Ru4+  Ru112  1  0.11136077  0.50290301  0.00246441  1
  Ru4+  Ru113  1  0.11407110  0.49325033  0.25329428  1
  Ru4+  Ru114  1  0.11421626  0.50598707  0.49521586  1
  Ru4+  Ru115  1  0.10831397  0.49811885  0.75489476  1
  Ru4+  Ru116  1  0.11232871  0.83016200  -0.00087375  1
  Ru4+  Ru117  1  0.11956013  0.82751439  0.24498777  1
  Ru4+  Ru118  1  0.11218736  0.83408048  0.49867877  1
  Ru4+  Ru119  1  0.10247291  0.83477149  0.74664982  1
  Ru4+  Ru120  1  0.60922369  0.17306585  -0.00123126  1
  Ru4+  Ru121  1  0.61369192  0.16749474  0.24545531  1
  Ru4+  Ru122  1  0.60735537  0.16794676  0.49828699  1
  Ru4+  Ru123  1  0.61336310  0.16601687  0.75263220  1
  Ru4+  Ru124  1  0.60718548  0.48791333  -0.00384672  1
  Ru4+  Ru125  1  0.61390868  0.50511630  0.25217624  1
  Ru4+  Ru126  1  0.60758645  0.49872750  0.49893747  1
  Ru4+  Ru127  1  0.61693236  0.50436543  0.74872673  1
  Ru4+  Ru128  1  0.61529195  0.83609000  -0.00158146  1
  Ru4+  Ru129  1  0.61028921  0.83619642  0.24048587  1
  Ru4+  Ru130  1  0.60893017  0.83386365  0.50497868  1
  Ru4+  Ru131  1  0.60873544  0.83146008  0.73772340  1
  Ru4+  Ru132  1  0.38967416  0.16354188  -0.00250471  1
  Ru4+  Ru133  1  0.39560645  0.14905751  0.25377946  1
  Ru4+  Ru134  1  0.39264291  0.16617373  0.50277819  1
  Ru4+  Ru135  1  0.39679546  0.16891473  0.75255553  1
  Ru4+  Ru136  1  0.38728537  0.50529404  0.00675850  1
  Ru4+  Ru137  1  0.38579937  0.49770377  0.24938639  1
  Ru4+  Ru138  1  0.39504197  0.49157799  0.49623414  1
  Ru4+  Ru139  1  0.39060790  0.50068349  0.74851510  1
  Ru4+  Ru140  1  0.39192687  0.82675676  0.00182119  1
  Ru4+  Ru141  1  0.38483415  0.83042506  0.24833125  1
  Ru4+  Ru142  1  0.38642638  0.82844712  0.50095459  1
  Ru4+  Ru143  1  0.39257566  0.83414216  0.74746677  1
  Ru4+  Ru144  1  0.88609031  0.16272804  -0.00221686  1
  Ru4+  Ru145  1  0.88110246  0.17328033  0.25306043  1
  Ru4+  Ru146  1  0.88829808  0.16599633  0.49745856  1
  Ru4+  Ru147  1  0.88372494  0.16059809  0.74579228  1
  Ru4+  Ru148  1  0.89248930  0.48771548  -0.00604321  1
  Ru4+  Ru149  1  0.89459096  0.50469399  0.25627131  1
  Ru4+  Ru150  1  0.89135683  0.50217432  0.49890178  1
  Ru4+  Ru151  1  0.88959558  0.50369602  0.75777639  1
  Ru4+  Ru152  1  0.88654488  0.83412755  0.00293369  1
  Ru4+  Ru153  1  0.88682564  0.83077631  0.24549405  1
  Ru4+  Ru154  1  0.88639138  0.83329030  0.50784664  1
  Ru4+  Ru155  1  0.88306840  0.82700968  0.74958807  1
  Ru4+  Ru156  1  0.25093030  0.94781694  -0.01430407  1
  Ru4+  Ru157  1  0.25050466  0.42816211  0.01009947  1
  Ru4+  Ru158  1  0.25158141  0.07731055  0.47923345  1
  Ru4+  Ru159  1  0.25007388  0.67902956  -0.02029465  1
  Ru4+  Ru160  1  0.25164252  0.24727466  0.76033490  1
  Ru4+  Ru161  1  0.74956184  0.06273348  -0.01232307  1
  Ru4+  Ru162  1  0.74991756  0.10697748  0.23276532  1
  Ru4+  Ru163  1  0.74964485  0.89827173  0.48739126  1
  Ru4+  Ru164  1  0.25120198  0.91505863  0.47589047  1
  Ru4+  Ru165  1  0.24847038  0.40535956  0.49396166  1
  Ru4+  Ru166  1  0.25227979  0.23890339  0.02283178  1
  Ru4+  Ru167  1  0.74884902  0.60298687  0.48859724  1
  Ru4+  Ru168  1  0.74952993  0.06746008  0.53892125  1
  Ru4+  Ru169  1  0.75048808  0.56918154  0.75026135  1
  Ru4+  Ru170  1  0.25085474  0.59670177  0.73090687  1
  Ru4+  Ru171  1  0.74935582  0.57565276  -0.01222200  1
  Ru4+  Ru172  1  0.24972888  0.73598735  0.72525376  1
  Ru4+  Ru173  1  0.25379580  0.09122778  0.78064322  1
  Ru4+  Ru174  1  0.25144038  0.22747210  0.25539934  1
  Ru4+  Ru175  1  0.74988945  0.59397945  0.26122117  1
  Ru4+  Ru176  1  0.74906554  0.24291917  0.25536685  1
  Ru4+  Ru177  1  0.24912878  0.57465606  0.23301281  1
  Ru4+  Ru178  1  0.25102750  0.10029162  -0.00254765  1
  Ru4+  Ru179  1  0.75021152  0.93389118  0.24112824  1
  O2-  O180  1  0.16911197  0.08546915  0.00340463  1
  O2-  O181  1  0.16383138  0.08304954  0.24939908  1
  O2-  O182  1  0.16447204  0.08210918  0.49063784  1
  O2-  O183  1  0.17049147  0.08179585  0.75683335  1
  O2-  O184  1  0.16465297  0.41595056  0.00101618  1
  O2-  O185  1  0.16810029  0.41419653  0.24782488  1
  O2-  O186  1  0.16603303  0.41579879  0.50196407  1
  O2-  O187  1  0.15908447  0.41016689  0.74975837  1
  O2-  O188  1  0.16893080  0.74116814  -0.00406372  1
  O2-  O189  1  0.16809881  0.74211280  0.25393323  1
  O2-  O190  1  0.15899325  0.74191262  0.50444083  1
  O2-  O191  1  0.16398903  0.74913911  0.73905347  1
  O2-  O192  1  0.66639614  0.07947406  -0.00721247  1
  O2-  O193  1  0.67035641  0.08466805  0.25079340  1
  O2-  O194  1  0.66346020  0.08038227  0.50096704  1
  O2-  O195  1  0.66080034  0.07692242  0.74922587  1
  O2-  O196  1  0.66695020  0.41551276  -0.00222868  1
  O2-  O197  1  0.66384317  0.41229391  0.25281412  1
  O2-  O198  1  0.65841321  0.41202897  0.49788874  1
  O2-  O199  1  0.66420113  0.41934401  0.74899253  1
  O2-  O200  1  0.66164663  0.74724282  -0.00044034  1
  O2-  O201  1  0.66231095  0.74734422  0.25285021  1
  O2-  O202  1  0.66136098  0.74883343  0.49613364  1
  O2-  O203  1  0.66793081  0.75214353  0.76148981  1
  O2-  O204  1  0.33319469  0.25224336  0.00466776  1
  O2-  O205  1  0.33671464  0.24476490  0.24629409  1
  O2-  O206  1  0.34521993  0.25772078  0.50760711  1
  O2-  O207  1  0.33660385  0.25486304  0.74973240  1
  O2-  O208  1  0.33096318  0.58647604  -0.00071877  1
  O2-  O209  1  0.32997235  0.58640147  0.24870660  1
  O2-  O210  1  0.34633670  0.58625794  0.49566049  1
  O2-  O211  1  0.33451755  0.58447528  0.74529165  1
  O2-  O212  1  0.33704379  0.91970969  -0.00520208  1
  O2-  O213  1  0.33618469  0.91365389  0.25442203  1
  O2-  O214  1  0.33558793  0.91662647  0.50492378  1
  O2-  O215  1  0.34045387  0.92431849  0.75581295  1
  O2-  O216  1  0.83658340  0.25415040  -0.00208510  1
  O2-  O217  1  0.83079423  0.25562541  0.25747877  1
  O2-  O218  1  0.83580980  0.25393429  0.50023168  1
  O2-  O219  1  0.83769958  0.24921318  0.75170647  1
  O2-  O220  1  0.83810723  0.58206984  -0.00365404  1
  O2-  O221  1  0.83252403  0.58516764  0.25474603  1
  O2-  O222  1  0.82990989  0.58520273  0.50128446  1
  O2-  O223  1  0.83327528  0.58466358  0.75049929  1
  O2-  O224  1  0.83749904  0.91881631  0.00061858  1
  O2-  O225  1  0.83490693  0.92404995  0.24658033  1
  O2-  O226  1  0.83269988  0.91961996  0.49745954  1
  O2-  O227  1  0.82671901  0.91766545  0.75259365  1
  O2-  O228  1  0.17100761  0.25881789  0.00129095  1
  O2-  O229  1  0.16862656  0.25444868  0.25353457  1
  O2-  O230  1  0.15507951  0.25878074  0.50194277  1
  O2-  O231  1  0.16724656  0.25411548  0.74937384  1
  O2-  O232  1  0.16327128  0.58617781  -0.00075711  1
  O2-  O233  1  0.16384048  0.58560044  0.24821678  1
  O2-  O234  1  0.16232696  0.59456778  0.49390603  1
  O2-  O235  1  0.16993477  0.58690024  0.74758162  1
  O2-  O236  1  0.16670864  0.92379981  0.00340215  1
  O2-  O237  1  0.16066574  0.92045858  0.25036357  1
  O2-  O238  1  0.16790539  0.91659080  0.49802040  1
  O2-  O239  1  0.15962541  0.92097442  0.74819537  1
  O2-  O240  1  0.66357992  0.25418389  -0.00236220  1
  O2-  O241  1  0.66692725  0.25147544  0.25635740  1
  O2-  O242  1  0.66390447  0.25370077  0.49877783  1
  O2-  O243  1  0.66337164  0.24893503  0.74769904  1
  O2-  O244  1  0.66210080  0.58069535  -0.00287113  1
  O2-  O245  1  0.66750472  0.58508294  0.25258823  1
  O2-  O246  1  0.66675805  0.58543046  0.49665454  1
  O2-  O247  1  0.66770385  0.58733122  0.75432747  1
  O2-  O248  1  0.67119204  0.91575713  -0.00582661  1
  O2-  O249  1  0.66752932  0.92262766  0.25331708  1
  O2-  O250  1  0.66678660  0.91662177  0.49812827  1
  O2-  O251  1  0.67055704  0.91640149  0.75793205  1
  O2-  O252  1  0.33356694  0.08472329  -0.00363769  1
  O2-  O253  1  0.33126105  0.08646490  0.25920419  1
  O2-  O254  1  0.33885312  0.08111356  0.49885643  1
  O2-  O255  1  0.33784028  0.08225270  0.75659953  1
  O2-  O256  1  0.33720040  0.41486808  0.00234938  1
  O2-  O257  1  0.33711747  0.41289315  0.24434798  1
  O2-  O258  1  0.32757093  0.41555582  0.51235110  1
  O2-  O259  1  0.33904711  0.41059117  0.74878160  1
  O2-  O260  1  0.32878661  0.74237279  0.00260085  1
  O2-  O261  1  0.33628180  0.74283744  0.25130208  1
  O2-  O262  1  0.33781779  0.73893403  0.50305498  1
  O2-  O263  1  0.33648413  0.74598914  0.74300948  1
  O2-  O264  1  0.83244936  0.07704941  -0.00085293  1
  O2-  O265  1  0.83149957  0.08402292  0.24690061  1
  O2-  O266  1  0.83274412  0.07997779  0.50391010  1
  O2-  O267  1  0.83260482  0.07737915  0.74804479  1
  O2-  O268  1  0.83192686  0.42098704  -0.00515022  1
  O2-  O269  1  0.84026281  0.41386197  0.25437639  1
  O2-  O270  1  0.84225741  0.41248088  0.49937362  1
  O2-  O271  1  0.83650543  0.42359785  0.75152834  1
  O2-  O272  1  0.83456698  0.75086167  0.00115143  1
  O2-  O273  1  0.83485149  0.74446956  0.25239135  1
  O2-  O274  1  0.83851335  0.74881731  0.49984582  1
  O2-  O275  1  0.83040113  0.74727816  0.75451860  1
  O2-  O276  1  0.94936373  0.91332962  0.73354247  1
  O2-  O277  1  0.54830254  0.76567553  0.49798337  1
  O2-  O278  1  0.54692127  0.79282940  0.79157553  1
  O2-  O279  1  0.55381667  0.43306200  0.74188981  1
  O2-  O280  1  0.45098224  0.42291504  0.73425648  1
  O2-  O281  1  0.54962158  0.87010540  0.30030672  1
  O2-  O282  1  0.05158967  0.08580102  0.27480469  1
  O2-  O283  1  0.04541087  0.09573306  0.48459469  1
  O2-  O284  1  0.95154354  0.56125384  0.69723986  1
  O2-  O285  1  0.54884496  0.57585863  0.75935040  1
  O2-  O286  1  0.94750755  0.91327895  0.51846337  1
  O2-  O287  1  0.05822416  0.41943877  0.51455501  1
  O2-  O288  1  0.94157540  0.90499257  0.76905966  1
  O2-  O289  1  0.04729584  0.57109018  0.01219023  1
  O2-  O290  1  0.95235538  0.22998258  0.73518291  1
  O2-  O291  1  0.54876466  0.43232450  0.25727743  1
  O2-  O292  1  0.54193089  0.57077269  0.99940780  1
  O2-  O293  1  0.45575177  0.23969243  0.00054606  1
  O2-  O294  1  0.95300008  0.76548619  0.98776611  1
  O2-  O295  1  0.94817307  0.09596736  0.24477199  1
  O2-  O296  1  0.54953177  0.41604609  0.94162826  1
  O2-  O297  1  0.44824304  0.90745184  0.00252726  1
  O2-  O298  1  0.95530780  0.23704478  0.00411984  1
  O2-  O299  1  0.46877361  0.44844888  0.53292617  1
  O2-  O300  1  0.05072493  0.89609972  0.24606488  1
  O2-  O301  1  0.44389342  0.90862646  0.49525698  1
  O2-  O302  1  0.04914735  0.57238000  0.50172180  1
  O2-  O303  1  0.54377000  0.10009850  0.98887195  1
  O2-  O304  1  0.45025742  0.76426833  0.76056868  1
  O2-  O305  1  0.95468140  0.43309528  0.26397486  1
  O2-  O306  1  0.97096158  0.46619005  0.95622614  1
  O2-  O307  1  0.05274283  0.23667808  0.76251352  1
  O2-  O308  1  0.44311700  0.25058171  0.23473426  1
  O2-  O309  1  0.47317821  0.75851145  0.05092952  1
  O2-  O310  1  0.54396744  0.09911789  0.50047599  1
  O2-  O311  1  0.47561227  0.12845426  0.24244293  1
  O2-  O312  1  0.55874786  0.10803650  0.30640509  1
  O2-  O313  1  0.94851975  0.90604943  0.25863032  1
  O2-  O314  1  0.04480990  0.24162186  0.26862525  1
  O2-  O315  1  0.54657776  0.57355212  0.50607325  1
  O2-  O316  1  0.44789136  0.91347731  0.24765491  1
  O2-  O317  1  0.04959299  0.74312620  0.78292933  1
  O2-  O318  1  0.04400388  0.10837369  0.00916825  1
  O2-  O319  1  0.03522845  0.85820612  0.70309928  1
  O2-  O320  1  0.95374898  0.75985110  0.51615694  1
  O2-  O321  1  0.45084175  0.75634952  0.23981445  1
  O2-  O322  1  0.03806843  0.42728966  0.49214324  1
  O2-  O323  1  0.05068660  0.57239201  0.77562292  1
  O2-  O324  1  0.93908701  0.25538803  0.45476692  1
  O2-  O325  1  0.06056049  0.58345274  0.78189484  1
  O2-  O326  1  0.06173527  0.97704813  0.66034435  1
  O2-  O327  1  0.94500162  0.92323987  0.52148223  1
  O2-  O328  1  0.06335555  0.73909560  0.96904769  1
  O2-  O329  1  0.93826973  0.07959935  0.53599692  1
  O2-  O330  1  0.56033314  0.40078435  0.26336693  1
  O2-  O331  1  0.06163163  0.09221475  0.03123981  1
  O2-  O332  1  0.56337387  0.73503536  0.20654011  1
  O2-  O333  1  0.57719318  0.93027643  0.17422481  1
  O2-  O334  1  0.93439049  0.58647856  0.31706351  1
  O2-  O335  1  0.43511840  0.73877841  0.47859618  1
  O2-  O336  1  0.06363413  0.73659700  0.46548258  1
  O2-  O337  1  0.56593042  0.93532228  0.53104984  1
  O2-  O338  1  0.93370375  0.62175016  0.82204457  1
  O2-  O339  1  0.06457615  0.40300087  0.28696829  1
  O2-  O340  1  0.57051575  0.71672297  0.67987957  1
  O2-  O341  1  0.05902625  0.73492966  0.21876417  1
  O2-  O342  1  0.93921257  0.41296908  0.72698071  1
  O2-  O343  1  0.93638272  0.07943214  0.21499032  1
  O2-  O344  1  0.43777439  0.59483432  0.04349368  1
  O2-  O345  1  0.92494835  0.39337512  0.05344583  1
  O2-  O346  1  0.06115913  0.91107897  0.02944596  1
  O2-  O347  1  0.56419085  0.92456896  0.97500648  1
  O2-  O348  1  0.92991521  0.57499002  0.17203185  1
  O2-  O349  1  0.06191040  0.25914742  0.78962154  1
  O2-  O350  1  0.06007476  0.08420224  0.76963005  1
  O2-  O351  1  0.55605887  0.25579701  0.78714854  1
  O2-  O352  1  0.55723454  0.58201400  0.27613645  1
  O2-  O353  1  0.41476070  0.39540694  0.44244442  1
  O2-  O354  1  0.43951544  0.93146952  0.46560658  1
  O2-  O355  1  0.55601353  0.41616875  0.93998540  1
  O2-  O356  1  0.07384754  0.91352001  0.82877625  1
  O2-  O357  1  0.93625043  0.59369312  0.48824503  1
  O2-  O358  1  0.06306581  0.92991836  0.46076228  1
  O2-  O359  1  0.56053055  0.39923163  0.73317589  1
  O2-  O360  1  0.06065109  0.73801487  0.79271427  1
  O2-  O361  1  0.94513474  0.07370417  0.71423217  1
  O2-  O362  1  0.43216780  0.05644323  0.33872058  1
  O2-  O363  1  0.56603677  0.93330236  0.71834856  1
  O2-  O364  1  0.55934511  0.25661707  0.52418008  1
  O2-  O365  1  0.42283433  0.74185768  0.93290487  1
  O2-  O366  1  0.43774564  0.58638490  0.27171847  1
  O2-  O367  1  0.41191065  0.06845917  0.16927309  1
  O2-  O368  1  0.93742182  0.74528769  0.22152298  1
  O2-  O369  1  0.56660774  0.39915077  0.09593570  1
  O2-  O370  1  0.43715046  0.92906993  0.72883010  1
  O2-  O371  1  0.56861307  0.07608246  0.18507226  1
  O2-  O372  1  0.24782628  0.00053071  0.38259563  1
  O2-  O373  1  0.25133473  0.01426573  0.69980456  1
  O2-  O374  1  0.25072627  0.66728351  0.61388530  1
  O2-  O375  1  0.25082331  -0.00939437  0.56687196  1
  O2-  O376  1  0.75215082  0.00008758  0.10359619  1
  O2-  O377  1  0.75004713  0.66760139  0.04320513  1
  O2-  O378  1  0.25125725  0.33114424  0.95227727  1
  O2-  O379  1  0.74989900  -0.00011351  0.44102756  1
  O2-  O380  1  0.75045298  0.32937013  0.86366394  1
  O2-  O381  1  0.74837365  0.34059923  0.62093386  1
  O2-  O382  1  0.24956043  0.33651744  0.38354735  1
  O2-  O383  1  0.24795717  0.02141608  0.08180466  1
  O2-  O384  1  0.75007165  0.33639938  0.17912739  1
  O2-  O385  1  0.25038174  0.33990722  0.81556933  1
  O2-  O386  1  0.75043760  0.33286592  0.08575926  1
  O2-  O387  1  0.24921501  0.66481402  0.11079081  1
  O2-  O388  1  0.75106095  0.67574979  0.57015697  1
  O2-  O389  1  0.75169800  0.02329496  0.31293011  1
  O2-  O390  1  0.75049163  0.34289494  0.39487455  1
  O2-  O391  1  0.24766591  -0.00203192  0.17729125  1
  O2-  O392  1  0.74924360  0.67450229  0.17921372  1
  O2-  O393  1  0.74921677  0.66506799  0.37771809  1
  O2-  O394  1  0.75017532  0.66874045  0.69890805  1
  O2-  O395  1  0.25182143  0.01865135  0.87987573  1
  O2-  O396  1  0.25158067  0.16550980  0.69127658  1
  O2-  O397  1  0.24956242  0.50384338  0.15126068  1
  O2-  O398  1  0.25017559  0.82784317  0.60709180  1
  O2-  O399  1  0.25159376  0.84411064  0.17834545  1
  O2-  O400  1  0.24941042  0.16210154  0.35734067  1
  O2-  O401  1  0.74962789  0.50862323  0.65439196  1
  O2-  O402  1  0.25073272  0.86409964  0.91383857  1
  O2-  O403  1  0.75068542  0.51180565  0.16047460  1
  O2-  O404  1  0.75008838  0.51848053  0.85434692  1
  O2-  O405  1  0.24984538  0.76863801  0.83734727  1
  O2-  O406  1  0.75029346  0.14743802  0.90540209  1
  O2-  O407  1  0.25009076  0.50497904  0.92890700  1
  O2-  O408  1  0.74977471  0.15339479  0.60824029  1
  O2-  O409  1  0.24940401  0.13805244  0.57484549  1
  O2-  O410  1  0.25014123  0.49159518  0.64527192  1
  O2-  O411  1  0.25060469  0.48536364  0.31041049  1
  O2-  O412  1  0.75018392  0.49641468  0.06280580  1
  O2-  O413  1  0.25008897  0.85006473  0.37130078  1
  O2-  O414  1  0.24973231  0.18265982  0.14653190  1
  O2-  O415  1  0.75002641  0.81524400  0.56290987  1
  O2-  O416  1  0.74912610  0.84441061  0.64665114  1
  O2-  O417  1  0.74986781  0.16207419  0.82108498  1
  O2-  O418  1  0.25017538  0.49313738  0.39718705  1
  O2-  O419  1  0.75082051  0.85456695  0.36927976  1
  O2-  O420  1  0.04359693  0.33343414  0.64459469  1
  O2-  O421  1  0.01646556  -0.00066743  0.12566618  1
  O2-  O422  1  0.54523094  0.68457752  0.88353589  1
  O2-  O423  1  0.52122586  0.01223076  0.86367906  1
  O2-  O424  1  0.94886566  0.32953328  0.60021143  1
  O2-  O425  1  0.52942718  -0.00695295  0.37512793  1
  O2-  O426  1  0.51487020  0.33219934  0.62439383  1
  O2-  O427  1  0.47082963  0.65611664  0.62910516  1
  O2-  O428  1  0.53456598  0.33146952  0.38666991  1
  O2-  O429  1  0.95062435  0.30102726  0.16333319  1
  O2-  O430  1  0.98378197  0.66784336  0.11557938  1
  O2-  O431  1  0.45604965  0.63113421  0.85574178  1
  O2-  O432  1  0.02825033  0.66372754  0.62481963  1
  O2-  O433  1  0.97043334  0.32683574  0.87226093  1
  O2-  O434  1  0.04035895  0.01518128  0.90239815  1
  O2-  O435  1  0.47731720  0.32598101  0.36979873  1
  O2-  O436  1  0.48741978  -0.00042779  0.11437717  1
  O2-  O437  1  0.47240241  0.65455592  0.37991682  1
  O2-  O438  1  0.53583144  0.68251572  0.38005161  1
  O2-  O439  1  0.46887757  0.34699549  0.12336656  1
  O2-  O440  1  0.04600255  0.33894619  0.10854612  1
  O2-  O441  1  0.94887556  0.00331574  0.89309461  1
  O2-  O442  1  0.47471084  0.02291117  0.61708866  1
  O2-  O443  1  0.98450054  0.69106353  0.37093678  1
