# generated using pymatgen
data_La7(Ru4O11)2
_symmetry_space_group_name_H-M   'P 1'
_cell_length_a   23.99086287
_cell_length_b   16.83108380
_cell_length_c   15.42748669
_cell_angle_alpha   89.99806348
_cell_angle_beta   89.99830434
_cell_angle_gamma   89.99821789
_symmetry_Int_Tables_number   1
_chemical_formula_structural   La7(Ru4O11)2
_chemical_formula_sum   'La84 Ru96 O264'
_cell_volume   6229.49914291
_cell_formula_units_Z   12
loop_
 _symmetry_equiv_pos_site_id
 _symmetry_equiv_pos_as_xyz
  1  'x, y, z'
loop_
 _atom_type_symbol
 _atom_type_oxidation_number
  La3+  3.0
  Ru4+  4.0
  O2-  -2.0
loop_
 _atom_site_type_symbol
 _atom_site_label
 _atom_site_symmetry_multiplicity
 _atom_site_fract_x
 _atom_site_fract_y
 _atom_site_fract_z
 _atom_site_occupancy
  La3+  La0  1  0.14545458  -0.00069827  0.12289962  1
  La3+  La1  1  0.13961980  0.00146791  0.37326056  1
  La3+  La2  1  0.13865785  0.00152090  0.63037739  1
  La3+  La3  1  0.14251096  -0.00171571  0.87547028  1
  La3+  La4  1  0.13933260  0.33208909  0.12407685  1
  La3+  La5  1  0.13819297  0.33355989  0.37424764  1
  La3+  La6  1  0.14022511  0.33263577  0.62696717  1
  La3+  La7  1  0.13810511  0.33057089  0.87283257  1
  La3+  La8  1  0.13915352  0.66698321  0.13079535  1
  La3+  La9  1  0.13609875  0.66700255  0.37027005  1
  La3+  La10  1  0.13478011  0.66837249  0.62375940  1
  La3+  La11  1  0.14026511  0.66359783  0.86878511  1
  La3+  La12  1  0.64072431  0.00397949  0.12948696  1
  La3+  La13  1  0.63998172  0.00604524  0.36998598  1
  La3+  La14  1  0.63935317  0.00162560  0.62780455  1
  La3+  La15  1  0.64243591  0.00408014  0.86978877  1
  La3+  La16  1  0.63931775  0.33089017  0.12627426  1
  La3+  La17  1  0.63670924  0.33148716  0.37531384  1
  La3+  La18  1  0.63984567  0.33073258  0.62985789  1
  La3+  La19  1  0.64137297  0.33049541  0.86943271  1
  La3+  La20  1  0.63696202  0.66805005  0.12800674  1
  La3+  La21  1  0.63329770  0.66437338  0.37009101  1
  La3+  La22  1  0.63896601  0.66684870  0.62809287  1
  La3+  La23  1  0.64029637  0.66674204  0.87263876  1
  La3+  La24  1  0.35492367  -0.00034579  0.12158565  1
  La3+  La25  1  0.35802695  0.00076972  0.37274037  1
  La3+  La26  1  0.35964031  -0.00128451  0.62957399  1
  La3+  La27  1  0.36147947  -0.00100312  0.87568749  1
  La3+  La28  1  0.35993568  0.33262134  0.12339219  1
  La3+  La29  1  0.36091891  0.33385493  0.37435508  1
  La3+  La30  1  0.35744725  0.32966988  0.62827786  1
  La3+  La31  1  0.36274899  0.32797363  0.87094949  1
  La3+  La32  1  0.35800885  0.66691182  0.12851307  1
  La3+  La33  1  0.36124098  0.66773371  0.37280484  1
  La3+  La34  1  0.36416835  0.66973113  0.62389285  1
  La3+  La35  1  0.35459181  0.66619653  0.87048716  1
  La3+  La36  1  0.85922788  -0.00618077  0.11943567  1
  La3+  La37  1  0.86079245  0.00598572  0.37217228  1
  La3+  La38  1  0.85887575  0.00516050  0.62433244  1
  La3+  La39  1  0.87256900  -0.00784398  0.87870160  1
  La3+  La40  1  0.86473507  0.32843836  0.12928526  1
  La3+  La41  1  0.86038355  0.33414301  0.37511974  1
  La3+  La42  1  0.85859651  0.33216631  0.62828492  1
  La3+  La43  1  0.85698347  0.33222458  0.87124167  1
  La3+  La44  1  0.86606449  0.67011360  0.12827682  1
  La3+  La45  1  0.86060500  0.66394346  0.36632075  1
  La3+  La46  1  0.86178947  0.66563703  0.62403150  1
  La3+  La47  1  0.86019742  0.66568265  0.87408788  1
  La3+  La48  1  0.00135606  0.49792027  0.88098883  1
  La3+  La49  1  0.00072387  0.16761219  0.38403768  1
  La3+  La50  1  0.50659836  0.50906142  0.87260242  1
  La3+  La51  1  0.00098422  0.83576912  0.88061598  1
  La3+  La52  1  0.50000359  0.83793286  0.37988957  1
  La3+  La53  1  0.50117691  0.83459594  0.85661290  1
  La3+  La54  1  0.50348591  0.82842967  0.36092066  1
  La3+  La55  1  0.00005146  0.50042939  0.13655574  1
  La3+  La56  1  0.50113517  0.50063388  0.38184892  1
  La3+  La57  1  -0.00436957  0.83453960  0.89554636  1
  La3+  La58  1  0.50244296  0.17104431  0.36810114  1
  La3+  La59  1  0.50232959  0.16101840  0.38760415  1
  La3+  La60  1  0.49837804  0.49916017  0.61688330  1
  La3+  La61  1  -0.00507163  0.17072981  0.62842654  1
  La3+  La62  1  0.50003859  0.83286280  0.61990747  1
  La3+  La63  1  0.50309929  0.50143243  0.14161468  1
  La3+  La64  1  0.00294978  0.16379096  0.12993589  1
  La3+  La65  1  0.50090502  0.50208708  0.12025879  1
  La3+  La66  1  0.49869869  0.16362987  0.86801088  1
  La3+  La67  1  0.50142925  0.16321311  0.11364099  1
  La3+  La68  1  0.50323261  0.16570797  0.13594761  1
  La3+  La69  1  0.50110053  0.50337528  0.89113015  1
  La3+  La70  1  -0.00186628  0.83333846  0.62944073  1
  La3+  La71  1  0.49812647  0.17193831  0.63947732  1
  La3+  La72  1  0.24942062  0.44484402  0.77820625  1
  La3+  La73  1  0.25018193  0.48142011  0.01589765  1
  La3+  La74  1  0.75027258  0.49506236  0.75789614  1
  La3+  La75  1  0.74987098  0.83273074  0.00779150  1
  La3+  La76  1  0.24992983  0.16925496  0.75667003  1
  La3+  La77  1  0.75016118  0.17192816  0.76325170  1
  La3+  La78  1  0.24998225  0.16351669  0.01040993  1
  La3+  La79  1  0.24912173  0.22018428  0.50617611  1
  La3+  La80  1  0.75040489  0.49688829  0.20176045  1
  La3+  La81  1  0.74962716  0.53162891  0.54985897  1
  La3+  La82  1  0.75023057  0.83918308  0.49878601  1
  La3+  La83  1  0.25007157  0.56267630  0.49207692  1
  Ru4+  Ru84  1  -0.00244016  -0.00353860  -0.00291732  1
  Ru4+  Ru85  1  -0.00245431  0.00057659  0.24898312  1
  Ru4+  Ru86  1  0.00560941  -0.00478125  0.50042250  1
  Ru4+  Ru87  1  0.00114158  0.00713708  0.75245533  1
  Ru4+  Ru88  1  0.00144300  0.33313615  -0.00092610  1
  Ru4+  Ru89  1  -0.00342140  0.33002632  0.24532429  1
  Ru4+  Ru90  1  0.00148691  0.33552491  0.50263645  1
  Ru4+  Ru91  1  0.00134616  0.32964434  0.75313703  1
  Ru4+  Ru92  1  0.00149059  0.66861108  0.00313151  1
  Ru4+  Ru93  1  0.00349972  0.67470845  0.24386132  1
  Ru4+  Ru94  1  -0.00174349  0.66284811  0.50590061  1
  Ru4+  Ru95  1  -0.00042165  0.66234936  0.74847682  1
  Ru4+  Ru96  1  0.50135388  -0.00652188  -0.00055586  1
  Ru4+  Ru97  1  0.50046003  -0.00897449  0.24981085  1
  Ru4+  Ru98  1  0.49980578  -0.00003670  0.50500627  1
  Ru4+  Ru99  1  0.49767534  -0.00090055  0.74293915  1
  Ru4+  Ru100  1  0.49886736  0.33733968  0.00491513  1
  Ru4+  Ru101  1  0.49983097  0.33576575  0.24569987  1
  Ru4+  Ru102  1  0.50244323  0.33657699  0.49788066  1
  Ru4+  Ru103  1  0.49982645  0.34457063  0.74483074  1
  Ru4+  Ru104  1  0.49584851  0.67650593  0.00168028  1
  Ru4+  Ru105  1  0.49569847  0.67369705  0.24923311  1
  Ru4+  Ru106  1  0.49986896  0.66327157  0.50371567  1
  Ru4+  Ru107  1  0.49986032  0.66665136  0.74696226  1
  Ru4+  Ru108  1  0.10967709  0.16595252  0.00095149  1
  Ru4+  Ru109  1  0.11555152  0.16501408  0.24884539  1
  Ru4+  Ru110  1  0.11051502  0.16590184  0.49863283  1
  Ru4+  Ru111  1  0.10704410  0.16019531  0.75522568  1
  Ru4+  Ru112  1  0.10887591  0.49954849  0.00081088  1
  Ru4+  Ru113  1  0.11428212  0.50503296  0.25115897  1
  Ru4+  Ru114  1  0.10914963  0.50376187  0.50042645  1
  Ru4+  Ru115  1  0.11076693  0.49902266  0.74890862  1
  Ru4+  Ru116  1  0.11465275  0.83146820  0.00063757  1
  Ru4+  Ru117  1  0.11265136  0.82747875  0.24896093  1
  Ru4+  Ru118  1  0.11485770  0.83147879  0.50025283  1
  Ru4+  Ru119  1  0.11763998  0.83377824  0.75189924  1
  Ru4+  Ru120  1  0.61338103  0.16481659  0.00050575  1
  Ru4+  Ru121  1  0.62118666  0.17093225  0.24732154  1
  Ru4+  Ru122  1  0.61371211  0.16346962  0.50017833  1
  Ru4+  Ru123  1  0.61414910  0.16472837  0.74976671  1
  Ru4+  Ru124  1  0.61034662  0.49841792  0.00165793  1
  Ru4+  Ru125  1  0.61456100  0.49227944  0.24920830  1
  Ru4+  Ru126  1  0.60965515  0.50131028  0.49991929  1
  Ru4+  Ru127  1  0.61094238  0.49704223  0.75015070  1
  Ru4+  Ru128  1  0.60577221  0.83968877  0.00223183  1
  Ru4+  Ru129  1  0.61337768  0.83095171  0.24958700  1
  Ru4+  Ru130  1  0.61223596  0.83817851  0.50269152  1
  Ru4+  Ru131  1  0.61414955  0.83637996  0.74848346  1
  Ru4+  Ru132  1  0.38809801  0.16697632  -0.00071818  1
  Ru4+  Ru133  1  0.38478221  0.16699696  0.24936850  1
  Ru4+  Ru134  1  0.38954481  0.16635988  0.49831207  1
  Ru4+  Ru135  1  0.38534148  0.16182942  0.75041781  1
  Ru4+  Ru136  1  0.39388076  0.49961644  0.00078692  1
  Ru4+  Ru137  1  0.38558709  0.49973384  0.25158190  1
  Ru4+  Ru138  1  0.38977208  0.49969940  0.50016937  1
  Ru4+  Ru139  1  0.38870766  0.49774992  0.74734013  1
  Ru4+  Ru140  1  0.39046939  0.83152988  0.00198566  1
  Ru4+  Ru141  1  0.38592304  0.82946955  0.24966061  1
  Ru4+  Ru142  1  0.38456232  0.83393487  0.50096408  1
  Ru4+  Ru143  1  0.38485055  0.83297771  0.75019521  1
  Ru4+  Ru144  1  0.88712488  0.16565141  0.00048498  1
  Ru4+  Ru145  1  0.88661578  0.17187280  0.25049296  1
  Ru4+  Ru146  1  0.88259806  0.16808647  0.49893740  1
  Ru4+  Ru147  1  0.88917385  0.16716578  0.75213385  1
  Ru4+  Ru148  1  0.88807560  0.49702429  -0.00139293  1
  Ru4+  Ru149  1  0.88823240  0.49478675  0.25092356  1
  Ru4+  Ru150  1  0.89175811  0.50492996  0.50186636  1
  Ru4+  Ru151  1  0.89051330  0.50089454  0.74906542  1
  Ru4+  Ru152  1  0.88975688  0.83302096  0.00367672  1
  Ru4+  Ru153  1  0.88715295  0.82839138  0.24693461  1
  Ru4+  Ru154  1  0.89096385  0.83109859  0.49783058  1
  Ru4+  Ru155  1  0.88482814  0.83829115  0.74941879  1
  Ru4+  Ru156  1  0.75038900  0.24891443  0.00598891  1
  Ru4+  Ru157  1  0.25003872  0.24899854  0.24192308  1
  Ru4+  Ru158  1  0.24959697  0.90174020  0.50452336  1
  Ru4+  Ru159  1  0.25016046  0.60362069  0.73701149  1
  Ru4+  Ru160  1  0.24979469  0.61501950  0.01175339  1
  Ru4+  Ru161  1  0.74884769  0.96382152  -0.02954545  1
  Ru4+  Ru162  1  0.24985638  0.90780018  0.24212176  1
  Ru4+  Ru163  1  0.75005409  0.36664707  0.25953169  1
  Ru4+  Ru164  1  0.24969714  0.41550905  0.23743452  1
  Ru4+  Ru165  1  0.75014026  0.97882341  0.49414848  1
  Ru4+  Ru166  1  0.75058588  0.10209643  0.01379715  1
  Ru4+  Ru167  1  0.25020161  0.07489669  0.50163017  1
  Ru4+  Ru168  1  0.75006482  0.62550992  0.26794863  1
  Ru4+  Ru169  1  0.25040927  0.76802623  -0.00232292  1
  Ru4+  Ru170  1  0.75009167  0.57599459  -0.00639698  1
  Ru4+  Ru171  1  0.74992393  0.23624376  0.50161841  1
  Ru4+  Ru172  1  0.74968217  0.40464054  -0.01096935  1
  Ru4+  Ru173  1  0.74975322  0.39256573  0.48635903  1
  Ru4+  Ru174  1  0.75037214  0.90674554  0.25330493  1
  Ru4+  Ru175  1  0.74996621  0.75729118  0.75849604  1
  Ru4+  Ru176  1  0.25023916  0.35015658  -0.01902796  1
  Ru4+  Ru177  1  0.25016439  0.40143658  0.48771266  1
  Ru4+  Ru178  1  0.75015098  0.70055772  -0.00329008  1
  Ru4+  Ru179  1  0.75034275  0.70161142  0.47413410  1
  O2-  O180  1  0.16727511  0.08315039  -0.00126157  1
  O2-  O181  1  0.16593403  0.08280772  0.25131511  1
  O2-  O182  1  0.16763658  0.07894480  0.50103899  1
  O2-  O183  1  0.16923538  0.08270582  0.75130947  1
  O2-  O184  1  0.16416032  0.40962454  -0.00082162  1
  O2-  O185  1  0.16534243  0.41399773  0.24747744  1
  O2-  O186  1  0.16508788  0.41393025  0.49839949  1
  O2-  O187  1  0.16071735  0.41166681  0.74804046  1
  O2-  O188  1  0.17011510  0.75112148  0.00124966  1
  O2-  O189  1  0.16840211  0.74842248  0.25362617  1
  O2-  O190  1  0.16499792  0.74682738  0.49938742  1
  O2-  O191  1  0.16405957  0.74810440  0.74710128  1
  O2-  O192  1  0.66869979  0.08317405  0.00092313  1
  O2-  O193  1  0.66590387  0.08406345  0.25187103  1
  O2-  O194  1  0.66535576  0.07967556  0.50077065  1
  O2-  O195  1  0.66784461  0.08155934  0.74800309  1
  O2-  O196  1  0.66661449  0.41270370  -0.00118305  1
  O2-  O197  1  0.66844315  0.40994538  0.24931266  1
  O2-  O198  1  0.66818353  0.41179005  0.50101545  1
  O2-  O199  1  0.66606268  0.41551873  0.75039935  1
  O2-  O200  1  0.66469170  0.74585636  0.00014263  1
  O2-  O201  1  0.66338904  0.74624691  0.25147330  1
  O2-  O202  1  0.66556320  0.74476980  0.49876623  1
  O2-  O203  1  0.66709526  0.74787915  0.75079737  1
  O2-  O204  1  0.33065314  0.25220947  -0.00054361  1
  O2-  O205  1  0.33385543  0.25446096  0.24916966  1
  O2-  O206  1  0.33831872  0.25642932  0.49828380  1
  O2-  O207  1  0.33382506  0.25063296  0.75016321  1
  O2-  O208  1  0.33350244  0.58924795  0.00045360  1
  O2-  O209  1  0.33488612  0.58559482  0.25242052  1
  O2-  O210  1  0.33787241  0.59150440  0.49945080  1
  O2-  O211  1  0.33388749  0.58510830  0.74675936  1
  O2-  O212  1  0.33562033  0.91594608  -0.00066483  1
  O2-  O213  1  0.33395326  0.91954307  0.25056438  1
  O2-  O214  1  0.33177484  0.91876966  0.49941434  1
  O2-  O215  1  0.33537795  0.91827944  0.75091429  1
  O2-  O216  1  0.83321906  0.25341828  0.00078404  1
  O2-  O217  1  0.83020523  0.25371003  0.24888230  1
  O2-  O218  1  0.83327267  0.25212479  0.50157616  1
  O2-  O219  1  0.83508124  0.25188135  0.75158295  1
  O2-  O220  1  0.83404106  0.58622456  -0.00104997  1
  O2-  O221  1  0.83260548  0.58625192  0.24778359  1
  O2-  O222  1  0.83467950  0.58562261  0.50085247  1
  O2-  O223  1  0.83293732  0.58584324  0.74981293  1
  O2-  O224  1  0.83212159  0.92101966  -0.00465800  1
  O2-  O225  1  0.83526926  0.91720090  0.25144013  1
  O2-  O226  1  0.83405279  0.91990915  0.50002189  1
  O2-  O227  1  0.83128756  0.91829670  0.75045521  1
  O2-  O228  1  0.16783950  0.25358070  -0.00109455  1
  O2-  O229  1  0.16603193  0.25426016  0.24925797  1
  O2-  O230  1  0.15940544  0.25737331  0.49912165  1
  O2-  O231  1  0.16479951  0.24979689  0.75095533  1
  O2-  O232  1  0.16545870  0.58951822  -0.00004480  1
  O2-  O233  1  0.16737492  0.58436854  0.25121540  1
  O2-  O234  1  0.16232327  0.59090894  0.49938701  1
  O2-  O235  1  0.16826651  0.58710675  0.74693983  1
  O2-  O236  1  0.16582744  0.91683910  0.00006766  1
  O2-  O237  1  0.16487671  0.91777552  0.25061381  1
  O2-  O238  1  0.16593034  0.91912055  0.49984053  1
  O2-  O239  1  0.16720986  0.91667825  0.74822079  1
  O2-  O240  1  0.66690239  0.25378134  0.00126586  1
  O2-  O241  1  0.66974569  0.25536585  0.25147563  1
  O2-  O242  1  0.66810298  0.25367601  0.50097303  1
  O2-  O243  1  0.66519087  0.25154739  0.75087380  1
  O2-  O244  1  0.66775425  0.58786815  -0.00060577  1
  O2-  O245  1  0.66809142  0.58989205  0.25080186  1
  O2-  O246  1  0.66465191  0.58759102  0.49958688  1
  O2-  O247  1  0.66730007  0.58629987  0.74990450  1
  O2-  O248  1  0.67023846  0.92034595  0.00050489  1
  O2-  O249  1  0.66577380  0.91860107  0.25100677  1
  O2-  O250  1  0.66939424  0.92266768  0.50144692  1
  O2-  O251  1  0.66783156  0.91735367  0.74889901  1
  O2-  O252  1  0.33077149  0.08180316  -0.00080433  1
  O2-  O253  1  0.33532094  0.08005321  0.25013927  1
  O2-  O254  1  0.33524976  0.07889264  0.50066910  1
  O2-  O255  1  0.33060118  0.08209021  0.75164813  1
  O2-  O256  1  0.33483055  0.40952747  -0.00153904  1
  O2-  O257  1  0.33175107  0.41396204  0.24766564  1
  O2-  O258  1  0.33463144  0.41332849  0.49813701  1
  O2-  O259  1  0.33674254  0.41336921  0.75054609  1
  O2-  O260  1  0.33197525  0.75094083  0.00064581  1
  O2-  O261  1  0.33424014  0.74734002  0.25329842  1
  O2-  O262  1  0.33381459  0.74514787  0.49800431  1
  O2-  O263  1  0.33504322  0.74839298  0.74645630  1
  O2-  O264  1  0.83445367  0.08167801  -0.00123616  1
  O2-  O265  1  0.83484177  0.08569937  0.25360615  1
  O2-  O266  1  0.83185275  0.08143979  0.49962877  1
  O2-  O267  1  0.83382648  0.07984471  0.75226864  1
  O2-  O268  1  0.83340781  0.41366348  0.00023506  1
  O2-  O269  1  0.83290542  0.41303212  0.24967985  1
  O2-  O270  1  0.83197301  0.41459071  0.50100497  1
  O2-  O271  1  0.83443822  0.41638265  0.75111042  1
  O2-  O272  1  0.83359688  0.74486028  -0.00158648  1
  O2-  O273  1  0.83350242  0.74938847  0.25078960  1
  O2-  O274  1  0.83059996  0.74605079  0.50201004  1
  O2-  O275  1  0.83457454  0.74745113  0.74920599  1
  O2-  O276  1  0.55589052  0.75261626  0.02054169  1
  O2-  O277  1  0.95613070  0.10583855  0.27646226  1
  O2-  O278  1  0.54609392  0.09767036  0.73461623  1
  O2-  O279  1  0.04912914  0.23968494  0.26077800  1
  O2-  O280  1  0.45304709  0.76141207  0.73842573  1
  O2-  O281  1  0.96337693  0.77761517  0.51666626  1
  O2-  O282  1  0.54524142  0.23357489  0.98580795  1
  O2-  O283  1  0.94810216  0.57037269  0.23624587  1
  O2-  O284  1  0.05439243  0.91540195  0.98763738  1
  O2-  O285  1  0.54730880  0.10292577  0.26046667  1
  O2-  O286  1  0.52816042  0.87570034  0.98559478  1
  O2-  O287  1  0.94069836  0.75008562  0.02290897  1
  O2-  O288  1  0.45189527  0.90393185  0.25802145  1
  O2-  O289  1  0.46171742  0.43820285  0.78626162  1
  O2-  O290  1  0.54781724  0.56810618  0.73403806  1
  O2-  O291  1  0.05608504  0.08894372  0.70266961  1
  O2-  O292  1  0.95459647  0.43149006  0.26026047  1
  O2-  O293  1  0.04590266  0.88871754  0.72850929  1
  O2-  O294  1  0.95297825  0.57189192  0.51609563  1
  O2-  O295  1  0.04981742  0.23858431  0.73711709  1
  O2-  O296  1  0.96055434  0.10932189  0.25976947  1
  O2-  O297  1  0.95469172  0.89899694  0.00428753  1
  O2-  O298  1  0.45319801  0.90186669  0.73729204  1
  O2-  O299  1  0.95968524  0.44051756  0.47383263  1
  O2-  O300  1  0.96783111  0.78292018  0.50681597  1
  O2-  O301  1  0.93998524  0.25327358  0.19502028  1
  O2-  O302  1  0.95165264  0.56892434  0.73698489  1
  O2-  O303  1  0.94743259  0.90825057  0.98023179  1
  O2-  O304  1  0.03615388  0.78883499  0.00278019  1
  O2-  O305  1  0.44236171  0.91449895  0.99004612  1
  O2-  O306  1  0.45139639  0.23364159  0.76379800  1
  O2-  O307  1  0.03214409  0.77903495  0.98781746  1
  O2-  O308  1  0.44991774  0.76321846  0.48575552  1
  O2-  O309  1  0.45090430  0.57171415  0.73701645  1
  O2-  O310  1  0.95045901  0.23387501  0.76733401  1
  O2-  O311  1  0.45240855  0.56858367  0.26559065  1
  O2-  O312  1  0.54829129  0.56604941  0.26466084  1
  O2-  O313  1  0.95457740  0.56634489  0.98897218  1
  O2-  O314  1  0.05195770  0.10707832  0.28627504  1
  O2-  O315  1  0.06006036  0.57924268  0.77208892  1
  O2-  O316  1  0.54975308  0.76329214  0.49200053  1
  O2-  O317  1  0.94466754  0.90875395  0.79939060  1
  O2-  O318  1  0.04721874  0.23658219  0.01266148  1
  O2-  O319  1  0.95193980  0.23458851  0.49246331  1
  O2-  O320  1  0.54882843  0.23746033  0.76441248  1
  O2-  O321  1  0.46970000  0.79124103  0.98278372  1
  O2-  O322  1  0.95423877  0.09018420  0.48899262  1
  O2-  O323  1  0.45157340  0.09713975  0.26300811  1
  O2-  O324  1  0.04952632  0.08961061  0.70366551  1
  O2-  O325  1  0.94759993  0.24439811  0.20495352  1
  O2-  O326  1  0.43664756  0.26331936  0.96568632  1
  O2-  O327  1  0.05718163  0.58051459  0.77359796  1
  O2-  O328  1  0.56341131  0.92918013  0.71883434  1
  O2-  O329  1  0.43945975  0.26056632  0.78220974  1
  O2-  O330  1  0.56290782  0.93077776  0.56792646  1
  O2-  O331  1  0.06714115  0.07428693  0.47283729  1
  O2-  O332  1  0.07672524  0.72388749  0.06613146  1
  O2-  O333  1  0.93861279  0.74628890  0.02446841  1
  O2-  O334  1  0.58405078  0.93458474  0.93123640  1
  O2-  O335  1  0.56314715  0.07968750  0.27722484  1
  O2-  O336  1  0.06807184  0.93134644  0.80438667  1
  O2-  O337  1  0.55931839  0.26614969  0.78162693  1
  O2-  O338  1  0.43475587  0.07379543  0.77713641  1
  O2-  O339  1  0.92179606  0.70132513  0.44117033  1
  O2-  O340  1  0.56406140  0.25576402  0.22335402  1
  O2-  O341  1  0.06366788  0.59710554  0.52311491  1
  O2-  O342  1  0.56451627  0.73744572  0.71657300  1
  O2-  O343  1  0.56482704  0.59254969  0.27156082  1
  O2-  O344  1  0.57096416  0.91879590  0.43421937  1
  O2-  O345  1  0.56198809  0.07924227  0.97426859  1
  O2-  O346  1  0.43749350  0.07608141  0.97632414  1
  O2-  O347  1  0.42926877  0.38728508  0.68330056  1
  O2-  O348  1  0.92753389  0.40148576  0.53661235  1
  O2-  O349  1  0.43444938  0.92583142  0.52503614  1
  O2-  O350  1  0.93010361  0.94405330  0.66652583  1
  O2-  O351  1  0.08499279  0.72815111  0.92979937  1
  O2-  O352  1  0.95054716  0.89829158  0.78780678  1
  O2-  O353  1  0.57611853  0.93072478  0.07418826  1
  O2-  O354  1  0.43837905  0.26424115  0.46683069  1
  O2-  O355  1  0.92467886  0.03399289  0.18630305  1
  O2-  O356  1  0.93854048  0.60006330  0.21960140  1
  O2-  O357  1  0.56121214  0.59711944  0.03377698  1
  O2-  O358  1  0.56422631  0.41080129  0.47429438  1
  O2-  O359  1  0.07216376  0.06902315  0.83994843  1
  O2-  O360  1  0.06269870  0.74265580  0.22748185  1
  O2-  O361  1  0.93229191  0.93589572  0.03408900  1
  O2-  O362  1  0.06835963  0.05210112  0.19278134  1
  O2-  O363  1  0.93319677  0.07830113  0.47149567  1
  O2-  O364  1  0.43206213  0.72311758  0.07903673  1
  O2-  O365  1  0.43686719  0.59069929  0.52457994  1
  O2-  O366  1  0.92081259  0.25607737  0.33092568  1
  O2-  O367  1  0.93786615  0.74026849  0.21943039  1
  O2-  O368  1  0.43619770  0.40361583  0.28469337  1
  O2-  O369  1  0.56546577  0.25509656  0.47305797  1
  O2-  O370  1  0.06195825  0.59647924  0.28378312  1
  O2-  O371  1  0.42859499  0.70843091  0.92584373  1
  O2-  O372  1  0.25000608  0.00204853  0.67467322  1
  O2-  O373  1  0.24971893  0.68196054  0.11066322  1
  O2-  O374  1  0.24995228  0.00362634  0.17229261  1
  O2-  O375  1  0.75033652  0.66233860  0.68283394  1
  O2-  O376  1  0.24958588  0.67890312  0.81172779  1
  O2-  O377  1  0.24959777  0.32789395  0.58331952  1
  O2-  O378  1  0.75009659  -0.00534845  0.35052499  1
  O2-  O379  1  0.75047765  0.33972190  0.67569072  1
  O2-  O380  1  0.24965084  0.33278698  0.34534659  1
  O2-  O381  1  0.75011972  0.32525457  0.58382399  1
  O2-  O382  1  0.75015607  0.66729297  0.84734908  1
  O2-  O383  1  0.75006358  0.66080863  0.58552727  1
  O2-  O384  1  0.24962755  -0.01095929  0.41771312  1
  O2-  O385  1  0.24962434  0.33407407  0.67670655  1
  O2-  O386  1  0.75078777  0.00948889  0.07944954  1
  O2-  O387  1  0.25022809  0.00128903  0.32014149  1
  O2-  O388  1  0.24917892  0.33115776  0.10780319  1
  O2-  O389  1  0.25005758  0.00113781  0.08097323  1
  O2-  O390  1  0.24969697  -0.00784082  0.58461065  1
  O2-  O391  1  0.25001672  0.32922348  0.85516477  1
  O2-  O392  1  0.75007161  -0.00041281  0.19222425  1
  O2-  O393  1  0.75015901  0.33495638  0.85953221  1
  O2-  O394  1  0.74951192  0.66719727  0.14898615  1
  O2-  O395  1  0.24963837  0.68496026  0.92134728  1
  O2-  O396  1  0.25018837  0.15194391  0.39411532  1
  O2-  O397  1  0.75002657  0.16900530  0.62495221  1
  O2-  O398  1  0.75011674  0.49218802  0.42063032  1
  O2-  O399  1  0.75010820  0.49809368  0.90299880  1
  O2-  O400  1  0.74985000  0.83460900  0.34458539  1
  O2-  O401  1  0.24997514  0.46799205  0.58824282  1
  O2-  O402  1  0.75002391  0.49262174  0.07032204  1
  O2-  O403  1  0.25007543  0.49992679  0.14842513  1
  O2-  O404  1  0.74960674  0.16854259  0.13409531  1
  O2-  O405  1  0.75005506  0.16805981  0.91056865  1
  O2-  O406  1  0.24996716  0.15891342  0.30483644  1
  O2-  O407  1  0.74991676  0.17205845  0.41413010  1
  O2-  O408  1  0.25010340  0.52143727  0.88553089  1
  O2-  O409  1  0.75000814  0.83168212  0.84055969  1
  O2-  O410  1  0.24983020  0.83022713  0.85570610  1
  O2-  O411  1  0.25042232  0.51988947  0.66574628  1
  O2-  O412  1  0.24998140  0.17122485  0.15492889  1
  O2-  O413  1  0.24992314  0.47812555  0.38769778  1
  O2-  O414  1  0.25014246  0.83645525  0.16166887  1
  O2-  O415  1  0.25019708  0.15234217  0.62346207  1
  O2-  O416  1  0.74994499  0.50612615  0.33403496  1
  O2-  O417  1  0.74997561  0.83965533  0.15953369  1
  O2-  O418  1  0.24990256  0.50690328  0.30490746  1
  O2-  O419  1  0.25000051  0.83442352  0.58742632  1
  O2-  O420  1  0.04120204  0.33639255  0.61989692  1
  O2-  O421  1  0.52898443  0.33259114  0.62333641  1
  O2-  O422  1  0.52195529  0.33303068  0.36616653  1
  O2-  O423  1  0.47570105  0.67199122  0.62355753  1
  O2-  O424  1  0.47437965  0.01198408  0.62475131  1
  O2-  O425  1  0.51874087  0.01376948  0.13119507  1
  O2-  O426  1  0.52792064  0.00699589  0.85947265  1
  O2-  O427  1  0.51620195  0.00366365  0.37545078  1
  O2-  O428  1  0.47120583  -0.01028376  0.87656880  1
  O2-  O429  1  0.97837033  0.34723628  0.11378425  1
  O2-  O430  1  0.02973917  -0.00824117  0.37202278  1
  O2-  O431  1  0.03468053  0.33501495  0.37950614  1
  O2-  O432  1  0.97409383  0.01433235  0.88298431  1
  O2-  O433  1  0.02459062  -0.01055715  0.61248971  1
  O2-  O434  1  0.97044132  -0.01125135  0.37497954  1
  O2-  O435  1  0.96426145  0.32586484  0.63533402  1
  O2-  O436  1  0.02197023  0.64776074  0.12601500  1
  O2-  O437  1  0.97623442  0.33981149  0.37950591  1
  O2-  O438  1  0.01524832  0.66984443  0.87376991  1
  O2-  O439  1  0.02599308  0.67605453  0.63061256  1
  O2-  O440  1  0.02645016  0.33767119  0.87477726  1
  O2-  O441  1  0.45455436  0.33164243  0.12738465  1
  O2-  O442  1  0.52461654  0.66995414  0.37929006  1
  O2-  O443  1  0.54312959  0.34416636  0.11612216  1
