# generated using pymatgen
data_La7(Ru4O11)2
_symmetry_space_group_name_H-M   'P 1'
_cell_length_a   23.98865837
_cell_length_b   16.82803880
_cell_length_c   15.42495768
_cell_angle_alpha   89.99984327
_cell_angle_beta   90.00016668
_cell_angle_gamma   89.99990991
_symmetry_Int_Tables_number   1
_chemical_formula_structural   La7(Ru4O11)2
_chemical_formula_sum   'La84 Ru96 O264'
_cell_volume   6226.77890284
_cell_formula_units_Z   12
loop_
 _symmetry_equiv_pos_site_id
 _symmetry_equiv_pos_as_xyz
  1  'x, y, z'
loop_
 _atom_type_symbol
 _atom_type_oxidation_number
  La3+  3.0
  Ru4+  4.0
  O2-  -2.0
loop_
 _atom_site_type_symbol
 _atom_site_label
 _atom_site_symmetry_multiplicity
 _atom_site_fract_x
 _atom_site_fract_y
 _atom_site_fract_z
 _atom_site_occupancy
  La3+  La0  1  0.13778770  -0.00010597  0.12626307  1
  La3+  La1  1  0.13755026  -0.00002057  0.37490693  1
  La3+  La2  1  0.13810199  -0.00050131  0.62380636  1
  La3+  La3  1  0.13833605  -0.00021667  0.87533272  1
  La3+  La4  1  0.13868960  0.33347025  0.12619894  1
  La3+  La5  1  0.13848307  0.33351467  0.37323794  1
  La3+  La6  1  0.13809532  0.33332539  0.62548125  1
  La3+  La7  1  0.13864997  0.33343960  0.87486543  1
  La3+  La8  1  0.13865954  0.66641502  0.12552412  1
  La3+  La9  1  0.13879451  0.66637197  0.37405026  1
  La3+  La10  1  0.13849672  0.66691951  0.62451487  1
  La3+  La11  1  0.13942893  0.66680467  0.87629966  1
  La3+  La12  1  0.63875629  0.00011712  0.12513243  1
  La3+  La13  1  0.63818162  0.00001121  0.37535902  1
  La3+  La14  1  0.63823444  -0.00048284  0.62467581  1
  La3+  La15  1  0.63858744  -0.00035999  0.87464875  1
  La3+  La16  1  0.63850670  0.33349959  0.12562049  1
  La3+  La17  1  0.63782024  0.33311044  0.37397779  1
  La3+  La18  1  0.63832713  0.33302046  0.62624525  1
  La3+  La19  1  0.63838641  0.33345721  0.87393451  1
  La3+  La20  1  0.63868552  0.66674040  0.12485720  1
  La3+  La21  1  0.63935329  0.66754400  0.37471687  1
  La3+  La22  1  0.63821443  0.66796311  0.62523346  1
  La3+  La23  1  0.63877989  0.66734740  0.87543041  1
  La3+  La24  1  0.36126791  0.00046091  0.12524596  1
  La3+  La25  1  0.36139932  0.00032358  0.37584988  1
  La3+  La26  1  0.36181411  -0.00019693  0.62434398  1
  La3+  La27  1  0.36182253  -0.00007026  0.87488994  1
  La3+  La28  1  0.36149247  0.33396327  0.12512550  1
  La3+  La29  1  0.36136455  0.33328179  0.37336100  1
  La3+  La30  1  0.36202487  0.33332291  0.62609049  1
  La3+  La31  1  0.36211189  0.33405867  0.87533492  1
  La3+  La32  1  0.36113143  0.66606054  0.12523054  1
  La3+  La33  1  0.36161634  0.66630762  0.37416359  1
  La3+  La34  1  0.36168676  0.66707775  0.62483115  1
  La3+  La35  1  0.36120015  0.66670966  0.87584068  1
  La3+  La36  1  0.86101555  0.00053940  0.12589138  1
  La3+  La37  1  0.86159683  -0.00006305  0.37507075  1
  La3+  La38  1  0.86113899  -0.00030172  0.62471757  1
  La3+  La39  1  0.86081581  0.00011726  0.87445247  1
  La3+  La40  1  0.86172381  0.33328473  0.12606354  1
  La3+  La41  1  0.86261767  0.33286734  0.37360327  1
  La3+  La42  1  0.86151930  0.33304479  0.62564050  1
  La3+  La43  1  0.86096305  0.33331514  0.87444864  1
  La3+  La44  1  0.86104352  0.66583198  0.12528985  1
  La3+  La45  1  0.86090223  0.66699560  0.37479571  1
  La3+  La46  1  0.86205183  0.66792752  0.62472930  1
  La3+  La47  1  0.86153645  0.66726732  0.87515403  1
  La3+  La48  1  0.49969036  0.49897836  0.36557317  1
  La3+  La49  1  0.00010181  0.50028680  0.88659567  1
  La3+  La50  1  0.49974467  0.49864328  0.13389486  1
  La3+  La51  1  -0.00038660  0.16727039  0.38303732  1
  La3+  La52  1  0.49992152  0.49988572  0.61559573  1
  La3+  La53  1  0.50008126  0.50038370  0.88793369  1
  La3+  La54  1  0.50146634  0.49966220  0.86551378  1
  La3+  La55  1  0.49972940  0.16672113  0.11430243  1
  La3+  La56  1  0.50025025  0.83374604  0.38620096  1
  La3+  La57  1  0.50004935  0.16703734  0.13591077  1
  La3+  La58  1  0.00005651  0.16667931  0.86643410  1
  La3+  La59  1  0.00046535  0.16608216  0.88367287  1
  La3+  La60  1  0.50028694  0.83329145  0.11646346  1
  La3+  La61  1  0.00004521  0.16657733  0.36562667  1
  La3+  La62  1  0.50024967  0.16678308  0.86366530  1
  La3+  La63  1  0.00019272  0.83294520  0.88489747  1
  La3+  La64  1  -0.00045234  0.16719179  0.61485405  1
  La3+  La65  1  -0.00096248  0.49875347  0.63266457  1
  La3+  La66  1  0.00046135  0.83338300  0.38268055  1
  La3+  La67  1  -0.00026975  0.83301516  0.61523742  1
  La3+  La68  1  0.50150808  0.83385929  0.13333175  1
  La3+  La69  1  0.00005164  0.16739379  0.11593846  1
  La3+  La70  1  0.49996433  0.83306992  0.86439276  1
  La3+  La71  1  0.00082285  0.83477191  0.36542604  1
  La3+  La72  1  0.24997635  0.19056792  0.72920514  1
  La3+  La73  1  0.25002524  0.83314811  0.74915360  1
  La3+  La74  1  0.24996227  0.52555806  0.51512548  1
  La3+  La75  1  0.74984950  0.46962366  0.75561434  1
  La3+  La76  1  0.75008549  0.50213976  0.48572185  1
  La3+  La77  1  0.74999442  0.19060372  0.75105327  1
  La3+  La78  1  0.75007837  0.14292267  0.00136615  1
  La3+  La79  1  0.25000134  0.14107401  0.48262449  1
  La3+  La80  1  0.24997909  0.80811853  -0.01550201  1
  La3+  La81  1  0.75008655  0.81048718  0.01564677  1
  La3+  La82  1  0.25000488  0.47623003  0.75021442  1
  La3+  La83  1  0.74998412  0.13821621  0.50560417  1
  Ru4+  Ru84  1  0.00103991  0.00165982  -0.00023985  1
  Ru4+  Ru85  1  -0.00132990  -0.00107821  0.24952905  1
  Ru4+  Ru86  1  -0.00121742  -0.00063379  0.49851791  1
  Ru4+  Ru87  1  -0.00020713  -0.00046049  0.75091623  1
  Ru4+  Ru88  1  0.00195114  0.33663073  0.00084366  1
  Ru4+  Ru89  1  -0.00052932  0.33280579  0.24936967  1
  Ru4+  Ru90  1  -0.00028011  0.33355043  0.49978775  1
  Ru4+  Ru91  1  0.00118443  0.33207368  0.74985203  1
  Ru4+  Ru92  1  0.00044738  0.66503396  0.00054540  1
  Ru4+  Ru93  1  -0.00116634  0.67004874  0.24787672  1
  Ru4+  Ru94  1  -0.00053606  0.66558220  0.50076810  1
  Ru4+  Ru95  1  -0.00358884  0.66829887  0.75290877  1
  Ru4+  Ru96  1  0.50004590  0.00036932  -0.00020667  1
  Ru4+  Ru97  1  0.50114734  0.00097054  0.25180578  1
  Ru4+  Ru98  1  0.49979853  0.00160062  0.49956395  1
  Ru4+  Ru99  1  0.50012799  0.00003078  0.74847545  1
  Ru4+  Ru100  1  0.50129530  0.33162417  -0.00059663  1
  Ru4+  Ru101  1  0.49981584  0.33310673  0.25038683  1
  Ru4+  Ru102  1  0.50113213  0.33105751  0.49856192  1
  Ru4+  Ru103  1  0.50164494  0.33085452  0.75158177  1
  Ru4+  Ru104  1  0.49899540  0.66452727  -0.00116804  1
  Ru4+  Ru105  1  0.50108449  0.66901436  0.25206627  1
  Ru4+  Ru106  1  0.49908345  0.66780034  0.49938516  1
  Ru4+  Ru107  1  0.49988871  0.66781539  0.75056492  1
  Ru4+  Ru108  1  0.11257181  0.16687678  -0.00019074  1
  Ru4+  Ru109  1  0.11405782  0.16872345  0.24929197  1
  Ru4+  Ru110  1  0.11322907  0.16755752  0.50025810  1
  Ru4+  Ru111  1  0.11275399  0.16815796  0.74988267  1
  Ru4+  Ru112  1  0.11295554  0.50054789  0.00016611  1
  Ru4+  Ru113  1  0.11649678  0.49945290  0.25001726  1
  Ru4+  Ru114  1  0.11198699  0.50041265  0.49997664  1
  Ru4+  Ru115  1  0.11406337  0.49694603  0.75045696  1
  Ru4+  Ru116  1  0.11266747  0.83265828  -0.00023342  1
  Ru4+  Ru117  1  0.11362362  0.83202683  0.25005830  1
  Ru4+  Ru118  1  0.11350968  0.83278555  0.50015254  1
  Ru4+  Ru119  1  0.11289743  0.83427987  0.74983205  1
  Ru4+  Ru120  1  0.61229628  0.16634747  -0.00014178  1
  Ru4+  Ru121  1  0.61290327  0.16708791  0.25013178  1
  Ru4+  Ru122  1  0.61121403  0.16577991  0.50005034  1
  Ru4+  Ru123  1  0.61224799  0.16765391  0.75017856  1
  Ru4+  Ru124  1  0.61308468  0.50068093  0.00029402  1
  Ru4+  Ru125  1  0.61396635  0.49939017  0.24994861  1
  Ru4+  Ru126  1  0.61273243  0.49921051  0.50000501  1
  Ru4+  Ru127  1  0.61260824  0.49935048  0.74973844  1
  Ru4+  Ru128  1  0.61323117  0.83412067  -0.00001300  1
  Ru4+  Ru129  1  0.61292605  0.83265375  0.24993551  1
  Ru4+  Ru130  1  0.61310121  0.83262763  0.49975504  1
  Ru4+  Ru131  1  0.61333752  0.83358296  0.74988112  1
  Ru4+  Ru132  1  0.38744751  0.16665877  0.00022420  1
  Ru4+  Ru133  1  0.38688118  0.16722079  0.24983405  1
  Ru4+  Ru134  1  0.38790491  0.16526605  0.49980236  1
  Ru4+  Ru135  1  0.38803212  0.16682737  0.74986467  1
  Ru4+  Ru136  1  0.38596540  0.50129876  0.00021208  1
  Ru4+  Ru137  1  0.38556423  0.49866829  0.24977084  1
  Ru4+  Ru138  1  0.38702071  0.50164443  0.50017223  1
  Ru4+  Ru139  1  0.38659676  0.50072830  0.74960439  1
  Ru4+  Ru140  1  0.38743395  0.83278738  0.00011955  1
  Ru4+  Ru141  1  0.38550597  0.83298819  0.25032908  1
  Ru4+  Ru142  1  0.38745176  0.83381381  0.49989460  1
  Ru4+  Ru143  1  0.38761848  0.83299300  0.75019158  1
  Ru4+  Ru144  1  0.88635129  0.16387437  0.00026588  1
  Ru4+  Ru145  1  0.88612370  0.16622320  0.24977648  1
  Ru4+  Ru146  1  0.88767030  0.16588599  0.50027460  1
  Ru4+  Ru147  1  0.88767800  0.16653397  0.75004306  1
  Ru4+  Ru148  1  0.88710878  0.50123542  0.00026034  1
  Ru4+  Ru149  1  0.88656861  0.50078159  0.24994313  1
  Ru4+  Ru150  1  0.88779235  0.50062216  0.50028825  1
  Ru4+  Ru151  1  0.88692201  0.50051085  0.74997094  1
  Ru4+  Ru152  1  0.88642699  0.83220563  0.00022784  1
  Ru4+  Ru153  1  0.88692499  0.83292907  0.25000283  1
  Ru4+  Ru154  1  0.88659437  0.83221667  0.50024757  1
  Ru4+  Ru155  1  0.88573857  0.83263954  0.75005358  1
  Ru4+  Ru156  1  0.24993035  0.93276102  0.00093273  1
  Ru4+  Ru157  1  0.74985792  0.08492054  0.24795491  1
  Ru4+  Ru158  1  0.25007177  0.24843265  0.00209297  1
  Ru4+  Ru159  1  0.25002068  0.40227205  0.49897800  1
  Ru4+  Ru160  1  0.75004761  0.93429295  -0.00277334  1
  Ru4+  Ru161  1  0.25002818  0.41929518  0.00049447  1
  Ru4+  Ru162  1  0.25005999  0.08783532  0.24974615  1
  Ru4+  Ru163  1  0.24989623  0.06737867  0.75459180  1
  Ru4+  Ru164  1  0.25003873  0.75329301  0.49931284  1
  Ru4+  Ru165  1  0.74998156  0.60156605  0.74975412  1
  Ru4+  Ru166  1  0.24998575  0.60102659  0.75541286  1
  Ru4+  Ru167  1  0.24990754  0.91346921  0.25174178  1
  Ru4+  Ru168  1  0.75000218  0.40351071  0.50493451  1
  Ru4+  Ru169  1  0.74993711  0.42141431  0.24715246  1
  Ru4+  Ru170  1  0.75004536  0.26901173  -0.00297118  1
  Ru4+  Ru171  1  0.74995791  0.91466994  0.50206638  1
  Ru4+  Ru172  1  0.74992806  0.41841889  0.00109741  1
  Ru4+  Ru173  1  0.75002241  0.06438719  0.74886687  1
  Ru4+  Ru174  1  0.75001810  0.26429689  0.50536606  1
  Ru4+  Ru175  1  0.25002687  0.26407745  0.50023239  1
  Ru4+  Ru176  1  0.25010331  0.91379069  0.49846879  1
  Ru4+  Ru177  1  0.75003444  0.60094990  0.49986877  1
  Ru4+  Ru178  1  0.75001670  0.91412474  0.24879424  1
  Ru4+  Ru179  1  0.24996523  0.08598540  0.00253384  1
  O2-  O180  1  0.16824771  0.08056273  0.00003374  1
  O2-  O181  1  0.16804350  0.08062978  0.24994018  1
  O2-  O182  1  0.16759613  0.08037031  0.50032448  1
  O2-  O183  1  0.16758880  0.07984147  0.75008057  1
  O2-  O184  1  0.16786758  0.41420573  -0.00021304  1
  O2-  O185  1  0.16797266  0.41411742  0.25042964  1
  O2-  O186  1  0.16718646  0.41357049  0.50005339  1
  O2-  O187  1  0.16833045  0.41386774  0.74986779  1
  O2-  O188  1  0.16716531  0.74737646  0.00009643  1
  O2-  O189  1  0.16732405  0.74802731  0.25009092  1
  O2-  O190  1  0.16785234  0.74751665  0.50000288  1
  O2-  O191  1  0.16863606  0.74728933  0.75014238  1
  O2-  O192  1  0.66776858  0.08059986  -0.00021864  1
  O2-  O193  1  0.66840903  0.08039461  0.24998212  1
  O2-  O194  1  0.66731129  0.08056789  0.49974106  1
  O2-  O195  1  0.66711388  0.08013592  0.74983231  1
  O2-  O196  1  0.66818941  0.41397364  -0.00000729  1
  O2-  O197  1  0.66811481  0.41423432  0.25021971  1
  O2-  O198  1  0.66691777  0.41329842  0.50012457  1
  O2-  O199  1  0.66739284  0.41437909  0.74976890  1
  O2-  O200  1  0.66763975  0.74702272  -0.00023834  1
  O2-  O201  1  0.66766763  0.74757422  0.25003112  1
  O2-  O202  1  0.66784763  0.74808102  0.50044217  1
  O2-  O203  1  0.66737078  0.74771573  0.74994765  1
  O2-  O204  1  0.33171571  0.25266839  -0.00032330  1
  O2-  O205  1  0.33268619  0.25230199  0.25037564  1
  O2-  O206  1  0.33302410  0.25314924  0.50006019  1
  O2-  O207  1  0.33225805  0.25318794  0.75019063  1
  O2-  O208  1  0.33276176  0.58498143  0.00007993  1
  O2-  O209  1  0.33229999  0.58569010  0.25041608  1
  O2-  O210  1  0.33257831  0.58625964  0.50000287  1
  O2-  O211  1  0.33285565  0.58632739  0.74990026  1
  O2-  O212  1  0.33288362  0.91989904  -0.00033897  1
  O2-  O213  1  0.33186249  0.91924564  0.24954319  1
  O2-  O214  1  0.33183941  0.91893601  0.50034456  1
  O2-  O215  1  0.33182070  0.91943506  0.75009609  1
  O2-  O216  1  0.83265335  0.25359972  -0.00023262  1
  O2-  O217  1  0.83215094  0.25235152  0.25002702  1
  O2-  O218  1  0.83273594  0.25326648  0.49981399  1
  O2-  O219  1  0.83245723  0.25260371  0.74996139  1
  O2-  O220  1  0.83175397  0.58535700  -0.00016063  1
  O2-  O221  1  0.83251237  0.58543474  0.25016695  1
  O2-  O222  1  0.83242944  0.58632601  0.50017478  1
  O2-  O223  1  0.83245794  0.58591847  0.74987356  1
  O2-  O224  1  0.83250466  0.91959721  -0.00025508  1
  O2-  O225  1  0.83143761  0.91951185  0.25041751  1
  O2-  O226  1  0.83187447  0.91921097  0.49953733  1
  O2-  O227  1  0.83245611  0.91869695  0.74976401  1
  O2-  O228  1  0.16784772  0.25245620  -0.00007089  1
  O2-  O229  1  0.16772193  0.25229308  0.25040636  1
  O2-  O230  1  0.16701117  0.25301860  0.49996913  1
  O2-  O231  1  0.16756562  0.25320549  0.75009004  1
  O2-  O232  1  0.16745835  0.58528774  -0.00005078  1
  O2-  O233  1  0.16793395  0.58547367  0.25014809  1
  O2-  O234  1  0.16747629  0.58635824  0.49984275  1
  O2-  O235  1  0.16722079  0.58668231  0.74987555  1
  O2-  O236  1  0.16711931  0.92001086  -0.00002601  1
  O2-  O237  1  0.16838590  0.91942546  0.24965955  1
  O2-  O238  1  0.16808568  0.91899363  0.50005981  1
  O2-  O239  1  0.16831001  0.91921825  0.75012780  1
  O2-  O240  1  0.66720248  0.25301838  0.00007096  1
  O2-  O241  1  0.66745075  0.25240404  0.25003185  1
  O2-  O242  1  0.66730754  0.25307074  0.50000284  1
  O2-  O243  1  0.66784344  0.25217641  0.74967672  1
  O2-  O244  1  0.66782211  0.58584061  -0.00013550  1
  O2-  O245  1  0.66789740  0.58567702  0.25002367  1
  O2-  O246  1  0.66751758  0.58659322  0.50033213  1
  O2-  O247  1  0.66779974  0.58628077  0.74985651  1
  O2-  O248  1  0.66709629  0.91961126  -0.00014553  1
  O2-  O249  1  0.66822494  0.91962513  0.25014996  1
  O2-  O250  1  0.66831528  0.91890840  0.49997913  1
  O2-  O251  1  0.66743266  0.91897634  0.75007834  1
  O2-  O252  1  0.33216952  0.08066551  -0.00029571  1
  O2-  O253  1  0.33161839  0.08048411  0.24990091  1
  O2-  O254  1  0.33226604  0.08078172  0.50061260  1
  O2-  O255  1  0.33278807  0.08019893  0.75006689  1
  O2-  O256  1  0.33188620  0.41399492  -0.00028392  1
  O2-  O257  1  0.33215305  0.41443763  0.25056286  1
  O2-  O258  1  0.33268120  0.41318240  0.49998470  1
  O2-  O259  1  0.33178253  0.41383381  0.74988137  1
  O2-  O260  1  0.33269650  0.74750475  0.00007895  1
  O2-  O261  1  0.33220357  0.74781482  0.24992266  1
  O2-  O262  1  0.33211866  0.74730963  0.49999152  1
  O2-  O263  1  0.33131229  0.74742308  0.74982057  1
  O2-  O264  1  0.83216374  0.08077475  -0.00013280  1
  O2-  O265  1  0.83212254  0.08071775  0.25020165  1
  O2-  O266  1  0.83226052  0.08032729  0.49949748  1
  O2-  O267  1  0.83267930  0.08036100  0.74971914  1
  O2-  O268  1  0.83203203  0.41410258  -0.00027084  1
  O2-  O269  1  0.83200876  0.41407207  0.25027287  1
  O2-  O270  1  0.83306595  0.41332252  0.49998551  1
  O2-  O271  1  0.83256665  0.41406310  0.75015503  1
  O2-  O272  1  0.83199354  0.74709269  -0.00014045  1
  O2-  O273  1  0.83249209  0.74767273  0.25033150  1
  O2-  O274  1  0.83200845  0.74802621  0.50012014  1
  O2-  O275  1  0.83230761  0.74803718  0.74966007  1
  O2-  O276  1  0.95508294  0.23478036  0.76452771  1
  O2-  O277  1  0.54479443  0.23610735  0.48459026  1
  O2-  O278  1  0.45458306  0.23548006  0.76489777  1
  O2-  O279  1  0.04183185  0.77160443  0.77381362  1
  O2-  O280  1  0.54535937  0.09818946  0.51475030  1
  O2-  O281  1  0.45520992  0.43258881  0.72955206  1
  O2-  O282  1  0.45437824  0.56875544  0.76334957  1
  O2-  O283  1  0.03804127  0.44264617  0.23608680  1
  O2-  O284  1  0.45523496  0.09756642  0.73506933  1
  O2-  O285  1  0.95376860  0.90144563  0.48483786  1
  O2-  O286  1  0.45419936  0.56757538  0.23005248  1
  O2-  O287  1  0.54468412  0.09771720  0.98512264  1
  O2-  O288  1  0.54613664  0.90271608  0.01441156  1
  O2-  O289  1  0.45473831  0.76551421  0.48561882  1
  O2-  O290  1  0.54479423  0.23486583  0.98547373  1
  O2-  O291  1  0.04487824  0.09926491  0.51929605  1
  O2-  O292  1  0.94849907  0.75550458  0.77073019  1
  O2-  O293  1  0.54295651  0.56293948  0.27369655  1
  O2-  O294  1  0.45395485  0.90272309  0.01429235  1
  O2-  O295  1  0.04669707  0.90345110  0.23400374  1
  O2-  O296  1  0.45469875  0.43262737  1.00182896  1
  O2-  O297  1  0.96458321  0.77768197  0.00754163  1
  O2-  O298  1  0.03864802  0.89103767  0.49637700  1
  O2-  O299  1  0.95875148  0.89572865  0.72629829  1
  O2-  O300  1  0.04427181  0.43180457  0.27059729  1
  O2-  O301  1  0.45419687  0.43087214  0.76875646  1
  O2-  O302  1  0.94674960  0.24768763  0.96913523  1
  O2-  O303  1  0.04524233  0.56722366  0.48507767  1
  O2-  O304  1  0.05375151  0.58109819  0.71986025  1
  O2-  O305  1  0.45501369  0.43286395  -0.00130848  1
  O2-  O306  1  0.04278452  0.89704208  0.51267700  1
  O2-  O307  1  0.54620699  0.76510385  0.01917555  1
  O2-  O308  1  0.04488474  0.56924373  0.98448642  1
  O2-  O309  1  0.04463747  0.43097545  0.01496870  1
  O2-  O310  1  0.95883497  0.43820042  0.77446452  1
  O2-  O311  1  0.95380505  0.23662131  0.26589879  1
  O2-  O312  1  0.04273821  0.56470971  0.23336030  1
  O2-  O313  1  0.04529451  0.76446324  0.51414828  1
  O2-  O314  1  0.45922896  0.43810326  0.47534066  1
  O2-  O315  1  0.45380988  0.56742433  0.26936268  1
  O2-  O316  1  0.54468591  0.90078458  0.73593829  1
  O2-  O317  1  0.54558122  0.76567546  0.97995295  1
  O2-  O318  1  0.45312049  0.76481391  0.01429974  1
  O2-  O319  1  0.45871293  0.77078347  0.22682366  1
  O2-  O320  1  0.96773600  0.88456346  0.01670627  1
  O2-  O321  1  0.04487927  0.09911567  0.47995580  1
  O2-  O322  1  0.04032869  0.56033074  0.25964553  1
  O2-  O323  1  0.04651759  0.09652894  0.26587903  1
  O2-  O324  1  0.06400874  0.40186957  0.78246415  1
  O2-  O325  1  0.56487205  0.59673999  0.71891866  1
  O2-  O326  1  0.43140290  0.73025122  0.29025943  1
  O2-  O327  1  0.93223092  0.93700790  0.94694398  1
  O2-  O328  1  0.43497543  0.92988317  0.29383007  1
  O2-  O329  1  0.93247958  0.93703655  0.79131896  1
  O2-  O330  1  0.06259008  0.07238579  0.28051390  1
  O2-  O331  1  0.56421957  0.93130955  0.46747408  1
  O2-  O332  1  0.56409216  0.59721567  0.45401534  1
  O2-  O333  1  0.56409406  0.06832495  0.28181242  1
  O2-  O334  1  0.56849568  0.60285555  0.21029401  1
  O2-  O335  1  0.06430771  0.26343133  0.21724957  1
  O2-  O336  1  0.56498977  0.59636771  0.54379434  1
  O2-  O337  1  0.06511384  0.07002136  0.70559525  1
  O2-  O338  1  0.05375311  0.58105727  0.71943838  1
  O2-  O339  1  0.06868210  0.73101858  0.71019452  1
  O2-  O340  1  0.92697035  0.72200531  0.04009468  1
  O2-  O341  1  0.94655643  0.24766598  0.96893839  1
  O2-  O342  1  0.56477175  0.26274873  0.78073032  1
  O2-  O343  1  0.93245311  0.26719166  0.04460383  1
  O2-  O344  1  0.06429066  0.06838599  0.79645432  1
  O2-  O345  1  0.43534585  0.73674778  0.78087589  1
  O2-  O346  1  0.56477692  0.40370421  0.78056894  1
  O2-  O347  1  0.07042836  0.60614767  0.28745661  1
  O2-  O348  1  0.43602851  0.40177776  0.21766160  1
  O2-  O349  1  0.43112024  0.39732818  0.54010619  1
  O2-  O350  1  0.93579012  0.59655636  0.03215338  1
  O2-  O351  1  0.93550097  0.06953918  0.53109279  1
  O2-  O352  1  0.56424958  0.40190884  0.28264362  1
  O2-  O353  1  0.93136746  0.39707176  0.70983707  1
  O2-  O354  1  0.93586491  0.93199118  0.21814602  1
  O2-  O355  1  0.93790835  0.26092549  0.28099150  1
  O2-  O356  1  0.07050936  0.39212101  0.21174904  1
  O2-  O357  1  0.93539464  0.73710638  0.53118738  1
  O2-  O358  1  0.43514212  0.07008485  0.46960176  1
  O2-  O359  1  0.43569033  0.26423145  0.03288312  1
  O2-  O360  1  0.94232714  0.74523613  0.77554019  1
  O2-  O361  1  0.06417614  0.40161603  0.53253151  1
  O2-  O362  1  0.06389699  0.06826145  0.96743833  1
  O2-  O363  1  0.06218887  0.92922531  0.22002867  1
  O2-  O364  1  0.92775656  0.94537183  0.05230649  1
  O2-  O365  1  0.07454713  0.94572402  0.45931021  1
  O2-  O366  1  0.56456180  0.73621074  0.46722337  1
  O2-  O367  1  0.93523814  0.59602648  0.53108789  1
  O2-  O368  1  0.06688354  0.60276246  0.79758648  1
  O2-  O369  1  0.43531220  0.92950785  0.46920148  1
  O2-  O370  1  0.43552676  0.93131866  0.20428792  1
  O2-  O371  1  0.43585080  0.06946000  0.21726306  1
  O2-  O372  1  0.24988846  0.66695669  0.90599831  1
  O2-  O373  1  0.24992159  0.00082288  0.57966222  1
  O2-  O374  1  0.75018020  0.33310967  0.84404217  1
  O2-  O375  1  0.74999294  0.33334818  0.65618732  1
  O2-  O376  1  0.24993801  -0.00019357  0.40777753  1
  O2-  O377  1  0.75001327  0.33457925  0.09430058  1
  O2-  O378  1  0.24999302  0.67021988  0.66685391  1
  O2-  O379  1  0.25000498  0.33292875  0.40342670  1
  O2-  O380  1  0.24999131  0.00166295  0.09474227  1
  O2-  O381  1  0.75000434  0.33278378  0.32825030  1
  O2-  O382  1  0.25004836  0.66678219  0.08362827  1
  O2-  O383  1  0.24992792  -0.00345016  0.66706870  1
  O2-  O384  1  0.24996581  0.66583522  0.57927704  1
  O2-  O385  1  0.74992958  0.66657441  0.84295394  1
  O2-  O386  1  0.75001820  0.33343697  0.41402370  1
  O2-  O387  1  0.74996920  0.66633393  0.40765088  1
  O2-  O388  1  0.25005813  0.33343426  0.90729482  1
  O2-  O389  1  0.25006651  0.66669481  0.16621434  1
  O2-  O390  1  0.25001849  0.00123878  0.90539004  1
  O2-  O391  1  0.75008399  -0.00040511  0.59135014  1
  O2-  O392  1  0.24998174  0.33329380  0.09206600  1
  O2-  O393  1  0.74996373  0.00101639  0.09374249  1
  O2-  O394  1  0.74995363  -0.00017891  0.84373608  1
  O2-  O395  1  0.25006198  0.33363555  0.59718550  1
  O2-  O396  1  0.74996831  0.49973853  0.38805558  1
  O2-  O397  1  0.74995699  0.16897516  0.39800422  1
  O2-  O398  1  0.25004887  0.49979559  0.16536425  1
  O2-  O399  1  0.25003748  0.16553267  0.33868831  1
  O2-  O400  1  0.75003517  0.50572229  0.65594239  1
  O2-  O401  1  0.24998586  0.16667586  0.92358160  1
  O2-  O402  1  0.25001674  0.83343322  0.59097199  1
  O2-  O403  1  0.25002656  0.50034267  0.08410496  1
  O2-  O404  1  0.75001645  0.50074619  0.92976100  1
  O2-  O405  1  0.74997621  0.83386315  0.65876332  1
  O2-  O406  1  0.25001964  0.16489547  0.16009513  1
  O2-  O407  1  0.24999610  0.16784506  0.60339215  1
  O2-  O408  1  0.74999013  0.49796027  0.16150275  1
  O2-  O409  1  0.25004936  0.83469578  0.33929939  1
  O2-  O410  1  0.74996022  0.83444657  0.16155895  1
  O2-  O411  1  0.74998745  0.50417808  0.85622384  1
  O2-  O412  1  0.75000616  0.16947457  0.61335286  1
  O2-  O413  1  0.74995795  0.83504018  0.89578045  1
  O2-  O414  1  0.24998127  0.16466314  0.84546701  1
  O2-  O415  1  0.74997397  0.49948267  0.58712361  1
  O2-  O416  1  0.75002834  0.16777620  0.32262622  1
  O2-  O417  1  0.25000810  0.49867068  0.39586001  1
  O2-  O418  1  0.25005538  0.83507588  0.10490376  1
  O2-  O419  1  0.74997285  0.16552646  0.16028730  1
  O2-  O420  1  0.52638409  0.33364473  0.87724598  1
  O2-  O421  1  0.97136839  0.66651146  0.62687884  1
  O2-  O422  1  0.02871844  0.66645430  0.62211032  1
  O2-  O423  1  0.02959958  0.66845017  0.37713678  1
  O2-  O424  1  0.52759541  -0.00004287  0.62501869  1
  O2-  O425  1  0.97285414  0.33447012  0.12708074  1
  O2-  O426  1  0.97277650  0.33434575  0.37759826  1
  O2-  O427  1  0.52810987  0.33301416  0.12492703  1
  O2-  O428  1  0.52989017  0.66749073  0.12361923  1
  O2-  O429  1  0.02942641  -0.00152787  0.62362214  1
  O2-  O430  1  0.52990215  0.33365892  0.62518667  1
  O2-  O431  1  0.97026398  -0.00069581  0.62583156  1
  O2-  O432  1  0.96955866  0.66658987  0.37468451  1
  O2-  O433  1  0.47308263  0.66571953  0.87694589  1
  O2-  O434  1  0.46913824  0.66607432  0.12450781  1
  O2-  O435  1  0.46998532  0.66645021  0.62484753  1
  O2-  O436  1  0.47433840  0.00133204  0.37381297  1
  O2-  O437  1  0.97266724  0.66527746  0.87639900  1
  O2-  O438  1  0.97279798  0.33191498  0.62285002  1
  O2-  O439  1  0.47113398  0.33186812  0.62698050  1
  O2-  O440  1  0.52819896  0.66939066  0.62573673  1
  O2-  O441  1  0.47293880  0.66517594  0.37674114  1
  O2-  O442  1  0.02642596  -0.00028082  0.37496048  1
  O2-  O443  1  0.02778574  0.66731619  0.12491987  1
