# generated using pymatgen
data_La7(Ru4O11)2
_symmetry_space_group_name_H-M   'P 1'
_cell_length_a   23.99291809
_cell_length_b   16.83219265
_cell_length_c   15.43242156
_cell_angle_alpha   90.00009215
_cell_angle_beta   89.99796845
_cell_angle_gamma   89.99987143
_symmetry_Int_Tables_number   1
_chemical_formula_structural   La7(Ru4O11)2
_chemical_formula_sum   'La84 Ru96 O264'
_cell_volume   6232.43621574
_cell_formula_units_Z   12
loop_
 _symmetry_equiv_pos_site_id
 _symmetry_equiv_pos_as_xyz
  1  'x, y, z'
loop_
 _atom_type_symbol
 _atom_type_oxidation_number
  La3+  3.0
  Ru4+  4.0
  O2-  -2.0
loop_
 _atom_site_type_symbol
 _atom_site_label
 _atom_site_symmetry_multiplicity
 _atom_site_fract_x
 _atom_site_fract_y
 _atom_site_fract_z
 _atom_site_occupancy
  La3+  La0  1  0.13997645  0.00090706  0.12621805  1
  La3+  La1  1  0.13420644  0.00556090  0.37214057  1
  La3+  La2  1  0.14336250  0.00273740  0.62411745  1
  La3+  La3  1  0.14476093  -0.00295278  0.87888899  1
  La3+  La4  1  0.13926081  0.33768947  0.13198836  1
  La3+  La5  1  0.14720363  0.32445616  0.37661329  1
  La3+  La6  1  0.13779408  0.32866183  0.62297544  1
  La3+  La7  1  0.14053927  0.33172450  0.87556352  1
  La3+  La8  1  0.13819903  0.66374369  0.11604249  1
  La3+  La9  1  0.14063998  0.66742973  0.37745612  1
  La3+  La10  1  0.14513162  0.67178612  0.62717855  1
  La3+  La11  1  0.14132610  0.66643472  0.87593814  1
  La3+  La12  1  0.63745522  0.00100909  0.12980260  1
  La3+  La13  1  0.63679544  0.00014139  0.37381911  1
  La3+  La14  1  0.63996815  0.00013300  0.62553300  1
  La3+  La15  1  0.63433504  0.00056934  0.86965171  1
  La3+  La16  1  0.64773112  0.33265997  0.12965209  1
  La3+  La17  1  0.63644175  0.33992139  0.36915995  1
  La3+  La18  1  0.64334404  0.33214619  0.62794806  1
  La3+  La19  1  0.64203243  0.33197203  0.87267128  1
  La3+  La20  1  0.64087201  0.66064360  0.12636989  1
  La3+  La21  1  0.63675298  0.66667300  0.37568655  1
  La3+  La22  1  0.63959239  0.67116327  0.62869885  1
  La3+  La23  1  0.64479254  0.66678892  0.87431432  1
  La3+  La24  1  0.35857439  -0.00203196  0.12183439  1
  La3+  La25  1  0.36408001  0.00106832  0.37917921  1
  La3+  La26  1  0.35879800  0.00561241  0.62561052  1
  La3+  La27  1  0.35944680  0.00339579  0.87474812  1
  La3+  La28  1  0.36344974  0.34001768  0.12225281  1
  La3+  La29  1  0.35980604  0.33500792  0.37710251  1
  La3+  La30  1  0.35122540  0.32653946  0.62209358  1
  La3+  La31  1  0.36226126  0.33387820  0.87748756  1
  La3+  La32  1  0.36059312  0.66644894  0.12456106  1
  La3+  La33  1  0.35913437  0.66661171  0.37795200  1
  La3+  La34  1  0.35996678  0.67301692  0.62440804  1
  La3+  La35  1  0.35920825  0.66939973  0.87048669  1
  La3+  La36  1  0.86516218  0.00388328  0.12766626  1
  La3+  La37  1  0.86238812  0.00889134  0.37229797  1
  La3+  La38  1  0.86796307  -0.00033215  0.63767565  1
  La3+  La39  1  0.88218293  -0.01313352  0.85289240  1
  La3+  La40  1  0.85517075  0.33623146  0.13146317  1
  La3+  La41  1  0.86394461  0.33282988  0.37459082  1
  La3+  La42  1  0.85894476  0.33198052  0.62309755  1
  La3+  La43  1  0.85500808  0.33278136  0.87267950  1
  La3+  La44  1  0.85546550  0.66045087  0.12456027  1
  La3+  La45  1  0.86242968  0.66483765  0.37795603  1
  La3+  La46  1  0.86838301  0.65816987  0.62722007  1
  La3+  La47  1  0.85924056  0.66390614  0.87116709  1
  La3+  La48  1  0.00129630  0.83792723  0.12599225  1
  La3+  La49  1  0.00175967  0.16754403  0.36995350  1
  La3+  La50  1  0.50112858  0.83715576  0.86639886  1
  La3+  La51  1  -0.00431583  0.82787013  0.64238946  1
  La3+  La52  1  -0.00426223  0.15357562  0.86834401  1
  La3+  La53  1  0.50019944  0.16780009  0.64702076  1
  La3+  La54  1  0.50100632  0.48997014  0.13699219  1
  La3+  La55  1  -0.00498460  0.50771808  0.63161252  1
  La3+  La56  1  0.50005916  0.16415119  0.13013544  1
  La3+  La57  1  0.49657952  0.17311773  0.11061415  1
  La3+  La58  1  -0.00554536  0.15858466  0.85197251  1
  La3+  La59  1  0.00201124  0.50115149  0.86822560  1
  La3+  La60  1  -0.00885583  0.50596715  0.11583344  1
  La3+  La61  1  -0.00453350  0.50830559  0.10057503  1
  La3+  La62  1  0.01304645  0.83533688  0.38964576  1
  La3+  La63  1  -0.00353376  0.83814542  0.87300672  1
  La3+  La64  1  0.49683109  0.50301678  0.88719037  1
  La3+  La65  1  0.48393359  0.51863720  0.35373646  1
  La3+  La66  1  0.00074011  0.84012115  0.62596818  1
  La3+  La67  1  0.49614388  0.49962127  0.60783247  1
  La3+  La68  1  -0.00098811  0.49650161  0.39008838  1
  La3+  La69  1  0.50573089  0.16478487  0.37391670  1
  La3+  La70  1  0.49848287  0.17290647  0.39104287  1
  La3+  La71  1  0.50745592  0.84490924  0.12680719  1
  La3+  La72  1  0.75081667  0.54444680  0.47051771  1
  La3+  La73  1  0.74964166  0.78138578  0.22468588  1
  La3+  La74  1  0.74952310  0.50594414  0.80754249  1
  La3+  La75  1  0.75112671  0.22660060  0.02015786  1
  La3+  La76  1  0.75368883  0.16921130  0.46878760  1
  La3+  La77  1  0.74910420  0.18909931  0.22037724  1
  La3+  La78  1  0.25014846  0.87508120  0.23926209  1
  La3+  La79  1  0.74957823  0.15389082  0.77462484  1
  La3+  La80  1  0.25183188  0.20960562  0.22954867  1
  La3+  La81  1  0.75247425  0.84702862  0.51472468  1
  La3+  La82  1  0.24867765  0.54426227  0.49870194  1
  La3+  La83  1  0.75039616  0.82482883  0.77243346  1
  Ru4+  Ru84  1  0.00089208  -0.00016130  0.00920616  1
  Ru4+  Ru85  1  -0.00637100  -0.00595071  0.24737778  1
  Ru4+  Ru86  1  -0.00991463  -0.00562665  0.50846516  1
  Ru4+  Ru87  1  0.00438515  -0.00497112  0.74738489  1
  Ru4+  Ru88  1  0.00669514  0.32608785  0.01178708  1
  Ru4+  Ru89  1  0.00569225  0.33500016  0.25532884  1
  Ru4+  Ru90  1  0.00112776  0.33051107  0.50531022  1
  Ru4+  Ru91  1  -0.00291689  0.32666292  0.73885716  1
  Ru4+  Ru92  1  -0.01110715  0.67291176  -0.00661396  1
  Ru4+  Ru93  1  -0.00947010  0.67529420  0.26465270  1
  Ru4+  Ru94  1  0.00452382  0.66657523  0.48932160  1
  Ru4+  Ru95  1  0.00397176  0.66832267  0.74890408  1
  Ru4+  Ru96  1  0.49912634  -0.00273459  0.00161519  1
  Ru4+  Ru97  1  0.50019842  0.00782351  0.25520858  1
  Ru4+  Ru98  1  0.50775304  -0.01477868  0.50558905  1
  Ru4+  Ru99  1  0.50877146  -0.00027483  0.74994435  1
  Ru4+  Ru100  1  0.50547551  0.32793350  -0.00552943  1
  Ru4+  Ru101  1  0.50205725  0.32984046  0.25440769  1
  Ru4+  Ru102  1  0.50080721  0.33229501  0.49319170  1
  Ru4+  Ru103  1  0.49645213  0.32150101  0.75576240  1
  Ru4+  Ru104  1  0.50043521  0.66590260  -0.00336433  1
  Ru4+  Ru105  1  0.49713966  0.67242413  0.25745104  1
  Ru4+  Ru106  1  0.51363032  0.67152840  0.51474333  1
  Ru4+  Ru107  1  0.49971627  0.66145015  0.74856762  1
  Ru4+  Ru108  1  0.11056156  0.17335041  0.00232813  1
  Ru4+  Ru109  1  0.11153633  0.16883322  0.25233337  1
  Ru4+  Ru110  1  0.11559726  0.16879895  0.50416057  1
  Ru4+  Ru111  1  0.11079278  0.16769111  0.75157455  1
  Ru4+  Ru112  1  0.11761818  0.49576542  0.00166615  1
  Ru4+  Ru113  1  0.11046771  0.49526448  0.25276996  1
  Ru4+  Ru114  1  0.10888315  0.49660464  0.49786990  1
  Ru4+  Ru115  1  0.11209788  0.48985072  0.75311408  1
  Ru4+  Ru116  1  0.11445308  0.84066305  -0.00228031  1
  Ru4+  Ru117  1  0.10867001  0.82982866  0.25153603  1
  Ru4+  Ru118  1  0.11332603  0.83090324  0.49763185  1
  Ru4+  Ru119  1  0.11713654  0.83244378  0.75359645  1
  Ru4+  Ru120  1  0.61018739  0.16553493  -0.00330172  1
  Ru4+  Ru121  1  0.60451926  0.16345824  0.25153976  1
  Ru4+  Ru122  1  0.61109812  0.16370485  0.49924530  1
  Ru4+  Ru123  1  0.61284751  0.16851976  0.75078366  1
  Ru4+  Ru124  1  0.61557977  0.50432227  -0.00546761  1
  Ru4+  Ru125  1  0.61487805  0.49722410  0.24412794  1
  Ru4+  Ru126  1  0.60691683  0.50660266  0.50626182  1
  Ru4+  Ru127  1  0.60982634  0.50007282  0.74904893  1
  Ru4+  Ru128  1  0.61067421  0.83524007  -0.00154461  1
  Ru4+  Ru129  1  0.60871500  0.83470894  0.24734836  1
  Ru4+  Ru130  1  0.60011575  0.83091449  0.49671163  1
  Ru4+  Ru131  1  0.61020023  0.83311641  0.75299884  1
  Ru4+  Ru132  1  0.38717643  0.16786026  0.00122560  1
  Ru4+  Ru133  1  0.38844640  0.15823911  0.25221739  1
  Ru4+  Ru134  1  0.38638695  0.16676123  0.49816571  1
  Ru4+  Ru135  1  0.38786954  0.17541074  0.75402502  1
  Ru4+  Ru136  1  0.38590639  0.50564973  0.00439523  1
  Ru4+  Ru137  1  0.38838524  0.50096319  0.24560616  1
  Ru4+  Ru138  1  0.38812541  0.49950757  0.50894897  1
  Ru4+  Ru139  1  0.38725360  0.49664787  0.74919554  1
  Ru4+  Ru140  1  0.38579738  0.83663329  -0.00261835  1
  Ru4+  Ru141  1  0.39018696  0.82887626  0.25463213  1
  Ru4+  Ru142  1  0.39025938  0.83489258  0.49695411  1
  Ru4+  Ru143  1  0.38122230  0.83646265  0.74814624  1
  Ru4+  Ru144  1  0.88876884  0.16366776  0.00201119  1
  Ru4+  Ru145  1  0.89022025  0.16480989  0.24926052  1
  Ru4+  Ru146  1  0.89207714  0.16790614  0.49894823  1
  Ru4+  Ru147  1  0.88791521  0.18237441  0.74257706  1
  Ru4+  Ru148  1  0.88492763  0.50219694  0.00124118  1
  Ru4+  Ru149  1  0.88723683  0.49675908  0.24652383  1
  Ru4+  Ru150  1  0.88488470  0.49117537  0.50101137  1
  Ru4+  Ru151  1  0.88232788  0.49004840  0.75216197  1
  Ru4+  Ru152  1  0.88680562  0.83119017  -0.00699796  1
  Ru4+  Ru153  1  0.89432088  0.83587647  0.25007625  1
  Ru4+  Ru154  1  0.88852370  0.84175729  0.49460574  1
  Ru4+  Ru155  1  0.88656331  0.83542432  0.75414793  1
  Ru4+  Ru156  1  0.25116328  0.43443766  0.75277456  1
  Ru4+  Ru157  1  0.24921395  0.08931544  -0.01080887  1
  Ru4+  Ru158  1  0.25129537  0.23969805  -0.00723513  1
  Ru4+  Ru159  1  0.75083255  0.94532217  0.24323534  1
  Ru4+  Ru160  1  0.75106840  0.91349329  -0.00087617  1
  Ru4+  Ru161  1  0.24858537  0.23770829  0.73321536  1
  Ru4+  Ru162  1  0.74783334  0.39167123  0.50153667  1
  Ru4+  Ru163  1  0.75054986  0.43159866  0.00236288  1
  Ru4+  Ru164  1  0.24902231  0.09997281  0.74726515  1
  Ru4+  Ru165  1  0.74967267  0.98763780  0.48353600  1
  Ru4+  Ru166  1  0.75122323  0.04697316  0.01175828  1
  Ru4+  Ru167  1  0.25037333  0.57661970  0.75637696  1
  Ru4+  Ru168  1  0.25022813  0.75854023  0.00293983  1
  Ru4+  Ru169  1  0.25049051  0.42460998  -0.00979795  1
  Ru4+  Ru170  1  0.25060947  0.90912637  0.75429145  1
  Ru4+  Ru171  1  0.24944981  0.06748505  0.27794427  1
  Ru4+  Ru172  1  0.75077233  0.56873606  0.25363379  1
  Ru4+  Ru173  1  0.24983241  0.39693453  0.50723621  1
  Ru4+  Ru174  1  0.24963170  0.91065956  0.50290883  1
  Ru4+  Ru175  1  0.74954188  0.75427627  -0.00024135  1
  Ru4+  Ru176  1  0.75005213  0.70167676  0.51051497  1
  Ru4+  Ru177  1  0.24882842  0.73676598  0.26307237  1
  Ru4+  Ru178  1  0.25035186  0.56371865  0.25841634  1
  Ru4+  Ru179  1  0.25168174  0.42722950  0.25113540  1
  O2-  O180  1  0.16259892  0.08623190  -0.00214302  1
  O2-  O181  1  0.16409681  0.08049486  0.25150609  1
  O2-  O182  1  0.16055926  0.08032470  0.49682330  1
  O2-  O183  1  0.16694413  0.08264033  0.75171124  1
  O2-  O184  1  0.16876952  0.41039371  0.00160974  1
  O2-  O185  1  0.17323058  0.42021357  0.24599724  1
  O2-  O186  1  0.16902427  0.41464637  0.50550582  1
  O2-  O187  1  0.17249264  0.41247181  0.75299290  1
  O2-  O188  1  0.16480918  0.74851490  -0.00064601  1
  O2-  O189  1  0.16446665  0.74651297  0.24800060  1
  O2-  O190  1  0.16422604  0.74829065  0.49689866  1
  O2-  O191  1  0.16642834  0.74869564  0.75409984  1
  O2-  O192  1  0.66401128  0.07558547  0.00143484  1
  O2-  O193  1  0.66515534  0.07904859  0.24717495  1
  O2-  O194  1  0.66650551  0.07912337  0.49505492  1
  O2-  O195  1  0.66829137  0.07913373  0.75597943  1
  O2-  O196  1  0.66798303  0.41677927  -0.00179453  1
  O2-  O197  1  0.66899039  0.41700059  0.25740516  1
  O2-  O198  1  0.66274343  0.41696690  0.49825458  1
  O2-  O199  1  0.66700593  0.41520314  0.75394060  1
  O2-  O200  1  0.66574230  0.74772768  0.00242122  1
  O2-  O201  1  0.65920243  0.74345805  0.25372071  1
  O2-  O202  1  0.66722076  0.74569247  0.50079673  1
  O2-  O203  1  0.66510942  0.74828774  0.75232362  1
  O2-  O204  1  0.33485525  0.25455685  -0.00197575  1
  O2-  O205  1  0.34058223  0.25901429  0.24741562  1
  O2-  O206  1  0.33653087  0.25013259  0.49472308  1
  O2-  O207  1  0.32631130  0.25029221  0.76051900  1
  O2-  O208  1  0.33729235  0.58667220  -0.00163815  1
  O2-  O209  1  0.33296697  0.58447958  0.24937647  1
  O2-  O210  1  0.33583758  0.58575295  0.50023867  1
  O2-  O211  1  0.33286358  0.58420724  0.74945357  1
  O2-  O212  1  0.33807306  0.92062222  -0.00175619  1
  O2-  O213  1  0.34205911  0.92046935  0.25528006  1
  O2-  O214  1  0.33385652  0.91944752  0.49720020  1
  O2-  O215  1  0.33522372  0.92402422  0.75143942  1
  O2-  O216  1  0.84469322  0.25722677  0.00209381  1
  O2-  O217  1  0.83783383  0.25336946  0.25350450  1
  O2-  O218  1  0.83329139  0.25226595  0.49296742  1
  O2-  O219  1  0.82853296  0.25462754  0.75022165  1
  O2-  O220  1  0.83108991  0.58466592  -0.00328646  1
  O2-  O221  1  0.83032536  0.58469111  0.25309377  1
  O2-  O222  1  0.83942832  0.58721186  0.50188285  1
  O2-  O223  1  0.83208317  0.58384355  0.75338438  1
  O2-  O224  1  0.83392854  0.91963448  -0.00329033  1
  O2-  O225  1  0.83271654  0.91899081  0.24546211  1
  O2-  O226  1  0.83224664  0.92629653  0.49768290  1
  O2-  O227  1  0.82734997  0.91850016  0.75002976  1
  O2-  O228  1  0.17250306  0.25086447  -0.00270465  1
  O2-  O229  1  0.16551610  0.25553742  0.24273722  1
  O2-  O230  1  0.16880059  0.24713303  0.50538664  1
  O2-  O231  1  0.16846513  0.25313136  0.75101476  1
  O2-  O232  1  0.16390983  0.58509994  -0.00043756  1
  O2-  O233  1  0.16371996  0.58122450  0.24887462  1
  O2-  O234  1  0.16073271  0.58779408  0.49836957  1
  O2-  O235  1  0.16488861  0.58128839  0.75105192  1
  O2-  O236  1  0.16465371  0.91959526  0.00097118  1
  O2-  O237  1  0.16053563  0.92200140  0.25533990  1
  O2-  O238  1  0.16504332  0.92103458  0.49534980  1
  O2-  O239  1  0.16740476  0.92232606  0.75252811  1
  O2-  O240  1  0.65874963  0.25479884  -0.00388519  1
  O2-  O241  1  0.66269172  0.25326732  0.25651929  1
  O2-  O242  1  0.66346779  0.25313270  0.49548819  1
  O2-  O243  1  0.67051135  0.25229040  0.75013263  1
  O2-  O244  1  0.66770325  0.58630562  0.00105105  1
  O2-  O245  1  0.66811745  0.58249258  0.25059130  1
  O2-  O246  1  0.66223377  0.58901527  0.50051226  1
  O2-  O247  1  0.66638930  0.58366607  0.75435423  1
  O2-  O248  1  0.66467811  0.91871718  -0.00101162  1
  O2-  O249  1  0.66823126  0.91933590  0.24663077  1
  O2-  O250  1  0.66615675  0.92049315  0.49627648  1
  O2-  O251  1  0.66488086  0.92047725  0.75236144  1
  O2-  O252  1  0.33146426  0.08216369  -0.00309397  1
  O2-  O253  1  0.33328898  0.07777007  0.25118964  1
  O2-  O254  1  0.33773863  0.07805071  0.49725758  1
  O2-  O255  1  0.33370551  0.08568771  0.75099256  1
  O2-  O256  1  0.33268509  0.41683678  -0.00124863  1
  O2-  O257  1  0.33294846  0.41590522  0.24736442  1
  O2-  O258  1  0.33142235  0.41567105  0.49347816  1
  O2-  O259  1  0.33059403  0.41458401  0.75498650  1
  O2-  O260  1  0.33585540  0.74718994  -0.00120799  1
  O2-  O261  1  0.33207246  0.74646847  0.24967232  1
  O2-  O262  1  0.33872174  0.75159767  0.49905782  1
  O2-  O263  1  0.33478633  0.74748988  0.74969859  1
  O2-  O264  1  0.83301763  0.07486150  0.00041266  1
  O2-  O265  1  0.83103527  0.08397225  0.24595218  1
  O2-  O266  1  0.83264168  0.08230729  0.49975280  1
  O2-  O267  1  0.83881370  0.08295759  0.75584430  1
  O2-  O268  1  0.83560333  0.41352676  0.00225027  1
  O2-  O269  1  0.83862144  0.41275683  0.25446039  1
  O2-  O270  1  0.82914880  0.41310598  0.49136560  1
  O2-  O271  1  0.82809568  0.41178323  0.75372652  1
  O2-  O272  1  0.83306052  0.74754095  -0.00049670  1
  O2-  O273  1  0.83981354  0.74684487  0.25760979  1
  O2-  O274  1  0.83525670  0.74445786  0.50364147  1
  O2-  O275  1  0.83652017  0.74596195  0.74852499  1
  O2-  O276  1  0.44860362  0.76937471  0.20158042  1
  O2-  O277  1  0.04592536  0.90154808  0.26048816  1
  O2-  O278  1  0.03052477  0.46128105  0.22648812  1
  O2-  O279  1  0.45529471  0.56942308  0.02057764  1
  O2-  O280  1  0.04040381  0.20881660  0.52592719  1
  O2-  O281  1  0.05114354  0.57922047  0.02131869  1
  O2-  O282  1  0.46474657  0.43331675  0.46306806  1
  O2-  O283  1  0.04920342  0.56897566  0.74755203  1
  O2-  O284  1  0.54960154  0.76173846  0.23697790  1
  O2-  O285  1  0.05251139  0.76133577  0.97767093  1
  O2-  O286  1  0.44729740  0.75025273  0.76403794  1
  O2-  O287  1  0.05340329  0.09301462  0.26026879  1
  O2-  O288  1  0.54537363  0.23354100  0.98267129  1
  O2-  O289  1  0.45802267  0.42261908  0.01368474  1
  O2-  O290  1  0.45649685  0.89658955  0.00266030  1
  O2-  O291  1  0.03353511  0.22242655  0.96388825  1
  O2-  O292  1  0.44889770  0.77314486  0.73395743  1
  O2-  O293  1  0.54867093  0.08753702  0.01442040  1
  O2-  O294  1  0.95639751  0.76849408  0.50464543  1
  O2-  O295  1  0.95338496  0.24011773  0.25825911  1
  O2-  O296  1  0.94164728  0.56555612  0.73120963  1
  O2-  O297  1  0.04994848  0.90715902  0.98379790  1
  O2-  O298  1  0.95257981  0.89943461  0.74344233  1
  O2-  O299  1  0.95601520  0.11015300  0.74035126  1
  O2-  O300  1  0.96632930  0.78442271  0.28794065  1
  O2-  O301  1  0.04877114  0.57182326  0.47891751  1
  O2-  O302  1  0.94861817  0.75809669  0.76706081  1
  O2-  O303  1  0.95041982  0.89662238  0.00481954  1
  O2-  O304  1  0.04664419  0.75652016  0.01560724  1
  O2-  O305  1  0.44082391  0.09164933  0.73154840  1
  O2-  O306  1  0.45011638  0.56411444  0.73984892  1
  O2-  O307  1  0.94737194  0.08297089  0.76238001  1
  O2-  O308  1  0.53899157  0.55002933  0.45385553  1
  O2-  O309  1  0.54994283  0.75688157  0.76658289  1
  O2-  O310  1  0.45649989  0.09523630  0.51322874  1
  O2-  O311  1  0.45414081  0.08490076  0.76425634  1
  O2-  O312  1  0.54242698  0.76841098  0.98848430  1
  O2-  O313  1  0.45010097  0.90390756  0.48532076  1
  O2-  O314  1  0.45565712  0.22516738  0.25554026  1
  O2-  O315  1  0.54826091  0.57277109  0.74214091  1
  O2-  O316  1  0.04322755  0.56122085  0.98942678  1
  O2-  O317  1  0.53785072  0.43085612  0.28942471  1
  O2-  O318  1  0.54239012  0.22676051  0.51974923  1
  O2-  O319  1  0.94586299  0.91018603  0.76693919  1
  O2-  O320  1  0.94732984  0.56214077  0.51517954  1
  O2-  O321  1  0.46825873  0.22132442  0.79653459  1
  O2-  O322  1  0.94789183  0.58003319  0.76595941  1
  O2-  O323  1  0.03483815  0.44241112  0.53465310  1
  O2-  O324  1  0.06853881  0.93149167  0.71640325  1
  O2-  O325  1  0.58443905  0.42240317  0.16605879  1
  O2-  O326  1  0.56424847  0.41616795  0.04920211  1
  O2-  O327  1  0.93308958  0.72574558  0.17200570  1
  O2-  O328  1  0.06631133  0.25974522  0.45662070  1
  O2-  O329  1  0.94187609  0.92515375  0.43663197  1
  O2-  O330  1  0.93700487  0.59031181  0.97996830  1
  O2-  O331  1  0.93750725  0.40672078  0.53238959  1
  O2-  O332  1  0.56011356  0.42900109  0.30757190  1
  O2-  O333  1  0.92788715  0.93919875  0.72225195  1
  O2-  O334  1  0.56780174  0.91339452  0.56416114  1
  O2-  O335  1  0.05922475  0.40001102  0.83076943  1
  O2-  O336  1  0.43408337  0.07460036  0.02155692  1
  O2-  O337  1  0.06280695  0.25111415  0.27950382  1
  O2-  O338  1  0.08323067  0.39603977  0.30208857  1
  O2-  O339  1  0.07256005  0.42174389  0.68244488  1
  O2-  O340  1  0.56381384  0.93107969  0.21472856  1
  O2-  O341  1  0.43415923  0.41068993  0.01378209  1
  O2-  O342  1  0.06273633  0.74408048  0.73554572  1
  O2-  O343  1  0.44096557  0.71501407  0.33872929  1
  O2-  O344  1  0.41392580  0.42397354  0.59523032  1
  O2-  O345  1  0.07949436  0.39940799  0.44425831  1
  O2-  O346  1  0.93855803  0.25618263  0.51962511  1
  O2-  O347  1  0.57002169  0.42122888  0.93084186  1
  O2-  O348  1  0.93562792  0.25988243  0.68353414  1
  O2-  O349  1  0.94327714  0.58185295  0.21224032  1
  O2-  O350  1  0.41649286  0.26782576  0.69670227  1
  O2-  O351  1  0.44026282  0.73903545  0.18461480  1
  O2-  O352  1  0.92883299  0.91782431  0.57069287  1
  O2-  O353  1  0.93746230  0.07992383  0.97104136  1
  O2-  O354  1  0.93921274  0.59520972  0.52438230  1
  O2-  O355  1  0.93842650  0.07654094  0.28296708  1
  O2-  O356  1  0.55791233  0.59340428  0.21657233  1
  O2-  O357  1  0.93998367  0.08077837  0.46739717  1
  O2-  O358  1  0.56238053  0.75356697  0.57255062  1
  O2-  O359  1  0.93632750  0.92406855  0.31249914  1
  O2-  O360  1  0.56878491  0.07739533  0.72596559  1
  O2-  O361  1  0.57056111  0.59924155  0.57647237  1
  O2-  O362  1  0.94135175  0.27060038  0.83124020  1
  O2-  O363  1  0.08203041  0.27577066  0.05156867  1
  O2-  O364  1  0.43848033  0.59268098  0.52159268  1
  O2-  O365  1  0.56563930  0.25724661  0.72008751  1
  O2-  O366  1  0.56045925  0.92942005  0.42190703  1
  O2-  O367  1  0.44115752  0.42935265  0.44988839  1
  O2-  O368  1  0.56107358  0.73448700  0.42666850  1
  O2-  O369  1  0.93256379  0.91183865  0.17707807  1
  O2-  O370  1  0.56324182  0.59343245  0.96402313  1
  O2-  O371  1  0.05900666  0.06496930  0.28347356  1
  O2-  O372  1  0.25012291  0.01180877  0.88988262  1
  O2-  O373  1  0.75173023  0.32364317  0.17469009  1
  O2-  O374  1  0.25010128  0.65797516  0.58130673  1
  O2-  O375  1  0.24849960  0.65214300  0.18114814  1
  O2-  O376  1  0.74999329  0.66551104  0.83132001  1
  O2-  O377  1  0.24984499  0.65096274  0.35799186  1
  O2-  O378  1  0.24997856  0.00262719  0.05546193  1
  O2-  O379  1  0.25091211  -0.00555185  0.18603593  1
  O2-  O380  1  0.74883898  -0.00041049  0.60296176  1
  O2-  O381  1  0.25033898  0.00525089  0.54933705  1
  O2-  O382  1  0.74983446  0.35147303  0.90424577  1
  O2-  O383  1  0.25049739  0.32094121  0.41457798  1
  O2-  O384  1  0.74914615  0.65652153  0.15377942  1
  O2-  O385  1  0.25047166  0.66624726  0.67208137  1
  O2-  O386  1  0.24934567  0.65683472  0.84788815  1
  O2-  O387  1  0.25146212  0.32854832  0.90809451  1
  O2-  O388  1  0.75135458  0.34852435  0.08309766  1
  O2-  O389  1  0.74878049  0.66383239  0.38362901  1
  O2-  O390  1  0.24812646  0.33152777  0.60895363  1
  O2-  O391  1  0.74914983  0.32746700  0.59762927  1
  O2-  O392  1  0.25052870  0.66292794  0.04720593  1
  O2-  O393  1  0.25059696  0.00138009  0.68621688  1
  O2-  O394  1  0.75043672  0.66395529  0.92330059  1
  O2-  O395  1  0.25098602  0.33167268  0.31799184  1
  O2-  O396  1  0.75073256  0.48960741  0.34009432  1
  O2-  O397  1  0.25020288  0.82769624  0.09715629  1
  O2-  O398  1  0.75026533  0.15410331  0.34341179  1
  O2-  O399  1  0.74808106  0.11018062  0.92166116  1
  O2-  O400  1  0.74598266  0.81548840  0.64343794  1
  O2-  O401  1  0.25018675  0.14681753  0.36122631  1
  O2-  O402  1  0.75067695  0.22321517  0.88328672  1
  O2-  O403  1  0.25059852  0.16498706  0.08834998  1
  O2-  O404  1  0.74944890  0.11519017  0.10808576  1
  O2-  O405  1  0.24978143  0.49446084  0.90399136  1
  O2-  O406  1  0.74979881  0.51111430  0.67213186  1
  O2-  O407  1  0.25009548  0.16691410  0.63437488  1
  O2-  O408  1  0.73391952  0.18141856  0.58591552  1
  O2-  O409  1  0.25013531  0.82523738  0.83254148  1
  O2-  O410  1  0.24970017  0.83244044  0.66745495  1
  O2-  O411  1  0.25008333  0.84129922  0.92034680  1
  O2-  O412  1  0.75031826  0.49969960  0.08845791  1
  O2-  O413  1  0.74973180  0.47288558  0.59139163  1
  O2-  O414  1  0.74965042  0.84563253  0.09754278  1
  O2-  O415  1  0.76354697  0.15393285  0.65155718  1
  O2-  O416  1  0.75218362  0.87839325  0.33525769  1
  O2-  O417  1  0.24981333  0.82888457  0.57560549  1
  O2-  O418  1  0.74682265  0.80334015  0.37999359  1
  O2-  O419  1  0.74934084  0.83815435  0.90795907  1
  O2-  O420  1  0.98937453  0.02455163  0.62475158  1
  O2-  O421  1  0.95496318  0.65334610  0.38119831  1
  O2-  O422  1  0.97904108  0.67432287  0.87029098  1
  O2-  O423  1  0.45151412  0.33253670  0.14471814  1
  O2-  O424  1  0.45510968  0.31807017  0.36589658  1
  O2-  O425  1  0.47497505  0.66272789  0.87339777  1
  O2-  O426  1  0.04971906  -0.00407739  0.11851853  1
  O2-  O427  1  0.02250666  0.32129325  0.62740102  1
  O2-  O428  1  0.51900168  0.33560889  0.86710634  1
  O2-  O429  1  0.95886102  0.02425410  0.11067138  1
  O2-  O430  1  0.04677072  0.67889278  0.36292378  1
  O2-  O431  1  0.04638965  0.66730150  0.60150240  1
  O2-  O432  1  0.01313859  0.34658476  0.13112703  1
  O2-  O433  1  0.98367020  -0.00344118  0.87718360  1
  O2-  O434  1  0.95835797  0.67864790  0.64293103  1
  O2-  O435  1  0.47533195  -0.00493367  0.13091433  1
  O2-  O436  1  0.48261761  0.32412174  0.62445487  1
  O2-  O437  1  0.52778955  -0.01158117  0.87535747  1
  O2-  O438  1  0.47876365  0.67313960  0.63127808  1
  O2-  O439  1  0.53985449  0.29798743  0.12822471  1
  O2-  O440  1  0.53830970  0.35594079  0.60616770  1
  O2-  O441  1  0.51229408  0.00583385  0.62983583  1
  O2-  O442  1  -0.00614713  0.33422637  0.37678213  1
  O2-  O443  1  0.54572026  0.31202914  0.38542855  1
