# generated using pymatgen
data_La7(Ru4O11)2
_symmetry_space_group_name_H-M   'P 1'
_cell_length_a   23.99043107
_cell_length_b   16.83144779
_cell_length_c   15.42726162
_cell_angle_alpha   89.99916962
_cell_angle_beta   90.00089299
_cell_angle_gamma   90.00026449
_symmetry_Int_Tables_number   1
_chemical_formula_structural   La7(Ru4O11)2
_chemical_formula_sum   'La84 Ru96 O264'
_cell_volume   6229.43086593
_cell_formula_units_Z   12
loop_
 _symmetry_equiv_pos_site_id
 _symmetry_equiv_pos_as_xyz
  1  'x, y, z'
loop_
 _atom_type_symbol
 _atom_type_oxidation_number
  La3+  3.0
  Ru4+  4.0
  O2-  -2.0
loop_
 _atom_site_type_symbol
 _atom_site_label
 _atom_site_symmetry_multiplicity
 _atom_site_fract_x
 _atom_site_fract_y
 _atom_site_fract_z
 _atom_site_occupancy
  La3+  La0  1  0.13733493  0.00036862  0.12540229  1
  La3+  La1  1  0.14056614  0.00101382  0.37459355  1
  La3+  La2  1  0.14030302  0.00130561  0.62344384  1
  La3+  La3  1  0.13918349  0.00275800  0.87317715  1
  La3+  La4  1  0.14076014  0.33452673  0.12716657  1
  La3+  La5  1  0.14299677  0.33446773  0.37337799  1
  La3+  La6  1  0.14059990  0.33199699  0.62451278  1
  La3+  La7  1  0.14058048  0.33329669  0.87284027  1
  La3+  La8  1  0.13837252  0.66489753  0.12547867  1
  La3+  La9  1  0.14125550  0.66697518  0.37609219  1
  La3+  La10  1  0.14214514  0.66687004  0.62616947  1
  La3+  La11  1  0.13869830  0.66610887  0.87131708  1
  La3+  La12  1  0.63868233  0.00215034  0.12536494  1
  La3+  La13  1  0.63837422  -0.00020763  0.37292222  1
  La3+  La14  1  0.63947007  -0.00099420  0.62728578  1
  La3+  La15  1  0.64078731  -0.00029184  0.87346191  1
  La3+  La16  1  0.63671101  0.33044374  0.12442829  1
  La3+  La17  1  0.63421364  0.33196022  0.37158249  1
  La3+  La18  1  0.63695400  0.33243072  0.62838672  1
  La3+  La19  1  0.63707916  0.33078448  0.87755982  1
  La3+  La20  1  0.63545015  0.66716014  0.12465521  1
  La3+  La21  1  0.63597939  0.66629351  0.37701537  1
  La3+  La22  1  0.63840327  0.66748791  0.62777541  1
  La3+  La23  1  0.64370435  0.66535882  0.86813320  1
  La3+  La24  1  0.36189785  0.00121705  0.12608687  1
  La3+  La25  1  0.35962125  0.00065075  0.37601573  1
  La3+  La26  1  0.35974313  0.00088386  0.62378874  1
  La3+  La27  1  0.36263285  -0.00030715  0.87467109  1
  La3+  La28  1  0.35796334  0.33325818  0.12849555  1
  La3+  La29  1  0.35721767  0.33486255  0.37320053  1
  La3+  La30  1  0.35862682  0.33480489  0.62380433  1
  La3+  La31  1  0.35893822  0.33287804  0.87113370  1
  La3+  La32  1  0.36331882  0.66754484  0.12567441  1
  La3+  La33  1  0.36105551  0.66729346  0.37667903  1
  La3+  La34  1  0.35795392  0.66754387  0.62744388  1
  La3+  La35  1  0.36177342  0.66670253  0.87153501  1
  La3+  La36  1  0.86029018  0.00284687  0.12582999  1
  La3+  La37  1  0.86089633  0.00073328  0.37313912  1
  La3+  La38  1  0.86309151  -0.00038070  0.62861711  1
  La3+  La39  1  0.86022661  0.00094132  0.87076837  1
  La3+  La40  1  0.86407361  0.33149345  0.12337722  1
  La3+  La41  1  0.86533714  0.33105565  0.37186107  1
  La3+  La42  1  0.86347133  0.33198180  0.62854071  1
  La3+  La43  1  0.86498714  0.33102005  0.87753656  1
  La3+  La44  1  0.86492946  0.66665477  0.12544585  1
  La3+  La45  1  0.86374686  0.66655741  0.37674947  1
  La3+  La46  1  0.86066429  0.66768702  0.62612422  1
  La3+  La47  1  0.86018305  0.66568259  0.87040880  1
  La3+  La48  1  0.00211957  0.17208544  0.13015613  1
  La3+  La49  1  -0.00301182  0.83760981  0.37174598  1
  La3+  La50  1  0.50114988  0.83321176  0.63799630  1
  La3+  La51  1  0.50063226  0.49944558  0.11828841  1
  La3+  La52  1  0.49819834  0.16309633  0.38579708  1
  La3+  La53  1  0.50140663  0.50081204  0.88511691  1
  La3+  La54  1  0.49887180  0.16392519  0.36349713  1
  La3+  La55  1  0.49821518  0.16619763  0.88738416  1
  La3+  La56  1  0.00182376  0.83289785  0.12611020  1
  La3+  La57  1  0.49754257  0.50345706  0.86360431  1
  La3+  La58  1  0.49834398  0.83901486  0.38110356  1
  La3+  La59  1  -0.00086834  0.16761972  0.10867208  1
  La3+  La60  1  0.49874212  0.17321682  0.12348006  1
  La3+  La61  1  0.49996525  0.50049008  0.14085693  1
  La3+  La62  1  0.49978938  0.16785241  0.61749376  1
  La3+  La63  1  -0.00029866  0.50233322  0.61803947  1
  La3+  La64  1  0.50012413  0.49660619  0.61310746  1
  La3+  La65  1  0.49677060  0.82734514  0.36254925  1
  La3+  La66  1  -0.00097362  0.49940832  0.36707950  1
  La3+  La67  1  0.00070212  0.49842520  0.13231730  1
  La3+  La68  1  -0.00279422  0.83595382  0.88518927  1
  La3+  La69  1  -0.00027648  0.16739386  0.36883688  1
  La3+  La70  1  -0.00134286  0.50309008  0.87125269  1
  La3+  La71  1  0.50280770  0.15816231  0.86789813  1
  La3+  La72  1  0.75021789  0.16407486  0.77297508  1
  La3+  La73  1  0.74975667  0.52238464  0.57671870  1
  La3+  La74  1  0.75014178  0.14714929  0.48792554  1
  La3+  La75  1  0.24994857  0.82736386  0.05334985  1
  La3+  La76  1  0.25007617  0.16593094  0.48054840  1
  La3+  La77  1  0.25015030  0.80399396  0.25759571  1
  La3+  La78  1  0.74955919  0.85026923  -0.00182381  1
  La3+  La79  1  0.74998535  0.83265497  0.51939423  1
  La3+  La80  1  0.75002602  0.87919208  0.20197427  1
  La3+  La81  1  0.74989231  0.83291530  0.76508518  1
  La3+  La82  1  0.75019555  0.49608988  0.22707387  1
  La3+  La83  1  0.74891037  0.48050732  -0.00011271  1
  Ru4+  Ru84  1  0.00165245  -0.00205928  -0.00031811  1
  Ru4+  Ru85  1  0.00103852  -0.00140602  0.25060144  1
  Ru4+  Ru86  1  0.00024961  -0.00190416  0.50556754  1
  Ru4+  Ru87  1  -0.00420369  0.00416053  0.74697352  1
  Ru4+  Ru88  1  0.00578749  0.33116896  0.00303113  1
  Ru4+  Ru89  1  0.00112189  0.33333010  0.25097194  1
  Ru4+  Ru90  1  0.00100301  0.33190878  0.49952872  1
  Ru4+  Ru91  1  -0.00041743  0.33248771  0.75070112  1
  Ru4+  Ru92  1  0.00021488  0.66443688  -0.00238284  1
  Ru4+  Ru93  1  -0.00066372  0.66152516  0.25439130  1
  Ru4+  Ru94  1  -0.00049895  0.66644530  0.49752729  1
  Ru4+  Ru95  1  -0.00124673  0.66619722  0.75241385  1
  Ru4+  Ru96  1  0.49902269  -0.00596488  0.00129471  1
  Ru4+  Ru97  1  0.49974488  0.00120879  0.24504966  1
  Ru4+  Ru98  1  0.50014612  0.00155168  0.50498950  1
  Ru4+  Ru99  1  0.49969937  -0.00039532  0.74688957  1
  Ru4+  Ru100  1  0.50035352  0.33220102  -0.00158869  1
  Ru4+  Ru101  1  0.49967311  0.33536048  0.25061982  1
  Ru4+  Ru102  1  0.49936346  0.33853496  0.50068323  1
  Ru4+  Ru103  1  0.49985390  0.33524825  0.74777830  1
  Ru4+  Ru104  1  0.50009685  0.67393257  0.00225687  1
  Ru4+  Ru105  1  0.49935378  0.66526844  0.24947694  1
  Ru4+  Ru106  1  0.50178216  0.66884846  0.49621148  1
  Ru4+  Ru107  1  0.50092030  0.67086921  0.74603620  1
  Ru4+  Ru108  1  0.11335387  0.16706356  0.00015257  1
  Ru4+  Ru109  1  0.11433092  0.16619986  0.25074038  1
  Ru4+  Ru110  1  0.11225343  0.16804080  0.50082406  1
  Ru4+  Ru111  1  0.11227285  0.16760587  0.75058481  1
  Ru4+  Ru112  1  0.11269366  0.49904760  0.00049246  1
  Ru4+  Ru113  1  0.11414551  0.49748524  0.24939062  1
  Ru4+  Ru114  1  0.11356996  0.49905201  0.50000462  1
  Ru4+  Ru115  1  0.11568425  0.50015881  0.74912624  1
  Ru4+  Ru116  1  0.11118584  0.83369840  -0.00066043  1
  Ru4+  Ru117  1  0.11301016  0.83388343  0.24959317  1
  Ru4+  Ru118  1  0.11392326  0.83055070  0.50010199  1
  Ru4+  Ru119  1  0.11529889  0.83333775  0.74793896  1
  Ru4+  Ru120  1  0.61648558  0.16601680  -0.00002573  1
  Ru4+  Ru121  1  0.61568720  0.16516993  0.24922567  1
  Ru4+  Ru122  1  0.61050477  0.16387219  0.50077631  1
  Ru4+  Ru123  1  0.61261223  0.16450552  0.74918835  1
  Ru4+  Ru124  1  0.61071550  0.50080556  -0.00044978  1
  Ru4+  Ru125  1  0.61044896  0.49945463  0.25018163  1
  Ru4+  Ru126  1  0.61009425  0.50150946  0.49920289  1
  Ru4+  Ru127  1  0.61513498  0.50155815  0.74958030  1
  Ru4+  Ru128  1  0.60686049  0.83304696  -0.00163630  1
  Ru4+  Ru129  1  0.61174533  0.83172967  0.24759159  1
  Ru4+  Ru130  1  0.61310530  0.83554131  0.50043405  1
  Ru4+  Ru131  1  0.61122391  0.83108251  0.75054935  1
  Ru4+  Ru132  1  0.38722963  0.16520295  0.00017663  1
  Ru4+  Ru133  1  0.38447557  0.16868518  0.24941589  1
  Ru4+  Ru134  1  0.38720835  0.16683721  0.50176994  1
  Ru4+  Ru135  1  0.38411157  0.16650738  0.74848175  1
  Ru4+  Ru136  1  0.38551025  0.50002618  0.00009345  1
  Ru4+  Ru137  1  0.38591237  0.49829735  0.25068617  1
  Ru4+  Ru138  1  0.38451007  0.49458326  0.49989051  1
  Ru4+  Ru139  1  0.38398551  0.50107779  0.74945700  1
  Ru4+  Ru140  1  0.39152562  0.83226173  0.00026607  1
  Ru4+  Ru141  1  0.38839695  0.83179741  0.24806734  1
  Ru4+  Ru142  1  0.38497144  0.83161921  0.50088791  1
  Ru4+  Ru143  1  0.38692689  0.83256850  0.75064996  1
  Ru4+  Ru144  1  0.88555638  0.16559465  -0.00089499  1
  Ru4+  Ru145  1  0.88488733  0.16790018  0.25116388  1
  Ru4+  Ru146  1  0.89021413  0.16621555  0.49908637  1
  Ru4+  Ru147  1  0.88864455  0.16376814  0.74870717  1
  Ru4+  Ru148  1  0.88724754  0.50480530  -0.00045802  1
  Ru4+  Ru149  1  0.88937474  0.49983688  0.24947243  1
  Ru4+  Ru150  1  0.88973684  0.50194384  0.50094872  1
  Ru4+  Ru151  1  0.88670636  0.50247492  0.74966216  1
  Ru4+  Ru152  1  0.88793191  0.83629319  -0.00069513  1
  Ru4+  Ru153  1  0.88815215  0.83543298  0.25012466  1
  Ru4+  Ru154  1  0.88854066  0.83344901  0.49944921  1
  Ru4+  Ru155  1  0.88906552  0.83533919  0.75015680  1
  Ru4+  Ru156  1  0.75003582  0.36587857  0.22399115  1
  Ru4+  Ru157  1  0.74999708  0.72835901  -0.00064244  1
  Ru4+  Ru158  1  0.24995514  0.57796306  -0.00169235  1
  Ru4+  Ru159  1  0.74986438  0.74576433  0.24243147  1
  Ru4+  Ru160  1  0.24965077  0.08984600  0.74491608  1
  Ru4+  Ru161  1  0.25016778  0.70352611  -0.00983127  1
  Ru4+  Ru162  1  0.75018248  0.41803193  0.75068420  1
  Ru4+  Ru163  1  0.25006551  0.94413415  0.25226196  1
  Ru4+  Ru164  1  0.24999263  0.91036780  0.49567095  1
  Ru4+  Ru165  1  0.25007976  0.57818356  0.50016106  1
  Ru4+  Ru166  1  0.25012990  0.24860919  0.00560261  1
  Ru4+  Ru167  1  0.75021533  0.26979160  0.50180194  1
  Ru4+  Ru168  1  0.75017241  0.01973379  0.50057980  1
  Ru4+  Ru169  1  0.24992947  0.95085550  -0.00713464  1
  Ru4+  Ru170  1  0.24994149  0.09408162  0.00077043  1
  Ru4+  Ru171  1  0.75006035  0.60839765  -0.00913244  1
  Ru4+  Ru172  1  0.75007163  0.97787484  -0.01627260  1
  Ru4+  Ru173  1  0.74993173  0.62180352  0.24872485  1
  Ru4+  Ru174  1  0.75005976  0.40917151  0.49293250  1
  Ru4+  Ru175  1  0.74979192  0.63514240  0.48021674  1
  Ru4+  Ru176  1  0.74986540  0.35003334  -0.00303858  1
  Ru4+  Ru177  1  0.24991783  0.57494760  0.25465291  1
  Ru4+  Ru178  1  0.25016275  0.91179053  0.74364939  1
  Ru4+  Ru179  1  0.24986244  0.41443845  0.00428842  1
  O2-  O180  1  0.16756128  0.08139108  0.00000989  1
  O2-  O181  1  0.16836783  0.08118154  0.24966134  1
  O2-  O182  1  0.16528195  0.08146815  0.49920546  1
  O2-  O183  1  0.16827391  0.08142075  0.74957006  1
  O2-  O184  1  0.16802801  0.41379357  -0.00037778  1
  O2-  O185  1  0.16611460  0.41654904  0.25109348  1
  O2-  O186  1  0.16658643  0.41437723  0.49982155  1
  O2-  O187  1  0.16718337  0.41564650  0.75067675  1
  O2-  O188  1  0.16592299  0.74544545  -0.00054516  1
  O2-  O189  1  0.16775295  0.74537783  0.24981318  1
  O2-  O190  1  0.16495158  0.74954493  0.49956081  1
  O2-  O191  1  0.16655566  0.74908368  0.75281446  1
  O2-  O192  1  0.66796020  0.08147583  0.00124966  1
  O2-  O193  1  0.66579914  0.07997615  0.24892659  1
  O2-  O194  1  0.66495167  0.07871572  0.50077578  1
  O2-  O195  1  0.66647828  0.08109694  0.74802637  1
  O2-  O196  1  0.66721659  0.41016085  0.00021436  1
  O2-  O197  1  0.66749269  0.41136833  0.25015749  1
  O2-  O198  1  0.66491809  0.41171226  0.50053482  1
  O2-  O199  1  0.66639092  0.41411995  0.74961722  1
  O2-  O200  1  0.66667783  0.74795422  0.00204412  1
  O2-  O201  1  0.66603738  0.74679089  0.24943861  1
  O2-  O202  1  0.66636771  0.74597765  0.49934760  1
  O2-  O203  1  0.66893092  0.74911688  0.74702421  1
  O2-  O204  1  0.33246839  0.25339851  0.00026796  1
  O2-  O205  1  0.33316150  0.24944984  0.24985158  1
  O2-  O206  1  0.33134352  0.25308240  0.49914722  1
  O2-  O207  1  0.33160339  0.25020959  0.75100900  1
  O2-  O208  1  0.33264987  0.58640988  0.00030269  1
  O2-  O209  1  0.33336538  0.58639413  0.24924098  1
  O2-  O210  1  0.33218167  0.58480639  0.49893432  1
  O2-  O211  1  0.33270474  0.58481889  0.75231561  1
  O2-  O212  1  0.33361496  0.92086477  0.00076933  1
  O2-  O213  1  0.33282403  0.92030790  0.24949085  1
  O2-  O214  1  0.33266064  0.91937391  0.50116269  1
  O2-  O215  1  0.33391064  0.91985008  0.75062404  1
  O2-  O216  1  0.83071205  0.25429562  -0.00034048  1
  O2-  O217  1  0.83443134  0.25366564  0.24946334  1
  O2-  O218  1  0.83501110  0.25619663  0.50038352  1
  O2-  O219  1  0.83410919  0.25316871  0.75141945  1
  O2-  O220  1  0.83521135  0.58654297  0.00079935  1
  O2-  O221  1  0.83414553  0.58818294  0.24935613  1
  O2-  O222  1  0.83230025  0.58727551  0.49945026  1
  O2-  O223  1  0.83437035  0.58392296  0.74787525  1
  O2-  O224  1  0.83333671  0.92051430  0.00013143  1
  O2-  O225  1  0.83317774  0.92064111  0.25121967  1
  O2-  O226  1  0.83439814  0.92033494  0.49903863  1
  O2-  O227  1  0.83105576  0.91849388  0.74840483  1
  O2-  O228  1  0.16784407  0.25217186  -0.00056537  1
  O2-  O229  1  0.16463240  0.25010929  0.25104336  1
  O2-  O230  1  0.16817416  0.25265069  0.49860904  1
  O2-  O231  1  0.16504625  0.25019916  0.74951545  1
  O2-  O232  1  0.16601238  0.58596449  -0.00035024  1
  O2-  O233  1  0.16598808  0.58658160  0.24984286  1
  O2-  O234  1  0.16656854  0.58560107  0.49885730  1
  O2-  O235  1  0.16569385  0.58516625  0.75226150  1
  O2-  O236  1  0.16738520  0.92072992  0.00064960  1
  O2-  O237  1  0.16779443  0.91934979  0.24980329  1
  O2-  O238  1  0.16785704  0.91901935  0.50135613  1
  O2-  O239  1  0.16655546  0.91862091  0.75127823  1
  O2-  O240  1  0.66840704  0.25237683  -0.00038685  1
  O2-  O241  1  0.66603834  0.25370181  0.24972872  1
  O2-  O242  1  0.66545023  0.25674377  0.50032999  1
  O2-  O243  1  0.66719169  0.25426205  0.75058749  1
  O2-  O244  1  0.66505392  0.58709531  0.00178308  1
  O2-  O245  1  0.66493048  0.58791362  0.25117027  1
  O2-  O246  1  0.66771428  0.58818123  0.49986893  1
  O2-  O247  1  0.66810551  0.58327059  0.74550243  1
  O2-  O248  1  0.66646188  0.91956490  0.00119151  1
  O2-  O249  1  0.66712531  0.92103455  0.25027430  1
  O2-  O250  1  0.66774542  0.91984564  0.50082485  1
  O2-  O251  1  0.66636974  0.91816996  0.74753123  1
  O2-  O252  1  0.33317013  0.08066792  0.00060112  1
  O2-  O253  1  0.33325060  0.08070099  0.24874252  1
  O2-  O254  1  0.33453967  0.08070370  0.49989775  1
  O2-  O255  1  0.33284842  0.08175260  0.75017516  1
  O2-  O256  1  0.33289920  0.41351410  -0.00027426  1
  O2-  O257  1  0.33533959  0.41642222  0.24938467  1
  O2-  O258  1  0.33265095  0.41496241  0.49979148  1
  O2-  O259  1  0.33412949  0.41487041  0.75076259  1
  O2-  O260  1  0.33318542  0.74635099  -0.00004959  1
  O2-  O261  1  0.33246495  0.74589861  0.24992404  1
  O2-  O262  1  0.33316414  0.74896621  0.50007149  1
  O2-  O263  1  0.33460178  0.74883333  0.75204845  1
  O2-  O264  1  0.83445372  0.08164792  -0.00007678  1
  O2-  O265  1  0.83384446  0.07966902  0.25067486  1
  O2-  O266  1  0.83553839  0.07843059  0.49984627  1
  O2-  O267  1  0.83196082  0.08202129  0.74948382  1
  O2-  O268  1  0.83410180  0.41174101  0.00038372  1
  O2-  O269  1  0.83331378  0.41097773  0.24966110  1
  O2-  O270  1  0.83484548  0.41137534  0.49948906  1
  O2-  O271  1  0.83306696  0.41302258  0.74973593  1
  O2-  O272  1  0.83485313  0.74621846  0.00154940  1
  O2-  O273  1  0.83284691  0.74614021  0.24824804  1
  O2-  O274  1  0.83379663  0.74624039  0.49938574  1
  O2-  O275  1  0.83338771  0.74861743  0.74858269  1
  O2-  O276  1  0.04802544  0.43181373  0.51231022  1
  O2-  O277  1  0.54447325  0.90486823  0.23858475  1
  O2-  O278  1  0.04297574  0.44087984  0.78004492  1
  O2-  O279  1  0.54661702  0.23495401  0.25887316  1
  O2-  O280  1  0.04035600  0.76910242  0.77700731  1
  O2-  O281  1  0.45480998  0.42518521  0.48433676  1
  O2-  O282  1  0.95610729  0.77164146  0.22274518  1
  O2-  O283  1  0.04341586  0.76629895  0.27904444  1
  O2-  O284  1  0.04686355  0.09849110  0.76392329  1
  O2-  O285  1  0.45502872  0.43048823  0.26421486  1
  O2-  O286  1  0.53733266  0.10666403  0.03277647  1
  O2-  O287  1  0.94170489  0.25101769  0.98107968  1
  O2-  O288  1  0.46191190  0.21590099  0.75641331  1
  O2-  O289  1  0.54631229  0.76121887  0.23798652  1
  O2-  O290  1  0.54836703  0.42607701  0.76449602  1
  O2-  O291  1  0.55242393  0.23799709  0.76343597  1
  O2-  O292  1  0.45487326  0.09776761  0.23353294  1
  O2-  O293  1  0.04884951  0.76071790  0.98439983  1
  O2-  O294  1  0.95126263  0.42911533  0.51226188  1
  O2-  O295  1  0.94874216  0.90810000  0.23636334  1
  O2-  O296  1  0.54871111  0.56832551  0.26536773  1
  O2-  O297  1  0.52372151  0.79844483  0.98366290  1
  O2-  O298  1  0.54635083  0.23643430  0.49188051  1
  O2-  O299  1  0.54683544  0.90605615  0.25815973  1
  O2-  O300  1  0.94379430  0.92007731  0.77488945  1
  O2-  O301  1  0.54712758  0.76467710  0.48874066  1
  O2-  O302  1  0.95454834  0.56890482  0.98848928  1
  O2-  O303  1  0.04837752  0.90470507  0.24138224  1
  O2-  O304  1  0.04956404  0.91660566  0.04610620  1
  O2-  O305  1  0.95499905  0.42899084  0.02046585  1
  O2-  O306  1  0.04801354  0.90425011  0.26033440  1
  O2-  O307  1  0.45970514  0.56172557  0.49317257  1
  O2-  O308  1  0.95612310  0.77336837  0.02503219  1
  O2-  O309  1  0.46089780  0.22249067  0.76640300  1
  O2-  O310  1  0.45458914  0.76278076  0.73435158  1
  O2-  O311  1  0.45173058  0.23454892  0.01355978  1
  O2-  O312  1  0.46018906  0.56127189  0.49306253  1
  O2-  O313  1  0.95277285  0.43149903  0.98130886  1
  O2-  O314  1  0.04233403  0.89990253  0.77594461  1
  O2-  O315  1  0.53740304  0.55598553  0.71648026  1
  O2-  O316  1  0.56051032  0.25574040  0.97142997  1
  O2-  O317  1  0.94999681  0.43347717  0.76000341  1
  O2-  O318  1  0.45528409  0.90265433  0.76238733  1
  O2-  O319  1  0.03806062  0.89054107  0.53017392  1
  O2-  O320  1  0.04526365  0.56922105  0.73668671  1
  O2-  O321  1  0.45364739  0.43350779  0.73660047  1
  O2-  O322  1  0.95421405  0.09725938  0.23816540  1
  O2-  O323  1  0.45216133  0.56890627  0.26088299  1
  O2-  O324  1  0.43308352  0.73868461  0.03269489  1
  O2-  O325  1  0.56611380  0.59820999  0.46807422  1
  O2-  O326  1  0.94884068  0.24229412  0.98083399  1
  O2-  O327  1  0.57284621  0.73426929  0.06338482  1
  O2-  O328  1  0.57483821  0.06432619  0.95114262  1
  O2-  O329  1  0.06478990  0.40883361  0.02837764  1
  O2-  O330  1  0.56360064  0.40492719  0.96587954  1
  O2-  O331  1  0.43468136  0.92768976  0.97545459  1
  O2-  O332  1  0.06885413  0.93825721  0.70536842  1
  O2-  O333  1  0.41362335  0.29195404  0.69843151  1
  O2-  O334  1  0.43559720  0.40342707  0.96640386  1
  O2-  O335  1  0.07281993  0.73130107  0.20847776  1
  O2-  O336  1  0.56611185  0.92596250  0.97362614  1
  O2-  O337  1  0.06216397  0.07021017  0.31665184  1
  O2-  O338  1  0.93555599  0.07274529  0.72331465  1
  O2-  O339  1  0.06264983  0.07156015  0.03261681  1
  O2-  O340  1  0.55172124  0.24317517  0.97833291  1
  O2-  O341  1  0.43448563  0.74087224  0.47290039  1
  O2-  O342  1  0.05470050  0.91135040  0.04556345  1
  O2-  O343  1  0.58149413  0.71898468  0.94294590  1
  O2-  O344  1  0.06552326  0.25703090  0.02799405  1
  O2-  O345  1  0.43361609  0.92691006  0.47395449  1
  O2-  O346  1  0.07081237  0.94341646  0.91759676  1
  O2-  O347  1  0.56560473  0.74250077  0.77626021  1
  O2-  O348  1  0.06947145  0.38839062  0.69598838  1
  O2-  O349  1  0.93566887  0.40416522  0.21695005  1
  O2-  O350  1  0.43635320  0.59779660  0.71703948  1
  O2-  O351  1  0.93579770  0.59011664  0.27821711  1
  O2-  O352  1  0.56631299  0.40671836  0.22141993  1
  O2-  O353  1  0.56603939  0.92735972  0.47384086  1
  O2-  O354  1  0.07200579  0.73266131  0.71045205  1
  O2-  O355  1  0.57499451  0.60094238  0.79691232  1
  O2-  O356  1  0.06848013  0.94136979  0.45018879  1
  O2-  O357  1  0.94529811  0.91106659  0.77310408  1
  O2-  O358  1  0.43709404  0.59510281  0.03302603  1
  O2-  O359  1  0.43576947  0.73587809  0.21850560  1
  O2-  O360  1  0.43519844  0.26397753  0.43780305  1
  O2-  O361  1  0.93480735  0.93295513  0.06074938  1
  O2-  O362  1  0.43323253  0.25660124  0.55624595  1
  O2-  O363  1  0.06444665  0.40714524  0.22390299  1
  O2-  O364  1  0.42553921  0.61264195  0.54604422  1
  O2-  O365  1  0.92767240  0.73369353  0.29317284  1
  O2-  O366  1  0.06311989  0.06938182  0.18478857  1
  O2-  O367  1  0.06245825  0.26478471  0.53094576  1
  O2-  O368  1  0.93395837  0.59356525  0.52792323  1
  O2-  O369  1  0.93657832  0.93112201  0.94148563  1
  O2-  O370  1  0.92753125  0.73049828  0.95658874  1
  O2-  O371  1  0.43587744  0.26411130  0.28358966  1
  O2-  O372  1  0.74997244  0.32464208  0.69093462  1
  O2-  O373  1  0.75016222  0.66948777  0.60169750  1
  O2-  O374  1  0.75020368  -0.00250368  0.84945443  1
  O2-  O375  1  0.74994177  0.33963573  0.59888072  1
  O2-  O376  1  0.25008141  -0.00097262  0.40609688  1
  O2-  O377  1  0.25018504  0.33251459  0.14184592  1
  O2-  O378  1  0.74987315  0.67027099  0.36291567  1
  O2-  O379  1  0.24998538  0.33191818  0.91974753  1
  O2-  O380  1  0.24996553  0.00269272  0.67676198  1
  O2-  O381  1  0.74993402  0.33763361  0.40085863  1
  O2-  O382  1  0.24972141  0.33127046  0.34696595  1
  O2-  O383  1  0.24970964  0.66446536  0.66835981  1
  O2-  O384  1  0.74970288  -0.00797562  0.61233719  1
  O2-  O385  1  0.24965950  0.66949285  0.32853469  1
  O2-  O386  1  0.75060596  0.67054447  0.85083750  1
  O2-  O387  1  0.24950234  0.66894860  0.57976878  1
  O2-  O388  1  0.24996943  0.33334936  0.83065192  1
  O2-  O389  1  0.24953910  0.66762738  0.42073650  1
  O2-  O390  1  0.75020046  -0.00839365  0.38774844  1
  O2-  O391  1  0.25016140  0.00908451  0.88852769  1
  O2-  O392  1  0.74983377  0.00187143  0.10571834  1
  O2-  O393  1  0.75003353  0.30699573  0.32160674  1
  O2-  O394  1  0.25022566  0.00624756  0.10525247  1
  O2-  O395  1  0.24975169  0.00057843  0.57107174  1
  O2-  O396  1  0.75001692  0.16719577  0.08487492  1
  O2-  O397  1  0.24999461  0.16621089  0.90861886  1
  O2-  O398  1  0.24996157  0.50089172  0.66634091  1
  O2-  O399  1  0.74996800  0.83324026  0.63977803  1
  O2-  O400  1  0.75002095  0.16705629  0.16481642  1
  O2-  O401  1  0.24988937  0.82677209  0.81698738  1
  O2-  O402  1  0.75019236  0.82859563  0.31942001  1
  O2-  O403  1  0.24996680  0.83583612  0.40967229  1
  O2-  O404  1  0.24996808  0.50087774  0.08197283  1
  O2-  O405  1  0.24986390  0.83592569  0.90546284  1
  O2-  O406  1  0.24991338  0.16449249  0.61604316  1
  O2-  O407  1  0.74990057  0.51138335  0.80253727  1
  O2-  O408  1  0.24985891  0.49844057  0.58293191  1
  O2-  O409  1  0.75016508  0.50215738  0.42561422  1
  O2-  O410  1  0.24991849  0.49911247  0.17074202  1
  O2-  O411  1  0.24988404  0.50502209  0.33951170  1
  O2-  O412  1  0.74998387  0.49842073  0.34358679  1
  O2-  O413  1  0.74987997  0.16794191  0.63826038  1
  O2-  O414  1  0.75006549  0.50279914  0.11285915  1
  O2-  O415  1  0.75003060  0.16669348  0.34911388  1
  O2-  O416  1  0.25005097  0.83828041  0.65893252  1
  O2-  O417  1  0.75023945  0.50077911  0.88198740  1
  O2-  O418  1  0.74980858  0.83456969  0.39960487  1
  O2-  O419  1  0.25001112  0.49958437  0.90895733  1
  O2-  O420  1  0.52429726  0.65532829  0.12897692  1
  O2-  O421  1  0.52991856  -0.00150765  0.86066713  1
  O2-  O422  1  0.96329334  0.66370488  0.12506913  1
  O2-  O423  1  0.97048024  0.33551249  0.86767501  1
  O2-  O424  1  0.97346667  -0.00188457  0.61701070  1
  O2-  O425  1  0.03153720  0.33191937  0.87754366  1
  O2-  O426  1  0.52680428  0.66043024  0.87940737  1
  O2-  O427  1  0.97811564  0.66542165  0.38510535  1
  O2-  O428  1  0.02022162  0.32691373  0.12799223  1
  O2-  O429  1  0.46117404  0.00406235  0.36877700  1
  O2-  O430  1  0.47469411  0.66873480  0.37189913  1
  O2-  O431  1  0.45992315  0.66559975  0.87498981  1
  O2-  O432  1  0.48050849  0.34126894  0.62298440  1
  O2-  O433  1  0.46681680  0.00679425  0.87145575  1
  O2-  O434  1  0.53846482  0.00729475  0.37181637  1
  O2-  O435  1  0.97185434  0.33290474  0.37445824  1
  O2-  O436  1  0.97031253  0.67005036  0.62977166  1
  O2-  O437  1  0.02889799  0.66271133  0.61496184  1
  O2-  O438  1  0.03334339  0.65872594  0.11716135  1
  O2-  O439  1  0.52808105  0.66859184  0.62320017  1
  O2-  O440  1  0.52907416  0.33464919  0.37536306  1
  O2-  O441  1  0.45708351  0.33491285  0.12828399  1
  O2-  O442  1  0.97566194  0.66208662  0.86721284  1
  O2-  O443  1  0.54027710  0.32936560  0.12016854  1
