# generated using pymatgen
data_La7(Ru4O11)2
_symmetry_space_group_name_H-M   'P 1'
_cell_length_a   23.99068066
_cell_length_b   16.83134314
_cell_length_c   15.42784520
_cell_angle_alpha   90.00152423
_cell_angle_beta   90.00061037
_cell_angle_gamma   89.99955838
_symmetry_Int_Tables_number   1
_chemical_formula_structural   La7(Ru4O11)2
_chemical_formula_sum   'La84 Ru96 O264'
_cell_volume   6229.69258850
_cell_formula_units_Z   12
loop_
 _symmetry_equiv_pos_site_id
 _symmetry_equiv_pos_as_xyz
  1  'x, y, z'
loop_
 _atom_type_symbol
 _atom_type_oxidation_number
  La3+  3.0
  Ru4+  4.0
  O2-  -2.0
loop_
 _atom_site_type_symbol
 _atom_site_label
 _atom_site_symmetry_multiplicity
 _atom_site_fract_x
 _atom_site_fract_y
 _atom_site_fract_z
 _atom_site_occupancy
  La3+  La0  1  0.13511023  0.00101187  0.12177983  1
  La3+  La1  1  0.13985004  -0.00336964  0.37821629  1
  La3+  La2  1  0.14541002  0.00037667  0.62172310  1
  La3+  La3  1  0.13756938  0.00284821  0.87779481  1
  La3+  La4  1  0.13731919  0.33444520  0.12659965  1
  La3+  La5  1  0.13615365  0.33043056  0.37457795  1
  La3+  La6  1  0.13257209  0.33179038  0.62575077  1
  La3+  La7  1  0.13925372  0.33496331  0.87173493  1
  La3+  La8  1  0.13929526  0.66365728  0.11912025  1
  La3+  La9  1  0.13177301  0.66681161  0.37075544  1
  La3+  La10  1  0.13645345  0.67029762  0.63092588  1
  La3+  La11  1  0.14316042  0.66472764  0.87547250  1
  La3+  La12  1  0.63665222  0.00143504  0.12905317  1
  La3+  La13  1  0.64178140  -0.00357851  0.37388952  1
  La3+  La14  1  0.63290209  -0.00323553  0.62143168  1
  La3+  La15  1  0.63698892  0.00128614  0.87229266  1
  La3+  La16  1  0.64303840  0.33440920  0.13239054  1
  La3+  La17  1  0.64288799  0.32875754  0.37226314  1
  La3+  La18  1  0.63638950  0.33163450  0.62427343  1
  La3+  La19  1  0.64381250  0.33066996  0.87564656  1
  La3+  La20  1  0.64334993  0.66583300  0.12453716  1
  La3+  La21  1  0.63714319  0.67196876  0.37921362  1
  La3+  La22  1  0.63796204  0.66589044  0.61845679  1
  La3+  La23  1  0.64268215  0.66614160  0.87535363  1
  La3+  La24  1  0.36168349  -0.00100285  0.12569175  1
  La3+  La25  1  0.36153092  -0.00338023  0.37580283  1
  La3+  La26  1  0.36067704  -0.00227217  0.62406785  1
  La3+  La27  1  0.36156554  -0.00029346  0.87597153  1
  La3+  La28  1  0.36224947  0.33490441  0.12547040  1
  La3+  La29  1  0.36277347  0.33086628  0.37454540  1
  La3+  La30  1  0.36527487  0.32897166  0.62781773  1
  La3+  La31  1  0.35954023  0.33419034  0.87411930  1
  La3+  La32  1  0.36927857  0.67720006  0.10721928  1
  La3+  La33  1  0.36440110  0.66648337  0.37246497  1
  La3+  La34  1  0.36182929  0.66862525  0.63027694  1
  La3+  La35  1  0.36133004  0.67429125  0.88261481  1
  La3+  La36  1  0.86138741  -0.00033389  0.12834438  1
  La3+  La37  1  0.85588497  -0.00286639  0.37283887  1
  La3+  La38  1  0.86149520  0.00018909  0.62401031  1
  La3+  La39  1  0.86139721  0.00180262  0.87327410  1
  La3+  La40  1  0.85851244  0.33830607  0.12960645  1
  La3+  La41  1  0.84984579  0.33217273  0.36902330  1
  La3+  La42  1  0.85859308  0.33231715  0.62371199  1
  La3+  La43  1  0.85997007  0.33145336  0.87577427  1
  La3+  La44  1  0.86943405  0.65529272  0.11081371  1
  La3+  La45  1  0.86275269  0.67048172  0.37730345  1
  La3+  La46  1  0.86458631  0.66792952  0.62507069  1
  La3+  La47  1  0.86950228  0.65889076  0.88116912  1
  La3+  La48  1  0.49469086  0.83461767  0.38229045  1
  La3+  La49  1  -0.00183919  0.16652190  0.88431090  1
  La3+  La50  1  0.50068677  0.83654687  0.36210645  1
  La3+  La51  1  0.00017973  0.17258609  0.63687844  1
  La3+  La52  1  -0.00261742  0.50906314  0.88038532  1
  La3+  La53  1  0.50224452  0.50563207  0.36265727  1
  La3+  La54  1  -0.00053416  0.82948902  0.13564132  1
  La3+  La55  1  0.00427054  0.16313877  0.61789445  1
  La3+  La56  1  0.49599183  0.15731977  0.61813792  1
  La3+  La57  1  -0.00154050  0.50664586  0.11131002  1
  La3+  La58  1  0.49236842  0.82698464  0.10884722  1
  La3+  La59  1  0.49412988  0.49566129  0.14272896  1
  La3+  La60  1  0.49936423  0.16521392  0.12348180  1
  La3+  La61  1  -0.00195602  0.50687414  0.12857200  1
  La3+  La62  1  -0.00031444  0.83032801  0.87625358  1
  La3+  La63  1  -0.00042380  0.16856154  0.37321937  1
  La3+  La64  1  0.49804946  0.83173455  0.88307268  1
  La3+  La65  1  0.00375210  0.50303861  0.36264038  1
  La3+  La66  1  -0.00044346  0.16633487  0.13431216  1
  La3+  La67  1  0.50291317  0.16139650  0.37804290  1
  La3+  La68  1  0.49900455  0.16852572  0.86469318  1
  La3+  La69  1  0.49403705  0.49330827  0.12568760  1
  La3+  La70  1  0.50351617  0.50439829  0.61705352  1
  La3+  La71  1  0.49937090  0.49904672  0.88321662  1
  La3+  La72  1  0.24976223  0.46588890  0.27501994  1
  La3+  La73  1  0.75017110  0.83136371  0.23057721  1
  La3+  La74  1  0.74912614  0.20160364  0.53144686  1
  La3+  La75  1  0.24961055  0.77773677  0.24144401  1
  La3+  La76  1  0.24979011  0.50831527  0.73868181  1
  La3+  La77  1  0.74999568  0.21861436  0.03706887  1
  La3+  La78  1  0.74980654  0.17165056  0.25647497  1
  La3+  La79  1  0.24956273  0.48326206  0.48787260  1
  La3+  La80  1  0.74965004  0.83821321  0.71539140  1
  La3+  La81  1  0.25022964  0.20796753  0.22875494  1
  La3+  La82  1  0.75010675  0.78332432  -0.02671113  1
  La3+  La83  1  0.74998265  0.49438561  0.45522389  1
  Ru4+  Ru84  1  -0.00925207  -0.00260830  -0.00753020  1
  Ru4+  Ru85  1  0.00055415  -0.00136545  0.25720637  1
  Ru4+  Ru86  1  -0.00001540  -0.00867092  0.49434036  1
  Ru4+  Ru87  1  0.00630914  -0.01442757  0.75507801  1
  Ru4+  Ru88  1  -0.00107490  0.33354425  -0.00419691  1
  Ru4+  Ru89  1  0.00915567  0.32895247  0.25114798  1
  Ru4+  Ru90  1  -0.01072566  0.35091518  0.49979450  1
  Ru4+  Ru91  1  0.00033874  0.33913340  0.75244126  1
  Ru4+  Ru92  1  -0.00367116  0.66881691  -0.00094769  1
  Ru4+  Ru93  1  -0.00492895  0.67565834  0.25304713  1
  Ru4+  Ru94  1  0.00321060  0.67713293  0.50116455  1
  Ru4+  Ru95  1  0.00527271  0.66495949  0.74680642  1
  Ru4+  Ru96  1  0.49224675  -0.00280862  -0.00780147  1
  Ru4+  Ru97  1  0.50663222  0.00646633  0.25460994  1
  Ru4+  Ru98  1  0.49938565  0.00494221  0.50748285  1
  Ru4+  Ru99  1  0.49716052  0.00329861  0.74285577  1
  Ru4+  Ru100  1  0.49991041  0.33430073  0.00280400  1
  Ru4+  Ru101  1  0.49527508  0.33369448  0.25168404  1
  Ru4+  Ru102  1  0.49960602  0.34574703  0.50509299  1
  Ru4+  Ru103  1  0.49660505  0.33122067  0.75508723  1
  Ru4+  Ru104  1  0.49889973  0.66952214  -0.00496270  1
  Ru4+  Ru105  1  0.49617231  0.66947620  0.24941648  1
  Ru4+  Ru106  1  0.49695482  0.66538353  0.50594051  1
  Ru4+  Ru107  1  0.49944008  0.66421551  0.74843961  1
  Ru4+  Ru108  1  0.11525202  0.17379087  -0.00084276  1
  Ru4+  Ru109  1  0.11021997  0.16844183  0.24843243  1
  Ru4+  Ru110  1  0.11565447  0.16046977  0.49785418  1
  Ru4+  Ru111  1  0.11456270  0.16933458  0.75376933  1
  Ru4+  Ru112  1  0.11905047  0.49657665  0.00046499  1
  Ru4+  Ru113  1  0.11515274  0.49463291  0.24878598  1
  Ru4+  Ru114  1  0.11078667  0.49796968  0.50111823  1
  Ru4+  Ru115  1  0.11083569  0.50241982  0.74881248  1
  Ru4+  Ru116  1  0.11446450  0.82675638  0.00114447  1
  Ru4+  Ru117  1  0.10932818  0.83329375  0.24953780  1
  Ru4+  Ru118  1  0.10740727  0.83596915  0.50102302  1
  Ru4+  Ru119  1  0.10722418  0.83887812  0.74730903  1
  Ru4+  Ru120  1  0.61233656  0.17248352  0.00029356  1
  Ru4+  Ru121  1  0.61478628  0.16287286  0.24928638  1
  Ru4+  Ru122  1  0.61400550  0.16448108  0.50082200  1
  Ru4+  Ru123  1  0.61533670  0.17031660  0.74974946  1
  Ru4+  Ru124  1  0.61346468  0.50515780  -0.00201060  1
  Ru4+  Ru125  1  0.61455558  0.49910338  0.24820423  1
  Ru4+  Ru126  1  0.61137870  0.50036316  0.50195065  1
  Ru4+  Ru127  1  0.61508444  0.50183658  0.75271467  1
  Ru4+  Ru128  1  0.60920075  0.82953400  0.00159029  1
  Ru4+  Ru129  1  0.61465189  0.83201605  0.24734175  1
  Ru4+  Ru130  1  0.61573455  0.82612151  0.50642871  1
  Ru4+  Ru131  1  0.61304409  0.82736867  0.74883857  1
  Ru4+  Ru132  1  0.38819892  0.16465876  0.00038776  1
  Ru4+  Ru133  1  0.38997060  0.17046149  0.24926792  1
  Ru4+  Ru134  1  0.38608371  0.16022758  0.49989760  1
  Ru4+  Ru135  1  0.38791610  0.16593816  0.75066996  1
  Ru4+  Ru136  1  0.38826878  0.50201868  -0.00053391  1
  Ru4+  Ru137  1  0.38740250  0.49899697  0.25054250  1
  Ru4+  Ru138  1  0.39102039  0.49802653  0.50293528  1
  Ru4+  Ru139  1  0.38798255  0.49714081  0.75306176  1
  Ru4+  Ru140  1  0.38794747  0.83195512  0.00011541  1
  Ru4+  Ru141  1  0.38489525  0.82799688  0.24481819  1
  Ru4+  Ru142  1  0.38447090  0.83557961  0.50233150  1
  Ru4+  Ru143  1  0.38604100  0.83014104  0.75333156  1
  Ru4+  Ru144  1  0.88898759  0.16666499  -0.00135855  1
  Ru4+  Ru145  1  0.88965249  0.16882306  0.24987734  1
  Ru4+  Ru146  1  0.88614931  0.16721342  0.49797796  1
  Ru4+  Ru147  1  0.88431384  0.16180018  0.75327324  1
  Ru4+  Ru148  1  0.88690233  0.50126095  0.00212274  1
  Ru4+  Ru149  1  0.88379445  0.50381336  0.24710303  1
  Ru4+  Ru150  1  0.89362977  0.48634872  0.50111203  1
  Ru4+  Ru151  1  0.89050315  0.49951153  0.75370099  1
  Ru4+  Ru152  1  0.88973596  0.83233422  0.00406385  1
  Ru4+  Ru153  1  0.88927324  0.83197344  0.24939698  1
  Ru4+  Ru154  1  0.88693594  0.83029528  0.49874420  1
  Ru4+  Ru155  1  0.88615311  0.83737866  0.75065307  1
  Ru4+  Ru156  1  0.25017116  0.06817810  0.26800553  1
  Ru4+  Ru157  1  0.24954528  0.61531784  0.50643725  1
  Ru4+  Ru158  1  0.24932984  0.92791072  0.25582672  1
  Ru4+  Ru159  1  0.25041810  0.25047066  0.75711341  1
  Ru4+  Ru160  1  0.75071014  0.97448138  0.72148523  1
  Ru4+  Ru161  1  0.74996151  0.41471533  0.75705487  1
  Ru4+  Ru162  1  0.24967822  0.90587011  0.74787702  1
  Ru4+  Ru163  1  0.25043279  0.08404351  0.48677149  1
  Ru4+  Ru164  1  0.75027964  0.58346502  0.24126010  1
  Ru4+  Ru165  1  0.24992508  0.90724860  -0.00893040  1
  Ru4+  Ru166  1  0.75025239  0.57000841  0.76184642  1
  Ru4+  Ru167  1  0.74998574  0.70404439  0.72637051  1
  Ru4+  Ru168  1  0.25046269  0.59840386  0.21095672  1
  Ru4+  Ru169  1  0.25030170  0.35956450  0.54337627  1
  Ru4+  Ru170  1  0.74959254  0.41930453  0.00783704  1
  Ru4+  Ru171  1  0.25017432  0.25294033  -0.00423554  1
  Ru4+  Ru172  1  0.74969899  0.07647763  0.00442857  1
  Ru4+  Ru173  1  0.25047761  0.42079113  -0.01047617  1
  Ru4+  Ru174  1  0.24996084  0.09689383  0.00089326  1
  Ru4+  Ru175  1  0.74982489  0.92557742  0.01230393  1
  Ru4+  Ru176  1  0.25010082  0.08932747  0.75269054  1
  Ru4+  Ru177  1  0.24992321  0.23494572  0.48596475  1
  Ru4+  Ru178  1  0.74996027  0.05530209  0.47963921  1
  Ru4+  Ru179  1  0.24986886  0.76603196  0.51235069  1
  O2-  O180  1  0.16693506  0.08214890  0.00374872  1
  O2-  O181  1  0.16619528  0.08119246  0.25085930  1
  O2-  O182  1  0.16801388  0.08025530  0.49598069  1
  O2-  O183  1  0.16608018  0.08162335  0.75012342  1
  O2-  O184  1  0.16964399  0.41238922  0.00002064  1
  O2-  O185  1  0.16482585  0.40962379  0.24705081  1
  O2-  O186  1  0.16295410  0.41096329  0.50128888  1
  O2-  O187  1  0.16508801  0.41235537  0.74867948  1
  O2-  O188  1  0.16474399  0.74744286  0.00029647  1
  O2-  O189  1  0.15781995  0.74355593  0.24843276  1
  O2-  O190  1  0.16665549  0.74979926  0.49989061  1
  O2-  O191  1  0.16174717  0.75412479  0.75117252  1
  O2-  O192  1  0.66537300  0.07894708  -0.00030455  1
  O2-  O193  1  0.66949344  0.08269568  0.24737808  1
  O2-  O194  1  0.66997063  0.08016723  0.50081730  1
  O2-  O195  1  0.66143935  0.08073145  0.75051037  1
  O2-  O196  1  0.66505468  0.41589813  0.00273279  1
  O2-  O197  1  0.66407867  0.41667042  0.25026980  1
  O2-  O198  1  0.66617115  0.41480029  0.49828695  1
  O2-  O199  1  0.66898470  0.41515173  0.74660228  1
  O2-  O200  1  0.66041386  0.74429522  0.00442555  1
  O2-  O201  1  0.66770308  0.74625929  0.25027771  1
  O2-  O202  1  0.66897888  0.74692138  0.49734657  1
  O2-  O203  1  0.66599988  0.74600421  0.74747622  1
  O2-  O204  1  0.33398906  0.25177304  0.00126919  1
  O2-  O205  1  0.33838596  0.25560287  0.24874254  1
  O2-  O206  1  0.33363101  0.25162059  0.49797939  1
  O2-  O207  1  0.33028729  0.25278308  0.75231479  1
  O2-  O208  1  0.33755686  0.58622267  0.00020462  1
  O2-  O209  1  0.33216412  0.58621893  0.24656435  1
  O2-  O210  1  0.33385883  0.58689788  0.49952736  1
  O2-  O211  1  0.33769639  0.58438266  0.74882458  1
  O2-  O212  1  0.33307948  0.91838631  0.00140548  1
  O2-  O213  1  0.33338965  0.92069061  0.25283173  1
  O2-  O214  1  0.33592703  0.91996497  0.50092526  1
  O2-  O215  1  0.33407427  0.91810305  0.74839859  1
  O2-  O216  1  0.83533416  0.25520714  0.00132059  1
  O2-  O217  1  0.83546602  0.24950986  0.24619816  1
  O2-  O218  1  0.83573827  0.25403205  0.49968098  1
  O2-  O219  1  0.83804759  0.25181870  0.75184135  1
  O2-  O220  1  0.83243573  0.58360983  -0.00021516  1
  O2-  O221  1  0.83283232  0.58750734  0.25292302  1
  O2-  O222  1  0.83522034  0.58474655  0.49787488  1
  O2-  O223  1  0.83366378  0.58510176  0.74795380  1
  O2-  O224  1  0.83616054  0.91882086  0.00116105  1
  O2-  O225  1  0.83563939  0.92021924  0.24683653  1
  O2-  O226  1  0.83817224  0.91762214  0.49932320  1
  O2-  O227  1  0.83327139  0.92199513  0.74724066  1
  O2-  O228  1  0.16805830  0.25344359  -0.00153828  1
  O2-  O229  1  0.16443029  0.25524900  0.24925527  1
  O2-  O230  1  0.16649262  0.25251773  0.49965177  1
  O2-  O231  1  0.16900342  0.25418907  0.75072180  1
  O2-  O232  1  0.16613257  0.58339231  0.00049924  1
  O2-  O233  1  0.16808912  0.58655228  0.24836468  1
  O2-  O234  1  0.16701508  0.59014151  0.49965469  1
  O2-  O235  1  0.16631397  0.58284428  0.75091484  1
  O2-  O236  1  0.16579001  0.91849447  0.00246617  1
  O2-  O237  1  0.16496830  0.92115801  0.25036519  1
  O2-  O238  1  0.16340896  0.91751436  0.49899502  1
  O2-  O239  1  0.17069421  0.91508696  0.75101574  1
  O2-  O240  1  0.66329086  0.25501388  0.00151229  1
  O2-  O241  1  0.66516636  0.25063547  0.24944844  1
  O2-  O242  1  0.66254656  0.25556190  0.49938930  1
  O2-  O243  1  0.66797649  0.25182722  0.74558986  1
  O2-  O244  1  0.66710561  0.58273400  0.00416998  1
  O2-  O245  1  0.66753875  0.58627043  0.25315497  1
  O2-  O246  1  0.67086889  0.58646649  0.49570844  1
  O2-  O247  1  0.66726932  0.58393193  0.74880404  1
  O2-  O248  1  0.66472906  0.92108120  -0.00087529  1
  O2-  O249  1  0.66828903  0.91916356  0.24575016  1
  O2-  O250  1  0.66374272  0.91866618  0.50007718  1
  O2-  O251  1  0.66662437  0.92317538  0.74970201  1
  O2-  O252  1  0.33108838  0.08184526  0.00038486  1
  O2-  O253  1  0.33368429  0.07974102  0.25277850  1
  O2-  O254  1  0.33348981  0.08002372  0.49891393  1
  O2-  O255  1  0.33479680  0.08095805  0.74823920  1
  O2-  O256  1  0.32929008  0.41379788  0.00205824  1
  O2-  O257  1  0.33488662  0.41135873  0.24598219  1
  O2-  O258  1  0.33223155  0.41163998  0.49577933  1
  O2-  O259  1  0.32990451  0.41356663  0.74624093  1
  O2-  O260  1  0.33193408  0.75004508  0.00018320  1
  O2-  O261  1  0.33972497  0.73967307  0.24938697  1
  O2-  O262  1  0.33526620  0.74671530  0.50116443  1
  O2-  O263  1  0.33671647  0.74969769  0.74980587  1
  O2-  O264  1  0.83356704  0.08041900  0.00291149  1
  O2-  O265  1  0.83343434  0.08008126  0.24630354  1
  O2-  O266  1  0.83179040  0.07926072  0.49935774  1
  O2-  O267  1  0.83265801  0.08017538  0.74959075  1
  O2-  O268  1  0.83360253  0.41527552  -0.00009056  1
  O2-  O269  1  0.83462675  0.41816776  0.24878468  1
  O2-  O270  1  0.82861299  0.41768717  0.49986553  1
  O2-  O271  1  0.83486103  0.41457568  0.74961290  1
  O2-  O272  1  0.83852890  0.74298578  0.00331544  1
  O2-  O273  1  0.83575496  0.74504315  0.25166613  1
  O2-  O274  1  0.83597360  0.74591409  0.49957018  1
  O2-  O275  1  0.83421125  0.74249977  0.74750861  1
  O2-  O276  1  0.05081286  0.56571440  0.99206137  1
  O2-  O277  1  0.98022477  0.47151703  0.49371611  1
  O2-  O278  1  0.04878955  0.24254969  0.51854505  1
  O2-  O279  1  0.04595576  0.57125632  0.25041151  1
  O2-  O280  1  0.95121677  0.23905537  0.51349811  1
  O2-  O281  1  0.05011346  0.23514413  0.48037713  1
  O2-  O282  1  0.45063454  0.91352708  0.26765068  1
  O2-  O283  1  0.54322465  0.90714723  0.77223673  1
  O2-  O284  1  0.95540704  0.43096468  0.26120438  1
  O2-  O285  1  0.04649589  0.76165479  0.99347678  1
  O2-  O286  1  0.04707418  0.09811372  0.02370551  1
  O2-  O287  1  0.45219720  0.23538733  0.47690208  1
  O2-  O288  1  0.95399481  0.43186968  0.22207302  1
  O2-  O289  1  0.54648199  0.90128732  0.00592334  1
  O2-  O290  1  0.45511534  0.10305418  0.24261761  1
  O2-  O291  1  0.45421392  0.23691688  0.51603991  1
  O2-  O292  1  0.45508391  0.76728879  0.99319032  1
  O2-  O293  1  0.94752722  0.76721653  0.76634771  1
  O2-  O294  1  0.04609654  0.90314099  0.50675755  1
  O2-  O295  1  0.95416496  0.56347287  1.00398572  1
  O2-  O296  1  0.55735361  0.74795667  0.44555717  1
  O2-  O297  1  0.01100618  0.87748621  0.73097105  1
  O2-  O298  1  0.55051680  0.23559471  0.48798003  1
  O2-  O299  1  0.54196481  0.89935280  0.51612272  1
  O2-  O300  1  0.05006753  0.09666115  0.98463538  1
  O2-  O301  1  0.54756914  0.57191898  0.25681722  1
  O2-  O302  1  0.53691437  0.21591771  0.71506150  1
  O2-  O303  1  0.95410439  0.43261663  0.75926439  1
  O2-  O304  1  0.55198231  0.09927798  0.01690453  1
  O2-  O305  1  0.46678353  0.44606383  0.46329259  1
  O2-  O306  1  0.05194112  0.75698163  0.73900611  1
  O2-  O307  1  0.04952505  0.90543669  0.98411167  1
  O2-  O308  1  0.54928350  0.89421996  0.73658402  1
  O2-  O309  1  0.95343401  0.09336455  0.50530025  1
  O2-  O310  1  0.04589763  0.90626708  0.02303636  1
  O2-  O311  1  0.95396688  0.09969556  0.25720119  1
  O2-  O312  1  0.45163280  0.45394618  0.70917596  1
  O2-  O313  1  0.44963258  0.75927900  0.01887724  1
  O2-  O314  1  0.95268867  0.76082499  0.48687908  1
  O2-  O315  1  0.54344968  0.09078555  0.98097715  1
  O2-  O316  1  0.04547973  0.10199683  0.76310732  1
  O2-  O317  1  0.94484518  0.57811569  0.02207717  1
  O2-  O318  1  0.53775241  0.45493430  0.75383516  1
  O2-  O319  1  0.53606736  0.55758487  0.03302099  1
  O2-  O320  1  0.54939409  0.23442522  0.26696921  1
  O2-  O321  1  0.54634636  0.42854221  0.23558287  1
  O2-  O322  1  0.45648720  0.88946617  0.23960123  1
  O2-  O323  1  0.55278486  0.90150112  0.48072068  1
  O2-  O324  1  0.06678724  0.24882906  0.31872029  1
  O2-  O325  1  0.56386715  0.73477549  0.27853732  1
  O2-  O326  1  0.56436802  0.07900223  0.22132955  1
  O2-  O327  1  0.06357119  0.59348475  0.97667787  1
  O2-  O328  1  0.93390965  0.59909275  0.96564096  1
  O2-  O329  1  0.43511938  0.59174668  0.52814118  1
  O2-  O330  1  0.56482833  0.07884235  0.52551315  1
  O2-  O331  1  0.08225840  0.93993977  0.68676578  1
  O2-  O332  1  0.93565943  0.07159777  0.97508697  1
  O2-  O333  1  0.57962008  0.39494528  0.78502743  1
  O2-  O334  1  0.06294891  0.58621951  0.27453605  1
  O2-  O335  1  0.43734897  0.40398250  0.28104325  1
  O2-  O336  1  0.42972901  0.39254283  0.81356894  1
  O2-  O337  1  0.57810982  0.26244004  0.81220912  1
  O2-  O338  1  0.93960656  0.59298388  0.78203544  1
  O2-  O339  1  0.43068119  0.08688399  0.06829316  1
  O2-  O340  1  0.56521763  0.92536517  0.27683924  1
  O2-  O341  1  0.57058366  0.61992700  0.94003467  1
  O2-  O342  1  0.93065203  0.39305554  0.57869779  1
  O2-  O343  1  0.56190578  0.26336987  0.28050804  1
  O2-  O344  1  0.43309248  0.08401167  0.93236796  1
  O2-  O345  1  0.93578398  0.40666014  0.03705960  1
  O2-  O346  1  0.06654671  0.24964762  0.18005923  1
  O2-  O347  1  0.93077591  0.08526972  0.68207965  1
  O2-  O348  1  0.07545373  0.92298971  0.82754988  1
  O2-  O349  1  0.57035302  0.73819474  0.58722468  1
  O2-  O350  1  0.93994978  0.73599719  0.78223447  1
  O2-  O351  1  0.55157818  0.75779188  0.45944498  1
  O2-  O352  1  0.43126309  0.91894725  0.06494782  1
  O2-  O353  1  0.55621823  0.26632541  0.47001604  1
  O2-  O354  1  0.43453855  0.59055188  0.27447534  1
  O2-  O355  1  0.43515413  0.40636702  0.97213011  1
  O2-  O356  1  0.93665606  0.07333851  0.82051727  1
  O2-  O357  1  0.06326346  0.59122498  0.72617710  1
  O2-  O358  1  0.93672151  0.25501064  0.97536306  1
  O2-  O359  1  0.43322905  0.91774712  0.93315252  1
  O2-  O360  1  0.92601081  0.37960833  0.42852424  1
  O2-  O361  1  0.06205333  0.07028172  0.21552240  1
  O2-  O362  1  0.06954990  0.74151753  0.52462862  1
  O2-  O363  1  0.93902891  0.74105489  0.03819189  1
  O2-  O364  1  0.42261257  0.39601171  0.55107733  1
  O2-  O365  1  0.06526227  0.58695951  0.54748464  1
  O2-  O366  1  0.42947693  0.73104051  0.97152398  1
  O2-  O367  1  0.06311824  0.26486586  0.78377346  1
  O2-  O368  1  0.06531627  0.58934227  0.45292845  1
  O2-  O369  1  0.56315170  0.59854168  0.77832566  1
  O2-  O370  1  0.43633609  0.25349360  0.78549735  1
  O2-  O371  1  0.56256386  0.59110021  0.53145810  1
  O2-  O372  1  0.24998793  0.32714812  0.41019506  1
  O2-  O373  1  0.24966261  0.66020455  0.30784724  1
  O2-  O374  1  0.25061179  0.69590824  0.41885456  1
  O2-  O375  1  0.75020158  0.00465861  0.35997250  1
  O2-  O376  1  0.75106714  0.65842229  0.84268576  1
  O2-  O377  1  0.74956922  0.32731572  0.13607380  1
  O2-  O378  1  0.24996501  0.00538053  0.93736609  1
  O2-  O379  1  0.74959376  -0.00749641  0.91972635  1
  O2-  O380  1  0.24958025  0.66368755  0.84615139  1
  O2-  O381  1  0.25105582  -0.00335175  0.81195534  1
  O2-  O382  1  0.25026029  0.65909329  0.68814138  1
  O2-  O383  1  0.24920937  0.66599695  0.11281790  1
  O2-  O384  1  0.74932947  0.02320574  0.82340296  1
  O2-  O385  1  0.24952107  0.00193903  0.14801392  1
  O2-  O386  1  0.75016350  0.00611073  0.11094144  1
  O2-  O387  1  0.74846993  0.33416601  0.35599850  1
  O2-  O388  1  0.74990328  0.66693016  0.15628611  1
  O2-  O389  1  0.74981729  0.33010119  0.92584117  1
  O2-  O390  1  0.25036155  0.00128914  0.40328166  1
  O2-  O391  1  0.25047870  0.33311249  0.31506950  1
  O2-  O392  1  0.75030351  0.32720806  0.83252723  1
  O2-  O393  1  0.25043524  0.68713397  0.60064053  1
  O2-  O394  1  0.25071604  -0.00183185  0.65516129  1
  O2-  O395  1  0.74965754  0.65897768  0.93614874  1
  O2-  O396  1  0.24996946  0.50210976  0.13771922  1
  O2-  O397  1  0.75006797  0.50383794  0.08174461  1
  O2-  O398  1  0.25023262  0.85631252  0.13661020  1
  O2-  O399  1  0.24955819  0.81516254  0.05845580  1
  O2-  O400  1  0.75025525  0.49562450  0.67479645  1
  O2-  O401  1  0.25009599  0.48613072  0.87792983  1
  O2-  O402  1  0.24998236  0.84160297  0.90274122  1
  O2-  O403  1  0.24992446  0.85305302  0.35557448  1
  O2-  O404  1  0.25016833  0.16946579  0.09163540  1
  O2-  O405  1  0.75004835  0.15990869  0.90566119  1
  O2-  O406  1  0.75026888  0.83337943  0.58773585  1
  O2-  O407  1  0.75036929  0.16144674  0.65204440  1
  O2-  O408  1  0.74999891  0.84450385  0.85581054  1
  O2-  O409  1  0.75045313  0.15729693  0.39193431  1
  O2-  O410  1  0.24981536  0.17390174  0.68027683  1
  O2-  O411  1  0.74978299  0.16687756  0.81947058  1
  O2-  O412  1  0.25002336  0.15575732  0.36752026  1
  O2-  O413  1  0.74997089  0.83073715  0.36074246  1
  O2-  O414  1  0.74994233  0.50149457  0.58819756  1
  O2-  O415  1  0.25051762  0.85231571  0.44704298  1
  O2-  O416  1  0.25012571  0.15980410  0.56986782  1
  O2-  O417  1  0.75099168  0.83283455  0.44191927  1
  O2-  O418  1  0.75016925  0.84417471  0.09927545  1
  O2-  O419  1  0.75005374  0.49618457  0.17103589  1
  O2-  O420  1  0.46216742  0.31682994  0.64534350  1
  O2-  O421  1  0.02841847  0.33483602  0.62919379  1
  O2-  O422  1  0.47545128  0.67011170  0.63448324  1
  O2-  O423  1  0.54002921  0.00108470  0.63658491  1
  O2-  O424  1  0.01884941  0.67951651  0.37194178  1
  O2-  O425  1  0.02756458  0.01737553  0.61282337  1
  O2-  O426  1  0.52264626  0.01308537  0.38173356  1
  O2-  O427  1  0.02353074  0.34669200  0.38241763  1
  O2-  O428  1  0.48239902  0.00007780  0.85811843  1
  O2-  O429  1  0.97417714  -0.00461520  0.37745909  1
  O2-  O430  1  0.54694197  0.33916843  0.61290452  1
  O2-  O431  1  0.47453110  0.65989797  0.86531347  1
  O2-  O432  1  0.01056417  0.67199109  0.62614351  1
  O2-  O433  1  0.02276134  0.34702857  0.11526721  1
  O2-  O434  1  0.52111194  0.33623267  0.88915635  1
  O2-  O435  1  0.47602090  -0.00038383  0.14275125  1
  O2-  O436  1  0.02551039  0.66760795  0.86783624  1
  O2-  O437  1  0.53208960  -0.00603519  0.11394590  1
  O2-  O438  1  0.01982851  0.00743916  0.88218810  1
  O2-  O439  1  0.97071933  -0.01568145  0.61668491  1
  O2-  O440  1  0.97621615  0.33715041  0.87276849  1
  O2-  O441  1  0.45479047  0.00376390  0.62095215  1
  O2-  O442  1  0.47417795  0.66145282  0.12695162  1
  O2-  O443  1  0.47431219  0.67124802  0.38168793  1
