# generated using pymatgen
data_La7(Ru4O11)2
_symmetry_space_group_name_H-M   'P 1'
_cell_length_a   23.99525256
_cell_length_b   16.83556579
_cell_length_c   15.43127622
_cell_angle_alpha   90.00427936
_cell_angle_beta   89.99603327
_cell_angle_gamma   89.99780917
_symmetry_Int_Tables_number   1
_chemical_formula_structural   La7(Ru4O11)2
_chemical_formula_sum   'La84 Ru96 O264'
_cell_volume   6233.82899036
_cell_formula_units_Z   12
loop_
 _symmetry_equiv_pos_site_id
 _symmetry_equiv_pos_as_xyz
  1  'x, y, z'
loop_
 _atom_type_symbol
 _atom_type_oxidation_number
  La3+  3.0
  Ru4+  4.0
  O2-  -2.0
loop_
 _atom_site_type_symbol
 _atom_site_label
 _atom_site_symmetry_multiplicity
 _atom_site_fract_x
 _atom_site_fract_y
 _atom_site_fract_z
 _atom_site_occupancy
  La3+  La0  1  0.12494720  -0.00187418  0.12374171  1
  La3+  La1  1  0.13900132  -0.00314017  0.38199309  1
  La3+  La2  1  0.14885684  -0.00359762  0.62592880  1
  La3+  La3  1  0.13333094  0.01389150  0.87879238  1
  La3+  La4  1  0.14076666  0.33582520  0.12244662  1
  La3+  La5  1  0.14846546  0.34067354  0.37600798  1
  La3+  La6  1  0.13462167  0.32890397  0.62815947  1
  La3+  La7  1  0.14282508  0.32976285  0.87613543  1
  La3+  La8  1  0.13166432  0.65871864  0.12295765  1
  La3+  La9  1  0.13953116  0.66238286  0.37590370  1
  La3+  La10  1  0.13839478  0.66471378  0.61585256  1
  La3+  La11  1  0.12940300  0.65333817  0.88305392  1
  La3+  La12  1  0.64725656  0.00429618  0.12727295  1
  La3+  La13  1  0.63787055  0.00153367  0.37932005  1
  La3+  La14  1  0.64586004  0.00271231  0.62254801  1
  La3+  La15  1  0.65130822  -0.00386468  0.87721243  1
  La3+  La16  1  0.64254606  0.33243997  0.11884366  1
  La3+  La17  1  0.64363996  0.33574037  0.37386854  1
  La3+  La18  1  0.63207403  0.32933467  0.63772124  1
  La3+  La19  1  0.64651559  0.32953099  0.87899969  1
  La3+  La20  1  0.64232056  0.67099534  0.12473830  1
  La3+  La21  1  0.64326344  0.66127622  0.37845327  1
  La3+  La22  1  0.64889430  0.66373954  0.63008686  1
  La3+  La23  1  0.65639395  0.67223371  0.87717602  1
  La3+  La24  1  0.36990194  -0.00235257  0.12413435  1
  La3+  La25  1  0.35880048  -0.00291671  0.37903751  1
  La3+  La26  1  0.36077440  -0.00372857  0.62607656  1
  La3+  La27  1  0.36861275  -0.00070694  0.87774561  1
  La3+  La28  1  0.36454464  0.33309788  0.11871849  1
  La3+  La29  1  0.36328740  0.33284406  0.37961263  1
  La3+  La30  1  0.36190165  0.33115891  0.62512245  1
  La3+  La31  1  0.36299056  0.33141955  0.87810639  1
  La3+  La32  1  0.34924626  0.65433873  0.12958026  1
  La3+  La33  1  0.35609082  0.67283940  0.37177584  1
  La3+  La34  1  0.35658699  0.65990096  0.61921147  1
  La3+  La35  1  0.34853464  0.65181189  0.87639367  1
  La3+  La36  1  0.85123027  -0.00458847  0.12044441  1
  La3+  La37  1  0.87202733  -0.00271618  0.38055852  1
  La3+  La38  1  0.84949741  0.00146959  0.62090220  1
  La3+  La39  1  0.85941005  -0.00003231  0.87324128  1
  La3+  La40  1  0.85785178  0.33788671  0.11511046  1
  La3+  La41  1  0.85844100  0.33652680  0.37804679  1
  La3+  La42  1  0.85971001  0.33547014  0.62630696  1
  La3+  La43  1  0.85352747  0.33629554  0.88121944  1
  La3+  La44  1  0.85643087  0.66786593  0.12333010  1
  La3+  La45  1  0.85472126  0.65908112  0.37845671  1
  La3+  La46  1  0.85512190  0.66777706  0.62730973  1
  La3+  La47  1  0.84792432  0.67058103  0.87228988  1
  La3+  La48  1  0.00048152  0.49460722  0.11627466  1
  La3+  La49  1  0.49675560  0.18267686  0.62034465  1
  La3+  La50  1  0.49968822  0.83314783  0.61588102  1
  La3+  La51  1  0.50428689  0.50327822  0.12872370  1
  La3+  La52  1  0.50740687  0.17254941  0.88259605  1
  La3+  La53  1  -0.00414351  0.82044913  0.15611048  1
  La3+  La54  1  0.00695749  0.82972495  0.88830946  1
  La3+  La55  1  0.50521098  0.17398445  0.86576775  1
  La3+  La56  1  0.50115021  0.18382113  0.60493311  1
  La3+  La57  1  0.50897245  0.49365066  0.62624263  1
  La3+  La58  1  -0.00157844  0.49825386  0.10012074  1
  La3+  La59  1  0.50079073  0.49658711  0.38115131  1
  La3+  La60  1  0.49463685  0.50701152  0.11239139  1
  La3+  La61  1  0.50685002  0.48862808  0.64165197  1
  La3+  La62  1  0.00174543  0.49957535  0.38258201  1
  La3+  La63  1  0.00211725  0.83343132  0.61915088  1
  La3+  La64  1  0.00119405  0.15469997  0.11264883  1
  La3+  La65  1  -0.00655639  0.15974786  0.13104132  1
  La3+  La66  1  0.50253135  0.83604684  0.63777643  1
  La3+  La67  1  0.49406555  0.17111752  0.36292478  1
  La3+  La68  1  0.01128674  0.17761308  0.39543013  1
  La3+  La69  1  0.00184663  0.49488484  0.86530856  1
  La3+  La70  1  -0.00819499  0.15507759  0.63802052  1
  La3+  La71  1  0.00989008  0.17832487  0.86588793  1
  La3+  La72  1  0.75060385  0.81954119  0.02412645  1
  La3+  La73  1  0.24860575  0.84301126  0.81447110  1
  La3+  La74  1  0.75205244  0.79518236  0.30203581  1
  La3+  La75  1  0.74997249  0.50679488  0.52066950  1
  La3+  La76  1  0.25242134  0.88142418  -0.00076869  1
  La3+  La77  1  0.24976771  0.41786443  0.74688829  1
  La3+  La78  1  0.75201581  0.16177700  0.74448882  1
  La3+  La79  1  0.24986005  0.14801509  0.15294561  1
  La3+  La80  1  0.24977689  0.11643790  0.55375265  1
  La3+  La81  1  0.75072766  0.17345658  0.01519730  1
  La3+  La82  1  0.25174186  0.87394030  0.24773389  1
  La3+  La83  1  0.24996799  0.49256866  0.00604173  1
  Ru4+  Ru84  1  -0.00141539  -0.00809553  -0.01081565  1
  Ru4+  Ru85  1  -0.00027926  -0.00597885  0.25572907  1
  Ru4+  Ru86  1  0.00780198  -0.01457286  0.50111919  1
  Ru4+  Ru87  1  -0.00947454  -0.01207151  0.74449176  1
  Ru4+  Ru88  1  0.00683334  0.33196596  -0.00375623  1
  Ru4+  Ru89  1  -0.00315863  0.33589602  0.24425776  1
  Ru4+  Ru90  1  0.00505189  0.33125496  0.51320240  1
  Ru4+  Ru91  1  0.00106952  0.33489763  0.74339667  1
  Ru4+  Ru92  1  -0.00868991  0.66988059  -0.00673455  1
  Ru4+  Ru93  1  0.00427680  0.66823200  0.24777747  1
  Ru4+  Ru94  1  0.00008015  0.66774309  0.49869712  1
  Ru4+  Ru95  1  -0.00184266  0.67057975  0.75148459  1
  Ru4+  Ru96  1  0.50436083  -0.02233640  0.00858436  1
  Ru4+  Ru97  1  0.50598552  0.00172321  0.24747856  1
  Ru4+  Ru98  1  0.50685240  -0.00037932  0.49975748  1
  Ru4+  Ru99  1  0.50465108  -0.00224964  0.77383582  1
  Ru4+  Ru100  1  0.49829806  0.34394689  -0.00512195  1
  Ru4+  Ru101  1  0.49813462  0.32552616  0.25183636  1
  Ru4+  Ru102  1  0.50319902  0.34984278  0.49166174  1
  Ru4+  Ru103  1  0.49352480  0.34179590  0.75578490  1
  Ru4+  Ru104  1  0.49755036  0.67649727  -0.00684875  1
  Ru4+  Ru105  1  0.50699538  0.66733513  0.23033320  1
  Ru4+  Ru106  1  0.49612953  0.67118132  0.48006142  1
  Ru4+  Ru107  1  0.50270190  0.66119969  0.76699710  1
  Ru4+  Ru108  1  0.12135083  0.17192312  -0.00054993  1
  Ru4+  Ru109  1  0.11332877  0.16074877  0.25563741  1
  Ru4+  Ru110  1  0.10730142  0.17191532  0.49956212  1
  Ru4+  Ru111  1  0.11551865  0.17212774  0.74645600  1
  Ru4+  Ru112  1  0.11360934  0.49163709  0.00357863  1
  Ru4+  Ru113  1  0.10773464  0.50637919  0.24858586  1
  Ru4+  Ru114  1  0.11284184  0.50503622  0.49874648  1
  Ru4+  Ru115  1  0.10679122  0.50208430  0.75075309  1
  Ru4+  Ru116  1  0.10588274  0.83943684  0.00038502  1
  Ru4+  Ru117  1  0.10896851  0.83164016  0.24874819  1
  Ru4+  Ru118  1  0.10761295  0.83658377  0.49264876  1
  Ru4+  Ru119  1  0.11197722  0.83613486  0.75011740  1
  Ru4+  Ru120  1  0.61448322  0.16091857  0.00063366  1
  Ru4+  Ru121  1  0.60560158  0.15516572  0.24845719  1
  Ru4+  Ru122  1  0.61744750  0.16433903  0.49988743  1
  Ru4+  Ru123  1  0.61277856  0.15831183  0.75104585  1
  Ru4+  Ru124  1  0.61305514  0.49572172  -0.00527556  1
  Ru4+  Ru125  1  0.61265347  0.50031527  0.25388078  1
  Ru4+  Ru126  1  0.60774910  0.49902643  0.50168749  1
  Ru4+  Ru127  1  0.60928101  0.51301853  0.76056335  1
  Ru4+  Ru128  1  0.60797967  0.85018412  0.00646591  1
  Ru4+  Ru129  1  0.60945309  0.83142463  0.24867328  1
  Ru4+  Ru130  1  0.61513474  0.83653488  0.49659194  1
  Ru4+  Ru131  1  0.61372300  0.83312152  0.75507701  1
  Ru4+  Ru132  1  0.38403175  0.15775550  0.00269010  1
  Ru4+  Ru133  1  0.38949346  0.16051223  0.24349497  1
  Ru4+  Ru134  1  0.38480449  0.16156535  0.49464731  1
  Ru4+  Ru135  1  0.38451378  0.16952552  0.75265324  1
  Ru4+  Ru136  1  0.39035413  0.50219706  -0.00169804  1
  Ru4+  Ru137  1  0.38924492  0.49908172  0.25485321  1
  Ru4+  Ru138  1  0.38757131  0.50977424  0.48534665  1
  Ru4+  Ru139  1  0.39024332  0.50467759  0.75053278  1
  Ru4+  Ru140  1  0.40416324  0.81768505  0.00052204  1
  Ru4+  Ru141  1  0.39826360  0.83775283  0.24980435  1
  Ru4+  Ru142  1  0.39079900  0.82681459  0.49366669  1
  Ru4+  Ru143  1  0.39312360  0.83861171  0.77050211  1
  Ru4+  Ru144  1  0.89054606  0.15547658  -0.00537627  1
  Ru4+  Ru145  1  0.88634161  0.16194377  0.25250676  1
  Ru4+  Ru146  1  0.88305140  0.16468369  0.49790648  1
  Ru4+  Ru147  1  0.89021515  0.17003539  0.75005759  1
  Ru4+  Ru148  1  0.88274744  0.50525566  0.00218534  1
  Ru4+  Ru149  1  0.88762420  0.50169710  0.24701971  1
  Ru4+  Ru150  1  0.89333362  0.49818243  0.50072915  1
  Ru4+  Ru151  1  0.88753835  0.50172890  0.75288884  1
  Ru4+  Ru152  1  0.89000472  0.83660675  -0.00052753  1
  Ru4+  Ru153  1  0.89442022  0.84161224  0.25443047  1
  Ru4+  Ru154  1  0.88394252  0.83662390  0.49299515  1
  Ru4+  Ru155  1  0.89097545  0.83849387  0.74841414  1
  Ru4+  Ru156  1  0.24992512  0.44436371  0.51349868  1
  Ru4+  Ru157  1  0.24983055  0.97461886  0.75019523  1
  Ru4+  Ru158  1  0.25095432  0.25864286  0.25865886  1
  Ru4+  Ru159  1  0.25050263  0.09869023  -0.01054842  1
  Ru4+  Ru160  1  0.24758859  0.57122118  0.75044396  1
  Ru4+  Ru161  1  0.74919124  0.24491651  0.49524339  1
  Ru4+  Ru162  1  0.24964844  0.04849268  0.27861705  1
  Ru4+  Ru163  1  0.75014427  0.92074056  0.74902771  1
  Ru4+  Ru164  1  0.24978642  0.26003027  0.52441718  1
  Ru4+  Ru165  1  0.74912514  0.42338744  0.75405407  1
  Ru4+  Ru166  1  0.25436407  0.24295006  -0.01825947  1
  Ru4+  Ru167  1  0.24621597  0.73107217  0.02688584  1
  Ru4+  Ru168  1  0.74871178  0.57331633  -0.00146716  1
  Ru4+  Ru169  1  0.24917195  0.72767087  0.25317512  1
  Ru4+  Ru170  1  0.74846403  0.94178458  0.23734788  1
  Ru4+  Ru171  1  0.24997396  0.73433766  0.72065820  1
  Ru4+  Ru172  1  0.74929920  0.58158299  0.21406036  1
  Ru4+  Ru173  1  0.74914007  0.25796977  0.25387388  1
  Ru4+  Ru174  1  0.24990139  0.44308363  0.24766457  1
  Ru4+  Ru175  1  0.24753919  0.76015876  0.48080611  1
  Ru4+  Ru176  1  0.75028626  0.40357040  0.23228071  1
  Ru4+  Ru177  1  0.74921115  0.74571429  0.51567722  1
  Ru4+  Ru178  1  0.75002133  0.08434265  0.25269548  1
  Ru4+  Ru179  1  0.24903024  0.11070627  0.76578074  1
  O2-  O180  1  0.16988117  0.08183970  0.00119014  1
  O2-  O181  1  0.17098303  0.07656216  0.24291638  1
  O2-  O182  1  0.16172128  0.08480292  0.49885645  1
  O2-  O183  1  0.16910972  0.08520945  0.75376582  1
  O2-  O184  1  0.16635601  0.41042346  -0.00088507  1
  O2-  O185  1  0.16585167  0.42233073  0.24745511  1
  O2-  O186  1  0.16582205  0.41878240  0.50965689  1
  O2-  O187  1  0.15255259  0.40872044  0.75168683  1
  O2-  O188  1  0.16198805  0.75133625  0.00287708  1
  O2-  O189  1  0.16541140  0.74620446  0.24517023  1
  O2-  O190  1  0.16476077  0.75003911  0.49327614  1
  O2-  O191  1  0.16469988  0.74248978  0.74913528  1
  O2-  O192  1  0.66905529  0.08075326  0.00174961  1
  O2-  O193  1  0.66701648  0.08093768  0.25665003  1
  O2-  O194  1  0.66989648  0.08103466  0.49299177  1
  O2-  O195  1  0.67063237  0.08175235  0.74232064  1
  O2-  O196  1  0.66628237  0.41593329  0.00160603  1
  O2-  O197  1  0.66860888  0.40954871  0.24462997  1
  O2-  O198  1  0.66141472  0.41419089  0.50420144  1
  O2-  O199  1  0.66446439  0.41730714  0.74923580  1
  O2-  O200  1  0.65757168  0.75422642  0.00428158  1
  O2-  O201  1  0.66895283  0.74455471  0.25506355  1
  O2-  O202  1  0.66654516  0.74573737  0.49969841  1
  O2-  O203  1  0.66209611  0.75002247  0.74908658  1
  O2-  O204  1  0.33609321  0.24981020  0.00050772  1
  O2-  O205  1  0.33629809  0.25438269  0.25191473  1
  O2-  O206  1  0.33444718  0.25262739  0.50474812  1
  O2-  O207  1  0.32924526  0.24855897  0.75257514  1
  O2-  O208  1  0.33559959  0.58150961  0.00442585  1
  O2-  O209  1  0.33758323  0.58264005  0.25806554  1
  O2-  O210  1  0.33283193  0.58202784  0.49845131  1
  O2-  O211  1  0.33230768  0.58041266  0.74357591  1
  O2-  O212  1  0.33929955  0.91800820  0.00047003  1
  O2-  O213  1  0.34248689  0.92283987  0.24715005  1
  O2-  O214  1  0.34445483  0.91670307  0.49615945  1
  O2-  O215  1  0.32888166  0.92219546  0.75899474  1
  O2-  O216  1  0.83901355  0.24765183  0.00171742  1
  O2-  O217  1  0.83689405  0.25252874  0.25089318  1
  O2-  O218  1  0.83266080  0.25466835  0.49818448  1
  O2-  O219  1  0.83612760  0.25403722  0.74536461  1
  O2-  O220  1  0.83070066  0.58772506  0.00108176  1
  O2-  O221  1  0.83306933  0.58476095  0.24524480  1
  O2-  O222  1  0.83487942  0.58354234  0.50462018  1
  O2-  O223  1  0.83783841  0.58630190  0.75059056  1
  O2-  O224  1  0.83260558  0.91587275  -0.00591066  1
  O2-  O225  1  0.82968820  0.91948987  0.26094427  1
  O2-  O226  1  0.82963687  0.91728339  0.49226002  1
  O2-  O227  1  0.83293160  0.92152291  0.75213477  1
  O2-  O228  1  0.17366187  0.25127075  -0.00007026  1
  O2-  O229  1  0.16471290  0.25281422  0.24652549  1
  O2-  O230  1  0.16537315  0.25314339  0.50973645  1
  O2-  O231  1  0.17111602  0.25144608  0.75321758  1
  O2-  O232  1  0.16390071  0.58273290  0.00792165  1
  O2-  O233  1  0.15900181  0.59029253  0.24730481  1
  O2-  O234  1  0.16469336  0.58449970  0.50059750  1
  O2-  O235  1  0.16544978  0.58337329  0.74962721  1
  O2-  O236  1  0.16512901  0.92647816  0.01171487  1
  O2-  O237  1  0.16294389  0.92422026  0.24844579  1
  O2-  O238  1  0.16238213  0.91661109  0.49539188  1
  O2-  O239  1  0.16810707  0.92208169  0.76053497  1
  O2-  O240  1  0.66497079  0.25204497  0.00331969  1
  O2-  O241  1  0.66299314  0.24976239  0.24887575  1
  O2-  O242  1  0.66579668  0.25505479  0.50030426  1
  O2-  O243  1  0.66535597  0.24847799  0.74538956  1
  O2-  O244  1  0.66438633  0.58564205  0.00406170  1
  O2-  O245  1  0.66544955  0.58593430  0.24575594  1
  O2-  O246  1  0.66812011  0.58595796  0.49934949  1
  O2-  O247  1  0.66974994  0.57870592  0.74933473  1
  O2-  O248  1  0.67352764  0.91263133  0.00125471  1
  O2-  O249  1  0.66493163  0.91793473  0.25533916  1
  O2-  O250  1  0.66552555  0.91872588  0.49572100  1
  O2-  O251  1  0.66701684  0.92092727  0.74556668  1
  O2-  O252  1  0.32939614  0.07862755  0.00561020  1
  O2-  O253  1  0.32943800  0.07748353  0.24727432  1
  O2-  O254  1  0.33464087  0.07545555  0.49720640  1
  O2-  O255  1  0.32903418  0.08469704  0.75613056  1
  O2-  O256  1  0.33498700  0.41519443  0.00095065  1
  O2-  O257  1  0.33494134  0.41700827  0.24919959  1
  O2-  O258  1  0.33674920  0.41908262  0.50249994  1
  O2-  O259  1  0.34372972  0.40674099  0.75267889  1
  O2-  O260  1  0.32293658  0.75631683  -0.00396171  1
  O2-  O261  1  0.33443452  0.75377300  0.24543256  1
  O2-  O262  1  0.33111345  0.74782408  0.49455950  1
  O2-  O263  1  0.33677942  0.74905038  0.74878237  1
  O2-  O264  1  0.83001379  0.08239807  -0.00561011  1
  O2-  O265  1  0.82932832  0.07995089  0.26006125  1
  O2-  O266  1  0.83304528  0.08079244  0.48951694  1
  O2-  O267  1  0.83754098  0.08296035  0.74980057  1
  O2-  O268  1  0.83467860  0.41758784  -0.00068598  1
  O2-  O269  1  0.83491567  0.41264911  0.24891939  1
  O2-  O270  1  0.83517684  0.41612414  0.50292738  1
  O2-  O271  1  0.83471512  0.41565813  0.74980894  1
  O2-  O272  1  0.83760730  0.74804076  0.00253372  1
  O2-  O273  1  0.83971729  0.74771096  0.25243095  1
  O2-  O274  1  0.83073500  0.74864722  0.50246292  1
  O2-  O275  1  0.84148656  0.75116431  0.75063561  1
  O2-  O276  1  0.03720837  0.88960175  0.46491971  1
  O2-  O277  1  0.95611706  0.10244526  0.93969614  1
  O2-  O278  1  0.96229399  0.43458783  0.98843007  1
  O2-  O279  1  0.54880775  0.23066308  0.98420077  1
  O2-  O280  1  0.95259936  0.09692249  0.76824037  1
  O2-  O281  1  0.45695799  0.24552087  0.49675313  1
  O2-  O282  1  0.45773456  0.54534437  0.52967890  1
  O2-  O283  1  0.45050537  0.22609518  0.99665010  1
  O2-  O284  1  0.53020969  0.10317955  0.72042480  1
  O2-  O285  1  0.46304618  0.56057559  0.26841762  1
  O2-  O286  1  0.95827045  0.43732954  0.24224506  1
  O2-  O287  1  0.95565554  0.57466458  0.23141078  1
  O2-  O288  1  0.94877770  0.75530040  0.76605042  1
  O2-  O289  1  0.05013983  0.08948536  0.49963643  1
  O2-  O290  1  0.54141386  0.56206403  -0.00219075  1
  O2-  O291  1  0.03492933  0.22636005  0.54252622  1
  O2-  O292  1  0.55501000  0.75615485  0.51453840  1
  O2-  O293  1  0.05565178  0.75557279  0.51482483  1
  O2-  O294  1  0.94999792  0.57708956  0.47691578  1
  O2-  O295  1  0.45803401  0.91194213  0.26111260  1
  O2-  O296  1  0.54008401  0.24120570  0.73840098  1
  O2-  O297  1  0.05851727  0.74504630  0.51297785  1
  O2-  O298  1  0.45394907  0.10009693  0.47754345  1
  O2-  O299  1  0.95308947  0.76423677  0.01504316  1
  O2-  O300  1  0.96063055  0.77865703  0.49359545  1
  O2-  O301  1  0.96111001  0.85995356  0.30418350  1
  O2-  O302  1  0.47979244  0.79205421  0.99718138  1
  O2-  O303  1  0.53513783  0.87415821  -0.00656912  1
  O2-  O304  1  0.03013277  0.88074140  0.04267970  1
  O2-  O305  1  0.04573084  0.23517139  0.24547793  1
  O2-  O306  1  0.93582065  0.91955674  0.48825664  1
  O2-  O307  1  0.03689497  0.88085843  0.47300395  1
  O2-  O308  1  0.95964995  0.13731277  0.29053594  1
  O2-  O309  1  0.48267029  0.78601398  0.00284912  1
  O2-  O310  1  0.94292661  0.91471184  0.80940568  1
  O2-  O311  1  0.52412336  0.54515431  0.76480575  1
  O2-  O312  1  0.56299599  0.40990525  0.73222515  1
  O2-  O313  1  0.45187230  0.75995441  0.43804474  1
  O2-  O314  1  0.44721292  0.23534262  0.23924512  1
  O2-  O315  1  0.45156623  0.43730983  0.75941269  1
  O2-  O316  1  0.55522025  0.24107429  0.26680996  1
  O2-  O317  1  0.03815409  0.56943272  0.99013881  1
  O2-  O318  1  0.05058705  0.76837223  0.75082346  1
  O2-  O319  1  0.95750490  0.42426076  0.49144745  1
  O2-  O320  1  0.94823685  0.10561046  0.50771245  1
  O2-  O321  1  0.46163287  0.76694179  0.75945499  1
  O2-  O322  1  0.05521006  0.10446011  0.98812458  1
  O2-  O323  1  0.95498184  0.23511230  0.00255109  1
  O2-  O324  1  0.55825924  0.41047915  0.28103080  1
  O2-  O325  1  0.56078286  0.40872436  0.97960992  1
  O2-  O326  1  0.91884637  0.90739174  0.65503145  1
  O2-  O327  1  0.93226188  0.03360759  0.04711395  1
  O2-  O328  1  0.41912563  0.76009787  0.59435463  1
  O2-  O329  1  0.05879764  0.91665340  0.22849481  1
  O2-  O330  1  0.93149169  0.92634856  0.18170173  1
  O2-  O331  1  0.92354999  0.71948551  0.46792475  1
  O2-  O332  1  0.93739276  0.59269081  0.04295438  1
  O2-  O333  1  0.06413926  0.07109322  0.98315600  1
  O2-  O334  1  0.43913673  0.91946787  0.82943568  1
  O2-  O335  1  0.43348593  0.93699261  0.03440600  1
  O2-  O336  1  0.05669418  0.58883378  0.76819934  1
  O2-  O337  1  0.55774769  0.59142314  0.53121242  1
  O2-  O338  1  0.91832154  0.07312438  0.18821940  1
  O2-  O339  1  0.58095443  0.97512749  0.03883328  1
  O2-  O340  1  0.43863039  0.25088149  0.52343899  1
  O2-  O341  1  0.43775015  0.41367794  0.02486083  1
  O2-  O342  1  0.55882865  0.74759907  0.24271365  1
  O2-  O343  1  0.06181496  0.58174074  0.99029559  1
  O2-  O344  1  0.55708280  0.06853132  0.32973182  1
  O2-  O345  1  0.42508053  0.90615989  0.67898404  1
  O2-  O346  1  0.55399797  0.25702457  0.95850730  1
  O2-  O347  1  0.41042461  0.73260099  0.92127850  1
  O2-  O348  1  0.06475740  0.25345873  0.02523151  1
  O2-  O349  1  0.06339166  0.06998010  0.28994790  1
  O2-  O350  1  0.55896347  0.07279757  0.17851007  1
  O2-  O351  1  0.58016430  0.64744568  0.79111803  1
  O2-  O352  1  0.43077207  0.60479913  0.41669754  1
  O2-  O353  1  0.05728811  0.25161509  0.72776141  1
  O2-  O354  1  0.43956323  0.06871119  0.22247352  1
  O2-  O355  1  0.56160945  0.08116973  0.51937287  1
  O2-  O356  1  0.06877846  0.29662263  0.43063077  1
  O2-  O357  1  0.42706225  0.25064518  0.68060730  1
  O2-  O358  1  0.43911976  0.08565400  0.82761282  1
  O2-  O359  1  0.55823063  0.91067849  0.78027410  1
  O2-  O360  1  0.94209972  0.91558191  0.82084045  1
  O2-  O361  1  0.40657023  0.74309550  0.08459664  1
  O2-  O362  1  0.42937385  0.24347940  0.82478371  1
  O2-  O363  1  0.58338550  0.07873305  0.83041274  1
  O2-  O364  1  0.06020508  0.59419227  0.46199616  1
  O2-  O365  1  0.44712117  0.76618943  0.43970181  1
  O2-  O366  1  0.93923731  0.42078872  0.99191341  1
  O2-  O367  1  0.42491693  0.10018900  0.67114658  1
  O2-  O368  1  0.07568095  0.92786557  0.93291427  1
  O2-  O369  1  0.44587245  0.25423091  0.97332769  1
  O2-  O370  1  0.06911390  0.96919056  0.58454294  1
  O2-  O371  1  0.55861620  0.24544555  0.71218923  1
  O2-  O372  1  0.24910111  0.64457445  0.96145739  1
  O2-  O373  1  0.75202687  0.66431804  0.91029858  1
  O2-  O374  1  0.25313426  0.00205488  0.62631223  1
  O2-  O375  1  0.74910757  0.32307909  0.39804470  1
  O2-  O376  1  0.75071220  0.32968414  0.82159925  1
  O2-  O377  1  0.25141560  0.35474249  0.32386657  1
  O2-  O378  1  0.74982640  0.67943883  0.39942759  1
  O2-  O379  1  0.25034810  0.66452143  0.52388833  1
  O2-  O380  1  0.75010406  0.67053297  0.61727323  1
  O2-  O381  1  0.75100296  -0.00162915  0.65342769  1
  O2-  O382  1  0.74763821  0.32634072  0.13004622  1
  O2-  O383  1  0.74901817  0.00426823  0.12350379  1
  O2-  O384  1  0.25023535  0.34844094  0.45197491  1
  O2-  O385  1  0.24709419  0.66475845  0.35425103  1
  O2-  O386  1  0.25365094  0.33317368  0.05011476  1
  O2-  O387  1  0.25295038  0.32451878  0.88875375  1
  O2-  O388  1  0.75107154  -0.00556875  0.84372562  1
  O2-  O389  1  0.75133604  0.66477494  0.11050749  1
  O2-  O390  1  0.24799610  0.66912194  0.82459738  1
  O2-  O391  1  0.25011057  0.00027643  0.38937872  1
  O2-  O392  1  0.25178543  0.33228704  0.62771161  1
  O2-  O393  1  0.74740823  0.33373918  0.91327278  1
  O2-  O394  1  0.25031155  0.34779813  0.17756466  1
  O2-  O395  1  0.24744036  0.64050259  0.65365806  1
  O2-  O396  1  0.25092068  0.84423641  0.54119805  1
  O2-  O397  1  0.74999766  0.17153480  0.17023708  1
  O2-  O398  1  0.75082447  0.48734531  0.66244583  1
  O2-  O399  1  0.74978920  0.50136429  0.38212902  1
  O2-  O400  1  0.25038520  0.81551518  0.37346665  1
  O2-  O401  1  0.75010381  0.49845627  0.29391195  1
  O2-  O402  1  0.75028850  0.17915626  0.58507755  1
  O2-  O403  1  0.74918194  0.83897693  0.57387755  1
  O2-  O404  1  0.75008687  0.82802573  0.66092831  1
  O2-  O405  1  0.24958529  0.83530219  0.67274075  1
  O2-  O406  1  0.24949684  0.15719953  0.30829469  1
  O2-  O407  1  0.25012473  0.49862071  0.62019891  1
  O2-  O408  1  0.25063965  0.51051557  0.85945224  1
  O2-  O409  1  0.25071572  0.51254209  0.15371944  1
  O2-  O410  1  0.74828532  0.16503999  0.88033359  1
  O2-  O411  1  0.24915937  0.49461671  0.41412633  1
  O2-  O412  1  0.74959068  0.50570127  0.91206977  1
  O2-  O413  1  0.74896381  0.84218227  0.88564736  1
  O2-  O414  1  0.74986085  0.51442983  0.10561169  1
  O2-  O415  1  0.24988404  0.18858453  0.43666127  1
  O2-  O416  1  0.24793775  0.81115239  0.12088342  1
  O2-  O417  1  0.75022355  0.84338318  0.16509771  1
  O2-  O418  1  0.74926300  0.82144610  0.80118639  1
  O2-  O419  1  0.74962298  0.16985323  0.33915616  1
  O2-  O420  1  0.95540121  0.32982550  0.12589857  1
  O2-  O421  1  0.97038961  0.32000904  0.36716603  1
  O2-  O422  1  0.98210737  0.01707921  0.62432842  1
  O2-  O423  1  0.94910281  0.32478058  0.83669179  1
  O2-  O424  1  0.51695791  0.00457817  0.89705131  1
  O2-  O425  1  0.48242356  0.65040825  0.64718872  1
  O2-  O426  1  0.04775460  0.36954936  0.14074513  1
  O2-  O427  1  0.04495552  0.36509653  0.62043416  1
  O2-  O428  1  0.44994375  0.63637640  0.14776421  1
  O2-  O429  1  0.48579827  0.35101979  0.87687590  1
  O2-  O430  1  0.02777073  0.01833242  0.84964774  1
  O2-  O431  1  0.48331358  0.64419901  0.88079818  1
  O2-  O432  1  0.54493832  0.66471574  0.10741947  1
  O2-  O433  1  0.54681389  -0.03050618  0.63407480  1
  O2-  O434  1  0.97549552  0.00475512  0.37451479  1
  O2-  O435  1  0.04625468  0.34413646  0.87667928  1
  O2-  O436  1  0.48643952  0.34192634  0.12762385  1
  O2-  O437  1  0.95217168  0.31909809  0.63331379  1
  O2-  O438  1  0.97278062  0.67078448  0.62656445  1
  O2-  O439  1  0.45246021  -0.01052008  0.57553643  1
  O2-  O440  1  0.02856031  0.02210635  0.12519280  1
  O2-  O441  1  0.02343119  0.68160406  0.88000807  1
  O2-  O442  1  0.48458341  0.35294165  0.61950317  1
  O2-  O443  1  0.47365586  0.34020505  0.37510546  1
