# generated using pymatgen
data_La7(Ru4O11)2
_symmetry_space_group_name_H-M   'P 1'
_cell_length_a   23.99436446
_cell_length_b   16.83492032
_cell_length_c   15.43019879
_cell_angle_alpha   89.99833657
_cell_angle_beta   89.99987507
_cell_angle_gamma   89.99754601
_symmetry_Int_Tables_number   1
_chemical_formula_structural   La7(Ru4O11)2
_chemical_formula_sum   'La84 Ru96 O264'
_cell_volume   6232.92407696
_cell_formula_units_Z   12
loop_
 _symmetry_equiv_pos_site_id
 _symmetry_equiv_pos_as_xyz
  1  'x, y, z'
loop_
 _atom_type_symbol
 _atom_type_oxidation_number
  La3+  3.0
  Ru4+  4.0
  O2-  -2.0
loop_
 _atom_site_type_symbol
 _atom_site_label
 _atom_site_symmetry_multiplicity
 _atom_site_fract_x
 _atom_site_fract_y
 _atom_site_fract_z
 _atom_site_occupancy
  La3+  La0  1  0.14133824  0.00055441  0.12587728  1
  La3+  La1  1  0.14132667  0.00033169  0.37814002  1
  La3+  La2  1  0.14578876  0.00796409  0.62326505  1
  La3+  La3  1  0.13101334  0.00061367  0.87504802  1
  La3+  La4  1  0.14325640  0.33339638  0.12619914  1
  La3+  La5  1  0.13074171  0.33128995  0.38076061  1
  La3+  La6  1  0.14014176  0.33052035  0.62399110  1
  La3+  La7  1  0.13669302  0.33050477  0.86643602  1
  La3+  La8  1  0.14780728  0.66704814  0.12758642  1
  La3+  La9  1  0.14679146  0.66859095  0.38016758  1
  La3+  La10  1  0.14084983  0.67178097  0.61969759  1
  La3+  La11  1  0.13730335  0.66481569  0.87745408  1
  La3+  La12  1  0.64164577  0.00018584  0.12877694  1
  La3+  La13  1  0.64360138  0.00750131  0.38029137  1
  La3+  La14  1  0.63752284  0.00374518  0.61867660  1
  La3+  La15  1  0.63573778  -0.00026864  0.87119390  1
  La3+  La16  1  0.63563057  0.32685434  0.13025769  1
  La3+  La17  1  0.62962903  0.32515376  0.37228691  1
  La3+  La18  1  0.64567545  0.33006456  0.62441896  1
  La3+  La19  1  0.64085209  0.33415922  0.86841242  1
  La3+  La20  1  0.63492191  0.66873841  0.12410493  1
  La3+  La21  1  0.63842529  0.66753809  0.37816451  1
  La3+  La22  1  0.63911121  0.66951986  0.62493220  1
  La3+  La23  1  0.63487207  0.66623054  0.86847825  1
  La3+  La24  1  0.36473907  -0.00316563  0.12317114  1
  La3+  La25  1  0.35774620  0.00395170  0.37971306  1
  La3+  La26  1  0.35521869  0.00455300  0.62205059  1
  La3+  La27  1  0.36573825  0.00103487  0.87606439  1
  La3+  La28  1  0.35739330  0.33334368  0.12497820  1
  La3+  La29  1  0.36547747  0.33058733  0.37479449  1
  La3+  La30  1  0.34797877  0.32911707  0.62360431  1
  La3+  La31  1  0.36188690  0.32834035  0.87404733  1
  La3+  La32  1  0.35667543  0.66932967  0.12328651  1
  La3+  La33  1  0.36028574  0.67242961  0.37329124  1
  La3+  La34  1  0.34911367  0.66119060  0.62121188  1
  La3+  La35  1  0.34670081  0.66358829  0.87927108  1
  La3+  La36  1  0.85215951  -0.00478466  0.13282728  1
  La3+  La37  1  0.85578645  0.00410525  0.37598590  1
  La3+  La38  1  0.85009411  0.00194709  0.62137905  1
  La3+  La39  1  0.84469328  -0.00095734  0.87074926  1
  La3+  La40  1  0.85773228  0.32541469  0.12736197  1
  La3+  La41  1  0.86372167  0.32823664  0.37646203  1
  La3+  La42  1  0.86339019  0.33150704  0.63087641  1
  La3+  La43  1  0.86092714  0.33317486  0.86574261  1
  La3+  La44  1  0.86595820  0.66780636  0.12473628  1
  La3+  La45  1  0.86241138  0.67011484  0.37679165  1
  La3+  La46  1  0.86151469  0.66734964  0.63012698  1
  La3+  La47  1  0.86611278  0.66349185  0.86889799  1
  La3+  La48  1  0.00366339  0.50254507  0.37592054  1
  La3+  La49  1  0.00072253  0.16442940  0.37348817  1
  La3+  La50  1  0.00728732  0.16936891  0.12003097  1
  La3+  La51  1  0.49952311  0.17010758  0.13036327  1
  La3+  La52  1  0.50106711  0.15560319  0.38236038  1
  La3+  La53  1  0.50037548  0.82667207  0.89027090  1
  La3+  La54  1  -0.00132016  0.50089843  0.13149934  1
  La3+  La55  1  0.50725820  0.48819296  0.13843035  1
  La3+  La56  1  0.00235249  0.49604874  0.63342324  1
  La3+  La57  1  0.50636937  0.83506046  0.62626806  1
  La3+  La58  1  0.50024456  0.49924271  0.38001448  1
  La3+  La59  1  -0.00044488  0.17046582  0.62267852  1
  La3+  La60  1  -0.00120141  0.16210876  0.13644424  1
  La3+  La61  1  0.00000491  0.50084932  0.10901165  1
  La3+  La62  1  -0.01408247  0.81729401  0.88607272  1
  La3+  La63  1  0.50026460  0.17064462  0.10772007  1
  La3+  La64  1  0.01434240  0.17409354  0.86143771  1
  La3+  La65  1  0.00768172  0.17286085  0.87469264  1
  La3+  La66  1  -0.00016799  0.83261815  0.60916080  1
  La3+  La67  1  0.49129450  0.51335453  0.88337652  1
  La3+  La68  1  0.00736639  0.82687419  0.62735377  1
  La3+  La69  1  0.50137788  0.16695226  0.62219009  1
  La3+  La70  1  0.50373539  0.84598217  0.37660063  1
  La3+  La71  1  0.50208182  0.50016886  0.62476985  1
  La3+  La72  1  0.74986529  0.21072058  0.73777910  1
  La3+  La73  1  0.24832986  0.80884230  0.74498247  1
  La3+  La74  1  0.74846029  0.51277313  -0.02912137  1
  La3+  La75  1  0.74694565  0.09891047  0.00463950  1
  La3+  La76  1  0.24920171  0.50541453  0.00960512  1
  La3+  La77  1  0.74844172  0.91428673  -0.01384833  1
  La3+  La78  1  0.25036403  0.44919829  0.80168635  1
  La3+  La79  1  0.74919853  0.49164063  0.25047142  1
  La3+  La80  1  0.25023021  0.13242846  -0.05219786  1
  La3+  La81  1  0.25000906  0.46307201  0.23180905  1
  La3+  La82  1  0.25020719  0.42692087  0.48617127  1
  La3+  La83  1  0.74955635  0.47777297  0.53085893  1
  Ru4+  Ru84  1  0.00500292  -0.02005670  0.00175458  1
  Ru4+  Ru85  1  -0.00032879  -0.01259442  0.24868736  1
  Ru4+  Ru86  1  0.00574202  0.00049103  0.49271760  1
  Ru4+  Ru87  1  0.00436144  -0.01012978  0.75430962  1
  Ru4+  Ru88  1  -0.00901446  0.34529493  -0.01133749  1
  Ru4+  Ru89  1  0.00169581  0.33832436  0.25462608  1
  Ru4+  Ru90  1  -0.00111055  0.32533428  0.49722982  1
  Ru4+  Ru91  1  -0.00432110  0.34961068  0.75374350  1
  Ru4+  Ru92  1  0.00753094  0.67498349  -0.00752217  1
  Ru4+  Ru93  1  0.00488099  0.69090840  0.25453388  1
  Ru4+  Ru94  1  -0.00657047  0.66228219  0.48669530  1
  Ru4+  Ru95  1  -0.00286986  0.65859180  0.75578406  1
  Ru4+  Ru96  1  0.49835128  -0.00309911  0.00259635  1
  Ru4+  Ru97  1  0.49777001  -0.00669188  0.25812216  1
  Ru4+  Ru98  1  0.49673876  -0.00403627  0.49828618  1
  Ru4+  Ru99  1  0.49595569  0.00510045  0.74468228  1
  Ru4+  Ru100  1  0.49628815  0.33478662  -0.00082443  1
  Ru4+  Ru101  1  0.49692411  0.33990400  0.24680867  1
  Ru4+  Ru102  1  0.50225221  0.33962970  0.49580976  1
  Ru4+  Ru103  1  0.51083767  0.33991055  0.74931736  1
  Ru4+  Ru104  1  0.49277530  0.67212705  0.00905780  1
  Ru4+  Ru105  1  0.49395485  0.66843540  0.24519713  1
  Ru4+  Ru106  1  0.49864972  0.66981865  0.49436204  1
  Ru4+  Ru107  1  0.49988097  0.67207684  0.74082960  1
  Ru4+  Ru108  1  0.11883794  0.17048641  -0.00388833  1
  Ru4+  Ru109  1  0.11439242  0.17068350  0.25334646  1
  Ru4+  Ru110  1  0.11389963  0.16298178  0.49830936  1
  Ru4+  Ru111  1  0.11798963  0.16326136  0.74791427  1
  Ru4+  Ru112  1  0.10922709  0.49701707  -0.00167437  1
  Ru4+  Ru113  1  0.11227685  0.50000303  0.25111165  1
  Ru4+  Ru114  1  0.11320741  0.50767201  0.50175102  1
  Ru4+  Ru115  1  0.10897113  0.50112624  0.75274882  1
  Ru4+  Ru116  1  0.10838336  0.83235819  0.00603295  1
  Ru4+  Ru117  1  0.10272396  0.82007478  0.24786739  1
  Ru4+  Ru118  1  0.11696512  0.83588381  0.49673901  1
  Ru4+  Ru119  1  0.11265384  0.83920293  0.75226585  1
  Ru4+  Ru120  1  0.60943695  0.16352933  -0.00632859  1
  Ru4+  Ru121  1  0.61811484  0.16122101  0.25224408  1
  Ru4+  Ru122  1  0.61755277  0.17030934  0.50014462  1
  Ru4+  Ru123  1  0.60741011  0.16556570  0.75059458  1
  Ru4+  Ru124  1  0.60745843  0.50289433  0.00023836  1
  Ru4+  Ru125  1  0.60538337  0.50119912  0.25068203  1
  Ru4+  Ru126  1  0.60795857  0.49898802  0.49688044  1
  Ru4+  Ru127  1  0.61168480  0.49498071  0.74868679  1
  Ru4+  Ru128  1  0.60676974  0.83267097  -0.00143744  1
  Ru4+  Ru129  1  0.61068064  0.83446115  0.25153302  1
  Ru4+  Ru130  1  0.61363259  0.82915871  0.50142491  1
  Ru4+  Ru131  1  0.61464402  0.83617634  0.75129346  1
  Ru4+  Ru132  1  0.38888397  0.16431245  -0.00608737  1
  Ru4+  Ru133  1  0.38674198  0.17038449  0.25244224  1
  Ru4+  Ru134  1  0.38488682  0.16603973  0.50029055  1
  Ru4+  Ru135  1  0.38811421  0.16514143  0.75066393  1
  Ru4+  Ru136  1  0.39098070  0.50452236  -0.00068791  1
  Ru4+  Ru137  1  0.39154938  0.50081971  0.25362329  1
  Ru4+  Ru138  1  0.39399824  0.50052907  0.50020878  1
  Ru4+  Ru139  1  0.38928604  0.49783309  0.74848793  1
  Ru4+  Ru140  1  0.39275789  0.83199103  0.00322218  1
  Ru4+  Ru141  1  0.38869589  0.83169640  0.24654283  1
  Ru4+  Ru142  1  0.38773571  0.83035512  0.49990405  1
  Ru4+  Ru143  1  0.39394232  0.82133303  0.75026440  1
  Ru4+  Ru144  1  0.89027821  0.15474125  -0.00013384  1
  Ru4+  Ru145  1  0.88347617  0.16267002  0.25378910  1
  Ru4+  Ru146  1  0.88538574  0.16563058  0.49673001  1
  Ru4+  Ru147  1  0.88843693  0.15566894  0.74423075  1
  Ru4+  Ru148  1  0.89341398  0.49711853  0.00044547  1
  Ru4+  Ru149  1  0.89154901  0.50023940  0.25074060  1
  Ru4+  Ru150  1  0.88978829  0.49643329  0.49676151  1
  Ru4+  Ru151  1  0.88887997  0.49510435  0.75334290  1
  Ru4+  Ru152  1  0.89103996  0.83243928  0.00240223  1
  Ru4+  Ru153  1  0.89004117  0.83345073  0.24948257  1
  Ru4+  Ru154  1  0.88684691  0.83283884  0.49376434  1
  Ru4+  Ru155  1  0.88794746  0.84421320  0.75215695  1
  Ru4+  Ru156  1  0.25081216  0.91259250  0.50385825  1
  Ru4+  Ru157  1  0.74755518  0.05380471  0.75067352  1
  Ru4+  Ru158  1  0.75084728  0.62161881  0.51412860  1
  Ru4+  Ru159  1  0.74916392  0.35952394  0.30735966  1
  Ru4+  Ru160  1  0.25046105  0.27370785  0.00294002  1
  Ru4+  Ru161  1  0.74923469  0.75978720  -0.00834917  1
  Ru4+  Ru162  1  0.24988355  0.75218054  -0.00248953  1
  Ru4+  Ru163  1  0.25011893  0.07712433  0.27387397  1
  Ru4+  Ru164  1  0.74950678  0.75972680  0.27003366  1
  Ru4+  Ru165  1  0.75019925  0.63162438  0.20745238  1
  Ru4+  Ru166  1  0.74940865  0.38592595  -0.00736402  1
  Ru4+  Ru167  1  0.24944775  0.59787496  0.76020866  1
  Ru4+  Ru168  1  0.74980381  0.33156597  0.50294179  1
  Ru4+  Ru169  1  0.74943224  0.24043953  -0.00120159  1
  Ru4+  Ru170  1  0.25094543  0.95381616  0.73988770  1
  Ru4+  Ru171  1  0.75210334  0.63862852  -0.04522978  1
  Ru4+  Ru172  1  0.25117115  0.59545544  0.48831265  1
  Ru4+  Ru173  1  0.24975326  0.24797696  0.26722581  1
  Ru4+  Ru174  1  0.74986461  0.75382210  0.72827180  1
  Ru4+  Ru175  1  0.24944568  0.92152641  0.25582416  1
  Ru4+  Ru176  1  0.25097894  0.60966113  0.27065631  1
  Ru4+  Ru177  1  0.74897255  0.92903836  0.26024339  1
  Ru4+  Ru178  1  0.24970898  0.91432471  0.00101570  1
  Ru4+  Ru179  1  0.74942047  0.91367566  0.49894394  1
  O2-  O180  1  0.16808996  0.07920347  -0.00167045  1
  O2-  O181  1  0.16824818  0.07930841  0.25391991  1
  O2-  O182  1  0.16804942  0.08348087  0.49584174  1
  O2-  O183  1  0.17127927  0.08140305  0.75598765  1
  O2-  O184  1  0.16756368  0.41528395  0.00099640  1
  O2-  O185  1  0.16478489  0.40979864  0.25454211  1
  O2-  O186  1  0.15759316  0.41059641  0.49592593  1
  O2-  O187  1  0.16563204  0.41398120  0.75113834  1
  O2-  O188  1  0.16638566  0.75021270  -0.00241954  1
  O2-  O189  1  0.16856825  0.75277874  0.24815252  1
  O2-  O190  1  0.16344597  0.75055573  0.50278585  1
  O2-  O191  1  0.15968113  0.74556605  0.75139802  1
  O2-  O192  1  0.65640750  0.07350704  -0.00151336  1
  O2-  O193  1  0.66682709  0.07852647  0.24802191  1
  O2-  O194  1  0.66730080  0.08399663  0.50428941  1
  O2-  O195  1  0.66484124  0.08078409  0.74927450  1
  O2-  O196  1  0.66417748  0.40907702  -0.00105381  1
  O2-  O197  1  0.66392565  0.40990542  0.25442733  1
  O2-  O198  1  0.66451845  0.41112337  0.49794362  1
  O2-  O199  1  0.66864343  0.42015560  0.75555140  1
  O2-  O200  1  0.66260913  0.74784242  -0.00077741  1
  O2-  O201  1  0.66434986  0.74829855  0.25091746  1
  O2-  O202  1  0.66555582  0.75057794  0.49928390  1
  O2-  O203  1  0.66862227  0.74411321  0.74881796  1
  O2-  O204  1  0.33174368  0.25426605  -0.00101708  1
  O2-  O205  1  0.33262188  0.25288639  0.25401646  1
  O2-  O206  1  0.33851878  0.25385001  0.49577006  1
  O2-  O207  1  0.33828516  0.24987963  0.75178919  1
  O2-  O208  1  0.32466827  0.57936011  0.00591343  1
  O2-  O209  1  0.33585573  0.58507266  0.24979182  1
  O2-  O210  1  0.33502829  0.58442697  0.49190255  1
  O2-  O211  1  0.33292730  0.58406193  0.75230562  1
  O2-  O212  1  0.33317059  0.91866139  -0.00190594  1
  O2-  O213  1  0.33565437  0.91979756  0.24998013  1
  O2-  O214  1  0.33539863  0.91978937  0.50095935  1
  O2-  O215  1  0.33257667  0.92092578  0.75060214  1
  O2-  O216  1  0.83431499  0.24884523  -0.00241902  1
  O2-  O217  1  0.83770328  0.25126476  0.25866784  1
  O2-  O218  1  0.83348957  0.25519268  0.49941507  1
  O2-  O219  1  0.84011003  0.24933785  0.74964872  1
  O2-  O220  1  0.83678722  0.58581050  -0.00276056  1
  O2-  O221  1  0.83273984  0.58976362  0.24834582  1
  O2-  O222  1  0.83347747  0.58954941  0.50212028  1
  O2-  O223  1  0.83385422  0.58184971  0.75255374  1
  O2-  O224  1  0.84082042  0.91978538  0.00281599  1
  O2-  O225  1  0.83514715  0.91740572  0.25885802  1
  O2-  O226  1  0.83040730  0.91547604  0.49717854  1
  O2-  O227  1  0.83002053  0.91067900  0.74489448  1
  O2-  O228  1  0.16888579  0.25841191  -0.00096388  1
  O2-  O229  1  0.16716171  0.25447380  0.25444258  1
  O2-  O230  1  0.16509089  0.25138081  0.49487431  1
  O2-  O231  1  0.16408966  0.25190318  0.75079657  1
  O2-  O232  1  0.16952163  0.58388815  -0.00451744  1
  O2-  O233  1  0.16844608  0.58387034  0.25098488  1
  O2-  O234  1  0.16717811  0.58442171  0.50159451  1
  O2-  O235  1  0.16492271  0.58634117  0.75298824  1
  O2-  O236  1  0.16634015  0.91777909  -0.00213092  1
  O2-  O237  1  0.16286602  0.91754940  0.25072788  1
  O2-  O238  1  0.16756742  0.92002759  0.49856291  1
  O2-  O239  1  0.17390021  0.92145505  0.75602299  1
  O2-  O240  1  0.66515347  0.25027190  -0.00160529  1
  O2-  O241  1  0.66360108  0.25045003  0.25446330  1
  O2-  O242  1  0.66822706  0.25413363  0.49615198  1
  O2-  O243  1  0.65936197  0.25324589  0.75172536  1
  O2-  O244  1  0.66164415  0.58889860  0.00017734  1
  O2-  O245  1  0.66381356  0.59054742  0.24738939  1
  O2-  O246  1  0.66894968  0.59070142  0.50278785  1
  O2-  O247  1  0.66407511  0.58242939  0.74990221  1
  O2-  O248  1  0.65374750  0.92292871  -0.00102402  1
  O2-  O249  1  0.66420491  0.92096450  0.25159627  1
  O2-  O250  1  0.66609132  0.91803060  0.50165070  1
  O2-  O251  1  0.66112509  0.92094280  0.74877323  1
  O2-  O252  1  0.33167851  0.07719327  0.00087005  1
  O2-  O253  1  0.33284161  0.07772344  0.25025481  1
  O2-  O254  1  0.33235360  0.08221507  0.50293499  1
  O2-  O255  1  0.33492249  0.08022826  0.75404998  1
  O2-  O256  1  0.33334565  0.41718779  -0.00073296  1
  O2-  O257  1  0.33482699  0.41024392  0.25337738  1
  O2-  O258  1  0.34559136  0.41053271  0.49603516  1
  O2-  O259  1  0.33699903  0.41227196  0.75053559  1
  O2-  O260  1  0.33076778  0.75043258  0.00351263  1
  O2-  O261  1  0.33227515  0.75039279  0.25435213  1
  O2-  O262  1  0.33746720  0.74967652  0.49689207  1
  O2-  O263  1  0.32985109  0.75241613  0.74869413  1
  O2-  O264  1  0.83500309  0.07926098  0.00041258  1
  O2-  O265  1  0.82964345  0.08289478  0.25416398  1
  O2-  O266  1  0.83488261  0.08475278  0.49594604  1
  O2-  O267  1  0.82687626  0.08450008  0.75001556  1
  O2-  O268  1  0.83448533  0.40951983  -0.00538771  1
  O2-  O269  1  0.83670366  0.41194435  0.25595315  1
  O2-  O270  1  0.83381291  0.41084921  0.49957754  1
  O2-  O271  1  0.83317887  0.41815464  0.75078499  1
  O2-  O272  1  0.83646456  0.74709919  -0.00324586  1
  O2-  O273  1  0.83268861  0.74895954  0.25222812  1
  O2-  O274  1  0.83753358  0.75052146  0.50228005  1
  O2-  O275  1  0.83268715  0.74692545  0.75189716  1
  O2-  O276  1  0.94318805  0.76065894  0.22527482  1
  O2-  O277  1  0.96627266  0.86379248  0.75288885  1
  O2-  O278  1  0.45306718  0.90270918  0.23376852  1
  O2-  O279  1  0.56104613  0.75664033  0.76166789  1
  O2-  O280  1  0.95563910  0.56100258  0.49145072  1
  O2-  O281  1  0.04723604  0.56929643  0.98565859  1
  O2-  O282  1  0.54874151  0.23621701  0.23207870  1
  O2-  O283  1  0.45631970  0.10066856  0.76191829  1
  O2-  O284  1  0.04756755  0.23041763  0.74105905  1
  O2-  O285  1  0.05195985  0.24607412  0.99571632  1
  O2-  O286  1  0.47016209  0.78206910  0.76017671  1
  O2-  O287  1  0.05701437  0.88612180  0.81264644  1
  O2-  O288  1  0.96814096  0.12819260  -0.00138255  1
  O2-  O289  1  0.94790309  0.91580272  0.48323363  1
  O2-  O290  1  0.96225153  0.09948964  0.78008701  1
  O2-  O291  1  0.45362553  0.90489083  0.51412046  1
  O2-  O292  1  0.04731380  0.43604559  0.51137486  1
  O2-  O293  1  0.46830581  0.54303320  0.03322048  1
  O2-  O294  1  0.54673390  0.23494754  0.48967036  1
  O2-  O295  1  0.04766330  0.88910000  0.95585933  1
  O2-  O296  1  0.04973302  0.09565934  0.24411890  1
  O2-  O297  1  0.45161668  0.56451682  0.73649340  1
  O2-  O298  1  0.54509319  0.43183093  0.00358607  1
  O2-  O299  1  0.55193296  0.57785125  0.75734459  1
  O2-  O300  1  0.96887076  0.45378588  0.95592841  1
  O2-  O301  1  0.45337730  0.10055424  0.24726905  1
  O2-  O302  1  0.47377787  0.78641596  0.04256074  1
  O2-  O303  1  0.02309650  0.79831341  0.28678930  1
  O2-  O304  1  0.05433735  0.75818765  0.51171468  1
  O2-  O305  1  0.53415786  0.43952385  0.79305604  1
  O2-  O306  1  0.05331044  0.91351805  0.23132672  1
  O2-  O307  1  0.95550290  0.09990751  0.50258584  1
  O2-  O308  1  0.45023068  0.92090967  0.77362466  1
  O2-  O309  1  0.96832010  0.14197132  0.99005332  1
  O2-  O310  1  0.05355128  0.90424137  0.48637097  1
  O2-  O311  1  0.54127152  0.23029936  0.73795490  1
  O2-  O312  1  0.47052295  0.79320573  0.74704774  1
  O2-  O313  1  0.05789457  0.09444466  0.98796718  1
  O2-  O314  1  0.95191801  0.23205583  0.74192648  1
  O2-  O315  1  0.45514286  0.76379777  0.50751198  1
  O2-  O316  1  0.55108551  0.09596620  0.51024279  1
  O2-  O317  1  0.04772035  0.57142227  0.76517523  1
  O2-  O318  1  0.54593970  0.22914014  0.27026401  1
  O2-  O319  1  0.96760853  0.87698207  0.74331463  1
  O2-  O320  1  0.95135223  0.89714588  0.01543065  1
  O2-  O321  1  0.46548934  0.77226864  0.28936551  1
  O2-  O322  1  0.95166954  0.75841223  0.49118271  1
  O2-  O323  1  0.95099689  0.24188976  0.24779812  1
  O2-  O324  1  0.94034027  0.59392786  0.21253848  1
  O2-  O325  1  0.05834021  0.58681176  0.21909243  1
  O2-  O326  1  0.41374623  0.59446178  0.93839018  1
  O2-  O327  1  0.05847750  0.73967708  0.05672090  1
  O2-  O328  1  0.93523702  0.26317957  0.03912867  1
  O2-  O329  1  0.93852438  0.40913317  0.81968844  1
  O2-  O330  1  0.43709160  0.25432218  0.97740909  1
  O2-  O331  1  0.40930248  0.72945718  0.82185847  1
  O2-  O332  1  0.57911171  0.39360311  0.68943944  1
  O2-  O333  1  0.06003009  0.07173255  0.95772370  1
  O2-  O334  1  0.07202298  0.94667211  0.06833179  1
  O2-  O335  1  0.94280560  0.26384962  0.73062229  1
  O2-  O336  1  0.42087081  0.72613088  0.19771060  1
  O2-  O337  1  0.05939677  0.40778333  0.52741805  1
  O2-  O338  1  0.93046210  0.40073978  0.07445535  1
  O2-  O339  1  0.93550451  0.73489753  0.71091859  1
  O2-  O340  1  0.06492388  0.73544472  0.91793671  1
  O2-  O341  1  0.06671157  0.08634292  0.43014581  1
  O2-  O342  1  0.05958212  0.73589574  0.54154228  1
  O2-  O343  1  0.93759854  0.58578981  0.71296100  1
  O2-  O344  1  0.06420679  0.07372082  0.78432065  1
  O2-  O345  1  0.91599847  0.06143399  0.07959568  1
  O2-  O346  1  0.08049755  0.93106483  0.68692095  1
  O2-  O347  1  0.06246635  0.25585818  0.53298015  1
  O2-  O348  1  0.93779283  0.07369104  0.24037564  1
  O2-  O349  1  0.91969938  0.07917978  0.67163302  1
  O2-  O350  1  0.06600721  0.73162184  0.17878004  1
  O2-  O351  1  0.08296093  0.73007871  0.31824926  1
  O2-  O352  1  0.91441559  0.05625159  0.92090449  1
  O2-  O353  1  0.93235786  0.42009208  0.67800523  1
  O2-  O354  1  0.56303809  0.73979843  0.53777219  1
  O2-  O355  1  0.43912830  0.40844545  0.28709534  1
  O2-  O356  1  0.41409188  0.72522111  0.66538271  1
  O2-  O357  1  0.43819439  0.07544147  0.96554105  1
  O2-  O358  1  0.43745834  0.08053529  0.48149864  1
  O2-  O359  1  0.91193188  0.93796173  0.82764280  1
  O2-  O360  1  0.43515425  0.92612253  0.02084040  1
  O2-  O361  1  0.56243734  0.25536527  0.01892752  1
  O2-  O362  1  0.93956691  0.59954973  0.03735649  1
  O2-  O363  1  0.42173071  0.73757206  0.95267373  1
  O2-  O364  1  0.06157978  0.41176919  0.27292731  1
  O2-  O365  1  0.06182541  0.40770786  0.71758175  1
  O2-  O366  1  0.55798588  0.06812818  0.96895152  1
  O2-  O367  1  0.56469423  0.06749630  0.52176209  1
  O2-  O368  1  0.07088272  0.08918706  0.57113599  1
  O2-  O369  1  0.55992344  0.58992654  0.46558422  1
  O2-  O370  1  0.92081811  0.93308795  0.64543313  1
  O2-  O371  1  0.05277460  0.26252620  0.72569839  1
  O2-  O372  1  0.25199556  -0.00636155  0.60445838  1
  O2-  O373  1  0.74950646  0.67544186  0.62683755  1
  O2-  O374  1  0.25207339  0.34302776  0.59938860  1
  O2-  O375  1  0.75040229  0.33419301  0.63389084  1
  O2-  O376  1  0.25056938  0.65843325  0.07575362  1
  O2-  O377  1  0.74931627  0.67038577  0.09292834  1
  O2-  O378  1  0.74983533  0.01275120  0.33772150  1
  O2-  O379  1  0.74286316  -0.00106056  0.86155371  1
  O2-  O380  1  0.25077919  0.32807263  0.86970381  1
  O2-  O381  1  0.75047828  0.30856051  0.20971816  1
  O2-  O382  1  0.74966681  0.00077732  0.42960922  1
  O2-  O383  1  0.25171526  0.66908260  0.39010248  1
  O2-  O384  1  0.74933522  0.31179461  0.89646630  1
  O2-  O385  1  0.74995107  0.32191148  0.08887712  1
  O2-  O386  1  0.74665787  -0.00467176  0.10985754  1
  O2-  O387  1  0.75008441  0.33533151  0.80802550  1
  O2-  O388  1  0.24813874  0.68039505  0.68507652  1
  O2-  O389  1  0.24874851  0.67901898  0.55929556  1
  O2-  O390  1  0.74642719  0.00135660  0.64393198  1
  O2-  O391  1  0.75027673  0.70418368  0.44294767  1
  O2-  O392  1  0.24973957  -0.00800607  0.39115998  1
  O2-  O393  1  0.25163465  0.67490826  0.16756147  1
  O2-  O394  1  0.24871315  0.33241462  0.15556680  1
  O2-  O395  1  0.74870858  0.65594821  0.32474390  1
  O2-  O396  1  0.25050706  0.17121179  0.36488622  1
  O2-  O397  1  0.75006292  0.49866074  0.39251332  1
  O2-  O398  1  0.25016355  0.16683469  0.66578073  1
  O2-  O399  1  0.74957296  0.81215219  0.88932020  1
  O2-  O400  1  0.74944422  0.82960284  0.65418552  1
  O2-  O401  1  0.25013114  0.50917491  0.67748757  1
  O2-  O402  1  0.25007883  0.16699972  0.58551583  1
  O2-  O403  1  0.25009411  0.83511505  0.17119677  1
  O2-  O404  1  0.25004259  0.16217984  0.19685865  1
  O2-  O405  1  0.25056857  0.52309184  0.58673212  1
  O2-  O406  1  0.74987166  0.84297543  0.19732091  1
  O2-  O407  1  0.75035836  0.49522443  0.10979831  1
  O2-  O408  1  0.74945752  0.17156838  0.87930826  1
  O2-  O409  1  0.74991203  0.18302758  0.11022712  1
  O2-  O410  1  0.75058333  0.81486518  0.08645895  1
  O2-  O411  1  0.24960030  0.18290701  0.07393378  1
  O2-  O412  1  0.74913801  0.84378859  0.80634072  1
  O2-  O413  1  0.24987130  0.83630109  0.08042732  1
  O2-  O414  1  0.25021126  0.83166221  0.33155928  1
  O2-  O415  1  0.25009226  0.84050371  0.59257574  1
  O2-  O416  1  0.25037516  0.52104482  0.36893475  1
  O2-  O417  1  0.25006611  0.83299502  0.41845177  1
  O2-  O418  1  0.75007845  0.17116180  0.40931866  1
  O2-  O419  1  0.25015893  0.83368193  0.90270920  1
  O2-  O420  1  0.47938666  0.01467530  0.12961649  1
  O2-  O421  1  0.01209580  0.00123808  0.62222667  1
  O2-  O422  1  0.48975156  0.64755709  0.61360622  1
  O2-  O423  1  0.52605490  0.34618928  0.37277954  1
  O2-  O424  1  0.47406251  0.65673383  0.37545138  1
  O2-  O425  1  0.01400308  -0.00286304  0.36663163  1
  O2-  O426  1  0.98638431  -0.00885078  0.12827625  1
  O2-  O427  1  0.54925660  0.00145147  0.36375787  1
  O2-  O428  1  0.95427452  0.66230489  0.35773553  1
  O2-  O429  1  0.54303504  0.34791726  0.13833726  1
  O2-  O430  1  0.48463798  0.65861828  0.86791027  1
  O2-  O431  1  0.45182711  0.33085470  0.12884902  1
  O2-  O432  1  0.99240690  -0.00288447  0.87971047  1
  O2-  O433  1  0.51276089  0.32635593  0.61541765  1
  O2-  O434  1  0.02472498  0.32122396  0.37922787  1
  O2-  O435  1  0.96769048  0.66482030  0.87789754  1
  O2-  O436  1  0.45600702  -0.01114131  0.36984494  1
  O2-  O437  1  0.47496069  0.33903882  0.86622844  1
  O2-  O438  1  0.04378920  0.63758946  0.40487833  1
  O2-  O439  1  0.54154678  0.66785018  0.89628519  1
  O2-  O440  1  0.48564997  0.65387367  0.12680418  1
  O2-  O441  1  0.97428172  0.32398061  0.60832499  1
  O2-  O442  1  0.52518661  -0.00658969  0.63042158  1
  O2-  O443  1  0.03137797  0.32861347  0.86811960  1
