# generated using pymatgen
data_La7(Ru4O11)2
_symmetry_space_group_name_H-M   'P 1'
_cell_length_a   23.99103787
_cell_length_b   16.83167329
_cell_length_c   15.42753100
_cell_angle_alpha   90.00030466
_cell_angle_beta   90.00206182
_cell_angle_gamma   90.00359428
_symmetry_Int_Tables_number   1
_chemical_formula_structural   La7(Ru4O11)2
_chemical_formula_sum   'La84 Ru96 O264'
_cell_volume   6229.78065351
_cell_formula_units_Z   12
loop_
 _symmetry_equiv_pos_site_id
 _symmetry_equiv_pos_as_xyz
  1  'x, y, z'
loop_
 _atom_type_symbol
 _atom_type_oxidation_number
  La3+  3.0
  Ru4+  4.0
  O2-  -2.0
loop_
 _atom_site_type_symbol
 _atom_site_label
 _atom_site_symmetry_multiplicity
 _atom_site_fract_x
 _atom_site_fract_y
 _atom_site_fract_z
 _atom_site_occupancy
  La3+  La0  1  0.13965294  -0.00070403  0.12487765  1
  La3+  La1  1  0.14221516  -0.00204300  0.37705052  1
  La3+  La2  1  0.13847538  -0.00258104  0.62300031  1
  La3+  La3  1  0.14138446  -0.00110532  0.87609685  1
  La3+  La4  1  0.14021824  0.32838311  0.12564494  1
  La3+  La5  1  0.13652709  0.32991471  0.37451787  1
  La3+  La6  1  0.14018756  0.33621512  0.61987278  1
  La3+  La7  1  0.13802102  0.33046540  0.87804376  1
  La3+  La8  1  0.14659819  0.66211358  0.12549647  1
  La3+  La9  1  0.14551415  0.66193357  0.37557551  1
  La3+  La10  1  0.14211763  0.66481470  0.62646138  1
  La3+  La11  1  0.13807972  0.67285063  0.86953154  1
  La3+  La12  1  0.63464340  -0.00189686  0.12385607  1
  La3+  La13  1  0.63474923  0.00019396  0.37693721  1
  La3+  La14  1  0.64730168  -0.00057863  0.62341119  1
  La3+  La15  1  0.64205232  0.00311367  0.87981233  1
  La3+  La16  1  0.63825795  0.33349811  0.12258110  1
  La3+  La17  1  0.63594191  0.33002780  0.37382180  1
  La3+  La18  1  0.63342291  0.32965795  0.62568337  1
  La3+  La19  1  0.63554522  0.32671450  0.87359980  1
  La3+  La20  1  0.63400311  0.66790112  0.12250588  1
  La3+  La21  1  0.63741530  0.66981352  0.37647934  1
  La3+  La22  1  0.63842030  0.66842363  0.62288819  1
  La3+  La23  1  0.63604494  0.66712481  0.87411578  1
  La3+  La24  1  0.36036403  -0.00143262  0.12887729  1
  La3+  La25  1  0.35665683  -0.00021388  0.37785740  1
  La3+  La26  1  0.36345155  -0.00157674  0.62779766  1
  La3+  La27  1  0.36833306  -0.00368148  0.87071244  1
  La3+  La28  1  0.35809653  0.33557102  0.12953451  1
  La3+  La29  1  0.36640092  0.33694960  0.37780356  1
  La3+  La30  1  0.36141173  0.33925463  0.61677111  1
  La3+  La31  1  0.36207394  0.33108140  0.87959216  1
  La3+  La32  1  0.35791401  0.66186825  0.12427921  1
  La3+  La33  1  0.36054849  0.66367181  0.37520410  1
  La3+  La34  1  0.36071002  0.66170951  0.62293093  1
  La3+  La35  1  0.35840906  0.66524223  0.87268845  1
  La3+  La36  1  0.85681661  0.00459665  0.12764150  1
  La3+  La37  1  0.86079186  0.00252197  0.37807511  1
  La3+  La38  1  0.85036999  0.00040353  0.62309449  1
  La3+  La39  1  0.86272428  -0.00218905  0.87392311  1
  La3+  La40  1  0.86250171  0.33124679  0.12373099  1
  La3+  La41  1  0.86126068  0.33156054  0.37181456  1
  La3+  La42  1  0.86272122  0.33398873  0.62471467  1
  La3+  La43  1  0.86178798  0.33133853  0.87678431  1
  La3+  La44  1  0.87084279  0.67452220  0.13365286  1
  La3+  La45  1  0.87737337  0.68656144  0.37316647  1
  La3+  La46  1  0.86409501  0.67367372  0.61493930  1
  La3+  La47  1  0.86135256  0.66824301  0.87238586  1
  La3+  La48  1  0.50175626  0.16935972  0.12090596  1
  La3+  La49  1  -0.00639578  0.17714330  0.62226474  1
  La3+  La50  1  0.00044038  0.49702175  0.37019778  1
  La3+  La51  1  -0.00657333  0.83274514  0.36597540  1
  La3+  La52  1  -0.00189924  0.82140249  0.60710479  1
  La3+  La53  1  -0.00013479  0.49699538  0.86089995  1
  La3+  La54  1  -0.00008288  0.82406335  0.37508742  1
  La3+  La55  1  0.49880816  0.83169888  0.61294703  1
  La3+  La56  1  0.00056244  0.49611406  0.13168081  1
  La3+  La57  1  -0.00035434  0.82818532  0.85855728  1
  La3+  La58  1  0.50410310  0.84224261  0.87392852  1
  La3+  La59  1  -0.00088909  0.82364425  0.62377361  1
  La3+  La60  1  0.00432833  0.17078863  0.12807931  1
  La3+  La61  1  0.50073304  0.49804071  0.38055035  1
  La3+  La62  1  0.50938423  0.15744340  0.87025946  1
  La3+  La63  1  0.00172019  0.50064700  0.39177960  1
  La3+  La64  1  -0.00509987  0.82685067  0.12717250  1
  La3+  La65  1  0.00090059  0.16594339  0.36388194  1
  La3+  La66  1  0.50379998  0.16989650  0.63742744  1
  La3+  La67  1  0.49955536  0.16441754  0.61696736  1
  La3+  La68  1  0.50299842  0.50259939  0.87846694  1
  La3+  La69  1  0.50253955  0.49685149  0.12021214  1
  La3+  La70  1  0.00141744  0.17408871  0.38393174  1
  La3+  La71  1  0.00064343  0.49694406  0.11041962  1
  La3+  La72  1  0.24921784  0.54652634  -0.04531653  1
  La3+  La73  1  0.24916693  0.17482740  0.77941278  1
  La3+  La74  1  0.74990273  0.54057725  0.50459207  1
  La3+  La75  1  0.74932777  0.83861000  0.47256396  1
  La3+  La76  1  0.75053079  0.83255988  0.78943313  1
  La3+  La77  1  0.25062058  0.20466407  0.27427153  1
  La3+  La78  1  0.74973551  0.49805219  -0.03309270  1
  La3+  La79  1  0.74969376  0.16439788  0.24876709  1
  La3+  La80  1  0.75120179  0.49433943  0.26169752  1
  La3+  La81  1  0.75078836  0.50782890  0.74854460  1
  La3+  La82  1  0.24990065  0.77377866  -0.00936068  1
  La3+  La83  1  0.75116772  0.79013630  0.03701974  1
  Ru4+  Ru84  1  0.00003383  -0.00358251  -0.00141879  1
  Ru4+  Ru85  1  0.00079313  -0.00164714  0.23943093  1
  Ru4+  Ru86  1  -0.00450399  0.00302184  0.50395916  1
  Ru4+  Ru87  1  0.00646451  -0.00043864  0.75005209  1
  Ru4+  Ru88  1  0.00309226  0.33291542  -0.00696691  1
  Ru4+  Ru89  1  -0.00704071  0.34726233  0.24670143  1
  Ru4+  Ru90  1  -0.00040091  0.33630928  0.50912242  1
  Ru4+  Ru91  1  -0.00106609  0.33239206  0.75144405  1
  Ru4+  Ru92  1  0.00590867  0.67452804  -0.00048438  1
  Ru4+  Ru93  1  -0.00038081  0.67102549  0.24361505  1
  Ru4+  Ru94  1  -0.00044390  0.66313952  0.49573863  1
  Ru4+  Ru95  1  -0.00473907  0.65605922  0.75597959  1
  Ru4+  Ru96  1  0.49919920  0.00298624  -0.00105042  1
  Ru4+  Ru97  1  0.50669584  -0.00340731  0.25801096  1
  Ru4+  Ru98  1  0.50296485  -0.00157348  0.49630507  1
  Ru4+  Ru99  1  0.50812935  -0.00053643  0.75725331  1
  Ru4+  Ru100  1  0.49786409  0.33081832  0.00162421  1
  Ru4+  Ru101  1  0.50186188  0.32759557  0.24004321  1
  Ru4+  Ru102  1  0.49699380  0.33188485  0.50718888  1
  Ru4+  Ru103  1  0.49522375  0.34205616  0.75097210  1
  Ru4+  Ru104  1  0.49916721  0.67553509  0.00114402  1
  Ru4+  Ru105  1  0.49683514  0.67160063  0.25743108  1
  Ru4+  Ru106  1  0.50222560  0.67104717  0.50179147  1
  Ru4+  Ru107  1  0.50206067  0.66426770  0.75342967  1
  Ru4+  Ru108  1  0.11237081  0.16698015  -0.00087050  1
  Ru4+  Ru109  1  0.11423344  0.16173800  0.24946035  1
  Ru4+  Ru110  1  0.11664841  0.16724632  0.50100116  1
  Ru4+  Ru111  1  0.10688279  0.16217286  0.75284155  1
  Ru4+  Ru112  1  0.10987991  0.49594310  0.00102158  1
  Ru4+  Ru113  1  0.11047771  0.50287675  0.24910005  1
  Ru4+  Ru114  1  0.11490739  0.50143776  0.50156197  1
  Ru4+  Ru115  1  0.11299266  0.50253342  0.75049140  1
  Ru4+  Ru116  1  0.10785618  0.83066288  0.00067062  1
  Ru4+  Ru117  1  0.11510868  0.83849552  0.25177079  1
  Ru4+  Ru118  1  0.11795822  0.82735995  0.49986423  1
  Ru4+  Ru119  1  0.11590074  0.84275390  0.75040665  1
  Ru4+  Ru120  1  0.61455725  0.16976763  0.00193593  1
  Ru4+  Ru121  1  0.61097104  0.16343525  0.25017613  1
  Ru4+  Ru122  1  0.61530465  0.15973936  0.49599192  1
  Ru4+  Ru123  1  0.61707107  0.16065788  0.75338823  1
  Ru4+  Ru124  1  0.60674699  0.49967034  -0.00112049  1
  Ru4+  Ru125  1  0.60953926  0.49910531  0.24910780  1
  Ru4+  Ru126  1  0.61144713  0.50094141  0.50091504  1
  Ru4+  Ru127  1  0.60860573  0.49972091  0.75258742  1
  Ru4+  Ru128  1  0.61264883  0.82754308  0.00332345  1
  Ru4+  Ru129  1  0.61011885  0.83738495  0.25261219  1
  Ru4+  Ru130  1  0.61048866  0.83464521  0.50011965  1
  Ru4+  Ru131  1  0.61381557  0.83782693  0.74994500  1
  Ru4+  Ru132  1  0.38683874  0.17238018  0.00060457  1
  Ru4+  Ru133  1  0.38821221  0.16684365  0.25431895  1
  Ru4+  Ru134  1  0.38277756  0.16305328  0.49633132  1
  Ru4+  Ru135  1  0.38536283  0.17330426  0.75222608  1
  Ru4+  Ru136  1  0.38656321  0.49377671  -0.00148935  1
  Ru4+  Ru137  1  0.38296764  0.50551051  0.24859489  1
  Ru4+  Ru138  1  0.38140567  0.50118687  0.49983403  1
  Ru4+  Ru139  1  0.38717493  0.50608365  0.74976696  1
  Ru4+  Ru140  1  0.39290779  0.82920151  0.00594091  1
  Ru4+  Ru141  1  0.39271283  0.83684281  0.25236947  1
  Ru4+  Ru142  1  0.38747938  0.83199420  0.50085948  1
  Ru4+  Ru143  1  0.38249299  0.82671160  0.74844097  1
  Ru4+  Ru144  1  0.88927755  0.16921218  -0.00006054  1
  Ru4+  Ru145  1  0.88764355  0.16660901  0.25285818  1
  Ru4+  Ru146  1  0.88595349  0.16543427  0.49835661  1
  Ru4+  Ru147  1  0.88540252  0.16123988  0.75123316  1
  Ru4+  Ru148  1  0.89128899  0.50630379  0.00108960  1
  Ru4+  Ru149  1  0.89788974  0.50081907  0.24679612  1
  Ru4+  Ru150  1  0.88971152  0.50614349  0.50430607  1
  Ru4+  Ru151  1  0.89311645  0.50046115  0.75227559  1
  Ru4+  Ru152  1  0.89271768  0.84144935  0.00433078  1
  Ru4+  Ru153  1  0.88895773  0.83517863  0.25050574  1
  Ru4+  Ru154  1  0.88602995  0.83231248  0.49501126  1
  Ru4+  Ru155  1  0.88688260  0.83612459  0.74799519  1
  Ru4+  Ru156  1  0.74978139  0.23237313  0.74754320  1
  Ru4+  Ru157  1  0.25084530  0.74672004  0.25613962  1
  Ru4+  Ru158  1  0.74992430  0.38870880  0.48768035  1
  Ru4+  Ru159  1  0.25118422  0.74858995  0.50555064  1
  Ru4+  Ru160  1  0.75027747  0.63013654  0.22476596  1
  Ru4+  Ru161  1  0.75021530  0.36656545  0.73476563  1
  Ru4+  Ru162  1  0.75035348  0.63109006  0.01001581  1
  Ru4+  Ru163  1  0.25005735  0.09816239  0.01449342  1
  Ru4+  Ru164  1  0.75031991  0.08804752  -0.00035655  1
  Ru4+  Ru165  1  0.25018628  0.43615823  0.75427616  1
  Ru4+  Ru166  1  0.75010680  0.35571551  0.23015849  1
  Ru4+  Ru167  1  0.74917354  0.75643928  0.25690247  1
  Ru4+  Ru168  1  0.24957811  0.42389413  0.25957487  1
  Ru4+  Ru169  1  0.74995994  0.24664245  0.49904155  1
  Ru4+  Ru170  1  0.25058489  0.93526043  0.02272314  1
  Ru4+  Ru171  1  0.74954063  0.36291587  0.01039845  1
  Ru4+  Ru172  1  0.74948888  0.94245179  0.00515141  1
  Ru4+  Ru173  1  0.24993549  0.40085735  -0.00021321  1
  Ru4+  Ru174  1  0.25061845  0.91497714  0.49516560  1
  Ru4+  Ru175  1  0.24985283  0.04589375  0.74079541  1
  Ru4+  Ru176  1  0.25027740  0.06067359  0.24993803  1
  Ru4+  Ru177  1  0.75052912  0.64752452  0.73015428  1
  Ru4+  Ru178  1  0.74981718  0.92135370  0.25018761  1
  Ru4+  Ru179  1  0.24955228  0.30636445  0.74059327  1
  O2-  O180  1  0.16820121  0.08435020  0.00406514  1
  O2-  O181  1  0.16709987  0.07772688  0.25141279  1
  O2-  O182  1  0.16227118  0.08047515  0.50027307  1
  O2-  O183  1  0.16817521  0.07805373  0.74522448  1
  O2-  O184  1  0.16619194  0.41322022  -0.00053991  1
  O2-  O185  1  0.16449573  0.41112634  0.25238727  1
  O2-  O186  1  0.16499149  0.41358836  0.49605454  1
  O2-  O187  1  0.16495044  0.41468348  0.75112367  1
  O2-  O188  1  0.16083604  0.74422566  -0.00119713  1
  O2-  O189  1  0.16506586  0.74673914  0.25077158  1
  O2-  O190  1  0.16938450  0.74597399  0.49839441  1
  O2-  O191  1  0.16309421  0.75239443  0.74715408  1
  O2-  O192  1  0.66778005  0.08225028  0.00507608  1
  O2-  O193  1  0.66858804  0.08223823  0.25189550  1
  O2-  O194  1  0.66627196  0.08127410  0.49639994  1
  O2-  O195  1  0.66676722  0.08013637  0.74826016  1
  O2-  O196  1  0.66795033  0.41009392  -0.00252052  1
  O2-  O197  1  0.66863022  0.41260679  0.25082063  1
  O2-  O198  1  0.66922994  0.41127367  0.49916599  1
  O2-  O199  1  0.66410067  0.41106919  0.74859545  1
  O2-  O200  1  0.66635175  0.74249347  -0.00117472  1
  O2-  O201  1  0.66394551  0.74965495  0.24893976  1
  O2-  O202  1  0.66424545  0.74681269  0.49746607  1
  O2-  O203  1  0.66537943  0.74533369  0.74913030  1
  O2-  O204  1  0.33092105  0.25090394  -0.00635136  1
  O2-  O205  1  0.33829176  0.25596833  0.25271616  1
  O2-  O206  1  0.33812305  0.25551415  0.50019707  1
  O2-  O207  1  0.33441269  0.25886764  0.74950219  1
  O2-  O208  1  0.33490471  0.58666878  -0.00183335  1
  O2-  O209  1  0.33518383  0.58522226  0.25216190  1
  O2-  O210  1  0.33332804  0.58425170  0.49912939  1
  O2-  O211  1  0.33294714  0.58277541  0.75049572  1
  O2-  O212  1  0.33549826  0.91921106  0.00073522  1
  O2-  O213  1  0.33782659  0.91827323  0.24874594  1
  O2-  O214  1  0.33567881  0.91780788  0.50225976  1
  O2-  O215  1  0.33720052  0.91660336  0.74930657  1
  O2-  O216  1  0.83308826  0.25279108  0.00345162  1
  O2-  O217  1  0.82929549  0.25256987  0.24557412  1
  O2-  O218  1  0.83275959  0.25220598  0.49932566  1
  O2-  O219  1  0.83127703  0.25257767  0.74824254  1
  O2-  O220  1  0.83284461  0.58885392  0.00045483  1
  O2-  O221  1  0.83509393  0.59119407  0.24902264  1
  O2-  O222  1  0.83285994  0.58900796  0.49366915  1
  O2-  O223  1  0.83358013  0.58816504  0.75000007  1
  O2-  O224  1  0.83081669  0.92057347  -0.00067745  1
  O2-  O225  1  0.83486714  0.91916952  0.25346840  1
  O2-  O226  1  0.83458571  0.91955976  0.49508240  1
  O2-  O227  1  0.83131060  0.91996824  0.75218830  1
  O2-  O228  1  0.16603338  0.25036514  -0.00135539  1
  O2-  O229  1  0.16312726  0.25628398  0.25069792  1
  O2-  O230  1  0.16355055  0.25487067  0.49800606  1
  O2-  O231  1  0.16170808  0.25335208  0.75006222  1
  O2-  O232  1  0.16361049  0.58679723  -0.00204722  1
  O2-  O233  1  0.16242221  0.58356814  0.25235727  1
  O2-  O234  1  0.16755644  0.58376025  0.49714528  1
  O2-  O235  1  0.16331653  0.58396548  0.74935179  1
  O2-  O236  1  0.16760243  0.91845551  0.00485227  1
  O2-  O237  1  0.16608562  0.91820298  0.25031730  1
  O2-  O238  1  0.16655846  0.91873201  0.49907222  1
  O2-  O239  1  0.16813844  0.91832010  0.74615875  1
  O2-  O240  1  0.66845677  0.25227414  -0.00036239  1
  O2-  O241  1  0.67062600  0.25107500  0.24870442  1
  O2-  O242  1  0.66874305  0.25208694  0.49923683  1
  O2-  O243  1  0.66734516  0.25238817  0.74977157  1
  O2-  O244  1  0.66714636  0.58945048  -0.00024523  1
  O2-  O245  1  0.66427854  0.58835447  0.24982476  1
  O2-  O246  1  0.66332312  0.58881403  0.49761694  1
  O2-  O247  1  0.66959192  0.58874217  0.74868292  1
  O2-  O248  1  0.66546510  0.91914071  0.00337397  1
  O2-  O249  1  0.66890371  0.92051979  0.25090529  1
  O2-  O250  1  0.66725041  0.91907751  0.49456883  1
  O2-  O251  1  0.67005008  0.91685242  0.74928097  1
  O2-  O252  1  0.33535853  0.08299272  0.00099366  1
  O2-  O253  1  0.33147305  0.08071762  0.25002615  1
  O2-  O254  1  0.33476645  0.08137062  0.50414849  1
  O2-  O255  1  0.33449333  0.07680737  0.74930394  1
  O2-  O256  1  0.33322866  0.41257450  -0.00293721  1
  O2-  O257  1  0.33375167  0.41365527  0.25490008  1
  O2-  O258  1  0.33315585  0.41524403  0.49872916  1
  O2-  O259  1  0.33610480  0.41527032  0.75159370  1
  O2-  O260  1  0.33980883  0.74434070  -0.00417670  1
  O2-  O261  1  0.33463454  0.74841508  0.25044897  1
  O2-  O262  1  0.33286807  0.74733699  0.49898895  1
  O2-  O263  1  0.33432367  0.74577722  0.74825338  1
  O2-  O264  1  0.83450073  0.08320370  0.00098965  1
  O2-  O265  1  0.82954403  0.08376843  0.25453411  1
  O2-  O266  1  0.83227423  0.08291238  0.49704736  1
  O2-  O267  1  0.83535229  0.08170424  0.74981906  1
  O2-  O268  1  0.83182716  0.40986688  0.00145155  1
  O2-  O269  1  0.83340769  0.41088007  0.24888040  1
  O2-  O270  1  0.83438425  0.41391568  0.49796550  1
  O2-  O271  1  0.83454297  0.41086903  0.74916839  1
  O2-  O272  1  0.83935311  0.74586784  -0.00086106  1
  O2-  O273  1  0.83132669  0.74780071  0.24958139  1
  O2-  O274  1  0.82982173  0.74795844  0.49476609  1
  O2-  O275  1  0.83111442  0.74635896  0.75153973  1
  O2-  O276  1  0.94452866  0.75532639  0.26806270  1
  O2-  O277  1  0.44576444  0.56788241  0.48193561  1
  O2-  O278  1  0.45614580  0.42606712  0.51917665  1
  O2-  O279  1  0.45851239  0.57117013  0.51523524  1
  O2-  O280  1  0.55501724  0.08953486  0.26074738  1
  O2-  O281  1  0.95013196  0.43332381  0.50459835  1
  O2-  O282  1  0.46002147  0.76957329  0.95888599  1
  O2-  O283  1  0.46491118  0.22898576  0.95649210  1
  O2-  O284  1  0.44599363  0.90646357  0.72658996  1
  O2-  O285  1  0.44670986  0.90883125  0.76577771  1
  O2-  O286  1  0.95204698  0.91052295  0.94838058  1
  O2-  O287  1  0.45272703  0.90334486  0.26237871  1
  O2-  O288  1  0.45306116  0.57016247  0.98018212  1
  O2-  O289  1  0.54448242  0.22554377  0.48292244  1
  O2-  O290  1  0.04427192  0.10018727  0.51365143  1
  O2-  O291  1  0.05157730  0.76055147  0.95562153  1
  O2-  O292  1  0.04549343  0.23778740  0.26198288  1
  O2-  O293  1  0.44884835  0.43641917  0.24072425  1
  O2-  O294  1  0.55387237  0.89831904  0.98551310  1
  O2-  O295  1  0.45181230  0.09082761  0.01843707  1
  O2-  O296  1  0.05208391  0.76530539  0.24053994  1
  O2-  O297  1  0.95410968  0.22888936  0.99419282  1
  O2-  O298  1  0.04804460  0.90241683  0.51712050  1
  O2-  O299  1  0.44779629  0.23973614  0.23284858  1
  O2-  O300  1  0.04419795  0.89570667  0.03625790  1
  O2-  O301  1  0.54293261  0.22877547  0.27890221  1
  O2-  O302  1  0.54785091  0.24292548  0.51699840  1
  O2-  O303  1  0.04644820  0.89564810  0.47870076  1
  O2-  O304  1  0.45061871  0.91129690  0.99430362  1
  O2-  O305  1  0.55004223  0.23494819  0.76327413  1
  O2-  O306  1  0.95306371  0.76674451  0.48908564  1
  O2-  O307  1  0.04249244  0.56518287  0.99125207  1
  O2-  O308  1  0.04914534  0.43211774  0.50790306  1
  O2-  O309  1  0.46322585  0.10744282  0.25580212  1
  O2-  O310  1  0.45637495  0.09701371  0.76089420  1
  O2-  O311  1  0.03735685  0.11141759  0.70969171  1
  O2-  O312  1  0.94850659  0.75570596  0.01925128  1
  O2-  O313  1  0.95658657  0.43735987  0.99359301  1
  O2-  O314  1  0.44907347  0.09459772  0.72349832  1
  O2-  O315  1  0.45272345  0.56782905  0.01923737  1
  O2-  O316  1  0.45537390  0.76088793  0.73699190  1
  O2-  O317  1  0.94813523  0.90794185  0.51176589  1
  O2-  O318  1  0.95435129  0.76983916  0.25001655  1
  O2-  O319  1  0.04974600  0.76761847  0.75105098  1
  O2-  O320  1  0.53994242  0.86306136  0.73439671  1
  O2-  O321  1  0.54315400  0.56871499  0.25648948  1
  O2-  O322  1  0.44545936  0.42879259  0.48400824  1
  O2-  O323  1  0.45090172  0.24304364  0.76550090  1
  O2-  O324  1  0.92898852  0.57806589  0.56954863  1
  O2-  O325  1  0.41895497  0.27055023  0.05588878  1
  O2-  O326  1  0.56381093  0.26284810  0.03281132  1
  O2-  O327  1  0.93852606  0.93217591  0.77355651  1
  O2-  O328  1  0.93238531  0.73541136  0.21133904  1
  O2-  O329  1  0.93346271  0.25092669  0.79772804  1
  O2-  O330  1  0.94158896  0.75083000  0.47590784  1
  O2-  O331  1  0.07363360  0.06205694  0.81142347  1
  O2-  O332  1  0.56344904  0.07517948  0.96776102  1
  O2-  O333  1  0.56998150  0.41569284  0.43910805  1
  O2-  O334  1  0.05969693  0.74561550  0.77798667  1
  O2-  O335  1  0.93645174  0.26217526  0.28560498  1
  O2-  O336  1  0.43568426  0.73745499  0.26968783  1
  O2-  O337  1  0.42975881  0.72106535  0.06956189  1
  O2-  O338  1  0.06436917  0.71928631  0.09184948  1
  O2-  O339  1  0.93685883  0.07313218  0.46422627  1
  O2-  O340  1  0.06949644  0.93181191  0.95176797  1
  O2-  O341  1  0.56370482  0.73659073  0.03433488  1
  O2-  O342  1  0.06459863  0.74375257  0.52832025  1
  O2-  O343  1  0.56856861  0.41296990  0.55975369  1
  O2-  O344  1  0.56038132  0.92977885  0.96921549  1
  O2-  O345  1  0.56345844  0.58824041  0.77540113  1
  O2-  O346  1  0.56338692  0.40923104  0.21549033  1
  O2-  O347  1  0.06144206  0.07838016  0.97485637  1
  O2-  O348  1  0.42613361  0.05139533  0.28622755  1
  O2-  O349  1  0.56594498  0.92550364  0.27272747  1
  O2-  O350  1  0.94313998  0.92320778  0.94186494  1
  O2-  O351  1  0.93121882  0.58338086  0.42938201  1
  O2-  O352  1  0.05898247  0.25569500  0.28903177  1
  O2-  O353  1  0.43867794  0.06757271  0.47332306  1
  O2-  O354  1  0.43847728  0.59673580  0.72023785  1
  O2-  O355  1  0.93365723  0.73975147  0.53733364  1
  O2-  O356  1  0.06266727  0.25533310  0.02987332  1
  O2-  O357  1  0.93141548  0.25409188  0.70424629  1
  O2-  O358  1  0.91892451  0.91619855  0.08701138  1
  O2-  O359  1  0.43905784  0.40412818  0.23234691  1
  O2-  O360  1  0.56268074  0.26092030  0.78203412  1
  O2-  O361  1  0.06301512  0.59067198  0.51986919  1
  O2-  O362  1  0.93520543  0.74537893  0.72661791  1
  O2-  O363  1  0.06344004  0.92182878  0.81404790  1
  O2-  O364  1  0.57568621  0.96323272  0.79780932  1
  O2-  O365  1  0.43661163  0.73968588  0.53637266  1
  O2-  O366  1  0.56910613  0.26403571  0.20173085  1
  O2-  O367  1  0.06007771  0.75087727  0.94588017  1
  O2-  O368  1  0.93812723  0.07040937  0.28684110  1
  O2-  O369  1  0.06109869  0.92481945  0.67358759  1
  O2-  O370  1  0.56414109  0.92354129  0.52618899  1
  O2-  O371  1  0.06055535  0.93106198  0.28675857  1
  O2-  O372  1  0.25073325  -0.03373122  0.65146930  1
  O2-  O373  1  0.25022126  0.67215692  0.59315917  1
  O2-  O374  1  0.75050360  0.00447942  0.89552336  1
  O2-  O375  1  0.75043942  -0.00321358  0.59839921  1
  O2-  O376  1  0.74934987  -0.00180279  0.15040577  1
  O2-  O377  1  0.25040725  0.66407758  0.07815151  1
  O2-  O378  1  0.25082150  0.34221016  0.86747704  1
  O2-  O379  1  0.24985890  0.32082102  0.08277654  1
  O2-  O380  1  0.25113252  0.66180726  0.86450408  1
  O2-  O381  1  0.74901239  0.67059987  0.35775857  1
  O2-  O382  1  0.25082068  -0.02710547  0.82216896  1
  O2-  O383  1  0.24964899  0.67037967  0.35116473  1
  O2-  O384  1  0.25133146  -0.00380597  0.14688286  1
  O2-  O385  1  0.25031592  0.66121121  0.17099488  1
  O2-  O386  1  0.25085136  0.01395484  0.93661055  1
  O2-  O387  1  0.25127800  0.34226660  0.62720238  1
  O2-  O388  1  0.24991982  -0.00481179  0.40284135  1
  O2-  O389  1  0.74970985  0.65557892  0.60398817  1
  O2-  O390  1  0.25030673  0.00669373  0.57142556  1
  O2-  O391  1  0.25006206  0.33222604  0.17590066  1
  O2-  O392  1  0.74986644  0.32953538  0.35919893  1
  O2-  O393  1  0.75037470  0.66795054  0.85941003  1
  O2-  O394  1  0.74945823  0.33369131  0.86221678  1
  O2-  O395  1  0.74989900  0.33232767  0.60745248  1
  O2-  O396  1  0.24993218  0.85100505  0.88001603  1
  O2-  O397  1  0.25016637  0.84985187  0.10741670  1
  O2-  O398  1  0.75006062  0.15761279  0.83350055  1
  O2-  O399  1  0.24998456  0.16799661  0.55086857  1
  O2-  O400  1  0.24958978  0.83938164  0.32792396  1
  O2-  O401  1  0.25006404  0.83205358  0.79983103  1
  O2-  O402  1  0.24990871  0.15145403  0.12816227  1
  O2-  O403  1  0.74997035  0.83743784  0.16475646  1
  O2-  O404  1  0.24989712  0.49558272  0.58434560  1
  O2-  O405  1  0.74982991  0.85064876  0.91779722  1
  O2-  O406  1  0.75104977  0.82986388  0.59101012  1
  O2-  O407  1  0.24983670  0.49072681  0.09084249  1
  O2-  O408  1  0.24981055  0.16319089  0.39593321  1
  O2-  O409  1  0.24991497  0.49256407  0.34215635  1
  O2-  O410  1  0.74992701  0.50031489  0.11333916  1
  O2-  O411  1  0.24997641  0.50631830  0.18058462  1
  O2-  O412  1  0.25021482  0.16279368  0.63427528  1
  O2-  O413  1  0.24969333  0.82799386  0.42172934  1
  O2-  O414  1  0.75013996  0.17369146  0.91979274  1
  O2-  O415  1  0.24989708  0.15958431  0.91323013  1
  O2-  O416  1  0.74966843  0.83271582  0.67089116  1
  O2-  O417  1  0.25008100  0.50792841  0.66703783  1
  O2-  O418  1  0.75002546  0.83868419  0.33992447  1
  O2-  O419  1  0.24958348  0.84274277  0.19528904  1
  O2-  O420  1  0.04892859  0.00523124  0.13315401  1
  O2-  O421  1  0.02411448  0.34438250  0.12701079  1
  O2-  O422  1  0.46462745  0.33219413  0.38499918  1
  O2-  O423  1  0.46344527  0.65566237  0.37981452  1
  O2-  O424  1  0.52653450  0.33388610  0.36137962  1
  O2-  O425  1  0.52629398  0.67248591  0.87695073  1
  O2-  O426  1  0.48303232  0.34435013  0.12134280  1
  O2-  O427  1  0.52295384  0.32393300  0.63619861  1
  O2-  O428  1  0.52611652  0.00295363  0.12425674  1
  O2-  O429  1  0.97462580  0.66385882  0.63495145  1
  O2-  O430  1  0.04803530  0.32559538  0.63712138  1
  O2-  O431  1  0.96920885  0.00622344  0.63116719  1
  O2-  O432  1  0.01656795  0.64399298  0.86960651  1
  O2-  O433  1  0.95796407  0.02347204  0.14063397  1
  O2-  O434  1  0.95962694  0.34969292  0.88018426  1
  O2-  O435  1  0.98401328  0.66350469  0.36591932  1
  O2-  O436  1  0.03511485  0.66951362  0.64070086  1
  O2-  O437  1  0.04732947  0.33438531  0.86731278  1
  O2-  O438  1  0.52359020  0.00147935  0.38294268  1
  O2-  O439  1  0.54402659  0.66833570  0.38144284  1
  O2-  O440  1  0.52450708  0.01075301  0.63072637  1
  O2-  O441  1  0.95847508  0.34037636  0.61514641  1
  O2-  O442  1  0.47363345  0.00274749  0.87527879  1
  O2-  O443  1  0.52932571  0.67195777  0.62214566  1
