# generated using pymatgen
data_La7(Ru4O11)2
_symmetry_space_group_name_H-M   'P 1'
_cell_length_a   23.99601177
_cell_length_b   16.83513416
_cell_length_c   15.43173343
_cell_angle_alpha   90.00141120
_cell_angle_beta   89.99866843
_cell_angle_gamma   90.00406595
_symmetry_Int_Tables_number   1
_chemical_formula_structural   La7(Ru4O11)2
_chemical_formula_sum   'La84 Ru96 O264'
_cell_volume   6234.05111764
_cell_formula_units_Z   12
loop_
 _symmetry_equiv_pos_site_id
 _symmetry_equiv_pos_as_xyz
  1  'x, y, z'
loop_
 _atom_type_symbol
 _atom_type_oxidation_number
  La3+  3.0
  Ru4+  4.0
  O2-  -2.0
loop_
 _atom_site_type_symbol
 _atom_site_label
 _atom_site_symmetry_multiplicity
 _atom_site_fract_x
 _atom_site_fract_y
 _atom_site_fract_z
 _atom_site_occupancy
  La3+  La0  1  0.16259901  0.00079430  0.12338108  1
  La3+  La1  1  0.16009640  -0.00377367  0.37434453  1
  La3+  La2  1  0.14005738  0.00259451  0.61966766  1
  La3+  La3  1  0.13968725  0.00071618  0.87720062  1
  La3+  La4  1  0.14813857  0.32199794  0.12747414  1
  La3+  La5  1  0.14795518  0.33317702  0.37598137  1
  La3+  La6  1  0.14133578  0.33804672  0.62543665  1
  La3+  La7  1  0.14396334  0.32703520  0.88047081  1
  La3+  La8  1  0.14271417  0.66745215  0.12268307  1
  La3+  La9  1  0.14242038  0.66420590  0.37813663  1
  La3+  La10  1  0.14755813  0.67789898  0.62400133  1
  La3+  La11  1  0.14945578  0.67864035  0.87813717  1
  La3+  La12  1  0.64637608  -0.00870527  0.12642579  1
  La3+  La13  1  0.63718966  -0.00276100  0.37956376  1
  La3+  La14  1  0.64595481  0.00143127  0.62744586  1
  La3+  La15  1  0.64359669  -0.01483241  0.87216424  1
  La3+  La16  1  0.63642523  0.33144220  0.12638004  1
  La3+  La17  1  0.64852957  0.33378853  0.37339697  1
  La3+  La18  1  0.63473455  0.33682870  0.62191373  1
  La3+  La19  1  0.63267914  0.33444419  0.87629710  1
  La3+  La20  1  0.63861347  0.66737088  0.12680730  1
  La3+  La21  1  0.64303658  0.66985122  0.37327325  1
  La3+  La22  1  0.64708323  0.67381924  0.61972500  1
  La3+  La23  1  0.63928978  0.66154611  0.87948919  1
  La3+  La24  1  0.34301386  -0.00348664  0.12486786  1
  La3+  La25  1  0.34117630  0.00024828  0.37115090  1
  La3+  La26  1  0.36303771  0.00490770  0.61074870  1
  La3+  La27  1  0.36054468  -0.00427960  0.87792018  1
  La3+  La28  1  0.34771478  0.32353977  0.12769742  1
  La3+  La29  1  0.35999476  0.33186634  0.38289172  1
  La3+  La30  1  0.36268341  0.33115719  0.62049399  1
  La3+  La31  1  0.35512917  0.32816744  0.88328464  1
  La3+  La32  1  0.35785671  0.66360755  0.12292101  1
  La3+  La33  1  0.36134218  0.66795378  0.37303747  1
  La3+  La34  1  0.36531787  0.66520948  0.62213823  1
  La3+  La35  1  0.35895115  0.66943415  0.87769000  1
  La3+  La36  1  0.87002731  0.00407951  0.12579291  1
  La3+  La37  1  0.85267443  -0.00104844  0.37980031  1
  La3+  La38  1  0.85323537  -0.00404761  0.62844134  1
  La3+  La39  1  0.86462440  0.00681991  0.87574811  1
  La3+  La40  1  0.86516888  0.33494924  0.11792365  1
  La3+  La41  1  0.85122771  0.33806472  0.37046610  1
  La3+  La42  1  0.86210019  0.34101002  0.62789505  1
  La3+  La43  1  0.87278665  0.34091908  0.87185777  1
  La3+  La44  1  0.85876543  0.66894804  0.12967008  1
  La3+  La45  1  0.84979706  0.67103680  0.37170565  1
  La3+  La46  1  0.85985811  0.66936338  0.62338869  1
  La3+  La47  1  0.85672619  0.66776752  0.87569177  1
  La3+  La48  1  -0.00003780  0.83578233  0.62289776  1
  La3+  La49  1  0.00333694  0.16455871  0.37157865  1
  La3+  La50  1  0.00066645  0.84492489  0.86742989  1
  La3+  La51  1  0.50190293  0.16436398  0.85995388  1
  La3+  La52  1  0.00550036  0.82045544  0.10268695  1
  La3+  La53  1  0.49837341  0.83768666  0.13178810  1
  La3+  La54  1  0.49715262  0.82857575  0.90178849  1
  La3+  La55  1  -0.00171515  0.83643991  0.36811420  1
  La3+  La56  1  0.50442535  0.83374686  0.64419239  1
  La3+  La57  1  0.48715439  0.17547451  0.36158265  1
  La3+  La58  1  0.50193975  0.49939726  0.37627760  1
  La3+  La59  1  -0.00025677  0.49528767  0.36127448  1
  La3+  La60  1  -0.01231228  0.51223316  0.11712357  1
  La3+  La61  1  -0.00045752  0.16703544  0.65010771  1
  La3+  La62  1  -0.00816414  0.49317490  0.63082897  1
  La3+  La63  1  0.49523514  0.50600061  0.12237063  1
  La3+  La64  1  0.00049725  0.48483710  0.88843571  1
  La3+  La65  1  0.00105615  0.50009821  0.61504507  1
  La3+  La66  1  0.00698083  0.82189550  0.11933795  1
  La3+  La67  1  0.50049672  0.50614017  0.88718177  1
  La3+  La68  1  0.50485379  0.16358559  0.62204645  1
  La3+  La69  1  0.00093112  0.15938049  0.62910381  1
  La3+  La70  1  0.50197924  0.84462275  0.39096803  1
  La3+  La71  1  -0.00248151  0.16395155  0.35097797  1
  La3+  La72  1  0.24947485  0.15797229  0.28379244  1
  La3+  La73  1  0.25032326  0.49810596  0.53107663  1
  La3+  La74  1  0.75246819  0.88125941  -0.04030737  1
  La3+  La75  1  0.75073104  0.22133692  0.53489279  1
  La3+  La76  1  0.24722900  0.45333784  -0.03056610  1
  La3+  La77  1  0.74910804  0.45799288  0.49300121  1
  La3+  La78  1  0.24941535  0.15853684  0.01298774  1
  La3+  La79  1  0.75009399  0.16538791  0.80806510  1
  La3+  La80  1  0.25285075  0.44809035  0.21347747  1
  La3+  La81  1  0.74936564  0.83713510  0.49245553  1
  La3+  La82  1  0.74907252  0.09980059  0.24458652  1
  La3+  La83  1  0.75076699  0.53679906  0.02047244  1
  Ru4+  Ru84  1  -0.00219465  0.00883241  -0.00379631  1
  Ru4+  Ru85  1  -0.00458584  -0.00206100  0.24658198  1
  Ru4+  Ru86  1  0.00215975  -0.00910378  0.51521946  1
  Ru4+  Ru87  1  -0.00206114  -0.00302373  0.74077008  1
  Ru4+  Ru88  1  0.00546722  0.33016341  0.01044969  1
  Ru4+  Ru89  1  0.00739896  0.34385875  0.23532775  1
  Ru4+  Ru90  1  0.00603005  0.32950823  0.50936379  1
  Ru4+  Ru91  1  0.00473819  0.32261378  0.75270404  1
  Ru4+  Ru92  1  0.00233606  0.66518040  -0.00155579  1
  Ru4+  Ru93  1  0.00169778  0.66563052  0.24538583  1
  Ru4+  Ru94  1  -0.01157312  0.67402769  0.49976803  1
  Ru4+  Ru95  1  0.00990106  0.66879244  0.75624827  1
  Ru4+  Ru96  1  0.50774148  0.01762051  0.00420317  1
  Ru4+  Ru97  1  0.49697181  0.00690717  0.23464338  1
  Ru4+  Ru98  1  0.49938277  -0.00416162  0.50792038  1
  Ru4+  Ru99  1  0.49431905  -0.00282075  0.73709896  1
  Ru4+  Ru100  1  0.49359069  0.32450807  0.00699542  1
  Ru4+  Ru101  1  0.50586560  0.33336807  0.25595377  1
  Ru4+  Ru102  1  0.50485095  0.34124518  0.49471335  1
  Ru4+  Ru103  1  0.49874562  0.33595490  0.75992246  1
  Ru4+  Ru104  1  0.50788073  0.68127710  0.01116849  1
  Ru4+  Ru105  1  0.49815013  0.66996282  0.25549649  1
  Ru4+  Ru106  1  0.50137850  0.66274694  0.49904381  1
  Ru4+  Ru107  1  0.50942041  0.65362324  0.73064729  1
  Ru4+  Ru108  1  0.10781626  0.17047410  -0.00120863  1
  Ru4+  Ru109  1  0.10995957  0.16295262  0.24844108  1
  Ru4+  Ru110  1  0.11526937  0.16506987  0.49887906  1
  Ru4+  Ru111  1  0.11362268  0.16845453  0.75251439  1
  Ru4+  Ru112  1  0.10782087  0.49848246  -0.00053440  1
  Ru4+  Ru113  1  0.10717431  0.49478777  0.25705912  1
  Ru4+  Ru114  1  0.11391031  0.50042688  0.49422101  1
  Ru4+  Ru115  1  0.10861106  0.51150852  0.76212033  1
  Ru4+  Ru116  1  0.11075835  0.83495673  0.00544661  1
  Ru4+  Ru117  1  0.10773430  0.83425207  0.24730755  1
  Ru4+  Ru118  1  0.11281979  0.83559115  0.49635536  1
  Ru4+  Ru119  1  0.11000443  0.83149320  0.75627538  1
  Ru4+  Ru120  1  0.60571754  0.14492276  0.00244812  1
  Ru4+  Ru121  1  0.60395823  0.16545538  0.24384239  1
  Ru4+  Ru122  1  0.60821349  0.16441014  0.50638253  1
  Ru4+  Ru123  1  0.61611554  0.17247862  0.74837763  1
  Ru4+  Ru124  1  0.61494551  0.48883961  -0.00206000  1
  Ru4+  Ru125  1  0.61247488  0.49533954  0.25057688  1
  Ru4+  Ru126  1  0.60759379  0.50043366  0.49856947  1
  Ru4+  Ru127  1  0.60660063  0.51026749  0.73826870  1
  Ru4+  Ru128  1  0.60779006  0.82506001  -0.00193019  1
  Ru4+  Ru129  1  0.61325353  0.83033937  0.24961733  1
  Ru4+  Ru130  1  0.60859715  0.83545806  0.50039234  1
  Ru4+  Ru131  1  0.60967591  0.83848324  0.74316413  1
  Ru4+  Ru132  1  0.39091466  0.17411527  0.00183209  1
  Ru4+  Ru133  1  0.39019862  0.15911040  0.24493134  1
  Ru4+  Ru134  1  0.38146772  0.16040390  0.49456349  1
  Ru4+  Ru135  1  0.38641050  0.16746262  0.75106839  1
  Ru4+  Ru136  1  0.39174560  0.49411558  0.00289672  1
  Ru4+  Ru137  1  0.39025102  0.50073844  0.25354442  1
  Ru4+  Ru138  1  0.39265595  0.50287558  0.49881683  1
  Ru4+  Ru139  1  0.39148950  0.49909151  0.75207459  1
  Ru4+  Ru140  1  0.38360827  0.83617931  0.00045532  1
  Ru4+  Ru141  1  0.39017258  0.83205903  0.24731239  1
  Ru4+  Ru142  1  0.38557179  0.84858170  0.49250315  1
  Ru4+  Ru143  1  0.38506881  0.84239377  0.74587604  1
  Ru4+  Ru144  1  0.89060131  0.16222291  -0.00358525  1
  Ru4+  Ru145  1  0.89280417  0.17100460  0.25085537  1
  Ru4+  Ru146  1  0.88891818  0.16521270  0.49665598  1
  Ru4+  Ru147  1  0.88809036  0.16970427  0.75836390  1
  Ru4+  Ru148  1  0.88936853  0.50267907  -0.00134912  1
  Ru4+  Ru149  1  0.88605557  0.49254895  0.25649547  1
  Ru4+  Ru150  1  0.88976085  0.50714851  0.49442055  1
  Ru4+  Ru151  1  0.88158736  0.50754512  0.75785558  1
  Ru4+  Ru152  1  0.89082086  0.83398565  0.00065462  1
  Ru4+  Ru153  1  0.89050748  0.83899429  0.25251021  1
  Ru4+  Ru154  1  0.89174934  0.82298961  0.49836843  1
  Ru4+  Ru155  1  0.88961851  0.83698982  0.75288159  1
  Ru4+  Ru156  1  0.74919478  0.38728201  -0.00842519  1
  Ru4+  Ru157  1  0.25036246  0.41936335  0.74576368  1
  Ru4+  Ru158  1  0.75050616  0.73943739  0.02140906  1
  Ru4+  Ru159  1  0.25229141  0.59580095  0.75471232  1
  Ru4+  Ru160  1  0.74979447  0.76152943  0.73929142  1
  Ru4+  Ru161  1  0.75017227  0.90584566  0.26172606  1
  Ru4+  Ru162  1  0.25263840  0.75951920  0.74898756  1
  Ru4+  Ru163  1  0.25012016  0.23716185  0.74406188  1
  Ru4+  Ru164  1  0.74916080  0.57659097  0.74333100  1
  Ru4+  Ru165  1  0.24807560  0.90541156  0.75315315  1
  Ru4+  Ru166  1  0.24867312  0.61853940  0.24368018  1
  Ru4+  Ru167  1  0.25057752  0.09038130  0.75476039  1
  Ru4+  Ru168  1  0.74940226  0.57125345  0.25257450  1
  Ru4+  Ru169  1  0.74985401  0.06393656  0.49867869  1
  Ru4+  Ru170  1  0.74781833  0.43367004  0.75820765  1
  Ru4+  Ru171  1  0.74967936  0.29232317  0.73099396  1
  Ru4+  Ru172  1  0.74849029  0.24932353  -0.01111227  1
  Ru4+  Ru173  1  0.25193461  0.75451648  0.48484693  1
  Ru4+  Ru174  1  0.24974357  0.24867222  0.50223245  1
  Ru4+  Ru175  1  0.75053473  0.27371585  0.23204304  1
  Ru4+  Ru176  1  0.75072774  0.60996749  0.52004688  1
  Ru4+  Ru177  1  0.24832297  0.76373082  0.25354327  1
  Ru4+  Ru178  1  0.75060647  0.02047234  0.77278056  1
  Ru4+  Ru179  1  0.24994660  0.60786196  0.00528505  1
  O2-  O180  1  0.15982452  0.08211522  -0.00711225  1
  O2-  O181  1  0.16540466  0.08355919  0.25058734  1
  O2-  O182  1  0.16969300  0.08243481  0.50215147  1
  O2-  O183  1  0.16980772  0.07931591  0.75006451  1
  O2-  O184  1  0.15604454  0.41070105  0.00272778  1
  O2-  O185  1  0.16241850  0.41227080  0.25126952  1
  O2-  O186  1  0.17068461  0.41577400  0.50637143  1
  O2-  O187  1  0.16325050  0.42295940  0.75262038  1
  O2-  O188  1  0.16333940  0.75001740  0.00777537  1
  O2-  O189  1  0.16392768  0.74669428  0.25182736  1
  O2-  O190  1  0.17009217  0.75269123  0.49396279  1
  O2-  O191  1  0.17232129  0.75026667  0.75038040  1
  O2-  O192  1  0.67070089  0.08586255  0.00832311  1
  O2-  O193  1  0.65795509  0.07494410  0.25517082  1
  O2-  O194  1  0.66649486  0.07873770  0.49466609  1
  O2-  O195  1  0.66973782  0.08001979  0.75943409  1
  O2-  O196  1  0.66949528  0.40884387  0.00216247  1
  O2-  O197  1  0.66144010  0.41227784  0.24376136  1
  O2-  O198  1  0.65761747  0.41163470  0.50336268  1
  O2-  O199  1  0.66025216  0.42130477  0.75365011  1
  O2-  O200  1  0.66775975  0.74547713  0.00150536  1
  O2-  O201  1  0.66487989  0.74916639  0.25135360  1
  O2-  O202  1  0.66540683  0.75139769  0.49597504  1
  O2-  O203  1  0.66406858  0.75051697  0.74963148  1
  O2-  O204  1  0.32858062  0.24052402  -0.00336479  1
  O2-  O205  1  0.33638328  0.24952104  0.26191478  1
  O2-  O206  1  0.33125002  0.24813527  0.50729250  1
  O2-  O207  1  0.33408612  0.25192296  0.74881191  1
  O2-  O208  1  0.33394318  0.58313249  -0.00871117  1
  O2-  O209  1  0.33028313  0.58929102  0.25022561  1
  O2-  O210  1  0.33670126  0.58567809  0.50681326  1
  O2-  O211  1  0.33818663  0.58672678  0.74713619  1
  O2-  O212  1  0.32945213  0.91487755  -0.00528193  1
  O2-  O213  1  0.33576338  0.91064101  0.24823744  1
  O2-  O214  1  0.32458316  0.91601986  0.50851508  1
  O2-  O215  1  0.32561574  0.91724748  0.75188094  1
  O2-  O216  1  0.82902033  0.24969332  -0.00542154  1
  O2-  O217  1  0.83831133  0.25506255  0.24580973  1
  O2-  O218  1  0.84205737  0.25710891  0.50120982  1
  O2-  O219  1  0.83340503  0.25747794  0.75164184  1
  O2-  O220  1  0.84268855  0.59083165  -0.00059149  1
  O2-  O221  1  0.83429224  0.58483219  0.24556244  1
  O2-  O222  1  0.83238242  0.58734452  0.50242204  1
  O2-  O223  1  0.83201258  0.59029764  0.74917531  1
  O2-  O224  1  0.83992738  0.92382300  0.00532659  1
  O2-  O225  1  0.83279941  0.92004314  0.24488740  1
  O2-  O226  1  0.83865029  0.90996091  0.50156678  1
  O2-  O227  1  0.83778286  0.91972440  0.75479719  1
  O2-  O228  1  0.16835503  0.24614382  -0.00036971  1
  O2-  O229  1  0.16639161  0.24835838  0.25810827  1
  O2-  O230  1  0.16757191  0.25146106  0.50523390  1
  O2-  O231  1  0.16560265  0.25293140  0.75081951  1
  O2-  O232  1  0.16692391  0.58609670  0.00048850  1
  O2-  O233  1  0.16462584  0.58672165  0.24799931  1
  O2-  O234  1  0.16632264  0.58703059  0.49987748  1
  O2-  O235  1  0.17256866  0.58921020  0.75304741  1
  O2-  O236  1  0.16034436  0.91968220  -0.00720355  1
  O2-  O237  1  0.15779010  0.91649989  0.24788656  1
  O2-  O238  1  0.16671454  0.91672022  0.50534428  1
  O2-  O239  1  0.16334643  0.91608166  0.74948525  1
  O2-  O240  1  0.66083573  0.24870990  -0.00333396  1
  O2-  O241  1  0.66199022  0.25376501  0.24217427  1
  O2-  O242  1  0.66001411  0.25283539  0.49951824  1
  O2-  O243  1  0.66873391  0.26121280  0.75299263  1
  O2-  O244  1  0.65967539  0.58373821  0.00287315  1
  O2-  O245  1  0.66481934  0.58512302  0.25035932  1
  O2-  O246  1  0.67037103  0.58508012  0.50043450  1
  O2-  O247  1  0.66788158  0.58294577  0.75192619  1
  O2-  O248  1  0.66388575  0.91325075  0.00379624  1
  O2-  O249  1  0.66766335  0.91642359  0.25846163  1
  O2-  O250  1  0.66795358  0.91398581  0.49497045  1
  O2-  O251  1  0.67004332  0.91250179  0.74839027  1
  O2-  O252  1  0.34067912  0.08208688  -0.00646031  1
  O2-  O253  1  0.32990226  0.08451173  0.24281165  1
  O2-  O254  1  0.32423209  0.08915684  0.50310960  1
  O2-  O255  1  0.33263623  0.07920718  0.75089237  1
  O2-  O256  1  0.33567063  0.41215171  -0.00541394  1
  O2-  O257  1  0.34297894  0.41097418  0.25932442  1
  O2-  O258  1  0.33503448  0.41327485  0.50859830  1
  O2-  O259  1  0.33571065  0.41305570  0.74799940  1
  O2-  O260  1  0.33685152  0.74578206  -0.00514217  1
  O2-  O261  1  0.33097528  0.74675682  0.25553264  1
  O2-  O262  1  0.33586191  0.74981759  0.50262286  1
  O2-  O263  1  0.33673474  0.74918111  0.74825247  1
  O2-  O264  1  0.83884802  0.08251595  0.00305942  1
  O2-  O265  1  0.84002608  0.07307429  0.24968100  1
  O2-  O266  1  0.83480950  0.07957227  0.50694319  1
  O2-  O267  1  0.82948011  0.07716901  0.75764506  1
  O2-  O268  1  0.82915107  0.41254415  -0.00412739  1
  O2-  O269  1  0.83376732  0.41468038  0.24372828  1
  O2-  O270  1  0.83985862  0.41228857  0.50073231  1
  O2-  O271  1  0.83001226  0.41838873  0.75241071  1
  O2-  O272  1  0.83485445  0.75022530  -0.00001814  1
  O2-  O273  1  0.84116900  0.75293024  0.24775392  1
  O2-  O274  1  0.83041476  0.74861594  0.50496801  1
  O2-  O275  1  0.83435726  0.74972035  0.74662150  1
  O2-  O276  1  0.45450891  0.24902606  0.49464982  1
  O2-  O277  1  0.45826909  0.12992567  0.20318206  1
  O2-  O278  1  0.95413619  0.08779659  0.47800714  1
  O2-  O279  1  0.95674985  0.75994931  0.97999269  1
  O2-  O280  1  0.94796274  0.42019026  0.01326521  1
  O2-  O281  1  0.54530304  0.56274302  0.24631272  1
  O2-  O282  1  0.45348828  0.89634981  0.53346277  1
  O2-  O283  1  0.53903355  0.55858951  0.77938236  1
  O2-  O284  1  0.54462672  0.76213987  0.51821509  1
  O2-  O285  1  0.96036185  0.90047085  0.00563430  1
  O2-  O286  1  0.00722207  0.55812668  0.76622704  1
  O2-  O287  1  0.45284473  0.86943488  0.79316866  1
  O2-  O288  1  0.54431333  0.75068298  0.75845720  1
  O2-  O289  1  0.96293586  0.89282353  0.20903200  1
  O2-  O290  1  0.95504700  0.76428516  0.76024084  1
  O2-  O291  1  0.95546630  0.75951471  0.23909005  1
  O2-  O292  1  0.05732010  0.41674113  0.73744645  1
  O2-  O293  1  0.95154151  0.09266211  0.77505568  1
  O2-  O294  1  0.45189888  0.57824431  0.00013243  1
  O2-  O295  1  0.52447964  0.12798902  1.00240812  1
  O2-  O296  1  0.46915636  0.21477437  0.00572720  1
  O2-  O297  1  0.05335648  0.91285876  0.47720110  1
  O2-  O298  1  0.95010964  0.08972327  0.97767131  1
  O2-  O299  1  0.52789895  0.12662107  0.00444089  1
  O2-  O300  1  0.96627937  0.22346672  0.99703918  1
  O2-  O301  1  0.95096551  0.90040944  0.48796501  1
  O2-  O302  1  0.45585033  0.43266450  0.49215185  1
  O2-  O303  1  0.55090456  0.12194134  0.44005435  1
  O2-  O304  1  0.54844343  0.24350167  0.23472706  1
  O2-  O305  1  0.04697445  0.57159495  0.01224482  1
  O2-  O306  1  0.55107271  0.08816781  0.24666468  1
  O2-  O307  1  0.01313900  0.55186382  0.75260242  1
  O2-  O308  1  0.95643799  0.23784882  0.49920914  1
  O2-  O309  1  0.55528973  0.88605894  0.80864436  1
  O2-  O310  1  0.94664039  0.57123076  0.24867350  1
  O2-  O311  1  0.04465714  0.57306564  0.47291936  1
  O2-  O312  1  0.55261440  0.10360596  0.74841401  1
  O2-  O313  1  0.55481430  0.56676496  0.99750591  1
  O2-  O314  1  0.04892610  0.75907105  0.47982567  1
  O2-  O315  1  0.45311327  0.42924508  0.76150424  1
  O2-  O316  1  0.44940240  0.76188816  0.30083516  1
  O2-  O317  1  0.45809089  0.41867070  0.96322184  1
  O2-  O318  1  0.95324885  0.43006045  0.76521132  1
  O2-  O319  1  0.03816854  0.45066523  0.21032572  1
  O2-  O320  1  0.95368151  0.42793374  0.48605514  1
  O2-  O321  1  0.05620242  0.58656104  0.24326343  1
  O2-  O322  1  0.45076696  0.10306111  0.74372418  1
  O2-  O323  1  0.45839407  0.11977882  0.50621849  1
  O2-  O324  1  0.55613640  0.07406681  0.72677070  1
  O2-  O325  1  0.94223455  0.08038122  0.78102888  1
  O2-  O326  1  0.09330102  0.57892421  0.65840308  1
  O2-  O327  1  0.41325677  0.29110180  0.02630446  1
  O2-  O328  1  0.06564224  0.39376511  0.33530095  1
  O2-  O329  1  0.05509387  0.25083392  0.28223189  1
  O2-  O330  1  0.55943754  0.74216701  0.22575318  1
  O2-  O331  1  0.55644506  0.91235486  0.97962306  1
  O2-  O332  1  0.06263066  0.25630938  0.00549361  1
  O2-  O333  1  0.57190922  0.03275984  0.07900581  1
  O2-  O334  1  0.93257610  0.94860160  0.32785092  1
  O2-  O335  1  0.42283855  0.06802616  0.30747260  1
  O2-  O336  1  0.56325953  0.73280257  0.92347611  1
  O2-  O337  1  0.57435191  0.07587173  0.57112899  1
  O2-  O338  1  0.06249974  0.08122626  0.72723192  1
  O2-  O339  1  0.05993798  0.07794594  0.52251000  1
  O2-  O340  1  0.43910385  0.91828176  0.98190827  1
  O2-  O341  1  0.56057797  0.58531018  0.48188343  1
  O2-  O342  1  0.93370533  0.74724816  0.57350439  1
  O2-  O343  1  0.41946496  0.94835523  0.70297942  1
  O2-  O344  1  0.06385815  0.75288273  0.83101509  1
  O2-  O345  1  0.94154933  0.41800279  0.01669763  1
  O2-  O346  1  0.94273451  0.08580935  0.23028262  1
  O2-  O347  1  0.07205513  0.76258353  0.67463270  1
  O2-  O348  1  0.42281283  0.05042505  0.47053040  1
  O2-  O349  1  0.94060767  0.39815910  0.29430068  1
  O2-  O350  1  0.44078747  0.91834819  0.22194750  1
  O2-  O351  1  0.41416831  0.76994424  0.14372089  1
  O2-  O352  1  0.55944878  0.59236350  0.97048329  1
  O2-  O353  1  0.05696532  0.07173714  0.22674038  1
  O2-  O354  1  0.59316855  0.08237067  0.90598872  1
  O2-  O355  1  0.44538816  0.90881132  0.54160289  1
  O2-  O356  1  0.41408697  0.42946445  0.09561667  1
  O2-  O357  1  0.44146857  0.74967480  0.31102720  1
  O2-  O358  1  0.40892990  0.89922421  0.38723734  1
  O2-  O359  1  0.92077905  0.27114980  0.97480278  1
  O2-  O360  1  0.57126318  0.93158824  0.67666187  1
  O2-  O361  1  0.57448623  0.61397779  0.66661896  1
  O2-  O362  1  0.56178674  0.92273669  0.52596571  1
  O2-  O363  1  0.93714183  0.73553919  0.41921370  1
  O2-  O364  1  0.43282790  0.25470570  0.47550161  1
  O2-  O365  1  0.08521389  0.59295735  0.85094429  1
  O2-  O366  1  0.55925223  0.92364076  0.21450638  1
  O2-  O367  1  0.55742218  0.26398771  0.54113560  1
  O2-  O368  1  0.93166364  0.41173285  0.76864418  1
  O2-  O369  1  0.56428339  0.74844796  0.06880068  1
  O2-  O370  1  0.43769628  0.58892192  0.23791269  1
  O2-  O371  1  0.06458461  0.40869239  0.52022126  1
  O2-  O372  1  0.24817439  0.32634396  0.94758893  1
  O2-  O373  1  0.75017948  0.35329783  0.33063494  1
  O2-  O374  1  0.75013746  0.33202549  0.42092841  1
  O2-  O375  1  0.75026273  0.66947305  0.80885182  1
  O2-  O376  1  0.25145845  0.32929614  0.65156324  1
  O2-  O377  1  0.25026578  0.32854610  0.81651261  1
  O2-  O378  1  0.75091090  -0.01868167  0.66355488  1
  O2-  O379  1  0.75047593  0.66218681  0.64988328  1
  O2-  O380  1  0.24967753  0.33543801  0.14113830  1
  O2-  O381  1  0.74884817  -0.00962886  0.38201515  1
  O2-  O382  1  0.74728022  0.34634212  0.61275790  1
  O2-  O383  1  0.25113452  0.67153232  0.40546854  1
  O2-  O384  1  0.75064190  0.65549735  0.11620419  1
  O2-  O385  1  0.25115462  0.31833752  0.40475293  1
  O2-  O386  1  0.75082318  -0.03077503  0.57072377  1
  O2-  O387  1  0.75009039  0.68252313  0.43343680  1
  O2-  O388  1  0.74967590  0.66700144  0.30229016  1
  O2-  O389  1  0.24923797  0.67234585  0.11735207  1
  O2-  O390  1  0.25044048  0.00883466  0.09980600  1
  O2-  O391  1  0.75125226  0.65491103  0.94176522  1
  O2-  O392  1  0.24968330  -0.00265672  0.83928969  1
  O2-  O393  1  0.75250125  0.01141208  0.89729979  1
  O2-  O394  1  0.24650203  0.01863714  0.35197895  1
  O2-  O395  1  0.25479765  0.67340178  0.85543632  1
  O2-  O396  1  0.74932739  0.49918894  0.16382547  1
  O2-  O397  1  0.74962834  0.49797808  0.64641911  1
  O2-  O398  1  0.75159915  0.83472781  0.35080342  1
  O2-  O399  1  0.25075839  0.52705576  0.09725302  1
  O2-  O400  1  0.24963023  0.16954142  0.14901499  1
  O2-  O401  1  0.25176209  0.50532029  0.83499746  1
  O2-  O402  1  0.75018461  0.15372100  0.66016426  1
  O2-  O403  1  0.24611373  0.53525608  0.32658340  1
  O2-  O404  1  0.24915051  0.82190291  0.16130642  1
  O2-  O405  1  0.24957516  0.16419904  0.64879205  1
  O2-  O406  1  0.74966964  0.82206429  0.18650276  1
  O2-  O407  1  0.75051441  0.83148354  0.09776293  1
  O2-  O408  1  0.75082974  0.82918385  0.82908468  1
  O2-  O409  1  0.25240165  0.48757626  0.39932215  1
  O2-  O410  1  0.75079434  0.15523560  0.06195720  1
  O2-  O411  1  0.24974824  0.16520660  0.85104678  1
  O2-  O412  1  0.75028881  0.50855824  0.34979134  1
  O2-  O413  1  0.74974108  0.21135374  0.32432571  1
  O2-  O414  1  0.24887131  0.81951855  0.35458054  1
  O2-  O415  1  0.75203746  0.13948367  0.41666994  1
  O2-  O416  1  0.24964839  0.82980017  0.65034898  1
  O2-  O417  1  0.74936652  0.48623949  0.86749427  1
  O2-  O418  1  0.75100965  0.19578276  0.14178006  1
  O2-  O419  1  0.25201898  0.51147542  0.67196671  1
  O2-  O420  1  0.04713650  0.29692767  0.63453344  1
  O2-  O421  1  0.52979667  0.32752317  0.88088109  1
  O2-  O422  1  0.52641463  0.66994702  0.37418675  1
  O2-  O423  1  0.52098770  0.00448536  0.86035109  1
  O2-  O424  1  0.00999820  0.65613224  0.61487852  1
  O2-  O425  1  0.48700653  0.33683455  0.13785201  1
  O2-  O426  1  0.48554091  -0.00871339  0.36394561  1
  O2-  O427  1  0.95342905  0.31619832  0.14842306  1
  O2-  O428  1  0.97153049  0.66764885  0.11828863  1
  O2-  O429  1  0.47397507  0.00208246  0.11316795  1
  O2-  O430  1  0.03021124  -0.01038695  0.87380162  1
  O2-  O431  1  0.45121893  0.33860952  0.34393724  1
  O2-  O432  1  0.47885444  0.02735012  0.62131859  1
  O2-  O433  1  0.99040439  0.33379199  0.87519947  1
  O2-  O434  1  0.46512262  0.02317888  0.88294169  1
  O2-  O435  1  0.48199287  0.65904198  0.12343618  1
  O2-  O436  1  0.04749683  0.33622001  0.12534289  1
  O2-  O437  1  0.54868119  0.34129310  0.38004503  1
  O2-  O438  1  0.95173941  0.00600670  0.62309888  1
  O2-  O439  1  0.54263263  -0.01556547  0.37889796  1
  O2-  O440  1  0.04474380  -0.03392840  0.63556950  1
  O2-  O441  1  0.95482361  0.33387863  0.64129868  1
  O2-  O442  1  0.46912823  0.67113741  0.61887922  1
  O2-  O443  1  0.97868062  -0.00162818  0.11555734  1
