# generated using pymatgen
data_La7(Ru4O11)2
_symmetry_space_group_name_H-M   'P 1'
_cell_length_a   23.98933864
_cell_length_b   16.82938509
_cell_length_c   15.42603805
_cell_angle_alpha   90.00096316
_cell_angle_beta   90.00004243
_cell_angle_gamma   90.00016895
_symmetry_Int_Tables_number   1
_chemical_formula_structural   La7(Ru4O11)2
_chemical_formula_sum   'La84 Ru96 O264'
_cell_volume   6227.88983103
_cell_formula_units_Z   12
loop_
 _symmetry_equiv_pos_site_id
 _symmetry_equiv_pos_as_xyz
  1  'x, y, z'
loop_
 _atom_type_symbol
 _atom_type_oxidation_number
  La3+  3.0
  Ru4+  4.0
  O2-  -2.0
loop_
 _atom_site_type_symbol
 _atom_site_label
 _atom_site_symmetry_multiplicity
 _atom_site_fract_x
 _atom_site_fract_y
 _atom_site_fract_z
 _atom_site_occupancy
  La3+  La0  1  0.13944352  -0.00105859  0.12644416  1
  La3+  La1  1  0.13868961  -0.00037885  0.37381858  1
  La3+  La2  1  0.13755601  -0.00057116  0.62361258  1
  La3+  La3  1  0.13811669  0.00029964  0.87760243  1
  La3+  La4  1  0.13937042  0.33462178  0.12598225  1
  La3+  La5  1  0.14016671  0.33366620  0.37361297  1
  La3+  La6  1  0.13894895  0.33422270  0.62346528  1
  La3+  La7  1  0.13951428  0.33455371  0.87701541  1
  La3+  La8  1  0.14122116  0.66687923  0.12525102  1
  La3+  La9  1  0.13985172  0.66665182  0.37274769  1
  La3+  La10  1  0.13957220  0.66511163  0.62550664  1
  La3+  La11  1  0.14036819  0.66548048  0.87511031  1
  La3+  La12  1  0.63752850  -0.00008113  0.12384453  1
  La3+  La13  1  0.63540027  -0.00326474  0.37932671  1
  La3+  La14  1  0.63521522  -0.00408367  0.62102739  1
  La3+  La15  1  0.63877854  -0.00096179  0.87451392  1
  La3+  La16  1  0.63608361  0.33435072  0.12487239  1
  La3+  La17  1  0.63671960  0.33416550  0.37543291  1
  La3+  La18  1  0.63818813  0.33465936  0.62559737  1
  La3+  La19  1  0.63708830  0.33522430  0.87537794  1
  La3+  La20  1  0.63776636  0.66724366  0.12569965  1
  La3+  La21  1  0.63746255  0.66679510  0.37536075  1
  La3+  La22  1  0.63998041  0.66703779  0.62507436  1
  La3+  La23  1  0.63867534  0.66753706  0.87271639  1
  La3+  La24  1  0.35998755  -0.00006125  0.12543648  1
  La3+  La25  1  0.36037142  0.00095048  0.37430869  1
  La3+  La26  1  0.36199547  -0.00075109  0.62431149  1
  La3+  La27  1  0.36090131  -0.00074551  0.87730995  1
  La3+  La28  1  0.35984810  0.33388142  0.12575726  1
  La3+  La29  1  0.35930050  0.33334261  0.37433664  1
  La3+  La30  1  0.36100826  0.33382303  0.62398616  1
  La3+  La31  1  0.36113112  0.33417903  0.87674722  1
  La3+  La32  1  0.35987364  0.66697218  0.12537945  1
  La3+  La33  1  0.35965954  0.66574581  0.37398547  1
  La3+  La34  1  0.35954712  0.66451856  0.62409512  1
  La3+  La35  1  0.36036347  0.66599355  0.87584388  1
  La3+  La36  1  0.86255043  -0.00003086  0.12418929  1
  La3+  La37  1  0.86238961  -0.00047802  0.37603570  1
  La3+  La38  1  0.86247945  -0.00226715  0.62527729  1
  La3+  La39  1  0.86100078  -0.00143468  0.87487167  1
  La3+  La40  1  0.86284279  0.33305835  0.12637478  1
  La3+  La41  1  0.86273512  0.33419168  0.37513401  1
  La3+  La42  1  0.86120458  0.33528239  0.62445496  1
  La3+  La43  1  0.86278616  0.33436757  0.87349425  1
  La3+  La44  1  0.86199340  0.66804198  0.12571237  1
  La3+  La45  1  0.86340047  0.66777351  0.37564575  1
  La3+  La46  1  0.86025252  0.66704221  0.62431333  1
  La3+  La47  1  0.86072129  0.66796911  0.87343714  1
  La3+  La48  1  0.49931124  0.16324884  0.36541474  1
  La3+  La49  1  -0.00017333  0.83277058  0.86038712  1
  La3+  La50  1  0.49978859  0.16792149  0.61413974  1
  La3+  La51  1  0.00055120  0.49895503  0.38745357  1
  La3+  La52  1  0.50006512  0.50085361  0.86575502  1
  La3+  La53  1  0.00009924  0.83527273  0.13728310  1
  La3+  La54  1  0.50176962  0.83632067  0.36491377  1
  La3+  La55  1  -0.00019551  0.83381558  0.11978253  1
  La3+  La56  1  0.50068274  0.83440060  0.61727152  1
  La3+  La57  1  0.50000571  0.16888691  0.88527784  1
  La3+  La58  1  0.50005352  0.49926115  0.63381236  1
  La3+  La59  1  0.49995679  0.83188451  0.38660367  1
  La3+  La60  1  -0.00014271  0.16727290  0.88638963  1
  La3+  La61  1  0.00113400  0.83428477  0.38349962  1
  La3+  La62  1  0.00243752  0.50348112  0.88275455  1
  La3+  La63  1  0.50109276  0.16909776  0.38669153  1
  La3+  La64  1  0.50021458  0.83228459  0.88518744  1
  La3+  La65  1  0.50090461  0.50031020  0.13483581  1
  La3+  La66  1  -0.00092366  0.16820562  0.13270588  1
  La3+  La67  1  0.49938528  0.83223151  0.13514960  1
  La3+  La68  1  -0.00187558  0.83231207  0.88273112  1
  La3+  La69  1  0.49971880  0.50129499  0.38418931  1
  La3+  La70  1  0.00248053  0.16429318  0.63445784  1
  La3+  La71  1  0.00029705  0.16722642  0.61231366  1
  La3+  La72  1  0.74996138  0.17001298  0.72849416  1
  La3+  La73  1  0.75052159  0.17129533  0.21854871  1
  La3+  La74  1  0.74996885  0.46787566  0.21872896  1
  La3+  La75  1  0.74999862  0.50165202  -0.03450925  1
  La3+  La76  1  0.75002583  0.83159779  0.53960596  1
  La3+  La77  1  0.74993137  0.13557196  -0.00010620  1
  La3+  La78  1  0.75011930  0.79267894  0.23405208  1
  La3+  La79  1  0.24989738  0.16980388  0.79243768  1
  La3+  La80  1  0.75017253  0.50126670  0.51862206  1
  La3+  La81  1  0.74963735  0.16801029  0.47616747  1
  La3+  La82  1  0.25009244  0.16824100  0.46375373  1
  La3+  La83  1  0.24973182  0.79583955  0.74353955  1
  Ru4+  Ru84  1  -0.00081092  0.00304582  0.00149678  1
  Ru4+  Ru85  1  -0.00341656  0.00260956  0.25288201  1
  Ru4+  Ru86  1  0.00010175  -0.00207171  0.49603785  1
  Ru4+  Ru87  1  0.00074600  -0.00275472  0.75064230  1
  Ru4+  Ru88  1  0.00417711  0.33587854  0.00204066  1
  Ru4+  Ru89  1  0.00059484  0.33474566  0.24730064  1
  Ru4+  Ru90  1  0.00120927  0.33703387  0.49962696  1
  Ru4+  Ru91  1  0.00179489  0.33235058  0.75227244  1
  Ru4+  Ru92  1  -0.00112944  0.66205907  0.00033022  1
  Ru4+  Ru93  1  0.00082860  0.66156477  0.24889305  1
  Ru4+  Ru94  1  -0.00008702  0.66607784  0.50035107  1
  Ru4+  Ru95  1  0.00039009  0.66609924  0.75076584  1
  Ru4+  Ru96  1  0.49930554  0.00162827  -0.00056432  1
  Ru4+  Ru97  1  0.49888622  -0.00299105  0.24843582  1
  Ru4+  Ru98  1  0.50119603  -0.00403276  0.50070223  1
  Ru4+  Ru99  1  0.49823258  0.00415622  0.74738861  1
  Ru4+  Ru100  1  0.49962852  0.32927403  0.00090839  1
  Ru4+  Ru101  1  0.50101793  0.33531037  0.24687811  1
  Ru4+  Ru102  1  0.50002303  0.33443862  0.49949740  1
  Ru4+  Ru103  1  0.49844371  0.33533880  0.75130418  1
  Ru4+  Ru104  1  0.50005438  0.66697780  -0.00061344  1
  Ru4+  Ru105  1  0.50109598  0.66600881  0.25202087  1
  Ru4+  Ru106  1  0.50099109  0.66591272  0.50034555  1
  Ru4+  Ru107  1  0.50070702  0.66193821  0.75063362  1
  Ru4+  Ru108  1  0.11221169  0.16554927  -0.00021937  1
  Ru4+  Ru109  1  0.11506854  0.16792892  0.25060791  1
  Ru4+  Ru110  1  0.11211098  0.16730768  0.49937470  1
  Ru4+  Ru111  1  0.11171733  0.16554804  0.75047140  1
  Ru4+  Ru112  1  0.11349653  0.49953516  0.00034338  1
  Ru4+  Ru113  1  0.11438316  0.49880020  0.24974342  1
  Ru4+  Ru114  1  0.11329680  0.50157060  0.50024946  1
  Ru4+  Ru115  1  0.11343329  0.50262342  0.74925112  1
  Ru4+  Ru116  1  0.11607414  0.83353540  -0.00001465  1
  Ru4+  Ru117  1  0.11787217  0.83221122  0.25051669  1
  Ru4+  Ru118  1  0.11214025  0.83400776  0.50063292  1
  Ru4+  Ru119  1  0.11156752  0.83214329  0.74979720  1
  Ru4+  Ru120  1  0.61035245  0.16657994  0.00047627  1
  Ru4+  Ru121  1  0.61342919  0.16655531  0.24847690  1
  Ru4+  Ru122  1  0.61207467  0.16664173  0.49988252  1
  Ru4+  Ru123  1  0.61274896  0.16429837  0.74937485  1
  Ru4+  Ru124  1  0.61331505  0.50384851  -0.00006153  1
  Ru4+  Ru125  1  0.61138402  0.49949295  0.25011983  1
  Ru4+  Ru126  1  0.61175683  0.50118432  0.50023019  1
  Ru4+  Ru127  1  0.61304902  0.49896391  0.75005843  1
  Ru4+  Ru128  1  0.61286796  0.83189879  0.00046175  1
  Ru4+  Ru129  1  0.61101260  0.83317555  0.25073382  1
  Ru4+  Ru130  1  0.61009105  0.83454538  0.49945940  1
  Ru4+  Ru131  1  0.61591943  0.83215522  0.74854680  1
  Ru4+  Ru132  1  0.38739201  0.16662329  -0.00037527  1
  Ru4+  Ru133  1  0.38523136  0.16596378  0.24922657  1
  Ru4+  Ru134  1  0.38544637  0.16896471  0.50123829  1
  Ru4+  Ru135  1  0.38840429  0.16865581  0.74962072  1
  Ru4+  Ru136  1  0.38566429  0.50012265  0.00008312  1
  Ru4+  Ru137  1  0.38511035  0.50007793  0.25011665  1
  Ru4+  Ru138  1  0.38643377  0.50151033  0.49983860  1
  Ru4+  Ru139  1  0.38711739  0.50124753  0.74987416  1
  Ru4+  Ru140  1  0.38585851  0.83360087  0.00039093  1
  Ru4+  Ru141  1  0.38600262  0.83201186  0.24923959  1
  Ru4+  Ru142  1  0.38739220  0.83459276  0.50010475  1
  Ru4+  Ru143  1  0.38634204  0.83567157  0.74982180  1
  Ru4+  Ru144  1  0.88600214  0.16239969  -0.00086519  1
  Ru4+  Ru145  1  0.88899851  0.16653237  0.25005794  1
  Ru4+  Ru146  1  0.88726427  0.16512147  0.49975155  1
  Ru4+  Ru147  1  0.88684590  0.16731852  0.75079747  1
  Ru4+  Ru148  1  0.88798335  0.50143221  0.00032774  1
  Ru4+  Ru149  1  0.88769481  0.49713923  0.24879153  1
  Ru4+  Ru150  1  0.88819368  0.49976330  0.50018779  1
  Ru4+  Ru151  1  0.88539392  0.50170375  0.74958592  1
  Ru4+  Ru152  1  0.88773547  0.83403738  -0.00014419  1
  Ru4+  Ru153  1  0.88624081  0.83613091  0.24960172  1
  Ru4+  Ru154  1  0.88864222  0.83353163  0.49994717  1
  Ru4+  Ru155  1  0.88656660  0.83412329  0.74950332  1
  Ru4+  Ru156  1  0.74993044  0.62393589  -0.00585066  1
  Ru4+  Ru157  1  0.75003361  0.91165195  0.00240389  1
  Ru4+  Ru158  1  0.25000230  0.05195201  0.74159303  1
  Ru4+  Ru159  1  0.74984750  0.92813299  0.24909800  1
  Ru4+  Ru160  1  0.25002493  0.24808399  0.00093435  1
  Ru4+  Ru161  1  0.25004188  0.42004975  0.50335985  1
  Ru4+  Ru162  1  0.24989380  0.91056084  0.49932895  1
  Ru4+  Ru163  1  0.24994628  0.29045568  0.74297341  1
  Ru4+  Ru164  1  0.74995467  0.38226717  0.00520235  1
  Ru4+  Ru165  1  0.75001748  0.29280971  0.50439357  1
  Ru4+  Ru166  1  0.75010132  0.29379108  0.25371972  1
  Ru4+  Ru167  1  0.74993257  0.04484235  0.73946705  1
  Ru4+  Ru168  1  0.75016568  0.04987401  0.25331829  1
  Ru4+  Ru169  1  0.75018515  0.75708548  -0.00036146  1
  Ru4+  Ru170  1  0.24992174  0.92934513  0.75079675  1
  Ru4+  Ru171  1  0.24996812  0.08463624  0.00060625  1
  Ru4+  Ru172  1  0.25013854  0.42094882  0.74772808  1
  Ru4+  Ru173  1  0.75004689  0.04393916  0.51078238  1
  Ru4+  Ru174  1  0.74995474  0.60630130  0.25133765  1
  Ru4+  Ru175  1  0.74968803  0.58176408  0.74793726  1
  Ru4+  Ru176  1  0.25008304  0.75299893  0.50169572  1
  Ru4+  Ru177  1  0.75009949  0.26147401  0.00033714  1
  Ru4+  Ru178  1  0.74984165  0.29209137  0.76101630  1
  Ru4+  Ru179  1  0.25018725  0.90828644  0.24632316  1
  O2-  O180  1  0.16835380  0.08102773  0.00052645  1
  O2-  O181  1  0.16772675  0.08195463  0.24973616  1
  O2-  O182  1  0.16820997  0.07990529  0.50056786  1
  O2-  O183  1  0.16645820  0.07967992  0.74953363  1
  O2-  O184  1  0.16650111  0.41470328  -0.00048591  1
  O2-  O185  1  0.16692132  0.41531687  0.24997292  1
  O2-  O186  1  0.16674931  0.41427848  0.50008717  1
  O2-  O187  1  0.16791793  0.41419120  0.75039704  1
  O2-  O188  1  0.16750470  0.74861944  -0.00019599  1
  O2-  O189  1  0.16646078  0.74840375  0.25049516  1
  O2-  O190  1  0.16747212  0.74833648  0.49971521  1
  O2-  O191  1  0.16559891  0.74652074  0.74977368  1
  O2-  O192  1  0.66702844  0.07958528  0.00061767  1
  O2-  O193  1  0.66652446  0.07987043  0.24944809  1
  O2-  O194  1  0.66716084  0.07923889  0.50082342  1
  O2-  O195  1  0.66629374  0.07992107  0.74966659  1
  O2-  O196  1  0.66624393  0.41298828  0.00005603  1
  O2-  O197  1  0.66741345  0.41294168  0.25076737  1
  O2-  O198  1  0.66782498  0.41248196  0.49954840  1
  O2-  O199  1  0.66694629  0.41436172  0.75026061  1
  O2-  O200  1  0.66697966  0.74791481  0.00058070  1
  O2-  O201  1  0.66671870  0.74512864  0.24997818  1
  O2-  O202  1  0.66743871  0.74785851  0.49982715  1
  O2-  O203  1  0.66720579  0.74744789  0.74960567  1
  O2-  O204  1  0.33231590  0.25204050  0.00041538  1
  O2-  O205  1  0.33311911  0.25172499  0.25013240  1
  O2-  O206  1  0.33223343  0.25158203  0.50042369  1
  O2-  O207  1  0.33287906  0.25324980  0.75014742  1
  O2-  O208  1  0.33354212  0.58521680  -0.00041388  1
  O2-  O209  1  0.33347023  0.58544848  0.24992864  1
  O2-  O210  1  0.33284916  0.58502297  0.49994271  1
  O2-  O211  1  0.33314028  0.58542559  0.74983363  1
  O2-  O212  1  0.33374142  0.91872181  0.00037040  1
  O2-  O213  1  0.33335240  0.91931545  0.25033182  1
  O2-  O214  1  0.33178677  0.91880640  0.50039889  1
  O2-  O215  1  0.33314055  0.92008957  0.74996882  1
  O2-  O216  1  0.83269586  0.25411385  -0.00004296  1
  O2-  O217  1  0.83337764  0.25458713  0.25031765  1
  O2-  O218  1  0.83278178  0.25422610  0.49882515  1
  O2-  O219  1  0.83352200  0.25400336  0.75070576  1
  O2-  O220  1  0.83429138  0.58698937  -0.00007524  1
  O2-  O221  1  0.83217684  0.58711995  0.25055273  1
  O2-  O222  1  0.83251929  0.58580113  0.49916854  1
  O2-  O223  1  0.83277151  0.58443497  0.74999073  1
  O2-  O224  1  0.83247903  0.91982375  0.00129385  1
  O2-  O225  1  0.83351522  0.92004774  0.24989433  1
  O2-  O226  1  0.83187673  0.91937234  0.50026949  1
  O2-  O227  1  0.83147923  0.91879414  0.74998090  1
  O2-  O228  1  0.16707724  0.25204077  0.00005040  1
  O2-  O229  1  0.16653855  0.25087059  0.25039080  1
  O2-  O230  1  0.16709510  0.25180268  0.50056926  1
  O2-  O231  1  0.16677419  0.25456939  0.74995374  1
  O2-  O232  1  0.16675474  0.58499347  -0.00049686  1
  O2-  O233  1  0.16725355  0.58459232  0.25096799  1
  O2-  O234  1  0.16627554  0.58515466  0.49962400  1
  O2-  O235  1  0.16767906  0.58460972  0.74982108  1
  O2-  O236  1  0.16642593  0.91893962  0.00022587  1
  O2-  O237  1  0.16702842  0.91897976  0.25000186  1
  O2-  O238  1  0.16831528  0.91903134  0.50083085  1
  O2-  O239  1  0.16696240  0.92066699  0.74987491  1
  O2-  O240  1  0.66647732  0.25305943  0.00001089  1
  O2-  O241  1  0.66707866  0.25376186  0.25030604  1
  O2-  O242  1  0.66737492  0.25437594  0.50034913  1
  O2-  O243  1  0.66733671  0.25436837  0.75008255  1
  O2-  O244  1  0.66589222  0.58697567  0.00008131  1
  O2-  O245  1  0.66805091  0.58695116  0.24965666  1
  O2-  O246  1  0.66699317  0.58589740  0.49939709  1
  O2-  O247  1  0.66837570  0.58531979  0.74983093  1
  O2-  O248  1  0.66835366  0.91983489  0.00110699  1
  O2-  O249  1  0.66691795  0.92047579  0.24939525  1
  O2-  O250  1  0.66973255  0.91971591  0.50139461  1
  O2-  O251  1  0.66847048  0.91966750  0.74913768  1
  O2-  O252  1  0.33261557  0.08085254  0.00061701  1
  O2-  O253  1  0.33279903  0.08212731  0.25016375  1
  O2-  O254  1  0.33138289  0.08051897  0.50020709  1
  O2-  O255  1  0.33315966  0.07968315  0.74996356  1
  O2-  O256  1  0.33367258  0.41452091  -0.00009418  1
  O2-  O257  1  0.33349501  0.41445474  0.24987496  1
  O2-  O258  1  0.33344554  0.41436870  0.50009551  1
  O2-  O259  1  0.33150974  0.41365690  0.75008440  1
  O2-  O260  1  0.33360151  0.74801509  0.00001747  1
  O2-  O261  1  0.33295415  0.74829307  0.25005748  1
  O2-  O262  1  0.33198069  0.74754356  0.49994820  1
  O2-  O263  1  0.33365459  0.74641981  0.75010061  1
  O2-  O264  1  0.83304771  0.07933795  0.00050067  1
  O2-  O265  1  0.83397364  0.07889020  0.25010414  1
  O2-  O266  1  0.83293147  0.07985993  0.49939814  1
  O2-  O267  1  0.83280327  0.07938836  0.74979185  1
  O2-  O268  1  0.83335428  0.41272214  -0.00042592  1
  O2-  O269  1  0.83304223  0.41340977  0.25121660  1
  O2-  O270  1  0.83154329  0.41316463  0.49891357  1
  O2-  O271  1  0.83127956  0.41484805  0.75129472  1
  O2-  O272  1  0.83155919  0.74661296  0.00027504  1
  O2-  O273  1  0.83379305  0.74539199  0.25030760  1
  O2-  O274  1  0.83226677  0.74774371  0.49964209  1
  O2-  O275  1  0.83381848  0.74818396  0.74975421  1
  O2-  O276  1  0.54547477  0.43290189  0.48797206  1
  O2-  O277  1  0.54742007  0.09781766  0.98467668  1
  O2-  O278  1  0.95948981  0.22519667  0.47236246  1
  O2-  O279  1  0.53879617  0.89009475  0.02955635  1
  O2-  O280  1  0.04577132  0.89993780  0.73517998  1
  O2-  O281  1  0.54370850  0.23116637  0.27349124  1
  O2-  O282  1  0.04098001  0.10555603  0.22526255  1
  O2-  O283  1  0.44717018  0.08683304  0.45317338  1
  O2-  O284  1  0.04570698  0.23615405  0.76622765  1
  O2-  O285  1  0.54915532  0.90464546  0.51361971  1
  O2-  O286  1  0.45390422  0.76526492  0.51351843  1
  O2-  O287  1  0.95228518  0.90349057  0.48513052  1
  O2-  O288  1  0.04562806  0.90078337  0.98762954  1
  O2-  O289  1  0.95264330  0.23475345  0.73594346  1
  O2-  O290  1  0.04453772  0.57059273  0.01544318  1
  O2-  O291  1  0.54445780  0.76486286  0.74961626  1
  O2-  O292  1  0.44398427  0.75301788  0.79076944  1
  O2-  O293  1  0.46057880  0.10872269  0.72184713  1
  O2-  O294  1  0.95506285  0.76202968  0.48575520  1
  O2-  O295  1  0.45504220  0.42946967  0.23572394  1
  O2-  O296  1  0.04552477  0.76429034  0.26909435  1
  O2-  O297  1  0.03759968  0.55098415  0.24275996  1
  O2-  O298  1  0.45283381  0.09732720  0.98528822  1
  O2-  O299  1  0.04607891  0.76318409  0.23008864  1
  O2-  O300  1  0.04527242  0.09972644  0.48615466  1
  O2-  O301  1  0.05337260  0.08754865  0.98068153  1
  O2-  O302  1  0.04484951  0.56841338  0.51458855  1
  O2-  O303  1  0.95083829  0.76537991  0.26608489  1
  O2-  O304  1  0.96056234  0.44277168  0.76274141  1
  O2-  O305  1  0.45183095  0.23774651  0.26232086  1
  O2-  O306  1  0.54649680  0.76523024  0.74805459  1
  O2-  O307  1  0.55386536  0.91446502  0.78530367  1
  O2-  O308  1  0.94622434  0.24753317  0.03563808  1
  O2-  O309  1  0.55012832  0.24739029  0.71164380  1
  O2-  O310  1  0.04755884  0.90031020  0.51478707  1
  O2-  O311  1  0.54084662  0.10610863  0.22148219  1
  O2-  O312  1  0.04659057  0.23554317  0.01334736  1
  O2-  O313  1  0.45515901  0.56994459  0.26447364  1
  O2-  O314  1  0.04714510  0.90275669  0.23271794  1
  O2-  O315  1  0.54558779  0.23398881  0.01383801  1
  O2-  O316  1  0.04679698  0.43060782  0.01332501  1
  O2-  O317  1  0.95560489  0.56157023  0.27818074  1
  O2-  O318  1  0.96413392  0.44564740  0.75003091  1
  O2-  O319  1  0.45410069  0.90029650  0.73521320  1
  O2-  O320  1  0.54523861  0.43318988  0.01962256  1
  O2-  O321  1  0.95660162  0.43917442  0.97606157  1
  O2-  O322  1  0.54513134  0.43330498  0.98017761  1
  O2-  O323  1  0.54194537  0.89408129  0.49039157  1
  O2-  O324  1  0.56433256  0.59595807  0.78251035  1
  O2-  O325  1  0.43125250  0.73410985  0.69645514  1
  O2-  O326  1  0.93562535  0.40176194  0.21765975  1
  O2-  O327  1  0.93442137  0.07113360  0.52961985  1
  O2-  O328  1  0.07334015  0.61512993  0.20901527  1
  O2-  O329  1  0.56997331  0.94088751  0.95178852  1
  O2-  O330  1  0.43619655  0.26535927  0.96746869  1
  O2-  O331  1  0.44542641  0.75635523  0.78072342  1
  O2-  O332  1  0.57117631  0.26876528  0.20871832  1
  O2-  O333  1  0.43047246  0.05993805  0.79766068  1
  O2-  O334  1  0.56670104  0.93553819  0.69872508  1
  O2-  O335  1  0.56623887  0.26251564  0.47086719  1
  O2-  O336  1  0.06370718  0.59777405  0.71758372  1
  O2-  O337  1  0.93580413  0.40462882  0.53196775  1
  O2-  O338  1  0.43603910  0.59719136  0.46706695  1
  O2-  O339  1  0.06383157  0.73576796  0.05461077  1
  O2-  O340  1  0.42657164  0.06341456  0.56569264  1
  O2-  O341  1  0.56407265  0.73935576  0.27878010  1
  O2-  O342  1  0.93587080  0.73546690  0.96721386  1
  O2-  O343  1  0.56527735  0.40701990  0.22068610  1
  O2-  O344  1  0.92936047  0.26554428  0.94950083  1
  O2-  O345  1  0.56609001  0.07347472  0.47030961  1
  O2-  O346  1  0.57340292  0.26876155  0.81368775  1
  O2-  O347  1  0.93410406  0.92697067  0.72108642  1
  O2-  O348  1  0.06618929  0.73863370  0.95034551  1
  O2-  O349  1  0.92269665  0.37995952  0.70308200  1
  O2-  O350  1  0.93161733  0.60422470  0.20564637  1
  O2-  O351  1  0.55392242  0.91461868  0.78529422  1
  O2-  O352  1  0.43398309  0.26176175  0.72016516  1
  O2-  O353  1  0.43711093  0.73555062  0.21712474  1
  O2-  O354  1  0.93383826  0.07363711  0.79756102  1
  O2-  O355  1  0.56541455  0.59351986  0.27898823  1
  O2-  O356  1  0.05717173  0.08128509  0.97655240  1
  O2-  O357  1  0.06205217  0.92697894  0.21547423  1
  O2-  O358  1  0.56867228  0.93141503  0.46877210  1
  O2-  O359  1  0.44808135  0.08700133  0.46516486  1
  O2-  O360  1  0.93133965  0.39465190  0.04461118  1
  O2-  O361  1  0.93586849  0.59769940  0.46683607  1
  O2-  O362  1  0.43501055  0.06766359  0.28269807  1
  O2-  O363  1  0.93909596  0.73669304  0.28120113  1
  O2-  O364  1  0.93094477  0.27013148  0.54485405  1
  O2-  O365  1  0.06515189  0.40434571  0.28036654  1
  O2-  O366  1  0.94628231  0.24735559  0.03539467  1
  O2-  O367  1  0.55392769  0.23773679  0.70893475  1
  O2-  O368  1  0.93326206  0.07357981  0.70150333  1
  O2-  O369  1  0.57162594  0.06428870  0.29068917  1
  O2-  O370  1  0.43568005  0.26473741  0.46780670  1
  O2-  O371  1  0.07047875  0.06436679  0.29114063  1
  O2-  O372  1  0.25010809  0.33428058  0.08045295  1
  O2-  O373  1  0.24993994  0.66755169  0.33219623  1
  O2-  O374  1  0.25008041  0.33331109  0.40816581  1
  O2-  O375  1  0.75008225  0.66764922  0.67059249  1
  O2-  O376  1  0.25004741  0.66654674  0.08317958  1
  O2-  O377  1  0.25010231  0.00094380  0.33072522  1
  O2-  O378  1  0.25018462  0.66686068  0.91794452  1
  O2-  O379  1  0.24998015  0.33220576  0.90585964  1
  O2-  O380  1  0.24994779  0.00069000  0.42106286  1
  O2-  O381  1  0.74999613  0.66374552  0.84330567  1
  O2-  O382  1  0.74990952  0.33538486  0.65148115  1
  O2-  O383  1  0.25008350  0.33263432  0.16844900  1
  O2-  O384  1  0.24988790  0.66598840  0.41935476  1
  O2-  O385  1  0.25002353  0.33403468  0.59377548  1
  O2-  O386  1  0.74995713  0.66650906  0.58035902  1
  O2-  O387  1  0.25002719  0.66989787  0.59155927  1
  O2-  O388  1  0.75004685  -0.01083707  0.83725241  1
  O2-  O389  1  0.75007212  -0.00326540  0.40273597  1
  O2-  O390  1  0.75001737  0.00277185  0.92598022  1
  O2-  O391  1  0.75004270  0.67197716  0.10234034  1
  O2-  O392  1  0.25003632  0.66656585  0.16677031  1
  O2-  O393  1  0.25003818  0.66701655  0.83138387  1
  O2-  O394  1  0.25007203  0.00151166  0.90709849  1
  O2-  O395  1  0.24988637  -0.00083758  0.15710789  1
  O2-  O396  1  0.74999047  0.16791314  0.86177997  1
  O2-  O397  1  0.24999459  0.16596360  0.58416195  1
  O2-  O398  1  0.75018379  0.16463767  0.60391534  1
  O2-  O399  1  0.75008577  0.50194744  0.10120022  1
  O2-  O400  1  0.74996549  0.49839952  0.40405821  1
  O2-  O401  1  0.25004687  0.16622112  0.91671932  1
  O2-  O402  1  0.75000929  0.83296578  0.91006509  1
  O2-  O403  1  0.74990195  0.83184779  0.42114629  1
  O2-  O404  1  0.25009344  0.16650843  0.66538451  1
  O2-  O405  1  0.24998872  0.49947115  0.33415801  1
  O2-  O406  1  0.75001552  0.84045642  0.12008515  1
  O2-  O407  1  0.25005878  0.83614655  0.34083161  1
  O2-  O408  1  0.74998320  0.50710170  0.32990770  1
  O2-  O409  1  0.25005314  0.83834704  0.85509625  1
  O2-  O410  1  0.25006004  0.50005173  0.16468482  1
  O2-  O411  1  0.24997070  0.49586470  0.58899811  1
  O2-  O412  1  0.24996183  0.50083235  0.41632336  1
  O2-  O413  1  0.74990298  0.84198147  0.34294649  1
  O2-  O414  1  0.25005410  0.83674629  0.16313750  1
  O2-  O415  1  0.25003135  0.50004695  0.08506472  1
  O2-  O416  1  0.74980910  0.16683255  0.35185226  1
  O2-  O417  1  0.24993424  0.83289846  0.93459733  1
  O2-  O418  1  0.75001459  0.50137832  0.63391052  1
  O2-  O419  1  0.25005387  0.83891572  0.62405582  1
  O2-  O420  1  0.97356083  -0.00358653  0.62091209  1
  O2-  O421  1  0.52598408  0.33626202  0.37225290  1
  O2-  O422  1  0.02966803  0.33122640  0.37829262  1
  O2-  O423  1  0.47482099  -0.00453586  0.62710815  1
  O2-  O424  1  0.52322790  -0.00369852  0.37260664  1
  O2-  O425  1  0.53316664  -0.00084527  0.12606344  1
  O2-  O426  1  0.02538698  -0.00400259  0.37767922  1
  O2-  O427  1  0.46645285  -0.00082483  0.12572504  1
  O2-  O428  1  0.52262862  0.33444792  0.12021632  1
  O2-  O429  1  0.96674188  -0.00475723  0.88016995  1
  O2-  O430  1  0.02775758  0.33249397  0.12848739  1
  O2-  O431  1  0.47531126  0.66118740  0.62094273  1
  O2-  O432  1  0.96903826  0.33429816  0.37391363  1
  O2-  O433  1  0.02586604  0.66375745  0.87019016  1
  O2-  O434  1  0.53208457  0.33817991  0.62020141  1
  O2-  O435  1  0.52523347  0.66738600  0.38150608  1
  O2-  O436  1  0.97469526  0.33506895  0.87048544  1
  O2-  O437  1  0.47384859  0.66254412  0.87956650  1
  O2-  O438  1  0.03449778  -0.00250853  0.87058797  1
  O2-  O439  1  0.97175937  0.00001440  0.12578955  1
  O2-  O440  1  0.02846521  0.33279157  0.62470009  1
  O2-  O441  1  0.03229897  0.00131345  0.62585844  1
  O2-  O442  1  0.46789883  0.33673231  0.62220758  1
  O2-  O443  1  0.52413430  0.33800344  0.87821281  1
