# generated using pymatgen
data_La7(Ru4O11)2
_symmetry_space_group_name_H-M   'P 1'
_cell_length_a   23.99635449
_cell_length_b   16.83582776
_cell_length_c   15.43256600
_cell_angle_alpha   89.99877061
_cell_angle_beta   89.99896316
_cell_angle_gamma   89.99981607
_symmetry_Int_Tables_number   1
_chemical_formula_structural   La7(Ru4O11)2
_chemical_formula_sum   'La84 Ru96 O264'
_cell_volume   6234.73337413
_cell_formula_units_Z   12
loop_
 _symmetry_equiv_pos_site_id
 _symmetry_equiv_pos_as_xyz
  1  'x, y, z'
loop_
 _atom_type_symbol
 _atom_type_oxidation_number
  La3+  3.0
  Ru4+  4.0
  O2-  -2.0
loop_
 _atom_site_type_symbol
 _atom_site_label
 _atom_site_symmetry_multiplicity
 _atom_site_fract_x
 _atom_site_fract_y
 _atom_site_fract_z
 _atom_site_occupancy
  La3+  La0  1  0.14660766  0.00552924  0.12538574  1
  La3+  La1  1  0.13569806  -0.00342051  0.38235531  1
  La3+  La2  1  0.15851298  0.01214776  0.62991699  1
  La3+  La3  1  0.14287700  0.00612956  0.87860139  1
  La3+  La4  1  0.14223306  0.33767940  0.12973359  1
  La3+  La5  1  0.14566238  0.33794716  0.37746788  1
  La3+  La6  1  0.13905703  0.32966612  0.61937295  1
  La3+  La7  1  0.13871869  0.33301300  0.86774343  1
  La3+  La8  1  0.14278817  0.66998493  0.13145558  1
  La3+  La9  1  0.15268509  0.66232015  0.37998638  1
  La3+  La10  1  0.14160639  0.66686847  0.62232178  1
  La3+  La11  1  0.13637439  0.66318513  0.87229774  1
  La3+  La12  1  0.63897097  0.00167622  0.12887087  1
  La3+  La13  1  0.63974520  -0.00490819  0.37502138  1
  La3+  La14  1  0.64398759  -0.00218046  0.62256189  1
  La3+  La15  1  0.63884333  -0.00042670  0.87371000  1
  La3+  La16  1  0.62313215  0.33242663  0.12657320  1
  La3+  La17  1  0.63855922  0.33248764  0.37199954  1
  La3+  La18  1  0.63017020  0.33450711  0.62522145  1
  La3+  La19  1  0.63370756  0.33327782  0.87696751  1
  La3+  La20  1  0.63277468  0.66368552  0.12839898  1
  La3+  La21  1  0.64418675  0.66496532  0.36988801  1
  La3+  La22  1  0.63839603  0.66360103  0.62583254  1
  La3+  La23  1  0.63509172  0.66601314  0.88261691  1
  La3+  La24  1  0.35432046  0.00494819  0.13163607  1
  La3+  La25  1  0.36051371  0.00376436  0.37389552  1
  La3+  La26  1  0.34472091  0.00297054  0.62267296  1
  La3+  La27  1  0.34805518  0.00483921  0.86955618  1
  La3+  La28  1  0.36001499  0.33557783  0.13127950  1
  La3+  La29  1  0.35122751  0.33849702  0.37208952  1
  La3+  La30  1  0.34994044  0.33392692  0.61974999  1
  La3+  La31  1  0.35541828  0.33659899  0.86952799  1
  La3+  La32  1  0.35636681  0.67128318  0.13471162  1
  La3+  La33  1  0.35382663  0.66365850  0.38056752  1
  La3+  La34  1  0.35710383  0.66684711  0.61494612  1
  La3+  La35  1  0.35749201  0.65672672  0.87274609  1
  La3+  La36  1  0.86371968  0.00204785  0.12718110  1
  La3+  La37  1  0.85625049  -0.00215797  0.37710712  1
  La3+  La38  1  0.86768079  -0.00594621  0.61807709  1
  La3+  La39  1  0.86267566  0.00182861  0.87543902  1
  La3+  La40  1  0.87037665  0.34022126  0.12499196  1
  La3+  La41  1  0.84647546  0.31897646  0.36599173  1
  La3+  La42  1  0.86668931  0.33697504  0.62083436  1
  La3+  La43  1  0.86877950  0.33595733  0.87389529  1
  La3+  La44  1  0.86431828  0.66741542  0.13065293  1
  La3+  La45  1  0.85102961  0.66897116  0.37290647  1
  La3+  La46  1  0.87028405  0.66385383  0.62093552  1
  La3+  La47  1  0.86401286  0.66190724  0.87007430  1
  La3+  La48  1  -0.00005162  0.16310083  0.37776909  1
  La3+  La49  1  0.50791664  0.82629441  0.59968022  1
  La3+  La50  1  -0.00946352  0.82801629  0.36049460  1
  La3+  La51  1  0.52202315  0.49920831  0.86387980  1
  La3+  La52  1  -0.00832526  0.83215587  0.37647794  1
  La3+  La53  1  -0.00445464  0.83506872  0.61692928  1
  La3+  La54  1  -0.00258316  0.49497876  0.37498769  1
  La3+  La55  1  0.50277650  0.16719785  0.87335147  1
  La3+  La56  1  0.49578876  0.16941055  0.61301257  1
  La3+  La57  1  0.49969609  0.48938707  0.37020054  1
  La3+  La58  1  0.49531915  0.83445644  0.37328040  1
  La3+  La59  1  0.00282998  0.16795373  0.12029088  1
  La3+  La60  1  0.00591653  0.50845380  0.63610724  1
  La3+  La61  1  -0.00730781  0.49162518  0.86083686  1
  La3+  La62  1  0.49886983  0.82643631  0.87631380  1
  La3+  La63  1  0.00032786  0.15621620  0.10251983  1
  La3+  La64  1  0.00118710  0.16149157  0.86757838  1
  La3+  La65  1  0.51957986  0.50400773  0.87975791  1
  La3+  La66  1  0.49450489  0.17905783  0.88609384  1
  La3+  La67  1  0.49840172  0.83253358  0.12548471  1
  La3+  La68  1  0.50772685  0.16563681  0.35788099  1
  La3+  La69  1  0.50131511  0.84170826  0.61027657  1
  La3+  La70  1  0.50580842  0.16820725  0.34164719  1
  La3+  La71  1  -0.00098340  0.83374619  0.11006258  1
  La3+  La72  1  0.24764473  0.84593067  0.71789283  1
  La3+  La73  1  0.75313641  0.24665273  0.02136057  1
  La3+  La74  1  0.24876983  0.51322715  0.04700187  1
  La3+  La75  1  0.74918153  0.82497978  -0.02607323  1
  La3+  La76  1  0.25109165  0.82135675  0.29847497  1
  La3+  La77  1  0.74885619  0.13408640  0.47783165  1
  La3+  La78  1  0.24751390  0.78756304  -0.03947551  1
  La3+  La79  1  0.75122029  0.54684191  0.01729339  1
  La3+  La80  1  0.24853075  0.46396301  0.68564615  1
  La3+  La81  1  0.75255656  0.87875487  0.74098438  1
  La3+  La82  1  0.74913271  0.16942892  0.23238666  1
  La3+  La83  1  0.25047925  0.82382907  0.50909593  1
  Ru4+  Ru84  1  -0.00221493  -0.00918901  0.00072570  1
  Ru4+  Ru85  1  0.00034442  0.00303024  0.26882941  1
  Ru4+  Ru86  1  0.01042283  0.00507088  0.50737111  1
  Ru4+  Ru87  1  -0.00108733  0.00104878  0.74427682  1
  Ru4+  Ru88  1  -0.00147082  0.33094006  -0.00898852  1
  Ru4+  Ru89  1  0.00226224  0.34271467  0.25785871  1
  Ru4+  Ru90  1  0.00535257  0.33779289  0.50883969  1
  Ru4+  Ru91  1  -0.00208355  0.33203595  0.74737473  1
  Ru4+  Ru92  1  0.00385131  0.65655417  0.01404426  1
  Ru4+  Ru93  1  0.00105065  0.66428052  0.24570864  1
  Ru4+  Ru94  1  -0.00092628  0.65825920  0.49508520  1
  Ru4+  Ru95  1  0.01049257  0.67933486  0.74694784  1
  Ru4+  Ru96  1  0.50334062  0.00192786  0.02288900  1
  Ru4+  Ru97  1  0.49630713  -0.00698907  0.23582278  1
  Ru4+  Ru98  1  0.50295618  0.00596949  0.50429423  1
  Ru4+  Ru99  1  0.50266317  0.00140247  0.73948032  1
  Ru4+  Ru100  1  0.49528910  0.34396951  0.00063708  1
  Ru4+  Ru101  1  0.50243786  0.33768079  0.24659475  1
  Ru4+  Ru102  1  0.48609314  0.34044648  0.50395231  1
  Ru4+  Ru103  1  0.49526543  0.34959323  0.72978299  1
  Ru4+  Ru104  1  0.48893398  0.66376856  0.01122468  1
  Ru4+  Ru105  1  0.50273164  0.65794838  0.23318802  1
  Ru4+  Ru106  1  0.48920999  0.64027515  0.51780448  1
  Ru4+  Ru107  1  0.49256275  0.67353723  0.74183095  1
  Ru4+  Ru108  1  0.11669973  0.16828139  -0.00221065  1
  Ru4+  Ru109  1  0.11573085  0.16877563  0.25197310  1
  Ru4+  Ru110  1  0.11157635  0.16586614  0.50299757  1
  Ru4+  Ru111  1  0.10894895  0.16619838  0.74451349  1
  Ru4+  Ru112  1  0.10547111  0.51080404  0.01180623  1
  Ru4+  Ru113  1  0.11413424  0.49779768  0.24555835  1
  Ru4+  Ru114  1  0.11554876  0.49370104  0.49631523  1
  Ru4+  Ru115  1  0.11309024  0.50180867  0.75034687  1
  Ru4+  Ru116  1  0.10645846  0.83676674  -0.00345665  1
  Ru4+  Ru117  1  0.11567781  0.83657854  0.25015826  1
  Ru4+  Ru118  1  0.11264757  0.84218895  0.50297863  1
  Ru4+  Ru119  1  0.10603004  0.82441840  0.76133373  1
  Ru4+  Ru120  1  0.61526116  0.16081493  0.00239215  1
  Ru4+  Ru121  1  0.61153099  0.16263790  0.24825066  1
  Ru4+  Ru122  1  0.60965826  0.16665004  0.49998403  1
  Ru4+  Ru123  1  0.61368236  0.16796825  0.74560221  1
  Ru4+  Ru124  1  0.61377379  0.49339641  0.00312493  1
  Ru4+  Ru125  1  0.61372512  0.50304177  0.24881438  1
  Ru4+  Ru126  1  0.61004032  0.50167515  0.49668443  1
  Ru4+  Ru127  1  0.61544487  0.49974575  0.74039105  1
  Ru4+  Ru128  1  0.61168724  0.84101331  -0.00092498  1
  Ru4+  Ru129  1  0.61302783  0.82943401  0.25156591  1
  Ru4+  Ru130  1  0.61719544  0.83550597  0.49407638  1
  Ru4+  Ru131  1  0.61158454  0.83716429  0.75810144  1
  Ru4+  Ru132  1  0.38430637  0.16250880  0.00373039  1
  Ru4+  Ru133  1  0.38510175  0.16365517  0.24893545  1
  Ru4+  Ru134  1  0.38999582  0.16650837  0.50538801  1
  Ru4+  Ru135  1  0.38604702  0.16216859  0.75229291  1
  Ru4+  Ru136  1  0.39125251  0.50806249  0.00832891  1
  Ru4+  Ru137  1  0.38883014  0.49980409  0.24570948  1
  Ru4+  Ru138  1  0.39705123  0.49905917  0.49727167  1
  Ru4+  Ru139  1  0.39237022  0.48961710  0.73960771  1
  Ru4+  Ru140  1  0.38905048  0.83541844  -0.00203333  1
  Ru4+  Ru141  1  0.38876943  0.83890146  0.25307659  1
  Ru4+  Ru142  1  0.38572139  0.84114135  0.49304784  1
  Ru4+  Ru143  1  0.38548749  0.82562369  0.76682152  1
  Ru4+  Ru144  1  0.89850672  0.16526531  0.00243922  1
  Ru4+  Ru145  1  0.89118945  0.17111748  0.24836595  1
  Ru4+  Ru146  1  0.89223791  0.16786743  0.50306511  1
  Ru4+  Ru147  1  0.88744403  0.16700877  0.75288434  1
  Ru4+  Ru148  1  0.89464649  0.49993267  0.00404781  1
  Ru4+  Ru149  1  0.88898623  0.50114681  0.24916395  1
  Ru4+  Ru150  1  0.89481442  0.49631760  0.49335315  1
  Ru4+  Ru151  1  0.88495692  0.49626056  0.75193382  1
  Ru4+  Ru152  1  0.88960988  0.83158082  0.00704640  1
  Ru4+  Ru153  1  0.88524902  0.83380899  0.24698904  1
  Ru4+  Ru154  1  0.88066635  0.83078914  0.50526609  1
  Ru4+  Ru155  1  0.89374626  0.83065669  0.74959829  1
  Ru4+  Ru156  1  0.75050539  0.41006187  0.74492339  1
  Ru4+  Ru157  1  0.75071871  0.94982010  0.04867618  1
  Ru4+  Ru158  1  0.74813766  0.74733095  0.50652456  1
  Ru4+  Ru159  1  0.25017866  0.24765470  0.25197626  1
  Ru4+  Ru160  1  0.74987584  0.28439060  0.53552623  1
  Ru4+  Ru161  1  0.74928161  0.58416173  0.50156061  1
  Ru4+  Ru162  1  0.25039519  0.23133086  -0.00207216  1
  Ru4+  Ru163  1  0.75093274  0.58446883  0.71009462  1
  Ru4+  Ru164  1  0.75163163  0.07307877  -0.01095510  1
  Ru4+  Ru165  1  0.75010808  -0.00988501  0.50410198  1
  Ru4+  Ru166  1  0.75052917  0.73552998  0.70854193  1
  Ru4+  Ru167  1  0.75062647  0.26390237  0.76230240  1
  Ru4+  Ru168  1  0.75098820  0.07388989  0.75283455  1
  Ru4+  Ru169  1  0.25001440  0.23896700  0.74038640  1
  Ru4+  Ru170  1  0.74876819  0.43600078  0.50348583  1
  Ru4+  Ru171  1  0.74979650  0.42514591  0.24295409  1
  Ru4+  Ru172  1  0.75012185  0.39669494  0.00469868  1
  Ru4+  Ru173  1  0.25042287  0.61200361  0.74567115  1
  Ru4+  Ru174  1  0.74958349  0.91502843  0.24820200  1
  Ru4+  Ru175  1  0.24985619  0.65193295  0.01149345  1
  Ru4+  Ru176  1  0.24964321  0.37909447  0.00420163  1
  Ru4+  Ru177  1  0.25061904  0.94094876  0.00607111  1
  Ru4+  Ru178  1  0.75126551  0.69912848  0.05099314  1
  Ru4+  Ru179  1  0.25046902  0.24339194  0.51238603  1
  O2-  O180  1  0.16438063  0.08243852  0.00285940  1
  O2-  O181  1  0.16385475  0.07984636  0.25421990  1
  O2-  O182  1  0.16601968  0.08362445  0.49165183  1
  O2-  O183  1  0.16121373  0.08728328  0.75757886  1
  O2-  O184  1  0.15994331  0.41234900  0.00063079  1
  O2-  O185  1  0.16339577  0.41271739  0.25065015  1
  O2-  O186  1  0.17146600  0.41448815  0.50524001  1
  O2-  O187  1  0.16333112  0.41447604  0.74787054  1
  O2-  O188  1  0.15799316  0.74450987  0.00260465  1
  O2-  O189  1  0.16651464  0.75035107  0.25316594  1
  O2-  O190  1  0.16759472  0.75348659  0.50332897  1
  O2-  O191  1  0.17013204  0.74842775  0.75012228  1
  O2-  O192  1  0.66726438  0.07887702  0.00117424  1
  O2-  O193  1  0.66493376  0.07854718  0.24906729  1
  O2-  O194  1  0.66207968  0.07551949  0.49742064  1
  O2-  O195  1  0.66458672  0.08007409  0.75116639  1
  O2-  O196  1  0.66560950  0.40729042  0.00903575  1
  O2-  O197  1  0.66719412  0.41465720  0.24955718  1
  O2-  O198  1  0.66412687  0.41778587  0.49834487  1
  O2-  O199  1  0.66898671  0.41322251  0.74958568  1
  O2-  O200  1  0.66445288  0.74827143  -0.00040005  1
  O2-  O201  1  0.66322247  0.74780250  0.25272994  1
  O2-  O202  1  0.66613434  0.74728395  0.50103627  1
  O2-  O203  1  0.66741105  0.75005032  0.74569526  1
  O2-  O204  1  0.33500732  0.25219068  0.00281555  1
  O2-  O205  1  0.33282220  0.25172555  0.24643961  1
  O2-  O206  1  0.33018814  0.24833680  0.49430166  1
  O2-  O207  1  0.33555493  0.25068249  0.74952091  1
  O2-  O208  1  0.32776212  0.58821132  -0.00059238  1
  O2-  O209  1  0.33827991  0.58389313  0.25162642  1
  O2-  O210  1  0.33770776  0.57830221  0.49824246  1
  O2-  O211  1  0.32914889  0.58238090  0.74451372  1
  O2-  O212  1  0.33533982  0.92123593  -0.00040532  1
  O2-  O213  1  0.32713581  0.91904703  0.25771876  1
  O2-  O214  1  0.32953748  0.91917400  0.49049546  1
  O2-  O215  1  0.33992783  0.91663682  0.74794641  1
  O2-  O216  1  0.84731087  0.25891651  0.00087166  1
  O2-  O217  1  0.83788726  0.25175473  0.23241725  1
  O2-  O218  1  0.83492121  0.25227504  0.50529418  1
  O2-  O219  1  0.83281829  0.25489621  0.75003090  1
  O2-  O220  1  0.84338352  0.59121673  0.00104987  1
  O2-  O221  1  0.84111378  0.58588611  0.25152826  1
  O2-  O222  1  0.82980253  0.58367163  0.50436440  1
  O2-  O223  1  0.83742510  0.58719345  0.74204023  1
  O2-  O224  1  0.83249307  0.91941531  -0.00198906  1
  O2-  O225  1  0.83184853  0.92031010  0.24873049  1
  O2-  O226  1  0.82964717  0.92065080  0.50092453  1
  O2-  O227  1  0.84107749  0.92437608  0.75359793  1
  O2-  O228  1  0.16604203  0.25340892  0.00201499  1
  O2-  O229  1  0.16866342  0.25311731  0.24923049  1
  O2-  O230  1  0.17279058  0.24953214  0.49776957  1
  O2-  O231  1  0.16926921  0.24791821  0.75023570  1
  O2-  O232  1  0.16710572  0.58862053  -0.00036400  1
  O2-  O233  1  0.15982134  0.58472924  0.25088669  1
  O2-  O234  1  0.16369394  0.58189832  0.50212023  1
  O2-  O235  1  0.17005442  0.58733922  0.74709173  1
  O2-  O236  1  0.16644491  0.91940446  -0.00091038  1
  O2-  O237  1  0.17250688  0.91949241  0.25620066  1
  O2-  O238  1  0.17671712  0.90948547  0.48733258  1
  O2-  O239  1  0.15548666  0.91252890  0.75015515  1
  O2-  O240  1  0.66107571  0.25517488  0.00216178  1
  O2-  O241  1  0.66146697  0.25411775  0.24238401  1
  O2-  O242  1  0.67003550  0.25676011  0.50064274  1
  O2-  O243  1  0.66895545  0.25801589  0.75104027  1
  O2-  O244  1  0.65836712  0.58949573  0.00184234  1
  O2-  O245  1  0.66632650  0.58540614  0.25781590  1
  O2-  O246  1  0.66554015  0.58656461  0.49896801  1
  O2-  O247  1  0.66680859  0.58729579  0.74751215  1
  O2-  O248  1  0.66848652  0.92324286  0.00065424  1
  O2-  O249  1  0.66756167  0.91867423  0.25072655  1
  O2-  O250  1  0.67493385  0.92332449  0.49884938  1
  O2-  O251  1  0.66483838  0.92329393  0.75374872  1
  O2-  O252  1  0.33563120  0.08081682  0.00196395  1
  O2-  O253  1  0.33098343  0.08211452  0.25636218  1
  O2-  O254  1  0.33197149  0.09090792  0.48602380  1
  O2-  O255  1  0.33332667  0.08477937  0.74943500  1
  O2-  O256  1  0.33855975  0.41228726  0.00462665  1
  O2-  O257  1  0.33591737  0.41626926  0.24467995  1
  O2-  O258  1  0.33537687  0.42282434  0.50447472  1
  O2-  O259  1  0.33134318  0.41928882  0.75275020  1
  O2-  O260  1  0.33750043  0.74484849  0.00339792  1
  O2-  O261  1  0.33625637  0.75345019  0.25633720  1
  O2-  O262  1  0.33190177  0.75256180  0.49866053  1
  O2-  O263  1  0.32946729  0.74827012  0.74789145  1
  O2-  O264  1  0.83665075  0.07968372  0.00006070  1
  O2-  O265  1  0.83498180  0.07918142  0.24572325  1
  O2-  O266  1  0.83494912  0.07433262  0.50428274  1
  O2-  O267  1  0.83628735  0.07955425  0.74875235  1
  O2-  O268  1  0.83396455  0.41322494  0.00578682  1
  O2-  O269  1  0.83355350  0.41486217  0.24520039  1
  O2-  O270  1  0.82752415  0.42688703  0.51155691  1
  O2-  O271  1  0.83167996  0.41397986  0.74642256  1
  O2-  O272  1  0.83335373  0.74947532  -0.00452084  1
  O2-  O273  1  0.83511260  0.74951219  0.24818541  1
  O2-  O274  1  0.82821852  0.74811295  0.50085535  1
  O2-  O275  1  0.83497807  0.74967727  0.74813024  1
  O2-  O276  1  0.44986815  0.76360187  0.01237177  1
  O2-  O277  1  0.03089537  0.22423226  0.73497165  1
  O2-  O278  1  0.04557269  0.08980977  0.75835714  1
  O2-  O279  1  0.96850374  0.43870526  0.51399444  1
  O2-  O280  1  0.54977669  0.76833456  0.00658718  1
  O2-  O281  1  0.94521245  0.41411768  0.98299963  1
  O2-  O282  1  0.55005072  0.74231518  0.97934273  1
  O2-  O283  1  0.04850551  0.42964876  0.74971833  1
  O2-  O284  1  0.47255595  0.45238262  0.53796696  1
  O2-  O285  1  0.95010814  0.09372365  0.23713048  1
  O2-  O286  1  0.45721503  0.76609268  0.26838329  1
  O2-  O287  1  0.95393424  0.90452336  0.74237059  1
  O2-  O288  1  0.46083175  0.23547417  0.45347626  1
  O2-  O289  1  0.03927669  0.88916678  0.47382077  1
  O2-  O290  1  0.44838455  0.09002148  0.98383888  1
  O2-  O291  1  0.96847016  0.44794790  0.51316919  1
  O2-  O292  1  0.04905780  0.55864885  0.94448680  1
  O2-  O293  1  0.45595423  0.79644637  0.72301098  1
  O2-  O294  1  0.55293098  0.24410416  0.24103542  1
  O2-  O295  1  0.04865479  0.10315112  0.51077038  1
  O2-  O296  1  0.55436588  0.57407829  0.98557038  1
  O2-  O297  1  0.55534143  0.57957409  0.74697101  1
  O2-  O298  1  0.54634970  0.89390121  0.25780522  1
  O2-  O299  1  0.05014285  0.09550331  0.22672477  1
  O2-  O300  1  0.04620699  0.76064842  0.01313903  1
  O2-  O301  1  0.45644914  0.91095281  0.97714111  1
  O2-  O302  1  0.05092351  0.76130959  0.26373329  1
  O2-  O303  1  0.04989478  0.56325077  0.48651637  1
  O2-  O304  1  0.55164816  0.76089448  0.74732547  1
  O2-  O305  1  0.46420660  0.09570104  0.45570881  1
  O2-  O306  1  0.94615668  0.57312226  0.75877858  1
  O2-  O307  1  0.45740159  0.43167987  0.80061735  1
  O2-  O308  1  0.95113381  0.76358960  0.22571370  1
  O2-  O309  1  0.45330048  0.56967638  0.26330404  1
  O2-  O310  1  0.05074252  0.43088432  0.23520943  1
  O2-  O311  1  0.94425601  0.58178337  0.55673471  1
  O2-  O312  1  0.95104681  0.09735129  0.51066780  1
  O2-  O313  1  0.94333880  0.90400779  0.50126234  1
  O2-  O314  1  0.45253141  0.55935100  0.94637431  1
  O2-  O315  1  0.54995126  0.09618782  0.00466005  1
  O2-  O316  1  0.94711428  0.42701148  0.23423610  1
  O2-  O317  1  0.03580530  0.88156533  0.48942324  1
  O2-  O318  1  0.46461957  0.55855445  0.73742974  1
  O2-  O319  1  0.54419356  0.24664785  0.99410831  1
  O2-  O320  1  0.95113666  0.57618346  0.01819483  1
  O2-  O321  1  0.04810932  0.23966545  0.99532022  1
  O2-  O322  1  0.04539347  0.09968909  0.98535514  1
  O2-  O323  1  0.45394022  0.76759581  0.48891025  1
  O2-  O324  1  0.93804630  0.92460131  0.03488439  1
  O2-  O325  1  0.41772971  0.07768919  0.57293111  1
  O2-  O326  1  0.56704453  0.40756791  0.72827540  1
  O2-  O327  1  0.94207697  0.41120692  0.97542152  1
  O2-  O328  1  0.55863093  0.93146484  0.78965433  1
  O2-  O329  1  0.44265647  0.07032137  0.78978814  1
  O2-  O330  1  0.90127504  0.38889590  0.43548592  1
  O2-  O331  1  0.44025217  0.25311891  0.28302437  1
  O2-  O332  1  0.05864783  0.07118313  0.97311952  1
  O2-  O333  1  0.43732666  0.72015851  0.83660987  1
  O2-  O334  1  0.94180232  0.74961425  0.51761267  1
  O2-  O335  1  0.41769715  0.60781965  0.72791771  1
  O2-  O336  1  0.43121316  0.57636519  0.57034931  1
  O2-  O337  1  0.42722854  0.39118109  0.43435112  1
  O2-  O338  1  0.44305435  0.59290792  0.42307839  1
  O2-  O339  1  0.05802013  0.91890230  0.27265996  1
  O2-  O340  1  0.56247786  0.25424338  0.51456723  1
  O2-  O341  1  0.56413272  0.24871251  0.96994968  1
  O2-  O342  1  0.42384614  0.38347157  0.68570044  1
  O2-  O343  1  0.06006865  0.74004732  0.83137509  1
  O2-  O344  1  0.94206287  0.92915619  0.52912166  1
  O2-  O345  1  0.07778793  0.27918294  0.73199087  1
  O2-  O346  1  0.93474455  0.40294396  0.78013849  1
  O2-  O347  1  0.06668951  0.61282631  0.07744606  1
  O2-  O348  1  0.06177843  0.25892348  0.28227560  1
  O2-  O349  1  0.42604892  0.26103013  0.58425973  1
  O2-  O350  1  0.94000159  0.73702403  0.03640181  1
  O2-  O351  1  0.91919338  0.58521559  0.41905814  1
  O2-  O352  1  0.56626686  0.23732402  0.67888713  1
  O2-  O353  1  0.06676879  0.40383054  0.44545626  1
  O2-  O354  1  0.55887216  0.59706458  0.95622506  1
  O2-  O355  1  0.44519463  0.08552471  0.23616812  1
  O2-  O356  1  0.93883652  0.25061800  0.79346255  1
  O2-  O357  1  0.06611469  0.75986293  0.68183145  1
  O2-  O358  1  0.41990471  0.60110812  0.06272087  1
  O2-  O359  1  0.94177882  0.59457417  0.78956111  1
  O2-  O360  1  0.05967240  0.92352655  0.96942322  1
  O2-  O361  1  0.44266478  0.41131410  0.27163203  1
  O2-  O362  1  0.57400824  0.24026238  0.82392287  1
  O2-  O363  1  0.56400682  0.41226472  0.23026937  1
  O2-  O364  1  0.06107312  0.73883361  0.45286982  1
  O2-  O365  1  0.06596780  0.25537872  0.51384421  1
  O2-  O366  1  0.43681388  0.92987358  0.29648542  1
  O2-  O367  1  0.56029635  0.92045478  0.47698606  1
  O2-  O368  1  0.56248222  0.58788833  0.23734726  1
  O2-  O369  1  0.44199089  0.74246429  0.46782020  1
  O2-  O370  1  0.09379522  0.95982070  0.55662124  1
  O2-  O371  1  0.06646422  0.59455111  0.73258234  1
  O2-  O372  1  0.74941923  0.33022717  0.65242838  1
  O2-  O373  1  0.24843135  0.00518190  0.10783927  1
  O2-  O374  1  0.75126740  0.66197023  0.80111666  1
  O2-  O375  1  0.75090705  0.00015508  0.87667264  1
  O2-  O376  1  0.74948751  0.34577811  0.43017420  1
  O2-  O377  1  0.24907294  0.31289209  0.90988904  1
  O2-  O378  1  0.25043742  -0.01778590  0.57777854  1
  O2-  O379  1  0.75264988  -0.00408348  0.64493402  1
  O2-  O380  1  0.74812882  -0.00721591  0.35643053  1
  O2-  O381  1  0.24914536  -0.00218901  0.82903160  1
  O2-  O382  1  0.74903150  0.66660848  0.93429288  1
  O2-  O383  1  0.25013630  0.34002342  0.79173490  1
  O2-  O384  1  0.24699522  0.32715992  0.64150941  1
  O2-  O385  1  0.24987599  0.66826577  0.62981428  1
  O2-  O386  1  0.24995464  0.32351437  0.11975783  1
  O2-  O387  1  0.25063453  -0.01488681  0.67170811  1
  O2-  O388  1  0.24895932  0.01855987  0.91779244  1
  O2-  O389  1  0.24997510  0.68019007  0.32701211  1
  O2-  O390  1  0.75204564  0.66385422  0.16063826  1
  O2-  O391  1  0.24918994  0.66432382  0.87570468  1
  O2-  O392  1  0.74774195  0.66790448  0.40499330  1
  O2-  O393  1  0.25043637  0.68603075  0.42060034  1
  O2-  O394  1  0.75044310  0.32302891  0.28903942  1
  O2-  O395  1  0.24876851  0.31951200  0.35056598  1
  O2-  O396  1  0.74944211  0.81684340  0.60630357  1
  O2-  O397  1  0.75001166  0.85101359  0.14837374  1
  O2-  O398  1  0.25028826  0.17402584  0.64565040  1
  O2-  O399  1  0.24989643  0.48258139  0.90320190  1
  O2-  O400  1  0.24984532  0.81879801  0.16451234  1
  O2-  O401  1  0.75220316  0.18909499  0.36028603  1
  O2-  O402  1  0.75014675  0.13157578  0.09643109  1
  O2-  O403  1  0.24866814  0.52016793  0.81471644  1
  O2-  O404  1  0.74945284  0.16910074  0.69003521  1
  O2-  O405  1  0.25083036  0.17091051  0.90069042  1
  O2-  O406  1  0.74750742  0.51187335  0.60312465  1
  O2-  O407  1  0.24984188  0.16617799  0.17517275  1
  O2-  O408  1  0.24925905  0.49874305  0.41053347  1
  O2-  O409  1  0.24963992  0.15849136  0.08570084  1
  O2-  O410  1  0.24813436  0.49949848  0.17131069  1
  O2-  O411  1  0.75108600  0.52656901  0.21067067  1
  O2-  O412  1  0.74997139  0.16579107  0.82582695  1
  O2-  O413  1  0.74987453  0.16201192  0.91471649  1
  O2-  O414  1  0.75051853  0.51037114  0.79255916  1
  O2-  O415  1  0.75018109  0.18483225  0.60537726  1
  O2-  O416  1  0.25144726  0.85576675  0.84805635  1
  O2-  O417  1  0.74954593  0.45130285  0.90311489  1
  O2-  O418  1  0.74924049  0.44182993  0.11723110  1
  O2-  O419  1  0.25163596  0.85394574  0.08514117  1
  O2-  O420  1  0.54366369  0.67783120  0.11845530  1
  O2-  O421  1  0.52866095  0.34021633  0.37793207  1
  O2-  O422  1  0.97965974  0.31115112  0.37186340  1
  O2-  O423  1  0.54718745  -0.00130809  0.13439830  1
  O2-  O424  1  0.04197143  0.02855188  0.38163234  1
  O2-  O425  1  0.46065500  0.70061831  0.61858217  1
  O2-  O426  1  0.52646545  0.01775531  0.36206645  1
  O2-  O427  1  0.03077919  0.33731452  0.86946849  1
  O2-  O428  1  0.51701408  0.34315719  0.61319757  1
  O2-  O429  1  0.94905853  -0.01743915  0.36463669  1
  O2-  O430  1  0.51583711  0.33104651  0.11545196  1
  O2-  O431  1  0.45253052  -0.02381394  0.12131953  1
  O2-  O432  1  0.01175020  -0.00154271  0.63105770  1
  O2-  O433  1  0.95572516  0.31794170  0.63353417  1
  O2-  O434  1  0.04026212  0.66255576  0.59283779  1
  O2-  O435  1  0.95543842  0.68092262  0.66797138  1
  O2-  O436  1  0.45255879  -0.03297297  0.64783499  1
  O2-  O437  1  0.97917672  0.67891484  0.36542718  1
  O2-  O438  1  0.44863538  0.30896261  0.89785456  1
  O2-  O439  1  0.55093025  0.66606706  0.59531941  1
  O2-  O440  1  0.45371727  0.69009703  0.14988410  1
  O2-  O441  1  0.54023644  0.36696899  0.89234617  1
  O2-  O442  1  0.54774998  0.00659691  0.62479750  1
  O2-  O443  1  0.04433809  0.36486939  0.60900885  1
