# generated using pymatgen
data_La7(Ru4O11)2
_symmetry_space_group_name_H-M   'P 1'
_cell_length_a   23.98943362
_cell_length_b   16.82971993
_cell_length_c   15.42579580
_cell_angle_alpha   89.99993219
_cell_angle_beta   89.99948617
_cell_angle_gamma   90.00013757
_symmetry_Int_Tables_number   1
_chemical_formula_structural   La7(Ru4O11)2
_chemical_formula_sum   'La84 Ru96 O264'
_cell_volume   6227.94059165
_cell_formula_units_Z   12
loop_
 _symmetry_equiv_pos_site_id
 _symmetry_equiv_pos_as_xyz
  1  'x, y, z'
loop_
 _atom_type_symbol
 _atom_type_oxidation_number
  La3+  3.0
  Ru4+  4.0
  O2-  -2.0
loop_
 _atom_site_type_symbol
 _atom_site_label
 _atom_site_symmetry_multiplicity
 _atom_site_fract_x
 _atom_site_fract_y
 _atom_site_fract_z
 _atom_site_occupancy
  La3+  La0  1  0.13853736  -0.00064516  0.12464960  1
  La3+  La1  1  0.13674062  -0.00075033  0.37424174  1
  La3+  La2  1  0.13852326  -0.00051092  0.62877544  1
  La3+  La3  1  0.13908434  -0.00041904  0.87392773  1
  La3+  La4  1  0.13685248  0.33355397  0.12492076  1
  La3+  La5  1  0.13816460  0.33413351  0.37473468  1
  La3+  La6  1  0.13792991  0.33441326  0.62450067  1
  La3+  La7  1  0.13864427  0.33288562  0.87467628  1
  La3+  La8  1  0.14032952  0.66744574  0.12490795  1
  La3+  La9  1  0.13779707  0.66685881  0.37381775  1
  La3+  La10  1  0.13904578  0.66762532  0.62634968  1
  La3+  La11  1  0.13939057  0.66847119  0.87530352  1
  La3+  La12  1  0.63971104  0.00123236  0.12632237  1
  La3+  La13  1  0.63976492  0.00125696  0.37568000  1
  La3+  La14  1  0.63968422  0.00012066  0.62236346  1
  La3+  La15  1  0.63825857  0.00101929  0.87600342  1
  La3+  La16  1  0.63878624  0.33256420  0.12416055  1
  La3+  La17  1  0.63823687  0.33065381  0.37502176  1
  La3+  La18  1  0.63800351  0.33215161  0.62434236  1
  La3+  La19  1  0.63879334  0.33427159  0.87638400  1
  La3+  La20  1  0.63802119  0.66585322  0.12278216  1
  La3+  La21  1  0.63659599  0.66782025  0.37513377  1
  La3+  La22  1  0.63806132  0.66739868  0.62507232  1
  La3+  La23  1  0.63951345  0.66574329  0.87688272  1
  La3+  La24  1  0.36135938  -0.00055196  0.12489155  1
  La3+  La25  1  0.36327097  -0.00027542  0.37356842  1
  La3+  La26  1  0.36163392  -0.00068484  0.62838186  1
  La3+  La27  1  0.36108736  -0.00022577  0.87338453  1
  La3+  La28  1  0.36278284  0.33329561  0.12500084  1
  La3+  La29  1  0.36202293  0.33415087  0.37492658  1
  La3+  La30  1  0.36213684  0.33382033  0.62597725  1
  La3+  La31  1  0.36172650  0.33332865  0.87373033  1
  La3+  La32  1  0.35978852  0.66776872  0.12495178  1
  La3+  La33  1  0.36155574  0.66685889  0.37451767  1
  La3+  La34  1  0.36124071  0.66689880  0.62471078  1
  La3+  La35  1  0.36091226  0.66764321  0.87580885  1
  La3+  La36  1  0.86002708  0.00033588  0.12653660  1
  La3+  La37  1  0.85943611  -0.00081870  0.37458858  1
  La3+  La38  1  0.85925405  0.00032436  0.62242004  1
  La3+  La39  1  0.86104880  0.00050760  0.87568913  1
  La3+  La40  1  0.86074753  0.33332628  0.12414911  1
  La3+  La41  1  0.86158688  0.33213826  0.37452126  1
  La3+  La42  1  0.86198254  0.33170314  0.62345552  1
  La3+  La43  1  0.86075432  0.33339868  0.87700239  1
  La3+  La44  1  0.86244216  0.66740236  0.12146380  1
  La3+  La45  1  0.86258318  0.66855679  0.37615923  1
  La3+  La46  1  0.86241031  0.66740232  0.62419376  1
  La3+  La47  1  0.86046670  0.66650058  0.87808393  1
  La3+  La48  1  0.49945022  0.16694690  0.36667927  1
  La3+  La49  1  -0.00062191  0.49887244  0.13415261  1
  La3+  La50  1  -0.00043405  0.50103416  0.63483066  1
  La3+  La51  1  0.49973906  0.49808745  0.36705692  1
  La3+  La52  1  0.00125009  0.17024092  0.11572516  1
  La3+  La53  1  -0.00184045  0.17028065  0.63418112  1
  La3+  La54  1  0.50159345  0.83670279  0.12912295  1
  La3+  La55  1  0.50197808  0.83587872  0.37068735  1
  La3+  La56  1  0.00012449  0.16568160  0.38152439  1
  La3+  La57  1  -0.00002735  0.83814125  0.11657029  1
  La3+  La58  1  0.00096081  0.16746669  0.61818229  1
  La3+  La59  1  0.00049577  0.50488496  0.86755043  1
  La3+  La60  1  -0.00171680  0.49666242  0.88587471  1
  La3+  La61  1  0.49911219  0.49974663  0.13139711  1
  La3+  La62  1  0.49970235  0.50210123  0.63923949  1
  La3+  La63  1  0.49999651  0.16623526  0.63375054  1
  La3+  La64  1  0.00004029  0.50019089  0.38435738  1
  La3+  La65  1  -0.00030966  0.83341066  0.63442986  1
  La3+  La66  1  0.49943035  0.16775568  0.13360037  1
  La3+  La67  1  -0.00112587  0.49959642  0.61800805  1
  La3+  La68  1  -0.00142157  0.83050596  0.13742810  1
  La3+  La69  1  0.50163439  0.83630228  0.86952810  1
  La3+  La70  1  0.50010863  0.83367005  0.63356966  1
  La3+  La71  1  0.00175256  0.82961276  0.87025424  1
  La3+  La72  1  0.25015911  0.82358933  0.50432559  1
  La3+  La73  1  0.24999257  0.46237334  0.75064632  1
  La3+  La74  1  0.74992731  0.86430547  0.77548383  1
  La3+  La75  1  0.75017926  0.83144308  -0.02565728  1
  La3+  La76  1  0.75005623  0.50119157  0.24355751  1
  La3+  La77  1  0.24957529  0.17841708  0.46796613  1
  La3+  La78  1  0.75001716  0.53131559  0.77411628  1
  La3+  La79  1  0.25001958  0.53312809  -0.01394059  1
  La3+  La80  1  0.75012601  0.13482269  0.76952531  1
  La3+  La81  1  0.25027483  0.16511837  0.21375932  1
  La3+  La82  1  0.75024432  0.50188983  0.52457397  1
  La3+  La83  1  0.25011319  0.50003372  0.51196069  1
  Ru4+  Ru84  1  0.00185941  0.00057058  -0.00201492  1
  Ru4+  Ru85  1  -0.00223100  -0.00074705  0.25340951  1
  Ru4+  Ru86  1  -0.00077599  -0.00115773  0.49703800  1
  Ru4+  Ru87  1  -0.00027180  0.00109433  0.75039358  1
  Ru4+  Ru88  1  0.00071573  0.33366210  0.00048124  1
  Ru4+  Ru89  1  0.00133259  0.33425189  0.24850037  1
  Ru4+  Ru90  1  -0.00040061  0.33434666  0.50070551  1
  Ru4+  Ru91  1  -0.00008340  0.33285489  0.75153663  1
  Ru4+  Ru92  1  0.00082897  0.66238520  -0.00109627  1
  Ru4+  Ru93  1  -0.00010746  0.66723003  0.25148345  1
  Ru4+  Ru94  1  -0.00102647  0.66810263  0.50014735  1
  Ru4+  Ru95  1  -0.00028314  0.66663360  0.74917093  1
  Ru4+  Ru96  1  0.50196079  -0.00054918  -0.00175779  1
  Ru4+  Ru97  1  0.49875311  -0.00394806  0.24975020  1
  Ru4+  Ru98  1  0.50233753  -0.00290844  0.50203635  1
  Ru4+  Ru99  1  0.50007032  -0.00007877  0.75068750  1
  Ru4+  Ru100  1  0.50002884  0.33260282  -0.00048955  1
  Ru4+  Ru101  1  0.49902591  0.33434035  0.24827656  1
  Ru4+  Ru102  1  0.50096001  0.32892592  0.50228276  1
  Ru4+  Ru103  1  0.49853145  0.33588798  0.75080529  1
  Ru4+  Ru104  1  0.49995530  0.66620536  0.00149274  1
  Ru4+  Ru105  1  0.50148079  0.66747473  0.24968647  1
  Ru4+  Ru106  1  0.49942425  0.66689217  0.49743128  1
  Ru4+  Ru107  1  0.50166308  0.66380416  0.75312539  1
  Ru4+  Ru108  1  0.11187633  0.16649005  -0.00028764  1
  Ru4+  Ru109  1  0.11202796  0.16910228  0.24966256  1
  Ru4+  Ru110  1  0.11198589  0.16700760  0.49990879  1
  Ru4+  Ru111  1  0.11508651  0.16518938  0.75129256  1
  Ru4+  Ru112  1  0.11236319  0.49923485  0.00070174  1
  Ru4+  Ru113  1  0.11241427  0.49912803  0.24988097  1
  Ru4+  Ru114  1  0.11383934  0.50092052  0.49996881  1
  Ru4+  Ru115  1  0.11198235  0.50072956  0.74986384  1
  Ru4+  Ru116  1  0.11431861  0.83269651  -0.00077678  1
  Ru4+  Ru117  1  0.11333085  0.83174320  0.25091023  1
  Ru4+  Ru118  1  0.11194113  0.83187450  0.50020410  1
  Ru4+  Ru119  1  0.11449366  0.83332846  0.75005135  1
  Ru4+  Ru120  1  0.61260684  0.16574886  -0.00031870  1
  Ru4+  Ru121  1  0.61610866  0.16853527  0.24993254  1
  Ru4+  Ru122  1  0.61412551  0.16627827  0.50004130  1
  Ru4+  Ru123  1  0.61219487  0.16486255  0.75014546  1
  Ru4+  Ru124  1  0.61461485  0.50036338  0.00032187  1
  Ru4+  Ru125  1  0.61318209  0.49787577  0.24994324  1
  Ru4+  Ru126  1  0.61241048  0.50213883  0.49996615  1
  Ru4+  Ru127  1  0.61044950  0.49983235  0.75082890  1
  Ru4+  Ru128  1  0.61233273  0.83307155  -0.00001252  1
  Ru4+  Ru129  1  0.61334020  0.83522040  0.24994663  1
  Ru4+  Ru130  1  0.61383015  0.83449951  0.50024430  1
  Ru4+  Ru131  1  0.61123103  0.83368123  0.75008065  1
  Ru4+  Ru132  1  0.38745293  0.16798732  0.00004218  1
  Ru4+  Ru133  1  0.38835373  0.16677451  0.25016821  1
  Ru4+  Ru134  1  0.38763406  0.16799624  0.50059455  1
  Ru4+  Ru135  1  0.38672394  0.16575106  0.74968986  1
  Ru4+  Ru136  1  0.38896314  0.50118198  -0.00037312  1
  Ru4+  Ru137  1  0.38668032  0.49872259  0.25001041  1
  Ru4+  Ru138  1  0.38727757  0.50262275  0.50021709  1
  Ru4+  Ru139  1  0.38947258  0.49910610  0.75089214  1
  Ru4+  Ru140  1  0.38667550  0.83223114  0.00005618  1
  Ru4+  Ru141  1  0.38318921  0.83633322  0.25028662  1
  Ru4+  Ru142  1  0.38917978  0.83178286  0.50044602  1
  Ru4+  Ru143  1  0.38454400  0.83511647  0.74978818  1
  Ru4+  Ru144  1  0.88544572  0.16738250  -0.00041554  1
  Ru4+  Ru145  1  0.88530169  0.16487978  0.25048849  1
  Ru4+  Ru146  1  0.88302881  0.16546866  0.49922758  1
  Ru4+  Ru147  1  0.88821055  0.16580801  0.75012610  1
  Ru4+  Ru148  1  0.88581788  0.49975392  0.00046620  1
  Ru4+  Ru149  1  0.88893838  0.49979369  0.25066890  1
  Ru4+  Ru150  1  0.88963442  0.50000089  0.50024133  1
  Ru4+  Ru151  1  0.88796852  0.50210244  0.74982675  1
  Ru4+  Ru152  1  0.88517751  0.83482180  -0.00134628  1
  Ru4+  Ru153  1  0.88648368  0.83537632  0.25132529  1
  Ru4+  Ru154  1  0.88636149  0.83425555  0.49976391  1
  Ru4+  Ru155  1  0.88731462  0.83160173  0.74993540  1
  Ru4+  Ru156  1  0.24990816  0.28740430  0.27096205  1
  Ru4+  Ru157  1  0.75008185  0.26556373  0.75224237  1
  Ru4+  Ru158  1  0.74996908  0.24156102  0.00119400  1
  Ru4+  Ru159  1  0.25008677  0.29669626  0.50783441  1
  Ru4+  Ru160  1  0.24987818  0.24294570  -0.00278229  1
  Ru4+  Ru161  1  0.24998917  0.91568069  -0.00155950  1
  Ru4+  Ru162  1  0.25006264  0.69949628  0.50037926  1
  Ru4+  Ru163  1  0.25020194  0.05973516  0.49415256  1
  Ru4+  Ru164  1  0.74985225  0.73051657  0.76070167  1
  Ru4+  Ru165  1  0.74995130  0.75556313  0.25335069  1
  Ru4+  Ru166  1  0.75019969  0.62260900  0.48101221  1
  Ru4+  Ru167  1  0.25005110  0.42641486  0.25286751  1
  Ru4+  Ru168  1  0.25004214  0.58060436  0.24790060  1
  Ru4+  Ru169  1  0.24989471  0.04076270  0.26245950  1
  Ru4+  Ru170  1  0.24972167  0.08589270  -0.00037156  1
  Ru4+  Ru171  1  0.24981334  0.90952885  0.25206985  1
  Ru4+  Ru172  1  0.75002796  0.39979921  0.75441485  1
  Ru4+  Ru173  1  0.24995051  0.39913150  -0.01064006  1
  Ru4+  Ru174  1  0.24992589  0.94255252  0.48318210  1
  Ru4+  Ru175  1  0.75023645  0.62407172  0.26600960  1
  Ru4+  Ru176  1  0.25016661  0.24989391  0.75296219  1
  Ru4+  Ru177  1  0.24997117  0.59960269  0.74637853  1
  Ru4+  Ru178  1  0.75001377  0.37693923  0.51248007  1
  Ru4+  Ru179  1  0.75037499  0.37917180  0.24081186  1
  O2-  O180  1  0.16865560  0.08058463  0.00036510  1
  O2-  O181  1  0.16655360  0.07942276  0.24998860  1
  O2-  O182  1  0.16604648  0.07964367  0.49961013  1
  O2-  O183  1  0.16757757  0.08242722  0.75008953  1
  O2-  O184  1  0.16760570  0.41299878  -0.00042959  1
  O2-  O185  1  0.16789838  0.41438702  0.25041386  1
  O2-  O186  1  0.16829293  0.41326844  0.50005982  1
  O2-  O187  1  0.16601648  0.41196308  0.74955512  1
  O2-  O188  1  0.16687713  0.74790941  0.00087549  1
  O2-  O189  1  0.16644172  0.74773629  0.25048994  1
  O2-  O190  1  0.16581148  0.74617728  0.49969250  1
  O2-  O191  1  0.16670679  0.74797338  0.74976458  1
  O2-  O192  1  0.66632090  0.08092725  -0.00078705  1
  O2-  O193  1  0.66698287  0.08165184  0.24985318  1
  O2-  O194  1  0.66720369  0.08220885  0.50019990  1
  O2-  O195  1  0.66595447  0.07940821  0.75078704  1
  O2-  O196  1  0.66613550  0.41507592  0.00027075  1
  O2-  O197  1  0.66597226  0.41337399  0.25025664  1
  O2-  O198  1  0.66728509  0.41260120  0.50020432  1
  O2-  O199  1  0.66754420  0.41367205  0.75023208  1
  O2-  O200  1  0.66689174  0.74780837  0.00008930  1
  O2-  O201  1  0.66723658  0.74669001  0.25036799  1
  O2-  O202  1  0.66655174  0.74714223  0.49960424  1
  O2-  O203  1  0.66701149  0.74614325  0.75007227  1
  O2-  O204  1  0.33246053  0.25198514  0.00007331  1
  O2-  O205  1  0.33332220  0.25402718  0.24988299  1
  O2-  O206  1  0.33353256  0.25351203  0.49979274  1
  O2-  O207  1  0.33223965  0.25284635  0.74966504  1
  O2-  O208  1  0.33382315  0.58671277  0.00031181  1
  O2-  O209  1  0.33116253  0.58593966  0.25059558  1
  O2-  O210  1  0.33174783  0.58586006  0.49962081  1
  O2-  O211  1  0.33329484  0.58650641  0.75013149  1
  O2-  O212  1  0.33218691  0.91931369  0.00053005  1
  O2-  O213  1  0.33273699  0.91930431  0.25023135  1
  O2-  O214  1  0.33466956  0.92068016  0.49963185  1
  O2-  O215  1  0.33394542  0.91830604  0.75021327  1
  O2-  O216  1  0.83326332  0.25238169  0.00006319  1
  O2-  O217  1  0.83270697  0.25178727  0.24994735  1
  O2-  O218  1  0.83238941  0.25205911  0.50157685  1
  O2-  O219  1  0.83335974  0.25401010  0.75018312  1
  O2-  O220  1  0.83419672  0.58492376  -0.00053088  1
  O2-  O221  1  0.83430494  0.58737402  0.25012952  1
  O2-  O222  1  0.83340601  0.58762494  0.49950261  1
  O2-  O223  1  0.83329673  0.58675967  0.74999320  1
  O2-  O224  1  0.83225234  0.91919429  -0.00120005  1
  O2-  O225  1  0.83242498  0.91789735  0.24923194  1
  O2-  O226  1  0.83310773  0.91710427  0.50080691  1
  O2-  O227  1  0.83183555  0.92053628  0.75060816  1
  O2-  O228  1  0.16792428  0.25226917  0.00000610  1
  O2-  O229  1  0.16657482  0.25321452  0.25030192  1
  O2-  O230  1  0.16685999  0.25361047  0.50001434  1
  O2-  O231  1  0.16767336  0.25226152  0.74996245  1
  O2-  O232  1  0.16588376  0.58688395  0.00047244  1
  O2-  O233  1  0.16827237  0.58595922  0.25057881  1
  O2-  O234  1  0.16757489  0.58700266  0.49967124  1
  O2-  O235  1  0.16676518  0.58661379  0.74968833  1
  O2-  O236  1  0.16844894  0.91934251  0.00064836  1
  O2-  O237  1  0.16819467  0.91928730  0.24992383  1
  O2-  O238  1  0.16627763  0.92087313  0.50006290  1
  O2-  O239  1  0.16706835  0.91848617  0.75032235  1
  O2-  O240  1  0.66723889  0.25270429  0.00059084  1
  O2-  O241  1  0.66670224  0.25198045  0.25000318  1
  O2-  O242  1  0.66759902  0.25209589  0.50015221  1
  O2-  O243  1  0.66721628  0.25345989  0.75051068  1
  O2-  O244  1  0.66684343  0.58461510  -0.00043987  1
  O2-  O245  1  0.66612234  0.58730800  0.25045915  1
  O2-  O246  1  0.66612468  0.58680322  0.49979913  1
  O2-  O247  1  0.66659221  0.58680256  0.74953983  1
  O2-  O248  1  0.66769114  0.91984004  -0.00096764  1
  O2-  O249  1  0.66676452  0.91831983  0.25002417  1
  O2-  O250  1  0.66715954  0.91758622  0.49975021  1
  O2-  O251  1  0.66728195  0.92073707  0.75053117  1
  O2-  O252  1  0.33144945  0.08080632  0.00020688  1
  O2-  O253  1  0.33354210  0.07931899  0.25039161  1
  O2-  O254  1  0.33379064  0.07971222  0.49943235  1
  O2-  O255  1  0.33318256  0.08146526  0.75026312  1
  O2-  O256  1  0.33309602  0.41302338  -0.00007264  1
  O2-  O257  1  0.33241780  0.41441745  0.25016996  1
  O2-  O258  1  0.33164445  0.41277041  0.50038655  1
  O2-  O259  1  0.33354832  0.41272212  0.74888590  1
  O2-  O260  1  0.33312318  0.74839773  0.00032659  1
  O2-  O261  1  0.33152366  0.74806970  0.25033548  1
  O2-  O262  1  0.33284094  0.74662705  0.49928002  1
  O2-  O263  1  0.33263008  0.74798602  0.75078620  1
  O2-  O264  1  0.83244460  0.08090993  -0.00033897  1
  O2-  O265  1  0.83284286  0.08270470  0.24926271  1
  O2-  O266  1  0.83305399  0.08298640  0.50083250  1
  O2-  O267  1  0.83347742  0.07957636  0.75045658  1
  O2-  O268  1  0.83276978  0.41453882  -0.00064649  1
  O2-  O269  1  0.83318057  0.41303735  0.24988821  1
  O2-  O270  1  0.83317079  0.41238309  0.50069394  1
  O2-  O271  1  0.83309223  0.41231872  0.75031665  1
  O2-  O272  1  0.83256475  0.74854227  -0.00011638  1
  O2-  O273  1  0.83299008  0.74666815  0.25021362  1
  O2-  O274  1  0.83269890  0.74765232  0.49934167  1
  O2-  O275  1  0.83347020  0.74695014  0.75025242  1
  O2-  O276  1  0.04707005  0.09761212  0.48689309  1
  O2-  O277  1  0.55811927  0.08054811  0.47318805  1
  O2-  O278  1  0.45433752  0.56651747  0.98630815  1
  O2-  O279  1  0.45983120  0.77418700  0.77537885  1
  O2-  O280  1  0.54505077  0.09643363  0.98514316  1
  O2-  O281  1  0.04542305  0.57001051  0.98755021  1
  O2-  O282  1  0.54548099  0.09643593  0.23013583  1
  O2-  O283  1  0.96219897  0.22325543  0.50056061  1
  O2-  O284  1  0.45709842  0.44046354  0.52512758  1
  O2-  O285  1  0.95302124  0.43018154  0.76281362  1
  O2-  O286  1  0.45989512  0.77469041  0.25028448  1
  O2-  O287  1  0.54922151  0.76443758  0.23512413  1
  O2-  O288  1  0.95295173  0.23452451  0.76459796  1
  O2-  O289  1  0.04068497  0.10303654  0.72440740  1
  O2-  O290  1  0.04029083  0.10624782  0.22294736  1
  O2-  O291  1  0.04484595  0.56949484  0.51439926  1
  O2-  O292  1  0.95486167  0.90186104  0.98357448  1
  O2-  O293  1  0.45541586  0.76486321  0.98547349  1
  O2-  O294  1  0.45414927  0.23500150  0.51413907  1
  O2-  O295  1  0.54528168  0.57005988  0.26943906  1
  O2-  O296  1  0.54736135  0.23465839  0.01528432  1
  O2-  O297  1  0.04678632  0.43164467  0.76231021  1
  O2-  O298  1  0.05476730  0.42026666  0.54174702  1
  O2-  O299  1  0.95732721  0.10528116  0.02449177  1
  O2-  O300  1  0.04967162  0.23581466  0.51359742  1
  O2-  O301  1  0.95328060  0.76438453  0.26596292  1
  O2-  O302  1  0.95907698  0.22867968  0.51673733  1
  O2-  O303  1  0.04500652  0.56821172  0.23568651  1
  O2-  O304  1  0.54645968  0.56786748  0.76369760  1
  O2-  O305  1  0.45787346  0.10423711  0.47387473  1
  O2-  O306  1  0.04670749  0.09934826  0.98519419  1
  O2-  O307  1  0.04708276  0.76429348  0.01246421  1
  O2-  O308  1  0.54564304  0.09888622  0.73685647  1
  O2-  O309  1  0.54606914  0.23511140  0.26326502  1
  O2-  O310  1  0.95183061  0.76362668  0.01434306  1
  O2-  O311  1  0.45547148  0.90288315  0.01531377  1
  O2-  O312  1  0.04183815  0.22791365  0.77684250  1
  O2-  O313  1  0.95974380  0.89391670  0.77667500  1
  O2-  O314  1  0.54556416  0.43112833  0.23671059  1
  O2-  O315  1  0.45988343  0.77469879  0.25009919  1
  O2-  O316  1  0.54550857  0.09649443  0.26960319  1
  O2-  O317  1  0.95700062  0.10131029  0.52449848  1
  O2-  O318  1  0.45211715  0.23333260  0.01451605  1
  O2-  O319  1  0.04743840  0.76586718  0.26407069  1
  O2-  O320  1  0.54284441  0.44095017  0.52501461  1
  O2-  O321  1  0.45487879  0.90079842  0.51517481  1
  O2-  O322  1  0.54490328  0.57089027  0.23009802  1
  O2-  O323  1  0.45248769  0.56591440  0.76388739  1
  O2-  O324  1  0.43138268  0.06145144  0.54422228  1
  O2-  O325  1  0.42848219  0.73013323  0.70765060  1
  O2-  O326  1  0.42905956  0.72456231  0.18926553  1
  O2-  O327  1  0.43481666  0.40347231  0.77868809  1
  O2-  O328  1  0.93613984  0.26265421  0.29867083  1
  O2-  O329  1  0.93620222  0.92817497  0.46899222  1
  O2-  O330  1  0.06890214  0.06066858  0.79669897  1
  O2-  O331  1  0.92925118  0.93765024  0.70715400  1
  O2-  O332  1  0.55231022  0.08913620  0.47778337  1
  O2-  O333  1  0.56634918  0.26093753  0.70443125  1
  O2-  O334  1  0.06410323  0.92919166  0.71591830  1
  O2-  O335  1  0.06395448  0.93159591  0.96720585  1
  O2-  O336  1  0.56567108  0.25964086  0.79566162  1
  O2-  O337  1  0.93155921  0.06258634  0.45543026  1
  O2-  O338  1  0.56518414  0.26165493  0.53065941  1
  O2-  O339  1  0.06526107  0.40495936  0.02913239  1
  O2-  O340  1  0.06516158  0.26220883  0.22096606  1
  O2-  O341  1  0.43574919  0.06882486  0.28260967  1
  O2-  O342  1  0.42902776  0.72505051  0.31029531  1
  O2-  O343  1  0.43495760  0.59419982  0.52941298  1
  O2-  O344  1  0.56414160  0.92839090  0.52948586  1
  O2-  O345  1  0.43507977  0.73921176  0.52943384  1
  O2-  O346  1  0.92160906  0.28752318  0.45046940  1
  O2-  O347  1  0.93637388  0.40200793  0.03288860  1
  O2-  O348  1  0.93607502  0.07130436  0.28273590  1
  O2-  O349  1  0.06412940  0.93028403  0.54930479  1
  O2-  O350  1  0.43506776  0.06953100  0.04846134  1
  O2-  O351  1  0.93663445  0.40406667  0.28248150  1
  O2-  O352  1  0.93585175  0.73760115  0.52906370  1
  O2-  O353  1  0.93158963  0.06097503  0.95547677  1
  O2-  O354  1  0.43548472  0.59515645  0.19888103  1
  O2-  O355  1  0.43416542  0.07174570  0.95619142  1
  O2-  O356  1  0.93676520  0.93010054  0.28097659  1
  O2-  O357  1  0.06367787  0.73558504  0.78273298  1
  O2-  O358  1  0.07095086  0.26933967  0.70962012  1
  O2-  O359  1  0.07013902  0.39219020  0.43107618  1
  O2-  O360  1  0.06536897  0.92805915  0.45548483  1
  O2-  O361  1  0.43443180  0.26133978  0.22057586  1
  O2-  O362  1  0.04884611  0.42587484  0.53579831  1
  O2-  O363  1  0.56589243  0.40568272  0.77937844  1
  O2-  O364  1  0.57036278  0.39941120  0.45881710  1
  O2-  O365  1  0.93593805  0.26390434  0.20174064  1
  O2-  O366  1  0.06450401  0.93089606  0.21620645  1
  O2-  O367  1  0.56356448  0.59818894  0.03336510  1
  O2-  O368  1  0.93653997  0.73851707  0.02966564  1
  O2-  O369  1  0.42984265  0.39832814  0.45928976  1
  O2-  O370  1  0.07050543  0.06493929  0.29153344  1
  O2-  O371  1  0.43593109  0.59497778  0.30117284  1
  O2-  O372  1  0.75018753  0.33269354  0.90638679  1
  O2-  O373  1  0.75004671  0.66879456  0.90221063  1
  O2-  O374  1  0.25010220  0.32605521  0.07881327  1
  O2-  O375  1  0.74991434  0.66724405  0.07459311  1
  O2-  O376  1  0.74987792  0.32676967  0.14626250  1
  O2-  O377  1  0.24997805  0.33287360  0.84269161  1
  O2-  O378  1  0.24994855  0.66398026  0.15905811  1
  O2-  O379  1  0.25012291  0.34391553  0.16823941  1
  O2-  O380  1  0.74982334  0.32107789  0.33295000  1
  O2-  O381  1  0.74992880  0.67525984  0.16045580  1
  O2-  O382  1  0.74985029  0.67744876  0.58304954  1
  O2-  O383  1  0.74965339  0.00039496  0.40716515  1
  O2-  O384  1  0.24999469  -0.00017547  0.59675498  1
  O2-  O385  1  0.74995918  -0.00036126  0.59436043  1
  O2-  O386  1  0.24987883  0.66848070  0.65329231  1
  O2-  O387  1  0.25011539  0.67314273  0.83330755  1
  O2-  O388  1  0.25005631  0.00021253  0.67943897  1
  O2-  O389  1  0.75014106  0.33357946  0.64903636  1
  O2-  O390  1  0.25011437  0.66565595  0.92195313  1
  O2-  O391  1  0.74995165  0.32269340  0.41825620  1
  O2-  O392  1  0.25000695  -0.00475769  0.15046394  1
  O2-  O393  1  0.74991058  -0.00047500  0.08202162  1
  O2-  O394  1  0.74996992  -0.00027315  0.16750713  1
  O2-  O395  1  0.74994060  0.65831436  0.67053290  1
  O2-  O396  1  0.74996498  0.49939481  0.09472586  1
  O2-  O397  1  0.75000557  0.17087079  0.08672349  1
  O2-  O398  1  0.74997477  0.83363729  0.57063570  1
  O2-  O399  1  0.25001502  0.83455750  0.83396965  1
  O2-  O400  1  0.75004993  0.16885118  0.91170050  1
  O2-  O401  1  0.75001104  0.83225839  0.09604282  1
  O2-  O402  1  0.24997442  0.49692420  0.11363220  1
  O2-  O403  1  0.25004386  0.83280643  0.91766596  1
  O2-  O404  1  0.25000926  0.50404700  0.86430008  1
  O2-  O405  1  0.74992381  0.50129221  0.38853478  1
  O2-  O406  1  0.25003448  0.50593873  0.63634591  1
  O2-  O407  1  0.25004298  0.16675527  0.59701387  1
  O2-  O408  1  0.74990060  0.83735326  0.18017263  1
  O2-  O409  1  0.25000534  0.83325227  0.65553780  1
  O2-  O410  1  0.74993407  0.49796306  0.64727203  1
  O2-  O411  1  0.24995777  0.49957085  0.38483882  1
  O2-  O412  1  0.24996294  0.16619736  0.35020673  1
  O2-  O413  1  0.24992326  0.16454514  0.68157037  1
  O2-  O414  1  0.75004529  0.83096264  0.65285189  1
  O2-  O415  1  0.74993821  0.83481464  0.33394422  1
  O2-  O416  1  0.75004676  0.17015104  0.64203665  1
  O2-  O417  1  0.74996073  0.83231426  0.41621038  1
  O2-  O418  1  0.24995885  0.83567359  0.33969241  1
  O2-  O419  1  0.75005646  0.16579992  0.40998773  1
  O2-  O420  1  0.52735220  0.33467704  0.88146016  1
  O2-  O421  1  0.47025425  0.33702639  0.12284067  1
  O2-  O422  1  0.53248010  0.66692720  0.62454990  1
  O2-  O423  1  0.52806912  0.33858377  0.62401312  1
  O2-  O424  1  0.46977668  0.66697620  0.87316936  1
  O2-  O425  1  0.52629352  0.00121271  0.62846419  1
  O2-  O426  1  0.97347279  0.66392442  0.62787728  1
  O2-  O427  1  0.47037183  0.33038900  0.37031729  1
  O2-  O428  1  0.52849711  0.66743963  0.37846293  1
  O2-  O429  1  0.53127066  0.33390690  0.12459139  1
  O2-  O430  1  0.02398616  0.33323930  0.62695038  1
  O2-  O431  1  0.97167695  -0.00020331  0.12588134  1
  O2-  O432  1  0.02497541  0.33346371  0.12482260  1
  O2-  O433  1  0.02465852  -0.00003261  0.37369218  1
  O2-  O434  1  0.02777177  0.66540150  0.37650121  1
  O2-  O435  1  0.47341093  0.66283712  0.62615840  1
  O2-  O436  1  0.47088983  0.33130732  0.87833540  1
  O2-  O437  1  0.47395548  -0.00368306  0.86914746  1
  O2-  O438  1  0.97335876  0.66337420  0.12885176  1
  O2-  O439  1  0.52938259  0.33088981  0.37176512  1
  O2-  O440  1  0.53063506  0.66771074  0.87478413  1
  O2-  O441  1  0.02734604  0.33393366  0.87698761  1
  O2-  O442  1  0.46774484  0.33328066  0.62695520  1
  O2-  O443  1  0.97351110  0.00212981  0.62143059  1
