# generated using pymatgen
data_La7(Ru4O11)2
_symmetry_space_group_name_H-M   'P 1'
_cell_length_a   23.99403038
_cell_length_b   16.83364404
_cell_length_c   15.42983828
_cell_angle_alpha   89.99673686
_cell_angle_beta   90.00063018
_cell_angle_gamma   89.99876914
_symmetry_Int_Tables_number   1
_chemical_formula_structural   La7(Ru4O11)2
_chemical_formula_sum   'La84 Ru96 O264'
_cell_volume   6232.21916260
_cell_formula_units_Z   12
loop_
 _symmetry_equiv_pos_site_id
 _symmetry_equiv_pos_as_xyz
  1  'x, y, z'
loop_
 _atom_type_symbol
 _atom_type_oxidation_number
  La3+  3.0
  Ru4+  4.0
  O2-  -2.0
loop_
 _atom_site_type_symbol
 _atom_site_label
 _atom_site_symmetry_multiplicity
 _atom_site_fract_x
 _atom_site_fract_y
 _atom_site_fract_z
 _atom_site_occupancy
  La3+  La0  1  0.13501351  0.00046124  0.12589483  1
  La3+  La1  1  0.13514025  -0.00213971  0.37370865  1
  La3+  La2  1  0.13862438  -0.00018791  0.62368601  1
  La3+  La3  1  0.13546884  0.00411554  0.87254016  1
  La3+  La4  1  0.14026573  0.33132909  0.12380917  1
  La3+  La5  1  0.14132917  0.33132853  0.37317141  1
  La3+  La6  1  0.13848162  0.32524494  0.62855676  1
  La3+  La7  1  0.14017768  0.32879974  0.87596383  1
  La3+  La8  1  0.14240284  0.66439915  0.12484367  1
  La3+  La9  1  0.13313686  0.66747364  0.37059719  1
  La3+  La10  1  0.13232704  0.66680376  0.62595879  1
  La3+  La11  1  0.13366254  0.66876564  0.87950708  1
  La3+  La12  1  0.64133302  0.00031630  0.12645632  1
  La3+  La13  1  0.63520102  0.00620913  0.37698508  1
  La3+  La14  1  0.64158494  0.00359136  0.62945380  1
  La3+  La15  1  0.63466358  0.00264682  0.86833510  1
  La3+  La16  1  0.64205293  0.33526192  0.12545167  1
  La3+  La17  1  0.64590339  0.33116459  0.37707813  1
  La3+  La18  1  0.65132753  0.33152802  0.62186920  1
  La3+  La19  1  0.65665287  0.32570136  0.87223594  1
  La3+  La20  1  0.64853782  0.66271836  0.12649690  1
  La3+  La21  1  0.63469523  0.67186274  0.37804813  1
  La3+  La22  1  0.63118065  0.67453594  0.61676986  1
  La3+  La23  1  0.64216882  0.67105572  0.87464981  1
  La3+  La24  1  0.35819061  -0.00498192  0.12080987  1
  La3+  La25  1  0.36181121  0.00203713  0.37320005  1
  La3+  La26  1  0.36195862  -0.00120969  0.62506596  1
  La3+  La27  1  0.36922053  0.00205801  0.87380872  1
  La3+  La28  1  0.35547623  0.33005498  0.12323040  1
  La3+  La29  1  0.36303220  0.33118073  0.37794581  1
  La3+  La30  1  0.36298340  0.32841896  0.62787772  1
  La3+  La31  1  0.35760066  0.32916643  0.87578606  1
  La3+  La32  1  0.35983091  0.67280121  0.12652137  1
  La3+  La33  1  0.35197621  0.65850129  0.36608337  1
  La3+  La34  1  0.35494773  0.66070002  0.62908521  1
  La3+  La35  1  0.36578355  0.67051199  0.87897637  1
  La3+  La36  1  0.85659156  -0.00563791  0.12673677  1
  La3+  La37  1  0.86601334  0.00818153  0.38025701  1
  La3+  La38  1  0.85601888  0.00277443  0.62475988  1
  La3+  La39  1  0.86314935  0.00356915  0.87089355  1
  La3+  La40  1  0.85791887  0.33593518  0.13265123  1
  La3+  La41  1  0.85064898  0.32910154  0.37953342  1
  La3+  La42  1  0.84350520  0.33342814  0.62333200  1
  La3+  La43  1  0.85375714  0.33216829  0.87614122  1
  La3+  La44  1  0.86050363  0.66127581  0.12618413  1
  La3+  La45  1  0.86018539  0.65956643  0.37391387  1
  La3+  La46  1  0.85691320  0.67201496  0.62802682  1
  La3+  La47  1  0.85430176  0.66256516  0.87696690  1
  La3+  La48  1  0.01266097  0.16769841  0.37523056  1
  La3+  La49  1  0.49593490  0.16973060  0.62435627  1
  La3+  La50  1  0.00036013  0.50957082  0.13572536  1
  La3+  La51  1  -0.00422088  0.16362563  0.11428802  1
  La3+  La52  1  0.50347716  0.50321505  0.38996527  1
  La3+  La53  1  0.50601258  0.17552509  0.39060838  1
  La3+  La54  1  -0.00516605  0.83063685  0.85620380  1
  La3+  La55  1  0.50137139  0.49749512  0.85458031  1
  La3+  La56  1  0.49593937  0.16225504  0.10895293  1
  La3+  La57  1  -0.00175470  0.50503487  0.62722043  1
  La3+  La58  1  0.00102992  0.50674779  0.11883397  1
  La3+  La59  1  -0.00138189  0.16904989  0.62170108  1
  La3+  La60  1  -0.00048278  0.50003729  0.87340526  1
  La3+  La61  1  0.49297144  0.83480857  0.12597893  1
  La3+  La62  1  0.50672751  0.83050910  0.37295433  1
  La3+  La63  1  0.50970365  0.83447269  0.38868700  1
  La3+  La64  1  0.01174234  0.16114367  0.36077249  1
  La3+  La65  1  0.49179223  0.50865727  0.13044079  1
  La3+  La66  1  0.50558357  0.50383272  0.87511312  1
  La3+  La67  1  0.49767575  0.15341314  0.12936628  1
  La3+  La68  1  0.49961218  0.50607408  0.14898319  1
  La3+  La69  1  -0.00153235  0.15889239  0.64161470  1
  La3+  La70  1  0.01186500  0.84410728  0.12804299  1
  La3+  La71  1  0.00244927  0.50530057  0.60575775  1
  La3+  La72  1  0.24943611  0.53351575  0.81940799  1
  La3+  La73  1  0.75099252  0.79254764  0.02497199  1
  La3+  La74  1  0.24962993  0.17148814  0.73521887  1
  La3+  La75  1  0.75175090  0.22041491  0.02687751  1
  La3+  La76  1  0.24886810  0.83254805  0.72709159  1
  La3+  La77  1  0.75038176  0.79417122  0.25103897  1
  La3+  La78  1  0.24852939  0.53975137  0.18133953  1
  La3+  La79  1  0.75005733  0.48443726  0.50407998  1
  La3+  La80  1  0.74975761  0.45263209  0.78448990  1
  La3+  La81  1  0.24831464  0.41514429  0.49875780  1
  La3+  La82  1  0.75195224  0.81932176  0.55446076  1
  La3+  La83  1  0.24981442  0.83892259  0.46478641  1
  Ru4+  Ru84  1  -0.00118825  0.00755112  0.00542102  1
  Ru4+  Ru85  1  0.00070506  0.00045256  0.25595241  1
  Ru4+  Ru86  1  -0.00341692  -0.00929384  0.50369461  1
  Ru4+  Ru87  1  -0.00009593  0.00176034  0.74027499  1
  Ru4+  Ru88  1  0.00177570  0.33169585  -0.00210186  1
  Ru4+  Ru89  1  -0.00680061  0.34161180  0.25653261  1
  Ru4+  Ru90  1  -0.00437717  0.33084403  0.48859714  1
  Ru4+  Ru91  1  -0.00532751  0.33538975  0.76103982  1
  Ru4+  Ru92  1  -0.00052204  0.67456635  -0.01264151  1
  Ru4+  Ru93  1  -0.00041603  0.68148099  0.25181613  1
  Ru4+  Ru94  1  -0.01049686  0.67922609  0.50472775  1
  Ru4+  Ru95  1  0.00128601  0.66850313  0.74311299  1
  Ru4+  Ru96  1  0.49501380  0.00094660  0.00099323  1
  Ru4+  Ru97  1  0.50057957  0.00513565  0.25812387  1
  Ru4+  Ru98  1  0.49688142  -0.00729726  0.48850959  1
  Ru4+  Ru99  1  0.50418835  -0.00265860  0.75913523  1
  Ru4+  Ru100  1  0.50509466  0.33324601  -0.01141730  1
  Ru4+  Ru101  1  0.50031760  0.33385203  0.25509727  1
  Ru4+  Ru102  1  0.50365623  0.33480472  0.50819198  1
  Ru4+  Ru103  1  0.49488301  0.33397507  0.73870329  1
  Ru4+  Ru104  1  0.50315791  0.67264523  -0.00346105  1
  Ru4+  Ru105  1  0.49302968  0.66276646  0.25986254  1
  Ru4+  Ru106  1  0.48988982  0.68761639  0.50846159  1
  Ru4+  Ru107  1  0.50638356  0.67685963  0.75193189  1
  Ru4+  Ru108  1  0.10992594  0.16731287  -0.00133062  1
  Ru4+  Ru109  1  0.11394785  0.17096230  0.24999179  1
  Ru4+  Ru110  1  0.11341863  0.17111537  0.49755997  1
  Ru4+  Ru111  1  0.11261020  0.15802117  0.75862620  1
  Ru4+  Ru112  1  0.11659360  0.49692173  -0.00394475  1
  Ru4+  Ru113  1  0.11109390  0.50412343  0.25534937  1
  Ru4+  Ru114  1  0.10558774  0.49943551  0.50601810  1
  Ru4+  Ru115  1  0.10876153  0.49718004  0.74705386  1
  Ru4+  Ru116  1  0.11184978  0.82920580  0.00626321  1
  Ru4+  Ru117  1  0.11285447  0.83066866  0.25293442  1
  Ru4+  Ru118  1  0.10581732  0.83184335  0.49831088  1
  Ru4+  Ru119  1  0.10788118  0.83454732  0.75000717  1
  Ru4+  Ru120  1  0.60945686  0.16713788  -0.00008263  1
  Ru4+  Ru121  1  0.61514591  0.16857976  0.25004319  1
  Ru4+  Ru122  1  0.61447857  0.16603008  0.50090954  1
  Ru4+  Ru123  1  0.61116168  0.16445609  0.74994031  1
  Ru4+  Ru124  1  0.62040855  0.49566482  -0.00155962  1
  Ru4+  Ru125  1  0.61298142  0.49988215  0.25240944  1
  Ru4+  Ru126  1  0.60914095  0.50306952  0.49894203  1
  Ru4+  Ru127  1  0.61145198  0.50139897  0.74460203  1
  Ru4+  Ru128  1  0.61416953  0.83842775  -0.00087267  1
  Ru4+  Ru129  1  0.61383319  0.83969105  0.25327676  1
  Ru4+  Ru130  1  0.61741110  0.83461564  0.49588567  1
  Ru4+  Ru131  1  0.60868202  0.82665463  0.74395810  1
  Ru4+  Ru132  1  0.39042130  0.16721990  0.00168542  1
  Ru4+  Ru133  1  0.38811645  0.16477826  0.25205882  1
  Ru4+  Ru134  1  0.38894322  0.16985843  0.49957636  1
  Ru4+  Ru135  1  0.39031284  0.16636919  0.74868659  1
  Ru4+  Ru136  1  0.38096767  0.49936413  0.00109135  1
  Ru4+  Ru137  1  0.38514972  0.49963097  0.25204563  1
  Ru4+  Ru138  1  0.38932770  0.50183973  0.50023653  1
  Ru4+  Ru139  1  0.39027999  0.49470552  0.74201821  1
  Ru4+  Ru140  1  0.38374043  0.83688074  0.00206953  1
  Ru4+  Ru141  1  0.38402961  0.82938941  0.24876813  1
  Ru4+  Ru142  1  0.39295306  0.82886097  0.50062331  1
  Ru4+  Ru143  1  0.39145689  0.83314385  0.75053481  1
  Ru4+  Ru144  1  0.89234712  0.16616287  -0.00277764  1
  Ru4+  Ru145  1  0.88641340  0.16629087  0.23806936  1
  Ru4+  Ru146  1  0.88336263  0.16670939  0.50213521  1
  Ru4+  Ru147  1  0.88240713  0.16804374  0.75252352  1
  Ru4+  Ru148  1  0.88261086  0.50175251  -0.00140149  1
  Ru4+  Ru149  1  0.88753302  0.49192657  0.25320076  1
  Ru4+  Ru150  1  0.89555476  0.50709001  0.50037769  1
  Ru4+  Ru151  1  0.89071125  0.50058533  0.74973707  1
  Ru4+  Ru152  1  0.89343067  0.82741933  -0.00647725  1
  Ru4+  Ru153  1  0.89211583  0.82590099  0.25765437  1
  Ru4+  Ru154  1  0.89936948  0.82629962  0.49656868  1
  Ru4+  Ru155  1  0.88712408  0.82762670  0.74719256  1
  Ru4+  Ru156  1  0.24870412  0.08185687  0.24264117  1
  Ru4+  Ru157  1  0.75052882  0.93391229  0.28369277  1
  Ru4+  Ru158  1  0.24768496  0.58839355  0.50038413  1
  Ru4+  Ru159  1  0.75153452  0.68301718  0.49605987  1
  Ru4+  Ru160  1  0.25092858  0.11086576  0.49369430  1
  Ru4+  Ru161  1  0.25060474  0.96109808  0.80167329  1
  Ru4+  Ru162  1  0.24886664  0.68864633  0.74121791  1
  Ru4+  Ru163  1  0.25014774  0.91543023  0.24599610  1
  Ru4+  Ru164  1  0.74912978  0.60178622  0.74508646  1
  Ru4+  Ru165  1  0.75031902  0.92900145  -0.03479071  1
  Ru4+  Ru166  1  0.74839111  0.41790832  0.24767008  1
  Ru4+  Ru167  1  0.24865081  0.39254193  0.74792317  1
  Ru4+  Ru168  1  0.24930054  0.93262457  0.01074630  1
  Ru4+  Ru169  1  0.24906724  0.71569691  0.51620622  1
  Ru4+  Ru170  1  0.75004839  0.07443319  -0.03117042  1
  Ru4+  Ru171  1  0.74998068  0.57576268  0.25180704  1
  Ru4+  Ru172  1  0.24976616  0.38314987  0.24912543  1
  Ru4+  Ru173  1  0.25006312  0.23918215  -0.00307125  1
  Ru4+  Ru174  1  0.75071363  0.09829663  0.25633643  1
  Ru4+  Ru175  1  0.24967455  0.97582756  0.45882920  1
  Ru4+  Ru176  1  0.25016117  0.74030407  0.00809152  1
  Ru4+  Ru177  1  0.25083150  0.08922500  -0.00531129  1
  Ru4+  Ru178  1  0.75056387  0.94856794  0.48206633  1
  Ru4+  Ru179  1  0.75005172  0.90854357  0.76335772  1
  O2-  O180  1  0.16658886  0.08013876  -0.00088749  1
  O2-  O181  1  0.16788230  0.07931074  0.24911568  1
  O2-  O182  1  0.16921225  0.08275979  0.49379260  1
  O2-  O183  1  0.16783093  0.08200261  0.75245805  1
  O2-  O184  1  0.16832964  0.41524217  0.00203906  1
  O2-  O185  1  0.16523079  0.41153463  0.24435101  1
  O2-  O186  1  0.15562465  0.40974812  0.50221093  1
  O2-  O187  1  0.16350522  0.41096039  0.75338333  1
  O2-  O188  1  0.16949280  0.74414033  -0.00383412  1
  O2-  O189  1  0.16544268  0.74752466  0.25408813  1
  O2-  O190  1  0.16541562  0.74572475  0.50058113  1
  O2-  O191  1  0.16484070  0.74344076  0.74890152  1
  O2-  O192  1  0.66406297  0.08031672  -0.00483037  1
  O2-  O193  1  0.66922864  0.08245340  0.25002687  1
  O2-  O194  1  0.66269716  0.08002631  0.50079172  1
  O2-  O195  1  0.66392404  0.07870008  0.75391265  1
  O2-  O196  1  0.66908383  0.41652683  0.00707130  1
  O2-  O197  1  0.66739694  0.41386268  0.25046571  1
  O2-  O198  1  0.66101807  0.41729157  0.49804214  1
  O2-  O199  1  0.66097571  0.41189526  0.74711881  1
  O2-  O200  1  0.66679822  0.74655886  -0.00564300  1
  O2-  O201  1  0.66246597  0.74693045  0.25356901  1
  O2-  O202  1  0.67296367  0.74690113  0.50406538  1
  O2-  O203  1  0.66530718  0.75195189  0.74671067  1
  O2-  O204  1  0.33321442  0.25071675  0.00146519  1
  O2-  O205  1  0.33884740  0.24972844  0.25020967  1
  O2-  O206  1  0.33665482  0.25388215  0.49605189  1
  O2-  O207  1  0.33129762  0.25149511  0.75087939  1
  O2-  O208  1  0.33326653  0.58587670  -0.00247588  1
  O2-  O209  1  0.32751435  0.58499182  0.24087314  1
  O2-  O210  1  0.33502815  0.58476018  0.50073491  1
  O2-  O211  1  0.33431677  0.58434436  0.75628116  1
  O2-  O212  1  0.33002770  0.92063001  -0.00427679  1
  O2-  O213  1  0.33480020  0.92093921  0.25193393  1
  O2-  O214  1  0.33381758  0.92149475  0.49791429  1
  O2-  O215  1  0.33398037  0.92224456  0.75137831  1
  O2-  O216  1  0.84157173  0.25454821  0.00378796  1
  O2-  O217  1  0.83400075  0.24710460  0.24877938  1
  O2-  O218  1  0.83351363  0.24741142  0.49995550  1
  O2-  O219  1  0.83388219  0.25130697  0.75267291  1
  O2-  O220  1  0.83417969  0.58555155  0.00249121  1
  O2-  O221  1  0.83362313  0.58112865  0.24934015  1
  O2-  O222  1  0.82752307  0.58550354  0.49843628  1
  O2-  O223  1  0.83424554  0.58649679  0.74721647  1
  O2-  O224  1  0.83692456  0.91582632  -0.00649688  1
  O2-  O225  1  0.83022511  0.91375338  0.25215636  1
  O2-  O226  1  0.83207405  0.91751761  0.50245451  1
  O2-  O227  1  0.83510084  0.91620911  0.75650428  1
  O2-  O228  1  0.16627267  0.25069970  -0.00017239  1
  O2-  O229  1  0.16442601  0.25171787  0.24907275  1
  O2-  O230  1  0.16439379  0.25527790  0.49918737  1
  O2-  O231  1  0.16325228  0.24982096  0.74760464  1
  O2-  O232  1  0.16859962  0.58323995  -0.00491941  1
  O2-  O233  1  0.17040168  0.58614685  0.25144523  1
  O2-  O234  1  0.16266614  0.58788289  0.50031271  1
  O2-  O235  1  0.17042354  0.58994672  0.75023290  1
  O2-  O236  1  0.16342638  0.92043205  0.00184220  1
  O2-  O237  1  0.16657925  0.92096220  0.25067930  1
  O2-  O238  1  0.16581449  0.92169510  0.49709548  1
  O2-  O239  1  0.16438689  0.92180245  0.75304456  1
  O2-  O240  1  0.66362246  0.25308659  0.00548576  1
  O2-  O241  1  0.66375214  0.25260761  0.24763737  1
  O2-  O242  1  0.66307619  0.25088047  0.49786228  1
  O2-  O243  1  0.66257680  0.24780976  0.74678494  1
  O2-  O244  1  0.66184056  0.58583474  -0.00226719  1
  O2-  O245  1  0.66644154  0.58420901  0.25399405  1
  O2-  O246  1  0.66809503  0.58861195  0.49848801  1
  O2-  O247  1  0.66549661  0.58761984  0.74840356  1
  O2-  O248  1  0.66641609  0.91972273  -0.00384220  1
  O2-  O249  1  0.66756911  0.92078356  0.25248328  1
  O2-  O250  1  0.66861983  0.92183484  0.50389884  1
  O2-  O251  1  0.66609175  0.91252116  0.75522860  1
  O2-  O252  1  0.33368905  0.07929275  -0.00369518  1
  O2-  O253  1  0.32550353  0.08448004  0.25234893  1
  O2-  O254  1  0.33429177  0.08335938  0.49822039  1
  O2-  O255  1  0.33887593  0.08263246  0.75307689  1
  O2-  O256  1  0.33071868  0.41443700  0.00302738  1
  O2-  O257  1  0.33554528  0.40943584  0.24731208  1
  O2-  O258  1  0.33833296  0.40933213  0.50089294  1
  O2-  O259  1  0.33121678  0.41143873  0.75416357  1
  O2-  O260  1  0.33169137  0.74596510  -0.00328455  1
  O2-  O261  1  0.33087857  0.74935780  0.25009078  1
  O2-  O262  1  0.32954594  0.74748783  0.50415969  1
  O2-  O263  1  0.33444330  0.74674025  0.75185045  1
  O2-  O264  1  0.83375034  0.08061858  -0.00327900  1
  O2-  O265  1  0.83219825  0.08164041  0.25194258  1
  O2-  O266  1  0.83316871  0.08337652  0.50307415  1
  O2-  O267  1  0.83706410  0.07808364  0.75448415  1
  O2-  O268  1  0.83900707  0.41236874  0.00241520  1
  O2-  O269  1  0.82640682  0.41972457  0.24874342  1
  O2-  O270  1  0.83999545  0.42266745  0.49933989  1
  O2-  O271  1  0.83682851  0.41113944  0.75065564  1
  O2-  O272  1  0.83539653  0.74424798  0.00115030  1
  O2-  O273  1  0.83599583  0.74435398  0.24822429  1
  O2-  O274  1  0.83034278  0.74707876  0.50117375  1
  O2-  O275  1  0.83249779  0.75266510  0.75206591  1
  O2-  O276  1  0.05818665  0.91845028  0.24411943  1
  O2-  O277  1  0.05234144  0.76040176  0.25172849  1
  O2-  O278  1  0.54642533  0.23587142  0.51610698  1
  O2-  O279  1  0.45358292  0.42948186  0.26921346  1
  O2-  O280  1  0.54326460  0.75609627  0.23454872  1
  O2-  O281  1  0.46773452  0.80700555  0.51846296  1
  O2-  O282  1  0.04607207  0.23864912  0.98561825  1
  O2-  O283  1  0.05180313  0.23511718  0.76293895  1
  O2-  O284  1  0.95052449  0.76383933  0.19263738  1
  O2-  O285  1  0.97049474  0.54601195  0.45600860  1
  O2-  O286  1  0.54385698  0.09739179  0.98341296  1
  O2-  O287  1  0.93815294  0.09045815  0.30209624  1
  O2-  O288  1  0.46848836  0.79640808  0.50524019  1
  O2-  O289  1  0.54193394  0.09668006  0.74753387  1
  O2-  O290  1  0.54517332  0.23744372  0.23529075  1
  O2-  O291  1  0.44550776  0.41925087  0.47049493  1
  O2-  O292  1  0.05613692  0.42868164  0.25868738  1
  O2-  O293  1  0.95210151  0.58572663  0.23436121  1
  O2-  O294  1  0.45263403  0.57434177  0.99310071  1
  O2-  O295  1  0.46580403  0.12339302  0.28311515  1
  O2-  O296  1  0.96485038  0.89059492  0.26367204  1
  O2-  O297  1  0.45713456  0.90651849  0.74534699  1
  O2-  O298  1  0.55337935  0.76235696  0.27016124  1
  O2-  O299  1  0.54427336  0.45032415  0.02712362  1
  O2-  O300  1  0.44287841  0.42045299  0.98836568  1
  O2-  O301  1  0.05501235  0.09000390  0.00825150  1
  O2-  O302  1  0.04785049  0.09935912  0.23556561  1
  O2-  O303  1  0.44520099  0.77480929  0.95671081  1
  O2-  O304  1  0.96934062  0.45774459  0.25205216  1
  O2-  O305  1  0.05655244  0.76710978  0.94362771  1
  O2-  O306  1  0.54235169  0.45633273  1.01919289  1
  O2-  O307  1  0.45267871  0.89948507  0.74745738  1
  O2-  O308  1  0.95229762  0.22945331  0.75607075  1
  O2-  O309  1  0.45667573  0.57503860  0.73127450  1
  O2-  O310  1  0.54268374  0.90116304  0.24028433  1
  O2-  O311  1  0.55712297  0.76713743  0.50909228  1
  O2-  O312  1  0.95699769  0.43778879  0.99859526  1
  O2-  O313  1  0.96055035  0.21446146  0.47477262  1
  O2-  O314  1  0.54606263  0.09844133  0.75586770  1
  O2-  O315  1  0.54620045  0.78840136  0.96418553  1
  O2-  O316  1  0.96440198  0.78173735  0.55147566  1
  O2-  O317  1  0.05090937  0.25016587  0.72724510  1
  O2-  O318  1  0.54763312  0.76158859  0.48623144  1
  O2-  O319  1  0.95527673  0.78096170  0.04276824  1
  O2-  O320  1  0.94990369  0.09432691  0.97859713  1
  O2-  O321  1  0.53280054  0.78340265  -0.00354212  1
  O2-  O322  1  0.54467760  0.09213438  0.49576626  1
  O2-  O323  1  0.54654773  0.43192793  0.73920702  1
  O2-  O324  1  0.57517185  0.36323772  0.91999318  1
  O2-  O325  1  0.55952876  0.25871509  0.04381415  1
  O2-  O326  1  0.93991957  0.73653303  0.72462500  1
  O2-  O327  1  0.06239754  0.73413702  0.46700948  1
  O2-  O328  1  0.93179752  0.73213737  0.92126159  1
  O2-  O329  1  0.43759588  0.74530015  0.21918832  1
  O2-  O330  1  0.93410909  0.92190011  0.47399125  1
  O2-  O331  1  0.57036931  0.68430513  0.06345319  1
  O2-  O332  1  0.93033845  0.60601246  0.57100461  1
  O2-  O333  1  0.92025195  0.94212139  0.27742016  1
  O2-  O334  1  0.94316825  0.25505152  0.21066649  1
  O2-  O335  1  0.42988248  0.42343207  0.67724930  1
  O2-  O336  1  0.56456268  0.40941459  0.27009092  1
  O2-  O337  1  0.42652608  0.41432245  0.82095487  1
  O2-  O338  1  0.06017396  0.08057310  0.52047018  1
  O2-  O339  1  0.41201834  0.07022358  0.19691979  1
  O2-  O340  1  0.43587955  0.58435550  0.26927133  1
  O2-  O341  1  0.94215562  0.58565055  0.97007537  1
  O2-  O342  1  0.42678259  0.73767532  0.04997587  1
  O2-  O343  1  0.93470167  0.58733177  0.20595055  1
  O2-  O344  1  0.93970594  0.41287109  0.77168914  1
  O2-  O345  1  0.56767890  0.07928602  0.26988971  1
  O2-  O346  1  0.94489547  0.10088113  0.29405642  1
  O2-  O347  1  0.06034444  0.58509033  0.02062796  1
  O2-  O348  1  0.43539381  0.68845985  0.59005851  1
  O2-  O349  1  0.06191310  0.58706006  0.72458539  1
  O2-  O350  1  0.08309161  0.75536675  0.09195058  1
  O2-  O351  1  0.57551634  0.72465926  0.46964560  1
  O2-  O352  1  0.44601462  0.41688868  0.46858488  1
  O2-  O353  1  0.06129106  0.06788948  0.79006562  1
  O2-  O354  1  0.90790703  0.37913353  0.27788389  1
  O2-  O355  1  0.56221957  0.92875681  0.71719413  1
  O2-  O356  1  0.92981032  0.06746691  0.14560639  1
  O2-  O357  1  0.55842380  0.73611921  0.67664420  1
  O2-  O358  1  0.05298233  0.75874198  0.94773913  1
  O2-  O359  1  0.56217335  0.73857629  0.81811943  1
  O2-  O360  1  0.93977368  0.07752385  0.47790574  1
  O2-  O361  1  0.92910948  0.72325588  0.44345957  1
  O2-  O362  1  0.40768961  0.73866842  0.42320371  1
  O2-  O363  1  0.06366439  0.40689953  0.96294936  1
  O2-  O364  1  0.43825781  0.25096519  0.72769224  1
  O2-  O365  1  0.93428214  0.72193699  0.31097473  1
  O2-  O366  1  0.43503827  0.93985184  0.53636215  1
  O2-  O367  1  0.43524181  0.91984137  0.01825725  1
  O2-  O368  1  0.56598687  0.92087823  0.48202231  1
  O2-  O369  1  0.06047045  0.60041224  0.28286680  1
  O2-  O370  1  0.06217919  0.91877774  0.51900190  1
  O2-  O371  1  0.93490290  0.29496591  0.57653254  1
  O2-  O372  1  0.25091704  0.00818856  0.57207577  1
  O2-  O373  1  0.75001222  0.01434525  0.37758317  1
  O2-  O374  1  0.74975218  0.33294706  0.15083162  1
  O2-  O375  1  0.25193653  0.32948681  0.36062730  1
  O2-  O376  1  0.25079724  0.66126325  0.10389222  1
  O2-  O377  1  0.74901773  0.34382378  0.41940432  1
  O2-  O378  1  0.74917281  0.32989448  0.32789334  1
  O2-  O379  1  0.25020868  0.66426075  0.86919031  1
  O2-  O380  1  0.24883849  0.32708829  0.63974416  1
  O2-  O381  1  0.75013493  -0.00407908  0.70127950  1
  O2-  O382  1  0.24889886  0.31543477  0.83731372  1
  O2-  O383  1  0.75039744  -0.00325236  0.06225787  1
  O2-  O384  1  0.74989566  0.00597149  0.18767176  1
  O2-  O385  1  0.74923411  0.67752715  0.64028737  1
  O2-  O386  1  0.75227619  0.33030655  0.89919648  1
  O2-  O387  1  0.24992193  0.33479587  0.92666144  1
  O2-  O388  1  0.25060189  0.33322698  0.13985323  1
  O2-  O389  1  0.74909606  0.34395950  0.60213291  1
  O2-  O390  1  0.24836684  0.00147443  0.33616789  1
  O2-  O391  1  0.25066914  0.01496499  0.70136596  1
  O2-  O392  1  0.74898895  0.01723868  0.57251202  1
  O2-  O393  1  0.75080953  0.67123221  0.17644006  1
  O2-  O394  1  0.74912609  0.66631031  0.84688917  1
  O2-  O395  1  0.75043041  0.66599430  0.08288344  1
  O2-  O396  1  0.74895724  0.50168558  0.16658634  1
  O2-  O397  1  0.24979862  0.83951545  0.33114243  1
  O2-  O398  1  0.24902428  0.83553183  0.94414498  1
  O2-  O399  1  0.75050759  0.16583697  0.66483228  1
  O2-  O400  1  0.75032323  0.16860729  0.58499395  1
  O2-  O401  1  0.25076465  0.84603491  0.85925206  1
  O2-  O402  1  0.25029497  0.47500158  0.30604389  1
  O2-  O403  1  0.75022873  0.84799560  0.87606632  1
  O2-  O404  1  0.25061242  0.53836839  0.40211265  1
  O2-  O405  1  0.75009672  0.15544539  0.89147861  1
  O2-  O406  1  0.74986676  0.50073254  0.08075313  1
  O2-  O407  1  0.25015823  0.16825269  0.59021110  1
  O2-  O408  1  0.75000598  0.16566265  0.41915930  1
  O2-  O409  1  0.24999402  0.16189727  0.88849408  1
  O2-  O410  1  0.25006585  0.48121210  0.68814751  1
  O2-  O411  1  0.74997617  0.51236025  0.89741036  1
  O2-  O412  1  0.25055359  0.82980004  0.16949237  1
  O2-  O413  1  0.74980911  0.51485274  0.64500486  1
  O2-  O414  1  0.74965033  0.84564465  0.39029926  1
  O2-  O415  1  0.25010363  0.83080322  0.59863469  1
  O2-  O416  1  0.25041424  0.83492580  0.08210132  1
  O2-  O417  1  0.25014696  0.53620194  0.59595747  1
  O2-  O418  1  0.74966264  0.17740586  0.33542484  1
  O2-  O419  1  0.24981302  0.16047213  0.09717820  1
  O2-  O420  1  0.01667826  0.64906583  0.13518697  1
  O2-  O421  1  0.02780587  0.33736684  0.12750579  1
  O2-  O422  1  0.02716300  0.66530128  0.61736794  1
  O2-  O423  1  0.99923334  -0.00388946  0.38233025  1
  O2-  O424  1  0.95865857  0.32930608  0.38341105  1
  O2-  O425  1  0.53931974  -0.00682816  0.37030248  1
  O2-  O426  1  0.04533309  0.00077952  0.64429170  1
  O2-  O427  1  0.47237847  0.66095792  0.86990957  1
  O2-  O428  1  0.54966592  0.64041243  0.35023377  1
  O2-  O429  1  0.02686355  -0.00761622  0.12032046  1
  O2-  O430  1  0.46593043  0.66020312  0.37801692  1
  O2-  O431  1  0.47959751  0.31702231  0.87627176  1
  O2-  O432  1  0.52608832  0.32454605  0.38025281  1
  O2-  O433  1  0.48029624  0.64833513  0.13000712  1
  O2-  O434  1  0.95201153  0.00191979  0.62811143  1
  O2-  O435  1  0.02105486  0.64693339  0.86106753  1
  O2-  O436  1  0.46445183  -0.00317386  0.12389470  1
  O2-  O437  1  0.47278942  0.00728697  0.88237482  1
  O2-  O438  1  0.05032436  0.32445335  0.38651539  1
  O2-  O439  1  0.46242383  0.31581732  0.60753960  1
  O2-  O440  1  0.55119083  0.00804031  0.11585046  1
  O2-  O441  1  0.97340041  0.32937795  0.88344877  1
  O2-  O442  1  0.45060627  -0.00756373  0.37339774  1
  O2-  O443  1  0.54693031  0.33377009  0.62819973  1
