# generated using pymatgen
data_La7(Ru4O11)2
_symmetry_space_group_name_H-M   'P 1'
_cell_length_a   23.99105462
_cell_length_b   16.83109202
_cell_length_c   15.42744244
_cell_angle_alpha   89.99653770
_cell_angle_beta   90.00094969
_cell_angle_gamma   89.99887797
_symmetry_Int_Tables_number   1
_chemical_formula_structural   La7(Ru4O11)2
_chemical_formula_sum   'La84 Ru96 O264'
_cell_volume   6229.53410172
_cell_formula_units_Z   12
loop_
 _symmetry_equiv_pos_site_id
 _symmetry_equiv_pos_as_xyz
  1  'x, y, z'
loop_
 _atom_type_symbol
 _atom_type_oxidation_number
  La3+  3.0
  Ru4+  4.0
  O2-  -2.0
loop_
 _atom_site_type_symbol
 _atom_site_label
 _atom_site_symmetry_multiplicity
 _atom_site_fract_x
 _atom_site_fract_y
 _atom_site_fract_z
 _atom_site_occupancy
  La3+  La0  1  0.13271039  -0.00115113  0.12294217  1
  La3+  La1  1  0.14393997  -0.00161175  0.37736123  1
  La3+  La2  1  0.14312155  -0.00055040  0.62337579  1
  La3+  La3  1  0.14726926  -0.00252324  0.87584429  1
  La3+  La4  1  0.13882061  0.33616614  0.12897735  1
  La3+  La5  1  0.14008426  0.33142708  0.37442422  1
  La3+  La6  1  0.14020309  0.33177267  0.62651559  1
  La3+  La7  1  0.14260743  0.33555651  0.87362017  1
  La3+  La8  1  0.14003419  0.66367908  0.12728715  1
  La3+  La9  1  0.13560462  0.66356277  0.36880990  1
  La3+  La10  1  0.14207321  0.66779660  0.62578001  1
  La3+  La11  1  0.14151318  0.66774398  0.87377062  1
  La3+  La12  1  0.63773139  0.00344187  0.13111322  1
  La3+  La13  1  0.63613552  0.00484714  0.37210141  1
  La3+  La14  1  0.63295782  -0.00088665  0.62318523  1
  La3+  La15  1  0.63746265  0.00134716  0.87699485  1
  La3+  La16  1  0.63692751  0.33084598  0.12402094  1
  La3+  La17  1  0.63859923  0.33641045  0.37209695  1
  La3+  La18  1  0.64299222  0.33392931  0.63220490  1
  La3+  La19  1  0.63492313  0.33193839  0.87533786  1
  La3+  La20  1  0.63560924  0.66556293  0.12950397  1
  La3+  La21  1  0.63681018  0.66336332  0.37757254  1
  La3+  La22  1  0.63754248  0.66154993  0.62272472  1
  La3+  La23  1  0.63782887  0.66342075  0.87164083  1
  La3+  La24  1  0.36399194  -0.00175395  0.12799961  1
  La3+  La25  1  0.36117694  0.00023450  0.37593521  1
  La3+  La26  1  0.36072549  0.00003702  0.62282682  1
  La3+  La27  1  0.35444290  -0.00093317  0.87681877  1
  La3+  La28  1  0.36325010  0.33511637  0.12646599  1
  La3+  La29  1  0.36298740  0.33056934  0.37758859  1
  La3+  La30  1  0.36976595  0.33728403  0.63233010  1
  La3+  La31  1  0.36806411  0.33878667  0.86716343  1
  La3+  La32  1  0.35633589  0.66451547  0.12462642  1
  La3+  La33  1  0.36112735  0.66551053  0.37234729  1
  La3+  La34  1  0.35677093  0.67191855  0.62467478  1
  La3+  La35  1  0.36076868  0.66417935  0.87245177  1
  La3+  La36  1  0.85869485  0.00126715  0.12786301  1
  La3+  La37  1  0.86027002  0.00482175  0.37528425  1
  La3+  La38  1  0.86602027  -0.00321966  0.62584151  1
  La3+  La39  1  0.85783980  0.00253707  0.87827655  1
  La3+  La40  1  0.86111316  0.33226009  0.12468633  1
  La3+  La41  1  0.86751350  0.33562830  0.37676376  1
  La3+  La42  1  0.86007606  0.33497664  0.62839112  1
  La3+  La43  1  0.86052748  0.33270986  0.87555843  1
  La3+  La44  1  0.86157772  0.66639003  0.12702371  1
  La3+  La45  1  0.86162261  0.66268100  0.37714058  1
  La3+  La46  1  0.86108973  0.66122888  0.62307197  1
  La3+  La47  1  0.86076454  0.66417755  0.87245928  1
  La3+  La48  1  -0.00268304  0.82613700  0.60444504  1
  La3+  La49  1  0.00520325  0.49583923  0.86712948  1
  La3+  La50  1  -0.00166560  0.16611914  0.60390662  1
  La3+  La51  1  -0.00324893  0.17050485  0.88968345  1
  La3+  La52  1  -0.00789383  0.16750847  0.13730504  1
  La3+  La53  1  0.49838193  0.17076837  0.36408055  1
  La3+  La54  1  -0.00036734  0.49987917  0.88759033  1
  La3+  La55  1  -0.00079778  0.83923668  0.88496545  1
  La3+  La56  1  -0.00141611  0.84295678  0.86898554  1
  La3+  La57  1  0.50444358  0.84374247  0.86887175  1
  La3+  La58  1  0.00160279  0.83672989  0.37849347  1
  La3+  La59  1  0.00115304  0.49753657  0.37962496  1
  La3+  La60  1  0.49320446  0.49792817  0.64570732  1
  La3+  La61  1  0.49732208  0.49701012  0.38033259  1
  La3+  La62  1  0.49702921  0.16842028  0.63132513  1
  La3+  La63  1  0.50136937  0.16920789  0.86856699  1
  La3+  La64  1  -0.00346099  0.82584574  0.62103102  1
  La3+  La65  1  -0.00068124  0.49821207  0.62411636  1
  La3+  La66  1  -0.00341668  0.17459309  0.87331417  1
  La3+  La67  1  0.49891815  0.83267619  0.36650315  1
  La3+  La68  1  0.50207036  0.48555904  0.88035539  1
  La3+  La69  1  0.00245329  0.50526266  0.13845614  1
  La3+  La70  1  -0.00394973  0.17799277  0.11873107  1
  La3+  La71  1  0.51392905  0.83237909  0.62796701  1
  La3+  La72  1  0.74957289  0.44711797  0.03997058  1
  La3+  La73  1  0.24974030  0.54085526  -0.03596464  1
  La3+  La74  1  0.75013546  0.84614630  0.79391165  1
  La3+  La75  1  0.74934605  0.88450331  0.03698826  1
  La3+  La76  1  0.25109265  0.11489206  -0.01986195  1
  La3+  La77  1  0.25023506  0.50875941  0.45875303  1
  La3+  La78  1  0.74999412  0.86576528  0.44228186  1
  La3+  La79  1  0.24965365  0.49946078  0.74612052  1
  La3+  La80  1  0.75061005  0.16465370  0.49569182  1
  La3+  La81  1  0.25032281  0.83210918  0.75394947  1
  La3+  La82  1  0.74949901  0.50053836  0.25879969  1
  La3+  La83  1  0.25020848  0.83461348  0.47796010  1
  Ru4+  Ru84  1  -0.00069156  -0.00347668  0.00380856  1
  Ru4+  Ru85  1  0.00781043  -0.00072846  0.25344020  1
  Ru4+  Ru86  1  0.00015636  0.00187665  0.49958744  1
  Ru4+  Ru87  1  -0.00226932  0.00206439  0.74870855  1
  Ru4+  Ru88  1  0.00415662  0.34596951  -0.00135692  1
  Ru4+  Ru89  1  0.00027667  0.33372561  0.25384688  1
  Ru4+  Ru90  1  0.00191307  0.32883366  0.50559208  1
  Ru4+  Ru91  1  0.00194820  0.32976899  0.73745062  1
  Ru4+  Ru92  1  0.00295174  0.66889756  -0.00244369  1
  Ru4+  Ru93  1  -0.00053226  0.67557309  0.24445632  1
  Ru4+  Ru94  1  -0.00184741  0.66611783  0.50262870  1
  Ru4+  Ru95  1  -0.00069475  0.66660199  0.75478791  1
  Ru4+  Ru96  1  0.50303493  0.00037247  -0.00581855  1
  Ru4+  Ru97  1  0.49919437  -0.00797157  0.24962794  1
  Ru4+  Ru98  1  0.49502871  -0.00329804  0.49839371  1
  Ru4+  Ru99  1  0.49656918  -0.00423245  0.74594277  1
  Ru4+  Ru100  1  0.49214645  0.33396443  0.00398966  1
  Ru4+  Ru101  1  0.50519922  0.32766828  0.24362284  1
  Ru4+  Ru102  1  0.50098512  0.34119087  0.49648729  1
  Ru4+  Ru103  1  0.49972430  0.33626380  0.74679402  1
  Ru4+  Ru104  1  0.49463835  0.67391777  0.01209918  1
  Ru4+  Ru105  1  0.50160035  0.66219926  0.24205277  1
  Ru4+  Ru106  1  0.49525749  0.67074440  0.50258079  1
  Ru4+  Ru107  1  0.50194249  0.66690233  0.74271887  1
  Ru4+  Ru108  1  0.11264642  0.16460818  -0.00523059  1
  Ru4+  Ru109  1  0.11505391  0.16620787  0.25375587  1
  Ru4+  Ru110  1  0.11513220  0.16539961  0.49952105  1
  Ru4+  Ru111  1  0.11139877  0.16608403  0.74806683  1
  Ru4+  Ru112  1  0.10763238  0.50005623  -0.00104053  1
  Ru4+  Ru113  1  0.11662394  0.49763065  0.25226361  1
  Ru4+  Ru114  1  0.11044335  0.50294074  0.50198795  1
  Ru4+  Ru115  1  0.10874463  0.49888851  0.74962586  1
  Ru4+  Ru116  1  0.11403735  0.83484054  0.00107365  1
  Ru4+  Ru117  1  0.11177189  0.83564401  0.24972424  1
  Ru4+  Ru118  1  0.11098127  0.83334880  0.50151808  1
  Ru4+  Ru119  1  0.11325168  0.83758683  0.75164329  1
  Ru4+  Ru120  1  0.61337392  0.16255914  -0.00121865  1
  Ru4+  Ru121  1  0.61234354  0.17140340  0.25068526  1
  Ru4+  Ru122  1  0.61287158  0.17327641  0.50217843  1
  Ru4+  Ru123  1  0.61406176  0.17118969  0.75030888  1
  Ru4+  Ru124  1  0.61339381  0.50520389  -0.00109853  1
  Ru4+  Ru125  1  0.61042832  0.50088945  0.24976301  1
  Ru4+  Ru126  1  0.61608516  0.49699421  0.49981187  1
  Ru4+  Ru127  1  0.61476903  0.49915518  0.74917480  1
  Ru4+  Ru128  1  0.60893393  0.83246606  -0.00033919  1
  Ru4+  Ru129  1  0.61130523  0.83439531  0.24885315  1
  Ru4+  Ru130  1  0.61083442  0.83421062  0.49939072  1
  Ru4+  Ru131  1  0.61143388  0.83341287  0.74860362  1
  Ru4+  Ru132  1  0.38923656  0.16798929  -0.00058342  1
  Ru4+  Ru133  1  0.38771874  0.16424291  0.24835358  1
  Ru4+  Ru134  1  0.38215308  0.16590380  0.50187495  1
  Ru4+  Ru135  1  0.38665570  0.16583318  0.75086986  1
  Ru4+  Ru136  1  0.38991174  0.49962931  0.00576126  1
  Ru4+  Ru137  1  0.38589720  0.50134180  0.25031641  1
  Ru4+  Ru138  1  0.38882098  0.49853563  0.50125858  1
  Ru4+  Ru139  1  0.38847103  0.49995755  0.74577268  1
  Ru4+  Ru140  1  0.38836860  0.83103288  0.00208951  1
  Ru4+  Ru141  1  0.38798414  0.83490748  0.24888253  1
  Ru4+  Ru142  1  0.38897101  0.83242253  0.49862467  1
  Ru4+  Ru143  1  0.38859546  0.83748550  0.75215610  1
  Ru4+  Ru144  1  0.88109716  0.16243700  -0.00292420  1
  Ru4+  Ru145  1  0.88509063  0.16418864  0.25364379  1
  Ru4+  Ru146  1  0.89038861  0.16653647  0.50125856  1
  Ru4+  Ru147  1  0.88479958  0.17111511  0.74955674  1
  Ru4+  Ru148  1  0.88870838  0.49652831  0.00257284  1
  Ru4+  Ru149  1  0.88780938  0.50293770  0.24854371  1
  Ru4+  Ru150  1  0.88349399  0.50762763  0.50134475  1
  Ru4+  Ru151  1  0.88337296  0.49939461  0.74967879  1
  Ru4+  Ru152  1  0.89033416  0.83386762  -0.00038636  1
  Ru4+  Ru153  1  0.88325184  0.82666026  0.25156480  1
  Ru4+  Ru154  1  0.89071944  0.83285441  0.49985916  1
  Ru4+  Ru155  1  0.88893051  0.83232801  0.74941374  1
  Ru4+  Ru156  1  0.74996724  0.58290816  -0.00360981  1
  Ru4+  Ru157  1  0.75013524  0.72074446  0.72929933  1
  Ru4+  Ru158  1  0.74897426  0.08707946  -0.01537339  1
  Ru4+  Ru159  1  0.74978467  0.10485549  0.74715745  1
  Ru4+  Ru160  1  0.75016578  0.24485096  0.25421949  1
  Ru4+  Ru161  1  0.24978412  0.40526880  0.02103498  1
  Ru4+  Ru162  1  0.75002077  0.74425563  0.00233218  1
  Ru4+  Ru163  1  0.24998942  0.75006833  0.24590097  1
  Ru4+  Ru164  1  0.74982952  0.91264497  0.25508818  1
  Ru4+  Ru165  1  0.74962391  0.24956240  -0.00518898  1
  Ru4+  Ru166  1  0.74985627  0.97233380  0.73607708  1
  Ru4+  Ru167  1  0.25027095  0.09531187  0.74115599  1
  Ru4+  Ru168  1  0.74997100  0.03030072  0.51711232  1
  Ru4+  Ru169  1  0.25018617  0.26187270  0.01758658  1
  Ru4+  Ru170  1  0.24996060  0.64505797  0.49397721  1
  Ru4+  Ru171  1  0.25022244  0.23780311  0.74407821  1
  Ru4+  Ru172  1  0.75046062  0.43212471  0.50110059  1
  Ru4+  Ru173  1  0.25013480  0.75765422  -0.00029077  1
  Ru4+  Ru174  1  0.25042481  0.25773693  0.26089084  1
  Ru4+  Ru175  1  0.75012541  0.30193714  0.51088216  1
  Ru4+  Ru176  1  0.24987919  0.37827149  0.49922049  1
  Ru4+  Ru177  1  0.24989095  0.07696415  0.26269566  1
  Ru4+  Ru178  1  0.74894624  0.75591716  0.25747342  1
  Ru4+  Ru179  1  0.75022231  0.72208506  0.50846995  1
  O2-  O180  1  0.16470796  0.07657839  0.00871019  1
  O2-  O181  1  0.16941965  0.08109723  0.24669417  1
  O2-  O182  1  0.16537431  0.08170530  0.49936559  1
  O2-  O183  1  0.16854920  0.08414360  0.74877684  1
  O2-  O184  1  0.16600887  0.41326126  0.00236401  1
  O2-  O185  1  0.16507937  0.41473901  0.25156138  1
  O2-  O186  1  0.16592592  0.41031340  0.49850166  1
  O2-  O187  1  0.16561669  0.41488020  0.74923575  1
  O2-  O188  1  0.16733104  0.74837947  0.00179408  1
  O2-  O189  1  0.16893030  0.74824320  0.25175828  1
  O2-  O190  1  0.16870445  0.74512594  0.49537437  1
  O2-  O191  1  0.16523744  0.74795815  0.74783010  1
  O2-  O192  1  0.66728195  0.08277187  -0.00030250  1
  O2-  O193  1  0.66262646  0.08419480  0.25084334  1
  O2-  O194  1  0.66583720  0.07703802  0.49966075  1
  O2-  O195  1  0.66630053  0.08085857  0.74833282  1
  O2-  O196  1  0.66429285  0.40995229  0.00029936  1
  O2-  O197  1  0.66872878  0.41565734  0.24862977  1
  O2-  O198  1  0.66662978  0.41408063  0.50131365  1
  O2-  O199  1  0.66314229  0.41394138  0.75189636  1
  O2-  O200  1  0.66460384  0.74682454  -0.00017793  1
  O2-  O201  1  0.66479560  0.74877049  0.25319743  1
  O2-  O202  1  0.66906493  0.74505080  0.49877083  1
  O2-  O203  1  0.66664055  0.74460408  0.75118869  1
  O2-  O204  1  0.33296102  0.25294131  0.00164383  1
  O2-  O205  1  0.33543808  0.25208788  0.25159589  1
  O2-  O206  1  0.33644358  0.25108126  0.50026535  1
  O2-  O207  1  0.33290221  0.25275022  0.74819059  1
  O2-  O208  1  0.33477626  0.58615855  -0.00339464  1
  O2-  O209  1  0.33384305  0.58369403  0.25293769  1
  O2-  O210  1  0.33302415  0.58754964  0.49800761  1
  O2-  O211  1  0.33120656  0.58262834  0.75121615  1
  O2-  O212  1  0.33778603  0.91586066  0.00351617  1
  O2-  O213  1  0.33394797  0.91879004  0.24865675  1
  O2-  O214  1  0.33211732  0.91820672  0.49937347  1
  O2-  O215  1  0.33124448  0.91850209  0.74593530  1
  O2-  O216  1  0.83186697  0.25365930  0.00133665  1
  O2-  O217  1  0.83315305  0.25455445  0.25235060  1
  O2-  O218  1  0.83498185  0.25665927  0.49885724  1
  O2-  O219  1  0.83142164  0.24949607  0.74831595  1
  O2-  O220  1  0.83567833  0.58700276  0.00055285  1
  O2-  O221  1  0.83361151  0.58638571  0.25201933  1
  O2-  O222  1  0.83144411  0.58700225  0.49822233  1
  O2-  O223  1  0.83578179  0.58629433  0.74942092  1
  O2-  O224  1  0.83732166  0.92154576  0.00143646  1
  O2-  O225  1  0.83073460  0.91832396  0.25026324  1
  O2-  O226  1  0.83185666  0.92107156  0.50181338  1
  O2-  O227  1  0.83183646  0.92376308  0.74747733  1
  O2-  O228  1  0.16478967  0.25250579  0.00151101  1
  O2-  O229  1  0.16606599  0.25259196  0.25075499  1
  O2-  O230  1  0.16296902  0.25153153  0.49837709  1
  O2-  O231  1  0.16811285  0.24808216  0.74785611  1
  O2-  O232  1  0.16318749  0.58909225  0.00098584  1
  O2-  O233  1  0.16601883  0.58586688  0.25278047  1
  O2-  O234  1  0.16608897  0.58838462  0.49650512  1
  O2-  O235  1  0.16653341  0.58654749  0.74829321  1
  O2-  O236  1  0.16459196  0.91801743  0.00526661  1
  O2-  O237  1  0.16676529  0.91717877  0.24844176  1
  O2-  O238  1  0.16629485  0.91900779  0.49781233  1
  O2-  O239  1  0.17087625  0.91773509  0.74433026  1
  O2-  O240  1  0.66648623  0.25395681  0.00059431  1
  O2-  O241  1  0.66818391  0.25328874  0.24863791  1
  O2-  O242  1  0.66607109  0.25569715  0.50046818  1
  O2-  O243  1  0.66643771  0.25141448  0.75044520  1
  O2-  O244  1  0.66513489  0.58775782  0.00093548  1
  O2-  O245  1  0.66881285  0.58412635  0.25158539  1
  O2-  O246  1  0.66626082  0.58661476  0.49920037  1
  O2-  O247  1  0.66224494  0.58621902  0.75021860  1
  O2-  O248  1  0.66056312  0.92283937  -0.00101269  1
  O2-  O249  1  0.66740573  0.91890382  0.25352815  1
  O2-  O250  1  0.66805515  0.92012137  0.50096893  1
  O2-  O251  1  0.66808676  0.92314534  0.75106996  1
  O2-  O252  1  0.34109817  0.07773627  0.00612145  1
  O2-  O253  1  0.33208725  0.07968960  0.24885467  1
  O2-  O254  1  0.33554802  0.08023325  0.49842266  1
  O2-  O255  1  0.33385112  0.08138522  0.74721307  1
  O2-  O256  1  0.33338951  0.41498370  0.00007914  1
  O2-  O257  1  0.33725038  0.41530497  0.25231330  1
  O2-  O258  1  0.33213754  0.40997337  0.50093844  1
  O2-  O259  1  0.33221835  0.41570839  0.74687961  1
  O2-  O260  1  0.33197831  0.74903806  -0.00238127  1
  O2-  O261  1  0.33025677  0.75068484  0.25257264  1
  O2-  O262  1  0.32920345  0.74834139  0.49758164  1
  O2-  O263  1  0.33563873  0.74949218  0.75019841  1
  O2-  O264  1  0.83115150  0.07930505  0.00270337  1
  O2-  O265  1  0.83480188  0.08101482  0.24991553  1
  O2-  O266  1  0.83465715  0.07728376  0.50232960  1
  O2-  O267  1  0.83385919  0.08177644  0.74753349  1
  O2-  O268  1  0.83328278  0.41140181  -0.00024004  1
  O2-  O269  1  0.83238509  0.41337732  0.25125879  1
  O2-  O270  1  0.83365804  0.41471629  0.49825802  1
  O2-  O271  1  0.83487547  0.41396856  0.75151598  1
  O2-  O272  1  0.83568217  0.74588223  0.00209125  1
  O2-  O273  1  0.83233280  0.74622750  0.25228410  1
  O2-  O274  1  0.83321610  0.74512603  0.49758221  1
  O2-  O275  1  0.83542415  0.74647730  0.75015721  1
  O2-  O276  1  0.45808725  0.43756052  0.75806630  1
  O2-  O277  1  0.04349081  0.76419216  0.24239496  1
  O2-  O278  1  0.46314806  0.77825780  0.96050934  1
  O2-  O279  1  0.94969741  0.23954106  0.26060475  1
  O2-  O280  1  0.04838353  0.09406740  0.50880447  1
  O2-  O281  1  0.54815295  0.10229317  0.51710920  1
  O2-  O282  1  0.55069027  0.56744927  0.48673955  1
  O2-  O283  1  0.04828877  0.09885882  0.03942847  1
  O2-  O284  1  0.04507998  0.89789285  0.00979826  1
  O2-  O285  1  0.54964541  0.43300362  0.98564349  1
  O2-  O286  1  0.45123018  0.23358484  0.51564265  1
  O2-  O287  1  0.95494555  0.56976850  0.01484856  1
  O2-  O288  1  0.04465225  0.76343874  0.76125098  1
  O2-  O289  1  0.46318116  0.56917656  0.79444955  1
  O2-  O290  1  0.04382505  0.22230016  0.70555703  1
  O2-  O291  1  0.45030782  0.56647000  0.51159683  1
  O2-  O292  1  0.53346242  0.22175635  0.20520633  1
  O2-  O293  1  0.95586102  0.43146894  0.73753650  1
  O2-  O294  1  0.95709178  0.89366124  0.24263760  1
  O2-  O295  1  0.54472739  0.57093513  0.52482101  1
  O2-  O296  1  0.94937525  0.90424345  0.70536643  1
  O2-  O297  1  0.95823134  0.89261062  0.23520400  1
  O2-  O298  1  0.04749435  0.56772607  0.26938643  1
  O2-  O299  1  0.94720127  0.09214393  0.26196530  1
  O2-  O300  1  0.45333981  0.56330235  0.95955048  1
  O2-  O301  1  0.54591884  0.90097616  0.99254906  1
  O2-  O302  1  0.94825954  0.43559071  0.48769578  1
  O2-  O303  1  0.05211096  0.24386039  0.23869505  1
  O2-  O304  1  0.05069789  0.42717384  0.24251725  1
  O2-  O305  1  0.45273180  0.90066474  0.25343986  1
  O2-  O306  1  0.54972759  0.23733230  0.98525338  1
  O2-  O307  1  0.45461325  0.89891654  0.24431233  1
  O2-  O308  1  0.04661626  0.43599441  0.50809823  1
  O2-  O309  1  0.05541543  0.90562760  0.23940300  1
  O2-  O310  1  0.45289943  0.42748976  0.73302986  1
  O2-  O311  1  0.54491041  0.10182642  0.74106138  1
  O2-  O312  1  0.03750435  0.11331471  0.26397002  1
  O2-  O313  1  0.46401317  0.78515082  0.53181857  1
  O2-  O314  1  0.45392888  0.56261608  0.26318666  1
  O2-  O315  1  0.04408223  0.89176121  0.70766590  1
  O2-  O316  1  0.03753430  0.10436956  0.78134137  1
  O2-  O317  1  0.95481979  0.20753333  0.71370143  1
  O2-  O318  1  0.95029444  0.43069152  0.23731152  1
  O2-  O319  1  0.46123219  0.88351323  0.72045702  1
  O2-  O320  1  0.54356156  0.09452787  0.47922691  1
  O2-  O321  1  0.95447488  0.56987077  0.76126705  1
  O2-  O322  1  0.55218224  0.09616539  0.26762376  1
  O2-  O323  1  0.95493847  0.23531649  0.99281060  1
  O2-  O324  1  0.93940912  0.92340721  0.97338560  1
  O2-  O325  1  0.06327639  0.73579372  0.53196551  1
  O2-  O326  1  0.43308762  0.40132651  0.78248851  1
  O2-  O327  1  0.07957263  0.26862026  0.80239972  1
  O2-  O328  1  0.44425277  0.59235535  0.94225967  1
  O2-  O329  1  0.56540863  0.92952549  0.21803477  1
  O2-  O330  1  0.94368930  0.91532408  0.69920283  1
  O2-  O331  1  0.43617982  0.40800776  0.02438019  1
  O2-  O332  1  0.56442671  0.07421790  0.97613727  1
  O2-  O333  1  0.08034971  0.93126460  0.81290116  1
  O2-  O334  1  0.55702726  0.40749571  0.96040817  1
  O2-  O335  1  0.43600394  0.92361825  0.47342305  1
  O2-  O336  1  0.93826578  0.92909276  0.53265283  1
  O2-  O337  1  0.93832906  0.24753720  0.96635819  1
  O2-  O338  1  0.57201843  0.26905092  0.31438050  1
  O2-  O339  1  0.06286193  0.74478265  0.97297055  1
  O2-  O340  1  0.05591109  0.08888400  0.04613911  1
  O2-  O341  1  0.43552757  0.06838285  0.21859889  1
  O2-  O342  1  0.93123267  0.94299434  0.83233894  1
  O2-  O343  1  0.56389884  0.73582794  0.71968636  1
  O2-  O344  1  0.42742376  0.95127325  0.81411265  1
  O2-  O345  1  0.08020978  0.07532040  0.91573767  1
  O2-  O346  1  0.91898397  0.93677477  0.29011798  1
  O2-  O347  1  0.56684485  0.59106188  0.22499819  1
  O2-  O348  1  0.93709489  0.59250987  0.52407901  1
  O2-  O349  1  0.07058059  0.05321114  0.68517594  1
  O2-  O350  1  0.43915317  0.25523890  0.78230998  1
  O2-  O351  1  0.56249212  0.26432088  0.96858768  1
  O2-  O352  1  0.56110106  0.41235608  0.28330262  1
  O2-  O353  1  0.93698498  0.40445542  0.03822303  1
  O2-  O354  1  0.93743729  0.07522891  0.96674711  1
  O2-  O355  1  0.56015965  0.06559818  0.28405835  1
  O2-  O356  1  0.42525060  0.72990186  0.06295141  1
  O2-  O357  1  0.43710725  0.25869973  0.96625453  1
  O2-  O358  1  0.42082497  0.72943082  0.44662634  1
  O2-  O359  1  0.42951840  0.59352243  0.08861128  1
  O2-  O360  1  0.42058129  0.59268033  0.66901829  1
  O2-  O361  1  0.56467566  0.92362199  0.52349447  1
  O2-  O362  1  0.08175092  0.05345859  0.27986831  1
  O2-  O363  1  0.92246335  0.26894327  0.80545406  1
  O2-  O364  1  0.56794594  0.92527983  0.72538632  1
  O2-  O365  1  0.56005464  0.26594440  0.78158389  1
  O2-  O366  1  0.43893836  0.26179852  0.53140109  1
  O2-  O367  1  0.56501679  0.74290084  0.47399750  1
  O2-  O368  1  0.44369641  0.58805018  0.80727617  1
  O2-  O369  1  0.06078937  0.59529083  0.28376334  1
  O2-  O370  1  0.43562443  0.40638172  0.47593132  1
  O2-  O371  1  0.93550021  0.40786780  0.47225929  1
  O2-  O372  1  0.24886322  0.67015084  0.60833028  1
  O2-  O373  1  0.74995364  0.00892922  0.06597102  1
  O2-  O374  1  0.74903832  0.33395132  0.63502428  1
  O2-  O375  1  0.25013041  0.33846048  0.67848505  1
  O2-  O376  1  0.25014391  -0.00249861  0.34768540  1
  O2-  O377  1  0.25003383  0.33409243  0.92509596  1
  O2-  O378  1  0.25038137  0.66488569  0.82911865  1
  O2-  O379  1  0.24992283  0.32930513  0.15383989  1
  O2-  O380  1  0.74950804  0.65551093  0.62947915  1
  O2-  O381  1  0.74994972  0.64507046  0.82009844  1
  O2-  O382  1  0.74925781  -0.00219662  0.90013025  1
  O2-  O383  1  0.74983708  -0.00397360  0.39121721  1
  O2-  O384  1  0.74975329  0.33420165  0.15306746  1
  O2-  O385  1  0.74980140  0.66851646  0.90956102  1
  O2-  O386  1  0.25037046  0.66919077  0.92091539  1
  O2-  O387  1  0.25008929  0.33480564  0.80856958  1
  O2-  O388  1  0.24911898  0.67215607  0.09541656  1
  O2-  O389  1  0.25077015  -0.00210685  0.91728586  1
  O2-  O390  1  0.25088802  -0.00114305  0.82410789  1
  O2-  O391  1  0.75030952  0.00109849  0.19221989  1
  O2-  O392  1  0.75021585  0.66215918  0.20387531  1
  O2-  O393  1  0.75039299  0.66276138  0.08153925  1
  O2-  O394  1  0.25028951  0.31164518  0.59368901  1
  O2-  O395  1  0.24939715  0.32767969  0.38520001  1
  O2-  O396  1  0.74986205  0.15477191  0.64147623  1
  O2-  O397  1  0.74983065  0.49659953  0.66655913  1
  O2-  O398  1  0.75005346  0.17639679  0.35488002  1
  O2-  O399  1  0.25023665  0.49938080  0.18440526  1
  O2-  O400  1  0.24958750  0.49544180  0.60745152  1
  O2-  O401  1  0.74997318  0.49603343  0.40189667  1
  O2-  O402  1  0.25021472  0.16810675  0.18876201  1
  O2-  O403  1  0.75027811  0.16782443  0.06780253  1
  O2-  O404  1  0.74993711  0.82120527  0.91816824  1
  O2-  O405  1  0.74992383  0.49993116  0.81942263  1
  O2-  O406  1  0.24985094  0.16852891  0.33862833  1
  O2-  O407  1  0.75016670  0.82744957  0.65975463  1
  O2-  O408  1  0.25007809  0.49374593  0.09860070  1
  O2-  O409  1  0.24960705  0.83708360  0.61216811  1
  O2-  O410  1  0.75033777  0.16398243  0.19138292  1
  O2-  O411  1  0.74979686  0.50417595  0.90474795  1
  O2-  O412  1  0.24998307  0.17660113  0.85426513  1
  O2-  O413  1  0.24979102  0.82918984  0.91398147  1
  O2-  O414  1  0.74972689  0.50810423  0.58474465  1
  O2-  O415  1  0.75011582  0.82197325  0.57245315  1
  O2-  O416  1  0.75001466  0.82877014  0.16355401  1
  O2-  O417  1  0.75008839  0.16098597  0.84647575  1
  O2-  O418  1  0.24997497  0.16131789  0.62253128  1
  O2-  O419  1  0.24969469  0.17975056  0.10224864  1
  O2-  O420  1  0.04273941  0.65078715  0.86693547  1
  O2-  O421  1  0.96327229  0.00628879  0.38887077  1
  O2-  O422  1  0.04545914  0.33620365  0.62254017  1
  O2-  O423  1  0.02164612  -0.00307606  0.13328842  1
  O2-  O424  1  0.53154486  0.66339432  0.36856951  1
  O2-  O425  1  0.48135954  0.67659491  0.62327235  1
  O2-  O426  1  0.52697075  0.67264440  0.12159460  1
  O2-  O427  1  0.97822674  0.33057935  0.37545225  1
  O2-  O428  1  0.95566580  0.33434724  0.61790058  1
  O2-  O429  1  0.47329565  0.32988061  0.13484895  1
  O2-  O430  1  0.52491391  -0.00459293  0.86682905  1
  O2-  O431  1  0.47273613  0.66026761  0.36506946  1
  O2-  O432  1  0.01336859  -0.00554281  0.87937193  1
  O2-  O433  1  0.95460594  0.67363353  0.87960124  1
  O2-  O434  1  0.03775464  -0.01298391  0.38400114  1
  O2-  O435  1  0.53382238  0.00765811  0.62417583  1
  O2-  O436  1  0.02709473  0.66110757  0.12118227  1
  O2-  O437  1  0.02740035  0.33362520  0.12060057  1
  O2-  O438  1  0.04516829  0.34532060  0.89183335  1
  O2-  O439  1  0.97499613  0.67544271  0.63351440  1
  O2-  O440  1  0.96190298  0.35844795  0.87889578  1
  O2-  O441  1  0.47466626  0.32465809  0.36833918  1
  O2-  O442  1  0.45591303  0.00622203  0.62269500  1
  O2-  O443  1  0.47426358  0.00996596  0.37458018  1
