# generated using pymatgen
data_La7(Ru4O11)2
_symmetry_space_group_name_H-M   'P 1'
_cell_length_a   23.99294472
_cell_length_b   16.83293139
_cell_length_c   15.42937130
_cell_angle_alpha   90.00222157
_cell_angle_beta   89.99856506
_cell_angle_gamma   90.00228798
_symmetry_Int_Tables_number   1
_chemical_formula_structural   La7(Ru4O11)2
_chemical_formula_sum   'La84 Ru96 O264'
_cell_volume   6231.48474391
_cell_formula_units_Z   12
loop_
 _symmetry_equiv_pos_site_id
 _symmetry_equiv_pos_as_xyz
  1  'x, y, z'
loop_
 _atom_type_symbol
 _atom_type_oxidation_number
  La3+  3.0
  Ru4+  4.0
  O2-  -2.0
loop_
 _atom_site_type_symbol
 _atom_site_label
 _atom_site_symmetry_multiplicity
 _atom_site_fract_x
 _atom_site_fract_y
 _atom_site_fract_z
 _atom_site_occupancy
  La3+  La0  1  0.13907179  -0.00129362  0.12169845  1
  La3+  La1  1  0.13804328  -0.00462277  0.37743739  1
  La3+  La2  1  0.13450548  -0.00098382  0.62099526  1
  La3+  La3  1  0.14294634  0.00149204  0.88130446  1
  La3+  La4  1  0.14578097  0.32947869  0.12210822  1
  La3+  La5  1  0.13651468  0.33539050  0.37707966  1
  La3+  La6  1  0.13234867  0.33166128  0.63303729  1
  La3+  La7  1  0.15147483  0.33502882  0.87546495  1
  La3+  La8  1  0.13928758  0.66586542  0.12658245  1
  La3+  La9  1  0.13954362  0.67085432  0.38441332  1
  La3+  La10  1  0.14227258  0.66715922  0.62308696  1
  La3+  La11  1  0.14160506  0.66124076  0.87530131  1
  La3+  La12  1  0.64535646  -0.00496118  0.12252839  1
  La3+  La13  1  0.64637130  -0.00697416  0.37118607  1
  La3+  La14  1  0.65279970  -0.00489241  0.62298250  1
  La3+  La15  1  0.64153317  -0.00056038  0.87719045  1
  La3+  La16  1  0.63895611  0.33344090  0.12410302  1
  La3+  La17  1  0.64070242  0.33847986  0.37628638  1
  La3+  La18  1  0.63747990  0.33503155  0.62317943  1
  La3+  La19  1  0.63904105  0.33277329  0.87479331  1
  La3+  La20  1  0.64754394  0.66968816  0.12554690  1
  La3+  La21  1  0.64488631  0.66772797  0.37350942  1
  La3+  La22  1  0.64891721  0.66319485  0.62045458  1
  La3+  La23  1  0.64563455  0.66285271  0.87771234  1
  La3+  La24  1  0.35907196  0.00152431  0.12046459  1
  La3+  La25  1  0.35942036  -0.00527791  0.37467494  1
  La3+  La26  1  0.36341368  -0.00350675  0.62367301  1
  La3+  La27  1  0.35609614  0.00043475  0.88147293  1
  La3+  La28  1  0.36215975  0.32995617  0.11666842  1
  La3+  La29  1  0.35913980  0.33910013  0.37496156  1
  La3+  La30  1  0.36188244  0.33334335  0.62964720  1
  La3+  La31  1  0.34760121  0.33800059  0.87995595  1
  La3+  La32  1  0.35956826  0.66648305  0.12499152  1
  La3+  La33  1  0.36269745  0.66554681  0.37973929  1
  La3+  La34  1  0.36036665  0.66287029  0.62310001  1
  La3+  La35  1  0.36096143  0.66335333  0.87402337  1
  La3+  La36  1  0.85644247  -0.00359932  0.12257562  1
  La3+  La37  1  0.85893161  -0.00478620  0.37553065  1
  La3+  La38  1  0.85694873  0.00105689  0.62433945  1
  La3+  La39  1  0.85748874  0.00032206  0.87837264  1
  La3+  La40  1  0.86345861  0.33418980  0.12414054  1
  La3+  La41  1  0.85432305  0.34120751  0.37355991  1
  La3+  La42  1  0.86180784  0.33095397  0.62101176  1
  La3+  La43  1  0.86599927  0.33474894  0.87537506  1
  La3+  La44  1  0.85739345  0.66915511  0.12432303  1
  La3+  La45  1  0.85709141  0.66681207  0.37149606  1
  La3+  La46  1  0.85880973  0.66805326  0.62215222  1
  La3+  La47  1  0.86315915  0.66714465  0.87647573  1
  La3+  La48  1  0.49420409  0.18479827  0.37569642  1
  La3+  La49  1  0.00040461  0.49795284  0.62668958  1
  La3+  La50  1  0.50207920  0.83902788  0.87849027  1
  La3+  La51  1  0.00310261  0.15806571  0.37883553  1
  La3+  La52  1  -0.00181438  0.17253264  0.13215930  1
  La3+  La53  1  0.00087075  0.83081554  0.89642020  1
  La3+  La54  1  0.50519396  0.50639116  0.88814431  1
  La3+  La55  1  0.48788322  0.17121063  0.36198819  1
  La3+  La56  1  0.00177330  0.83567445  0.62775542  1
  La3+  La57  1  0.49983051  0.83328422  0.11823022  1
  La3+  La58  1  0.50260627  0.50509728  0.11134237  1
  La3+  La59  1  0.50382020  0.50903107  0.87164975  1
  La3+  La60  1  0.51031411  0.15831348  0.63107221  1
  La3+  La61  1  0.00079194  0.16898285  0.85853177  1
  La3+  La62  1  -0.00053759  0.15385970  0.62254436  1
  La3+  La63  1  0.00082486  0.49748271  0.36421858  1
  La3+  La64  1  0.49719646  0.16536599  0.12122154  1
  La3+  La65  1  0.50322656  0.16312084  0.87157466  1
  La3+  La66  1  0.50785987  0.15559957  0.63053414  1
  La3+  La67  1  -0.00230802  0.49296866  0.87157452  1
  La3+  La68  1  0.49881474  0.17487363  0.88879401  1
  La3+  La69  1  0.00166057  0.16361325  0.11295217  1
  La3+  La70  1  0.00631707  0.82634206  0.87687540  1
  La3+  La71  1  0.50469380  0.82766607  0.37008741  1
  La3+  La72  1  0.74976238  0.21200364  0.74100973  1
  La3+  La73  1  0.24942867  0.17112788  0.44858121  1
  La3+  La74  1  0.75029459  0.15864423  0.00654844  1
  La3+  La75  1  0.24859360  0.81940311  0.78740881  1
  La3+  La76  1  0.25015354  0.49615448  -0.01069321  1
  La3+  La77  1  0.25041745  0.12152720  0.27582501  1
  La3+  La78  1  0.74986088  0.49748720  0.02836612  1
  La3+  La79  1  0.75080453  0.54546627  0.76322439  1
  La3+  La80  1  0.24985944  0.79956412  0.28089039  1
  La3+  La81  1  0.75018508  0.87642615  0.77521683  1
  La3+  La82  1  0.75047728  0.15955060  0.28239493  1
  La3+  La83  1  0.24998491  0.51076523  0.27523686  1
  Ru4+  Ru84  1  -0.00264797  0.00469082  0.01021543  1
  Ru4+  Ru85  1  0.00088805  -0.00725063  0.24736282  1
  Ru4+  Ru86  1  0.00276522  -0.00011432  0.48660652  1
  Ru4+  Ru87  1  0.00108473  0.00035802  0.75169228  1
  Ru4+  Ru88  1  0.00752294  0.35268352  0.00020442  1
  Ru4+  Ru89  1  0.00065422  0.33563472  0.24818988  1
  Ru4+  Ru90  1  0.00010676  0.33774666  0.50603876  1
  Ru4+  Ru91  1  0.00416676  0.32891807  0.75095219  1
  Ru4+  Ru92  1  -0.00657936  0.66164704  0.00332717  1
  Ru4+  Ru93  1  0.00101451  0.66472532  0.25297781  1
  Ru4+  Ru94  1  0.00168603  0.66854184  0.49884377  1
  Ru4+  Ru95  1  -0.00061878  0.66922368  0.75339185  1
  Ru4+  Ru96  1  0.50236249  -0.00244570  0.00399082  1
  Ru4+  Ru97  1  0.50383733  -0.00039646  0.24083800  1
  Ru4+  Ru98  1  0.50890828  0.00475206  0.49775147  1
  Ru4+  Ru99  1  0.49995860  -0.00486127  0.74887663  1
  Ru4+  Ru100  1  0.50195543  0.33575223  -0.00337981  1
  Ru4+  Ru101  1  0.50103038  0.33850891  0.25048541  1
  Ru4+  Ru102  1  0.49518552  0.34090920  0.50046293  1
  Ru4+  Ru103  1  0.49829222  0.34028009  0.74786779  1
  Ru4+  Ru104  1  0.49999734  0.66406741  -0.00120669  1
  Ru4+  Ru105  1  0.50633596  0.64911347  0.24993319  1
  Ru4+  Ru106  1  0.49909129  0.66751561  0.50738010  1
  Ru4+  Ru107  1  0.49568252  0.66516639  0.74143269  1
  Ru4+  Ru108  1  0.11471537  0.16449225  -0.00135984  1
  Ru4+  Ru109  1  0.11034543  0.17028883  0.25075476  1
  Ru4+  Ru110  1  0.11135462  0.16808507  0.49957759  1
  Ru4+  Ru111  1  0.11318044  0.17578765  0.75551518  1
  Ru4+  Ru112  1  0.10365406  0.48621005  0.00282181  1
  Ru4+  Ru113  1  0.10718655  0.50394010  0.25026464  1
  Ru4+  Ru114  1  0.11464486  0.50130242  0.50015341  1
  Ru4+  Ru115  1  0.11676557  0.49696412  0.74985963  1
  Ru4+  Ru116  1  0.11342877  0.83644568  0.00016233  1
  Ru4+  Ru117  1  0.10765534  0.83561828  0.24783968  1
  Ru4+  Ru118  1  0.11360142  0.83195635  0.49963424  1
  Ru4+  Ru119  1  0.10758843  0.83296267  0.75055931  1
  Ru4+  Ru120  1  0.61376374  0.16603067  0.00142343  1
  Ru4+  Ru121  1  0.61046996  0.16232318  0.24597119  1
  Ru4+  Ru122  1  0.61550308  0.16898422  0.50058356  1
  Ru4+  Ru123  1  0.60890543  0.16656620  0.74885840  1
  Ru4+  Ru124  1  0.60609790  0.49969568  -0.00121161  1
  Ru4+  Ru125  1  0.60735637  0.50807506  0.25317336  1
  Ru4+  Ru126  1  0.61419772  0.49674977  0.49978665  1
  Ru4+  Ru127  1  0.60995045  0.50183391  0.75001812  1
  Ru4+  Ru128  1  0.61189641  0.83670552  0.00052698  1
  Ru4+  Ru129  1  0.61366554  0.83771711  0.25062448  1
  Ru4+  Ru130  1  0.61410020  0.82745546  0.50259090  1
  Ru4+  Ru131  1  0.60726939  0.83518953  0.74620777  1
  Ru4+  Ru132  1  0.38075005  0.16604371  -0.00055563  1
  Ru4+  Ru133  1  0.39050089  0.16588381  0.24926128  1
  Ru4+  Ru134  1  0.38553018  0.16926662  0.50045066  1
  Ru4+  Ru135  1  0.38261609  0.17266130  0.75190089  1
  Ru4+  Ru136  1  0.38801668  0.50372667  0.00015575  1
  Ru4+  Ru137  1  0.39114283  0.50207835  0.25171036  1
  Ru4+  Ru138  1  0.39003123  0.50318450  0.49978091  1
  Ru4+  Ru139  1  0.38469841  0.49808098  0.74648467  1
  Ru4+  Ru140  1  0.38656709  0.83444883  0.00037419  1
  Ru4+  Ru141  1  0.38962343  0.83598117  0.24744185  1
  Ru4+  Ru142  1  0.38357936  0.83236265  0.49880034  1
  Ru4+  Ru143  1  0.38758342  0.83601872  0.74576238  1
  Ru4+  Ru144  1  0.88954017  0.16343489  -0.00286990  1
  Ru4+  Ru145  1  0.88875360  0.16997511  0.25126670  1
  Ru4+  Ru146  1  0.88563236  0.16842349  0.49567609  1
  Ru4+  Ru147  1  0.88776839  0.16848239  0.75117527  1
  Ru4+  Ru148  1  0.89330723  0.50503695  0.00046887  1
  Ru4+  Ru149  1  0.88623580  0.50565794  0.24810654  1
  Ru4+  Ru150  1  0.88751311  0.49433937  0.50168055  1
  Ru4+  Ru151  1  0.89005277  0.49940274  0.74950155  1
  Ru4+  Ru152  1  0.88865311  0.83473488  0.00124059  1
  Ru4+  Ru153  1  0.89029086  0.83179847  0.24941657  1
  Ru4+  Ru154  1  0.88404016  0.83285470  0.50085749  1
  Ru4+  Ru155  1  0.88872195  0.83643459  0.74584640  1
  Ru4+  Ru156  1  0.24992689  0.04640234  0.52340626  1
  Ru4+  Ru157  1  0.24966520  0.93221683  0.22554526  1
  Ru4+  Ru158  1  0.75001920  0.76290509  0.24801872  1
  Ru4+  Ru159  1  0.74998568  0.39537283  0.74769595  1
  Ru4+  Ru160  1  0.75030006  0.08406310  0.50249606  1
  Ru4+  Ru161  1  0.75015508  0.02525425  0.23208550  1
  Ru4+  Ru162  1  0.74962627  0.06222961  0.77366886  1
  Ru4+  Ru163  1  0.25072840  0.25363786  0.22450671  1
  Ru4+  Ru164  1  0.74976412  0.36479695  -0.01742864  1
  Ru4+  Ru165  1  0.74944935  0.76911128  0.01008853  1
  Ru4+  Ru166  1  0.24967374  0.09259658  0.75443287  1
  Ru4+  Ru167  1  0.75040233  0.24879338  0.50418706  1
  Ru4+  Ru168  1  0.74990788  0.63640673  -0.00298197  1
  Ru4+  Ru169  1  0.75010292  0.58190231  0.49205124  1
  Ru4+  Ru170  1  0.25023219  0.43460521  0.50700023  1
  Ru4+  Ru171  1  0.24966363  0.28219461  0.54102149  1
  Ru4+  Ru172  1  0.74963995  0.29784272  0.24582084  1
  Ru4+  Ru173  1  0.75023600  0.73628514  0.75000302  1
  Ru4+  Ru174  1  0.24945919  0.75467907  0.00248325  1
  Ru4+  Ru175  1  0.24991168  0.68194996  0.75782406  1
  Ru4+  Ru176  1  0.24919094  0.94244933  0.72844830  1
  Ru4+  Ru177  1  0.24956859  0.64689464  0.26109918  1
  Ru4+  Ru178  1  0.75009586  0.43054042  0.24584085  1
  Ru4+  Ru179  1  0.25063991  0.39189266  0.20886046  1
  O2-  O180  1  0.16635110  0.08133702  0.00210223  1
  O2-  O181  1  0.16380068  0.07600742  0.24826894  1
  O2-  O182  1  0.16808937  0.07841249  0.49881029  1
  O2-  O183  1  0.16349136  0.08233937  0.75012870  1
  O2-  O184  1  0.16696787  0.41922368  0.00218736  1
  O2-  O185  1  0.16494023  0.41321515  0.25152991  1
  O2-  O186  1  0.16597130  0.41580178  0.50130165  1
  O2-  O187  1  0.16867750  0.41718529  0.74688852  1
  O2-  O188  1  0.16754711  0.74624590  0.00180062  1
  O2-  O189  1  0.16124984  0.74666277  0.25003900  1
  O2-  O190  1  0.16713790  0.75065304  0.50167491  1
  O2-  O191  1  0.16601814  0.74396731  0.75290041  1
  O2-  O192  1  0.66533498  0.08126045  -0.00169013  1
  O2-  O193  1  0.66985512  0.07785503  0.25029280  1
  O2-  O194  1  0.66785302  0.08512256  0.49791986  1
  O2-  O195  1  0.66742283  0.08056147  0.75368873  1
  O2-  O196  1  0.66707112  0.41042868  0.00038020  1
  O2-  O197  1  0.66629915  0.41691492  0.24802141  1
  O2-  O198  1  0.66339815  0.41411284  0.50186768  1
  O2-  O199  1  0.66815252  0.41237873  0.75014974  1
  O2-  O200  1  0.66702535  0.74912135  0.00005717  1
  O2-  O201  1  0.66548466  0.74949402  0.24926947  1
  O2-  O202  1  0.66731149  0.75334897  0.49844238  1
  O2-  O203  1  0.66814357  0.75036677  0.75313001  1
  O2-  O204  1  0.33226827  0.25061055  0.00136779  1
  O2-  O205  1  0.33449843  0.25240276  0.24738967  1
  O2-  O206  1  0.32860125  0.25426456  0.50210727  1
  O2-  O207  1  0.32835091  0.24761961  0.74493824  1
  O2-  O208  1  0.33526097  0.58823865  0.00265026  1
  O2-  O209  1  0.33267147  0.58703911  0.25019115  1
  O2-  O210  1  0.33230887  0.58414750  0.49839101  1
  O2-  O211  1  0.33280789  0.58307622  0.75222131  1
  O2-  O212  1  0.33638174  0.91690000  0.00069323  1
  O2-  O213  1  0.32969525  0.91944997  0.25209466  1
  O2-  O214  1  0.33755542  0.91995222  0.50204835  1
  O2-  O215  1  0.33414752  0.92354136  0.75087938  1
  O2-  O216  1  0.83515511  0.25307418  -0.00061360  1
  O2-  O217  1  0.83407619  0.25501924  0.24886081  1
  O2-  O218  1  0.83012926  0.25048297  0.50402051  1
  O2-  O219  1  0.83934405  0.25732163  0.75265313  1
  O2-  O220  1  0.83159178  0.58800969  -0.00224185  1
  O2-  O221  1  0.82997937  0.57886637  0.25273136  1
  O2-  O222  1  0.83587177  0.58546149  0.49910558  1
  O2-  O223  1  0.84062804  0.59016300  0.75039593  1
  O2-  O224  1  0.83753822  0.91697689  -0.00038299  1
  O2-  O225  1  0.83776746  0.91708802  0.25101395  1
  O2-  O226  1  0.83675547  0.91676694  0.49958058  1
  O2-  O227  1  0.83490394  0.92126759  0.75294842  1
  O2-  O228  1  0.16305990  0.24853608  0.00076566  1
  O2-  O229  1  0.16609009  0.25157715  0.25375151  1
  O2-  O230  1  0.16945185  0.25511707  0.49912642  1
  O2-  O231  1  0.16883843  0.25021080  0.74612382  1
  O2-  O232  1  0.16044374  0.58321042  0.00165064  1
  O2-  O233  1  0.17005564  0.58532083  0.24820912  1
  O2-  O234  1  0.16912651  0.58416769  0.49948080  1
  O2-  O235  1  0.16620064  0.58645069  0.75194900  1
  O2-  O236  1  0.16361231  0.91768963  0.00127533  1
  O2-  O237  1  0.16637639  0.91950295  0.24960213  1
  O2-  O238  1  0.16299326  0.91897271  0.50196288  1
  O2-  O239  1  0.16511019  0.92374629  0.75015525  1
  O2-  O240  1  0.66754649  0.25391179  -0.00102118  1
  O2-  O241  1  0.66398924  0.25428395  0.24909751  1
  O2-  O242  1  0.66785571  0.25282662  0.50195431  1
  O2-  O243  1  0.66093208  0.25902665  0.74957660  1
  O2-  O244  1  0.66735463  0.58656888  0.00223955  1
  O2-  O245  1  0.66783232  0.57879193  0.24767337  1
  O2-  O246  1  0.66443708  0.58422695  0.49748197  1
  O2-  O247  1  0.66104430  0.58697987  0.75120016  1
  O2-  O248  1  0.66284852  0.91694367  -0.00199375  1
  O2-  O249  1  0.66809356  0.91620892  0.24669055  1
  O2-  O250  1  0.66274715  0.91334397  0.49847641  1
  O2-  O251  1  0.66412817  0.91821263  0.75547753  1
  O2-  O252  1  0.33396348  0.07953318  -0.00079838  1
  O2-  O253  1  0.33716962  0.07678485  0.24913957  1
  O2-  O254  1  0.33328855  0.07840077  0.50023913  1
  O2-  O255  1  0.33553549  0.08137054  0.74978254  1
  O2-  O256  1  0.33664416  0.41561852  0.00519301  1
  O2-  O257  1  0.33236434  0.41368970  0.24415826  1
  O2-  O258  1  0.33226361  0.41728068  0.50411643  1
  O2-  O259  1  0.33062870  0.41708576  0.74906772  1
  O2-  O260  1  0.33295672  0.74673136  0.00204755  1
  O2-  O261  1  0.33931766  0.74564506  0.25023520  1
  O2-  O262  1  0.33664800  0.74818471  0.49970767  1
  O2-  O263  1  0.33191225  0.74506617  0.75429204  1
  O2-  O264  1  0.83323523  0.08120271  -0.00079722  1
  O2-  O265  1  0.83258158  0.07651064  0.25065469  1
  O2-  O266  1  0.83472922  0.08259106  0.49891849  1
  O2-  O267  1  0.83143141  0.08081138  0.75230056  1
  O2-  O268  1  0.83195386  0.41253138  0.00084840  1
  O2-  O269  1  0.83247388  0.41603551  0.24487585  1
  O2-  O270  1  0.83337062  0.41645305  0.50127674  1
  O2-  O271  1  0.82998343  0.41208884  0.74994142  1
  O2-  O272  1  0.82983777  0.74792974  -0.00207585  1
  O2-  O273  1  0.83380498  0.74870223  0.25196877  1
  O2-  O274  1  0.83667087  0.74899695  0.49935590  1
  O2-  O275  1  0.83505410  0.74730780  0.75140367  1
  O2-  O276  1  0.05715687  0.08293253  0.51778464  1
  O2-  O277  1  0.45399294  0.76268935  0.99172457  1
  O2-  O278  1  0.53827728  0.78596751  0.47687750  1
  O2-  O279  1  0.95220601  0.09960055  0.24240197  1
  O2-  O280  1  0.04615017  0.56848824  0.76293738  1
  O2-  O281  1  0.95820549  0.53156226  0.24270248  1
  O2-  O282  1  0.02307941  0.47883798  0.01721859  1
  O2-  O283  1  0.03902032  0.55026755  0.23002606  1
  O2-  O284  1  0.95639646  0.43662628  0.45925502  1
  O2-  O285  1  0.53212885  0.89650631  0.75484786  1
  O2-  O286  1  0.04369537  0.55894717  0.46754644  1
  O2-  O287  1  0.04577333  0.56805708  0.74221446  1
  O2-  O288  1  0.04762024  0.10043564  0.23984827  1
  O2-  O289  1  0.46218046  0.22342635  0.53743031  1
  O2-  O290  1  0.95319929  0.76728918  0.24097396  1
  O2-  O291  1  0.53273472  0.77618123  0.74154723  1
  O2-  O292  1  0.54827473  0.09424594  0.00974721  1
  O2-  O293  1  0.96733697  0.20676323  0.50529433  1
  O2-  O294  1  0.46174150  0.22434932  0.73144191  1
  O2-  O295  1  0.95994342  0.23367858  0.52856913  1
  O2-  O296  1  0.53868564  0.12348591  0.50421991  1
  O2-  O297  1  0.52403882  0.53109509  0.23940364  1
  O2-  O298  1  0.55005526  0.43239323  0.75870215  1
  O2-  O299  1  0.45454463  0.43503372  0.99004434  1
  O2-  O300  1  0.04883247  0.41871964  0.23685799  1
  O2-  O301  1  0.53276511  0.77602447  0.74225331  1
  O2-  O302  1  0.44935242  0.09486884  0.98274955  1
  O2-  O303  1  0.54809502  0.09368808  0.29045187  1
  O2-  O304  1  0.05356952  0.42298504  0.48346564  1
  O2-  O305  1  0.05474463  0.24140646  0.70283164  1
  O2-  O306  1  0.04664024  0.89981735  0.51257967  1
  O2-  O307  1  0.46100452  0.43980799  0.20792669  1
  O2-  O308  1  0.94996718  0.57578773  0.51293905  1
  O2-  O309  1  0.96368944  0.89618065  0.78741968  1
  O2-  O310  1  0.44561241  0.24924568  0.03021067  1
  O2-  O311  1  0.44251988  0.91220015  0.73135476  1
  O2-  O312  1  0.45682725  0.45040041  0.78589492  1
  O2-  O313  1  0.95360193  0.76049724  0.74130185  1
  O2-  O314  1  0.53546586  0.12695583  0.48597332  1
  O2-  O315  1  0.94508588  0.09137645  0.72907852  1
  O2-  O316  1  0.46605420  0.21751654  0.74593561  1
  O2-  O317  1  0.44690851  0.77066312  0.78757470  1
  O2-  O318  1  0.04697288  0.89830155  0.23861421  1
  O2-  O319  1  0.44146804  0.08249853  0.51827348  1
  O2-  O320  1  0.55052495  0.24129796  0.01691441  1
  O2-  O321  1  0.45491733  0.90367339  0.00879832  1
  O2-  O322  1  0.04854254  0.75875097  0.99098966  1
  O2-  O323  1  0.46022136  0.88977505  0.28232371  1
  O2-  O324  1  0.93166054  0.08705088  0.06614607  1
  O2-  O325  1  0.41754213  0.26657129  0.44255963  1
  O2-  O326  1  0.05238689  0.08851387  0.51943000  1
  O2-  O327  1  0.56687207  0.40031369  0.28143229  1
  O2-  O328  1  0.07127523  0.37388194  0.06832130  1
  O2-  O329  1  0.04697863  0.23030399  0.70986154  1
  O2-  O330  1  0.43493809  0.41288282  0.47426956  1
  O2-  O331  1  0.56337971  0.92546677  0.28544719  1
  O2-  O332  1  0.57749763  0.70916932  0.68086528  1
  O2-  O333  1  0.43592293  0.59202879  0.52061189  1
  O2-  O334  1  0.92845768  0.39223789  0.56869813  1
  O2-  O335  1  0.42251795  0.39563754  0.29786326  1
  O2-  O336  1  0.56469179  0.26840747  0.53383325  1
  O2-  O337  1  0.07196115  0.26865656  0.84089086  1
  O2-  O338  1  0.42283193  0.39681058  0.69311357  1
  O2-  O339  1  0.93391535  0.74558875  0.02237768  1
  O2-  O340  1  0.57945333  0.96633752  0.70454164  1
  O2-  O341  1  0.92055022  0.93308337  0.69015674  1
  O2-  O342  1  0.06468380  0.40901003  0.72421230  1
  O2-  O343  1  0.06851562  0.39778537  0.92121867  1
  O2-  O344  1  0.57846016  0.59211429  0.32009957  1
  O2-  O345  1  0.41967756  0.93993519  0.19434168  1
  O2-  O346  1  0.44425721  0.25134053  0.03002395  1
  O2-  O347  1  0.94021598  0.06822095  0.92323401  1
  O2-  O348  1  0.06498173  0.26207633  0.52017615  1
  O2-  O349  1  0.40902557  0.28197719  0.80429353  1
  O2-  O350  1  0.91741508  0.62905372  0.22096192  1
  O2-  O351  1  0.43632443  0.58965562  0.72645144  1
  O2-  O352  1  0.56858164  0.03971561  0.58835696  1
  O2-  O353  1  0.43221451  0.59671935  0.27368608  1
  O2-  O354  1  0.93237022  0.40634668  0.97339735  1
  O2-  O355  1  0.93730335  0.40808774  0.77172076  1
  O2-  O356  1  0.57075421  0.05945679  0.15984685  1
  O2-  O357  1  0.56808044  0.63173682  0.17314029  1
  O2-  O358  1  0.57281762  0.71497695  0.54919132  1
  O2-  O359  1  0.93385765  0.39812990  0.28339983  1
  O2-  O360  1  0.57330345  0.70910886  0.83964733  1
  O2-  O361  1  0.55613905  0.08369703  0.29669319  1
  O2-  O362  1  0.93880351  0.59714275  0.92349062  1
  O2-  O363  1  0.42654241  0.73563036  0.70527373  1
  O2-  O364  1  0.93232402  0.58038049  0.06183887  1
  O2-  O365  1  0.94869042  0.08556201  0.73436250  1
  O2-  O366  1  0.91911212  0.29288599  0.43229560  1
  O2-  O367  1  0.06130738  0.07187118  0.96192964  1
  O2-  O368  1  0.08319880  0.62876619  0.28816315  1
  O2-  O369  1  0.57121434  0.02727622  0.42972825  1
  O2-  O370  1  0.06277953  0.74434453  0.52632217  1
  O2-  O371  1  0.07390323  0.59834724  0.55146256  1
  O2-  O372  1  0.75102288  0.65394986  0.66667675  1
  O2-  O373  1  0.75097656  0.67153561  0.57382073  1
  O2-  O374  1  0.74963778  0.33052803  0.10734517  1
  O2-  O375  1  0.24992532  0.66174747  0.64123517  1
  O2-  O376  1  0.25082941  0.33576949  0.90325058  1
  O2-  O377  1  0.74896059  0.32637174  0.40209185  1
  O2-  O378  1  0.75089083  0.00847675  0.40101874  1
  O2-  O379  1  0.24978326  0.32678996  0.31820004  1
  O2-  O380  1  0.75042045  0.66902685  0.14843140  1
  O2-  O381  1  0.75153672  -0.00624143  0.68005483  1
  O2-  O382  1  0.74987141  0.00284674  0.88694757  1
  O2-  O383  1  0.75152288  -0.00363571  0.56669410  1
  O2-  O384  1  0.25025582  0.67167333  0.13988391  1
  O2-  O385  1  0.25159250  0.33298167  0.10364664  1
  O2-  O386  1  0.75056544  0.00592973  0.11192508  1
  O2-  O387  1  0.75068484  0.67386754  0.41824651  1
  O2-  O388  1  0.25011893  0.00851894  0.83842645  1
  O2-  O389  1  0.24956815  0.67357029  0.90318064  1
  O2-  O390  1  0.25013720  0.00354598  0.32746698  1
  O2-  O391  1  0.25108841  -0.01637192  0.42162328  1
  O2-  O392  1  0.25013157  0.01765683  0.63963653  1
  O2-  O393  1  0.75013289  0.66421745  0.32688577  1
  O2-  O394  1  0.24942815  0.34357723  0.43790697  1
  O2-  O395  1  0.25015904  -0.00106370  0.93018169  1
  O2-  O396  1  0.24997510  0.49861764  0.41403258  1
  O2-  O397  1  0.74946754  0.48328000  0.64208353  1
  O2-  O398  1  0.74991545  0.15553634  0.86477546  1
  O2-  O399  1  0.25054075  0.83284845  0.40327014  1
  O2-  O400  1  0.25005698  0.16784846  0.59456597  1
  O2-  O401  1  0.75031209  0.81994729  0.64589642  1
  O2-  O402  1  0.74983929  0.50555981  0.32897417  1
  O2-  O403  1  0.24997558  0.17815515  0.68496060  1
  O2-  O404  1  0.74985918  0.16045346  0.60595042  1
  O2-  O405  1  0.75004959  0.49290558  0.41523673  1
  O2-  O406  1  0.24995477  0.84375183  0.13600756  1
  O2-  O407  1  0.75001912  0.82679075  0.33622142  1
  O2-  O408  1  0.74985039  0.48631655  0.55437399  1
  O2-  O409  1  0.74984855  0.82590928  0.91281058  1
  O2-  O410  1  0.25049223  0.84586188  0.64561398  1
  O2-  O411  1  0.24976402  0.16723574  0.14530255  1
  O2-  O412  1  0.24998729  0.50082699  0.86359220  1
  O2-  O413  1  0.25020279  0.16691337  0.06164046  1
  O2-  O414  1  0.25000740  0.83284469  0.92672606  1
  O2-  O415  1  0.74998899  0.16883048  0.41972511  1
  O2-  O416  1  0.74983123  0.48127461  0.88522293  1
  O2-  O417  1  0.74978834  0.16968934  0.14262838  1
  O2-  O418  1  0.25018123  0.49394634  0.13062074  1
  O2-  O419  1  0.75002660  0.82749034  0.15577105  1
  O2-  O420  1  0.97024433  0.32656487  0.12245459  1
  O2-  O421  1  0.97971430  0.67584178  0.12889221  1
  O2-  O422  1  0.01816475  0.34821443  0.62027371  1
  O2-  O423  1  0.95829228  -0.01839730  0.13904269  1
  O2-  O424  1  0.48909622  0.32769622  0.37236769  1
  O2-  O425  1  0.46790244  0.67435784  0.38165097  1
  O2-  O426  1  0.04625757  0.00210571  0.36987167  1
  O2-  O427  1  0.97540017  0.31635864  0.87526072  1
  O2-  O428  1  0.47273824  0.65606678  0.87283004  1
  O2-  O429  1  0.03697311  0.66865563  0.12571843  1
  O2-  O430  1  0.52665063  0.67384695  0.38374194  1
  O2-  O431  1  0.47590466  0.01318826  0.11864919  1
  O2-  O432  1  0.48239988  0.66996426  0.62025664  1
  O2-  O433  1  0.96563498  0.66646248  0.62244402  1
  O2-  O434  1  0.48153896  0.33248074  0.61738010  1
  O2-  O435  1  0.04688535  0.00386083  0.11914954  1
  O2-  O436  1  0.54806428  0.32976937  0.87224326  1
  O2-  O437  1  0.52845923  -0.00041279  0.87607994  1
  O2-  O438  1  0.96619462  0.00400853  0.59675579  1
  O2-  O439  1  0.01752516  0.67605646  0.38176072  1
  O2-  O440  1  0.46212401  0.33877480  0.88756285  1
  O2-  O441  1  0.02460413  0.67527280  0.63479685  1
  O2-  O442  1  0.95466639  0.00040359  0.37701074  1
  O2-  O443  1  0.03951496  -0.00569482  0.64376404  1
