# generated using pymatgen
data_La7(Ru4O11)2
_symmetry_space_group_name_H-M   'P 1'
_cell_length_a   23.98973468
_cell_length_b   16.82949414
_cell_length_c   15.42654922
_cell_angle_alpha   89.99945998
_cell_angle_beta   89.99947019
_cell_angle_gamma   90.00009372
_symmetry_Int_Tables_number   1
_chemical_formula_structural   La7(Ru4O11)2
_chemical_formula_sum   'La84 Ru96 O264'
_cell_volume   6228.23938011
_cell_formula_units_Z   12
loop_
 _symmetry_equiv_pos_site_id
 _symmetry_equiv_pos_as_xyz
  1  'x, y, z'
loop_
 _atom_type_symbol
 _atom_type_oxidation_number
  La3+  3.0
  Ru4+  4.0
  O2-  -2.0
loop_
 _atom_site_type_symbol
 _atom_site_label
 _atom_site_symmetry_multiplicity
 _atom_site_fract_x
 _atom_site_fract_y
 _atom_site_fract_z
 _atom_site_occupancy
  La3+  La0  1  0.13672120  -0.00078910  0.12521389  1
  La3+  La1  1  0.13883653  -0.00088014  0.37351794  1
  La3+  La2  1  0.13805841  0.00112538  0.62543172  1
  La3+  La3  1  0.13636395  -0.00039627  0.87380820  1
  La3+  La4  1  0.13726064  0.33367335  0.12591757  1
  La3+  La5  1  0.13889684  0.33391240  0.37610772  1
  La3+  La6  1  0.13840116  0.33565465  0.62495185  1
  La3+  La7  1  0.13929185  0.33468964  0.87296755  1
  La3+  La8  1  0.14124654  0.66428065  0.12467251  1
  La3+  La9  1  0.13916812  0.66498503  0.37254719  1
  La3+  La10  1  0.13885896  0.66388826  0.62560327  1
  La3+  La11  1  0.13838901  0.66450937  0.87702852  1
  La3+  La12  1  0.64000248  0.00034356  0.12593730  1
  La3+  La13  1  0.64161639  -0.00142891  0.37877394  1
  La3+  La14  1  0.64171614  -0.00001532  0.62198713  1
  La3+  La15  1  0.63878459  0.00004570  0.87510288  1
  La3+  La16  1  0.63947697  0.33382974  0.12276561  1
  La3+  La17  1  0.63704113  0.33205192  0.37531752  1
  La3+  La18  1  0.64036078  0.33286222  0.62824419  1
  La3+  La19  1  0.64143545  0.33361432  0.87635677  1
  La3+  La20  1  0.63968006  0.66624621  0.12460145  1
  La3+  La21  1  0.63868945  0.66732634  0.37476662  1
  La3+  La22  1  0.64075678  0.66756144  0.62315863  1
  La3+  La23  1  0.64130691  0.66714431  0.87791007  1
  La3+  La24  1  0.36216365  -0.00068647  0.12647044  1
  La3+  La25  1  0.36225789  0.00058599  0.37440467  1
  La3+  La26  1  0.36126678  0.00049803  0.62627760  1
  La3+  La27  1  0.36197695  -0.00116128  0.87416381  1
  La3+  La28  1  0.36302929  0.33392260  0.12516685  1
  La3+  La29  1  0.35870824  0.33546002  0.37351109  1
  La3+  La30  1  0.36223635  0.33336691  0.62501469  1
  La3+  La31  1  0.36140470  0.33540374  0.87354974  1
  La3+  La32  1  0.35912054  0.66556003  0.12534994  1
  La3+  La33  1  0.36145979  0.66575063  0.37405962  1
  La3+  La34  1  0.36168405  0.66502619  0.62489501  1
  La3+  La35  1  0.36220030  0.66520365  0.87643901  1
  La3+  La36  1  0.86274403  -0.00382337  0.12030967  1
  La3+  La37  1  0.85894753  0.00022568  0.37902970  1
  La3+  La38  1  0.85910293  0.00112811  0.62209700  1
  La3+  La39  1  0.86430672  -0.00406961  0.88032779  1
  La3+  La40  1  0.85855601  0.33480624  0.12128317  1
  La3+  La41  1  0.86172016  0.33226493  0.37456553  1
  La3+  La42  1  0.85931851  0.33281404  0.62978609  1
  La3+  La43  1  0.85898468  0.33314688  0.87308806  1
  La3+  La44  1  0.86122380  0.66691766  0.12309238  1
  La3+  La45  1  0.86144105  0.66656105  0.37560306  1
  La3+  La46  1  0.86005876  0.66661586  0.62267728  1
  La3+  La47  1  0.85933690  0.66702796  0.87817083  1
  La3+  La48  1  0.49772822  0.82905201  0.62010405  1
  La3+  La49  1  -0.00135421  0.83674564  0.87100564  1
  La3+  La50  1  0.00127019  0.50274092  0.88411247  1
  La3+  La51  1  0.00144915  0.50158077  0.11219911  1
  La3+  La52  1  0.50035676  0.16747004  0.63545026  1
  La3+  La53  1  0.00290183  0.16162485  0.36616045  1
  La3+  La54  1  0.00055196  0.16445875  0.86146443  1
  La3+  La55  1  0.00363512  0.17199992  0.12011648  1
  La3+  La56  1  0.50130256  0.49926294  0.63858673  1
  La3+  La57  1  0.50010345  0.83252696  0.11060759  1
  La3+  La58  1  0.49989339  0.49850551  0.36376568  1
  La3+  La59  1  -0.00046804  0.83440254  0.64023148  1
  La3+  La60  1  0.49783529  0.16432968  0.88315280  1
  La3+  La61  1  0.49788068  0.50236611  0.61684095  1
  La3+  La62  1  0.49893004  0.50043956  0.11270862  1
  La3+  La63  1  -0.00204665  0.17201802  0.88176186  1
  La3+  La64  1  -0.00370051  0.83868929  0.62009062  1
  La3+  La65  1  0.00169701  0.50087455  0.36415811  1
  La3+  La66  1  -0.00509482  0.50338170  0.38382711  1
  La3+  La67  1  0.00075883  0.83483691  0.38041845  1
  La3+  La68  1  -0.00385928  0.16387281  0.13395235  1
  La3+  La69  1  0.00018828  0.50308901  0.12946137  1
  La3+  La70  1  0.00030297  0.83398382  0.11478041  1
  La3+  La71  1  -0.00144935  0.17262757  0.62089704  1
  La3+  La72  1  0.25016337  0.83401674  0.53620876  1
  La3+  La73  1  0.74984875  0.16772076  0.04012764  1
  La3+  La74  1  0.24993635  0.50180299  -0.03373072  1
  La3+  La75  1  0.75020697  0.49739558  -0.00481777  1
  La3+  La76  1  0.74998958  0.53697381  0.53440424  1
  La3+  La77  1  0.24988979  0.83028408  0.24613920  1
  La3+  La78  1  0.74968144  0.12758346  0.28363011  1
  La3+  La79  1  0.74998567  0.16971146  0.73964719  1
  La3+  La80  1  0.25010833  0.87155445  0.75224800  1
  La3+  La81  1  0.25000651  0.49869057  0.48896297  1
  La3+  La82  1  0.74979340  0.83584917  0.74677085  1
  La3+  La83  1  0.24914060  0.16667792  -0.03320305  1
  Ru4+  Ru84  1  -0.00224189  -0.00560409  -0.00085142  1
  Ru4+  Ru85  1  0.00005495  -0.00285595  0.24861037  1
  Ru4+  Ru86  1  0.00089469  -0.00688219  0.50399529  1
  Ru4+  Ru87  1  0.00039462  -0.00115309  0.75226981  1
  Ru4+  Ru88  1  0.00079152  0.33699036  0.00022981  1
  Ru4+  Ru89  1  -0.00213778  0.34384283  0.24929684  1
  Ru4+  Ru90  1  -0.00368035  0.32495266  0.49993854  1
  Ru4+  Ru91  1  0.00120340  0.34046624  0.75208422  1
  Ru4+  Ru92  1  -0.00484898  0.67419858  -0.00181912  1
  Ru4+  Ru93  1  -0.00031664  0.66830733  0.25035078  1
  Ru4+  Ru94  1  -0.00044988  0.66642703  0.50051039  1
  Ru4+  Ru95  1  -0.00014963  0.66468572  0.75205307  1
  Ru4+  Ru96  1  0.50073419  -0.00158215  -0.00096166  1
  Ru4+  Ru97  1  0.50156058  -0.00095459  0.24762573  1
  Ru4+  Ru98  1  0.49785315  0.00280050  0.49855288  1
  Ru4+  Ru99  1  0.50015237  -0.00031410  0.75088755  1
  Ru4+  Ru100  1  0.49827407  0.33523551  0.00253719  1
  Ru4+  Ru101  1  0.49905846  0.32844567  0.25011632  1
  Ru4+  Ru102  1  0.50054490  0.33116001  0.49709359  1
  Ru4+  Ru103  1  0.50049449  0.33320403  0.75109653  1
  Ru4+  Ru104  1  0.49645813  0.66663210  -0.00000729  1
  Ru4+  Ru105  1  0.49978246  0.66028695  0.24806851  1
  Ru4+  Ru106  1  0.49746353  0.66724782  0.49470605  1
  Ru4+  Ru107  1  0.49916899  0.66854094  0.75327119  1
  Ru4+  Ru108  1  0.11472896  0.17080166  0.00006919  1
  Ru4+  Ru109  1  0.11714422  0.16303017  0.25076781  1
  Ru4+  Ru110  1  0.11373909  0.16596436  0.50084613  1
  Ru4+  Ru111  1  0.11415605  0.16706191  0.74926217  1
  Ru4+  Ru112  1  0.11539219  0.49603676  -0.00013888  1
  Ru4+  Ru113  1  0.11434936  0.50387419  0.24940296  1
  Ru4+  Ru114  1  0.11534330  0.50326566  0.50117672  1
  Ru4+  Ru115  1  0.11356182  0.50130823  0.74978107  1
  Ru4+  Ru116  1  0.11168368  0.83273042  0.00017914  1
  Ru4+  Ru117  1  0.11093277  0.83290604  0.25030164  1
  Ru4+  Ru118  1  0.11177249  0.83427424  0.49944563  1
  Ru4+  Ru119  1  0.11008302  0.83353278  0.75047671  1
  Ru4+  Ru120  1  0.61235555  0.16772905  0.00081931  1
  Ru4+  Ru121  1  0.61154576  0.16817927  0.25158166  1
  Ru4+  Ru122  1  0.61359320  0.16537158  0.49886438  1
  Ru4+  Ru123  1  0.61143818  0.16835382  0.74967031  1
  Ru4+  Ru124  1  0.61100812  0.49934293  -0.00049492  1
  Ru4+  Ru125  1  0.61327285  0.50150583  0.24980854  1
  Ru4+  Ru126  1  0.61293144  0.50060174  0.49936571  1
  Ru4+  Ru127  1  0.61337802  0.49733424  0.74950651  1
  Ru4+  Ru128  1  0.61425002  0.83116197  0.00050902  1
  Ru4+  Ru129  1  0.61510429  0.83769641  0.25065866  1
  Ru4+  Ru130  1  0.61772079  0.83266284  0.50112309  1
  Ru4+  Ru131  1  0.61101982  0.83321531  0.74946163  1
  Ru4+  Ru132  1  0.39035819  0.16701825  0.00096335  1
  Ru4+  Ru133  1  0.38990353  0.16871032  0.24938027  1
  Ru4+  Ru134  1  0.38886570  0.16489175  0.49908383  1
  Ru4+  Ru135  1  0.38781298  0.16759092  0.74858134  1
  Ru4+  Ru136  1  0.38963758  0.50024162  -0.00027924  1
  Ru4+  Ru137  1  0.38595722  0.50157959  0.25018130  1
  Ru4+  Ru138  1  0.38770202  0.50114501  0.49988213  1
  Ru4+  Ru139  1  0.38610985  0.50114572  0.75040570  1
  Ru4+  Ru140  1  0.38893261  0.83230258  -0.00043592  1
  Ru4+  Ru141  1  0.38726803  0.83240892  0.25179386  1
  Ru4+  Ru142  1  0.39052977  0.83331337  0.49861507  1
  Ru4+  Ru143  1  0.39073951  0.83347193  0.75055810  1
  Ru4+  Ru144  1  0.88629442  0.16448333  0.00058767  1
  Ru4+  Ru145  1  0.88523505  0.16193315  0.25022817  1
  Ru4+  Ru146  1  0.88343011  0.16835723  0.49998309  1
  Ru4+  Ru147  1  0.88440403  0.16237021  0.74673127  1
  Ru4+  Ru148  1  0.88821055  0.50003646  0.00079174  1
  Ru4+  Ru149  1  0.88664978  0.50079974  0.24972096  1
  Ru4+  Ru150  1  0.88686191  0.50308530  0.50245622  1
  Ru4+  Ru151  1  0.88696143  0.49939986  0.74956699  1
  Ru4+  Ru152  1  0.88826602  0.83366859  0.00056116  1
  Ru4+  Ru153  1  0.88765622  0.83232226  0.24841977  1
  Ru4+  Ru154  1  0.88468543  0.83457989  0.50003466  1
  Ru4+  Ru155  1  0.88963744  0.83324592  0.75164998  1
  Ru4+  Ru156  1  0.74984765  0.41953190  0.24951536  1
  Ru4+  Ru157  1  0.25000299  0.70884328  0.47565066  1
  Ru4+  Ru158  1  0.24997114  0.08164001  0.75042310  1
  Ru4+  Ru159  1  0.24995796  0.41759385  0.25410322  1
  Ru4+  Ru160  1  0.25047286  0.28903903  0.01252273  1
  Ru4+  Ru161  1  0.25033792  0.25297252  0.49690635  1
  Ru4+  Ru162  1  0.24989864  0.08817398  0.49749521  1
  Ru4+  Ru163  1  0.25015349  0.75332916  0.00484302  1
  Ru4+  Ru164  1  0.74953844  0.91160591  -0.00738703  1
  Ru4+  Ru165  1  0.24997497  0.73850438  0.75160486  1
  Ru4+  Ru166  1  0.25072382  0.04121877  0.00506001  1
  Ru4+  Ru167  1  0.24989279  0.90281940  -0.00028074  1
  Ru4+  Ru168  1  0.75014238  0.27065796  0.25973464  1
  Ru4+  Ru169  1  0.25003102  0.96324829  0.49390339  1
  Ru4+  Ru170  1  0.25007978  0.25005194  0.74798847  1
  Ru4+  Ru171  1  0.75006833  0.97352225  0.74435832  1
  Ru4+  Ru172  1  0.74981280  0.56986723  0.75298354  1
  Ru4+  Ru173  1  0.75029712  0.91559246  0.25585819  1
  Ru4+  Ru174  1  0.75004988  0.69857828  0.75053018  1
  Ru4+  Ru175  1  0.74998463  0.75333235  0.25070936  1
  Ru4+  Ru176  1  0.74999020  0.39305050  0.50790239  1
  Ru4+  Ru177  1  0.25046723  0.09302948  0.24998130  1
  Ru4+  Ru178  1  0.25027982  0.24382538  0.25027377  1
  Ru4+  Ru179  1  0.74986886  0.25371197  0.49732512  1
  O2-  O180  1  0.16539081  0.07798655  0.00017555  1
  O2-  O181  1  0.16852615  0.08112016  0.25019552  1
  O2-  O182  1  0.16755567  0.08136101  0.50043983  1
  O2-  O183  1  0.16789187  0.08031232  0.74989013  1
  O2-  O184  1  0.16863867  0.41421380  -0.00094511  1
  O2-  O185  1  0.16784102  0.41223587  0.25058114  1
  O2-  O186  1  0.16717294  0.41372474  0.50080865  1
  O2-  O187  1  0.16756659  0.41498545  0.75038945  1
  O2-  O188  1  0.16711202  0.74848250  -0.00007298  1
  O2-  O189  1  0.16714289  0.74765794  0.25143911  1
  O2-  O190  1  0.16721775  0.74556325  0.50002789  1
  O2-  O191  1  0.16583467  0.74589275  0.74936353  1
  O2-  O192  1  0.66514736  0.08234798  0.00091324  1
  O2-  O193  1  0.66643506  0.08005829  0.24808662  1
  O2-  O194  1  0.66634399  0.08427766  0.50039149  1
  O2-  O195  1  0.66714898  0.07983683  0.75165316  1
  O2-  O196  1  0.66755312  0.41536439  -0.00019413  1
  O2-  O197  1  0.66641750  0.41456041  0.25061916  1
  O2-  O198  1  0.66675066  0.41346913  0.50073658  1
  O2-  O199  1  0.66457925  0.41516696  0.75065222  1
  O2-  O200  1  0.66471082  0.74847775  0.00028605  1
  O2-  O201  1  0.66902263  0.74762363  0.25093598  1
  O2-  O202  1  0.66705351  0.74748234  0.49657505  1
  O2-  O203  1  0.66582296  0.74536391  0.75073649  1
  O2-  O204  1  0.33493184  0.25422596  -0.00047115  1
  O2-  O205  1  0.33116544  0.25230379  0.24926263  1
  O2-  O206  1  0.33148404  0.25150569  0.50175318  1
  O2-  O207  1  0.33243968  0.25290684  0.75026218  1
  O2-  O208  1  0.33144091  0.58532555  -0.00112357  1
  O2-  O209  1  0.33437207  0.58443121  0.25147111  1
  O2-  O210  1  0.33330272  0.58665436  0.50003779  1
  O2-  O211  1  0.33436249  0.58508448  0.75023763  1
  O2-  O212  1  0.33322156  0.91900967  -0.00034824  1
  O2-  O213  1  0.33066699  0.91935331  0.24967026  1
  O2-  O214  1  0.33428020  0.92146326  0.50087625  1
  O2-  O215  1  0.33441258  0.92019434  0.74986742  1
  O2-  O216  1  0.83391016  0.25195720  -0.00001767  1
  O2-  O217  1  0.83260806  0.25416866  0.25060306  1
  O2-  O218  1  0.83319382  0.25173345  0.49981401  1
  O2-  O219  1  0.83327958  0.25155941  0.75153515  1
  O2-  O220  1  0.83095301  0.58537934  0.00117084  1
  O2-  O221  1  0.83170045  0.58678354  0.24908093  1
  O2-  O222  1  0.83396590  0.58670475  0.49737584  1
  O2-  O223  1  0.83238818  0.58599362  0.75033787  1
  O2-  O224  1  0.83214346  0.91978745  -0.00033921  1
  O2-  O225  1  0.83284172  0.91937480  0.25057242  1
  O2-  O226  1  0.83548330  0.91744719  0.49980861  1
  O2-  O227  1  0.83222434  0.92176425  0.75013892  1
  O2-  O228  1  0.16613925  0.25491514  0.00012083  1
  O2-  O229  1  0.16888206  0.25195733  0.25033521  1
  O2-  O230  1  0.16800445  0.25222915  0.49893385  1
  O2-  O231  1  0.16711646  0.25214263  0.74919139  1
  O2-  O232  1  0.16760871  0.58567359  -0.00107420  1
  O2-  O233  1  0.16566305  0.58487227  0.25100083  1
  O2-  O234  1  0.16688987  0.58650935  0.50006372  1
  O2-  O235  1  0.16527942  0.58495041  0.75009791  1
  O2-  O236  1  0.16874047  0.91960451  0.00003870  1
  O2-  O237  1  0.16862138  0.92021295  0.24910925  1
  O2-  O238  1  0.16655563  0.92045635  0.50027256  1
  O2-  O239  1  0.16762943  0.92148997  0.75034740  1
  O2-  O240  1  0.66757482  0.25133985  -0.00071684  1
  O2-  O241  1  0.66660054  0.25236218  0.25008689  1
  O2-  O242  1  0.66716919  0.25130399  0.50015073  1
  O2-  O243  1  0.66755151  0.25192313  0.75161590  1
  O2-  O244  1  0.66695565  0.58424983  0.00072695  1
  O2-  O245  1  0.66828040  0.58633043  0.25069946  1
  O2-  O246  1  0.66534833  0.58705535  0.49724834  1
  O2-  O247  1  0.66668951  0.58690058  0.75047890  1
  O2-  O248  1  0.66592288  0.91970665  0.00008691  1
  O2-  O249  1  0.66846289  0.91900545  0.24971519  1
  O2-  O250  1  0.66700754  0.91569717  0.49928960  1
  O2-  O251  1  0.66644054  0.92105725  0.75105905  1
  O2-  O252  1  0.33377330  0.07861903  -0.00046851  1
  O2-  O253  1  0.33150465  0.08160495  0.25003241  1
  O2-  O254  1  0.33339246  0.08160079  0.50034244  1
  O2-  O255  1  0.33342950  0.08003094  0.75054874  1
  O2-  O256  1  0.33284775  0.41383112  -0.00101030  1
  O2-  O257  1  0.33262646  0.41405212  0.24942110  1
  O2-  O258  1  0.33308919  0.41320249  0.50140097  1
  O2-  O259  1  0.33355723  0.41373754  0.75012098  1
  O2-  O260  1  0.33153714  0.74915625  -0.00017741  1
  O2-  O261  1  0.33218615  0.74959677  0.25116324  1
  O2-  O262  1  0.33287205  0.74590348  0.50015864  1
  O2-  O263  1  0.33385299  0.74625559  0.75001981  1
  O2-  O264  1  0.83360496  0.08028160  0.00000645  1
  O2-  O265  1  0.83394024  0.07806284  0.24890724  1
  O2-  O266  1  0.83413509  0.08309621  0.49997141  1
  O2-  O267  1  0.83134482  0.07957022  0.75119384  1
  O2-  O268  1  0.83396140  0.41585646  -0.00064790  1
  O2-  O269  1  0.83303629  0.41381509  0.24964038  1
  O2-  O270  1  0.83273818  0.41263515  0.50015535  1
  O2-  O271  1  0.83576819  0.41602731  0.75087876  1
  O2-  O272  1  0.83679827  0.74910455  0.00086534  1
  O2-  O273  1  0.83222460  0.74802456  0.25084403  1
  O2-  O274  1  0.83408190  0.74778417  0.49836229  1
  O2-  O275  1  0.83411591  0.74558008  0.74976180  1
  O2-  O276  1  0.45125375  0.23430180  0.01275405  1
  O2-  O277  1  0.54142966  0.77848914  0.26948448  1
  O2-  O278  1  0.54771073  0.43024562  0.51215083  1
  O2-  O279  1  0.95565859  0.89989621  0.23495201  1
  O2-  O280  1  0.45172750  0.23187102  0.23631990  1
  O2-  O281  1  0.53418333  0.11323213  0.25631538  1
  O2-  O282  1  0.54040366  0.76671832  0.46938232  1
  O2-  O283  1  0.04701544  0.09650784  0.24016389  1
  O2-  O284  1  0.45965572  0.89599114  0.22394566  1
  O2-  O285  1  0.45291810  0.76987299  0.22111060  1
  O2-  O286  1  0.54102666  0.77362109  0.25701881  1
  O2-  O287  1  0.94559246  0.24097848  0.28315186  1
  O2-  O288  1  0.04634189  0.57152322  0.48742928  1
  O2-  O289  1  0.45423427  0.76804029  0.76241880  1
  O2-  O290  1  0.95528126  0.09834551  0.47989998  1
  O2-  O291  1  0.46202387  0.22144398  0.51877755  1
  O2-  O292  1  0.54557550  0.09933064  0.76339156  1
  O2-  O293  1  0.04556257  0.56680982  0.73572091  1
  O2-  O294  1  0.94962395  0.90453561  0.98442629  1
  O2-  O295  1  0.45418796  0.90107531  0.98420218  1
  O2-  O296  1  0.04728268  0.56752188  0.01613920  1
  O2-  O297  1  0.55154858  0.24119928  0.95653827  1
  O2-  O298  1  0.95196556  0.23436505  0.76259254  1
  O2-  O299  1  0.54824020  0.43220774  0.99343994  1
  O2-  O300  1  0.45543125  0.43137734  0.76572570  1
  O2-  O301  1  0.45291243  0.43437382  0.48580282  1
  O2-  O302  1  0.54344276  0.89758191  0.48966605  1
  O2-  O303  1  0.54450875  0.56981672  0.48376852  1
  O2-  O304  1  0.04606059  0.09529146  0.01799022  1
  O2-  O305  1  0.04134374  0.77611732  0.53387058  1
  O2-  O306  1  0.05059237  0.08998132  0.53880812  1
  O2-  O307  1  0.95657480  0.89680374  0.00953257  1
  O2-  O308  1  0.04745805  0.23691559  0.23822276  1
  O2-  O309  1  0.04578791  0.09800019  0.97895041  1
  O2-  O310  1  0.45433342  0.56557174  0.23912724  1
  O2-  O311  1  0.44943538  0.43004513  0.98488529  1
  O2-  O312  1  0.04862153  0.43054109  0.48217929  1
  O2-  O313  1  0.45272168  0.08966888  0.48484152  1
  O2-  O314  1  0.46604627  0.22429264  0.50799861  1
  O2-  O315  1  0.04513923  0.43297457  0.52087822  1
  O2-  O316  1  0.95272718  0.23845897  0.01332092  1
  O2-  O317  1  0.95153026  0.09820868  0.51868921  1
  O2-  O318  1  0.04701927  0.43413782  0.23461244  1
  O2-  O319  1  0.95225529  0.76554904  0.48634838  1
  O2-  O320  1  0.54344610  0.89763695  0.48953790  1
  O2-  O321  1  0.44761379  0.90397186  0.48616102  1
  O2-  O322  1  0.54912086  0.43070846  0.00577706  1
  O2-  O323  1  0.03764683  0.22323481  0.46807908  1
  O2-  O324  1  0.93535043  0.59805855  0.71787832  1
  O2-  O325  1  0.06529973  0.07341892  0.77669570  1
  O2-  O326  1  0.43531334  0.73453998  0.46809571  1
  O2-  O327  1  0.06395500  0.92512905  0.77798225  1
  O2-  O328  1  0.06136350  0.59180614  0.03526976  1
  O2-  O329  1  0.43504074  0.59240354  0.02836689  1
  O2-  O330  1  0.57614128  0.71963916  0.19655836  1
  O2-  O331  1  0.06324935  0.92921208  0.53280215  1
  O2-  O332  1  0.41631116  0.28792275  0.44965052  1
  O2-  O333  1  0.94623677  0.24153560  0.29551729  1
  O2-  O334  1  0.43498881  0.06962724  0.94110246  1
  O2-  O335  1  0.57378072  0.94340481  0.54924703  1
  O2-  O336  1  0.93193246  0.93392915  0.03339833  1
  O2-  O337  1  0.93135670  0.40813836  0.45106478  1
  O2-  O338  1  0.56459542  0.26041277  0.72332341  1
  O2-  O339  1  0.93338664  0.40879062  0.55008011  1
  O2-  O340  1  0.93743212  0.25836357  0.78082752  1
  O2-  O341  1  0.57203391  0.05913294  0.28882784  1
  O2-  O342  1  0.93637407  0.59834106  0.53146998  1
  O2-  O343  1  0.06525752  0.26118199  0.78423508  1
  O2-  O344  1  0.93717338  0.07072204  0.71609802  1
  O2-  O345  1  0.92900630  0.27637254  0.17707649  1
  O2-  O346  1  0.56276838  0.07518175  0.55716168  1
  O2-  O347  1  0.43461369  0.74126013  0.02837839  1
  O2-  O348  1  0.57084709  0.73293826  0.53985208  1
  O2-  O349  1  0.57064180  0.27451860  0.07615113  1
  O2-  O350  1  0.55581047  0.25014363  0.94994983  1
  O2-  O351  1  0.43183053  0.93927736  0.29589707  1
  O2-  O352  1  0.43343193  0.07368500  0.05223772  1
  O2-  O353  1  0.06542498  0.25624812  0.22017515  1
  O2-  O354  1  0.07538369  0.27024534  0.54466672  1
  O2-  O355  1  0.06384809  0.40692521  0.80569752  1
  O2-  O356  1  0.43106565  0.72697793  0.29619571  1
  O2-  O357  1  0.07520157  0.06855755  0.42964599  1
  O2-  O358  1  0.06692909  0.92574095  0.02926337  1
  O2-  O359  1  0.07255495  0.72135118  0.44247872  1
  O2-  O360  1  0.56500838  0.92749707  0.28263495  1
  O2-  O361  1  0.93683508  0.92887569  0.78319581  1
  O2-  O362  1  0.93471642  0.59348314  0.02954790  1
  O2-  O363  1  0.56461787  0.26628554  0.28119390  1
  O2-  O364  1  0.56647571  0.26405439  0.46797813  1
  O2-  O365  1  0.56276401  0.59297992  0.21794313  1
  O2-  O366  1  0.93424899  0.59399804  0.27760429  1
  O2-  O367  1  0.06465804  0.40705440  0.02735044  1
  O2-  O368  1  0.06637668  0.40850587  0.70247898  1
  O2-  O369  1  0.43439296  0.26007604  0.72333589  1
  O2-  O370  1  0.05576929  0.08573721  0.55618043  1
  O2-  O371  1  0.56366558  0.06962350  0.44368645  1
  O2-  O372  1  0.75014632  0.32950126  0.39896469  1
  O2-  O373  1  0.24994031  0.65429693  0.57959364  1
  O2-  O374  1  0.75022243  -0.00204856  0.60477322  1
  O2-  O375  1  0.24998111  0.34341229  0.11183071  1
  O2-  O376  1  0.24976073  0.65576025  0.83500337  1
  O2-  O377  1  0.24965746  0.67324525  0.15035661  1
  O2-  O378  1  0.74999427  0.33342564  0.07189011  1
  O2-  O379  1  0.75004213  0.33902957  0.16391335  1
  O2-  O380  1  0.24997329  0.34854758  0.91189593  1
  O2-  O381  1  0.74966564  0.66448088  0.89622136  1
  O2-  O382  1  0.75014009  -0.00114153  0.90427297  1
  O2-  O383  1  0.24973928  0.33271750  0.40492479  1
  O2-  O384  1  0.74995825  0.66465911  0.60170184  1
  O2-  O385  1  0.74989983  0.00214228  0.07708618  1
  O2-  O386  1  0.24995375  0.65538279  0.67300724  1
  O2-  O387  1  0.75028634  -0.00102685  0.39518667  1
  O2-  O388  1  0.24995152  -0.00892316  0.11089082  1
  O2-  O389  1  0.24965117  0.66483385  0.92596222  1
  O2-  O390  1  0.25011462  0.33744080  0.82166235  1
  O2-  O391  1  0.74965073  0.33375121  0.90580453  1
  O2-  O392  1  0.75003215  0.00168343  0.17537187  1
  O2-  O393  1  0.25004625  -0.00607786  0.89167401  1
  O2-  O394  1  0.25014631  -0.00105248  0.65633806  1
  O2-  O395  1  0.75006491  0.33204665  0.64584325  1
  O2-  O396  1  0.75007355  0.50575629  0.31670605  1
  O2-  O397  1  0.74995387  0.16601093  0.92697248  1
  O2-  O398  1  0.25004314  0.16628537  0.40752797  1
  O2-  O399  1  0.75008543  0.83396046  0.59684669  1
  O2-  O400  1  0.24999848  0.49825981  0.09795548  1
  O2-  O401  1  0.25006349  0.16571804  0.83550514  1
  O2-  O402  1  0.74977129  0.83685682  0.90962572  1
  O2-  O403  1  0.74973476  0.16658557  0.62400322  1
  O2-  O404  1  0.74999858  0.50300623  0.84231303  1
  O2-  O405  1  0.25001591  0.16524379  0.67804873  1
  O2-  O406  1  0.24997072  0.16845263  0.57253637  1
  O2-  O407  1  0.75004702  0.49467448  0.40350807  1
  O2-  O408  1  0.74997683  0.83333532  0.17142764  1
  O2-  O409  1  0.24997561  0.49846692  0.36057708  1
  O2-  O410  1  0.24989329  0.50311249  0.18531982  1
  O2-  O411  1  0.75008139  0.15725033  0.54493082  1
  O2-  O412  1  0.25004509  0.49970129  0.69339470  1
  O2-  O413  1  0.75002872  0.83065427  0.07960804  1
  O2-  O414  1  0.24983915  0.49958610  0.61257862  1
  O2-  O415  1  0.75009944  0.17114088  0.15880017  1
  O2-  O416  1  0.75007718  0.16647457  0.85260674  1
  O2-  O417  1  0.24994761  0.83080291  0.38672953  1
  O2-  O418  1  0.25016305  0.16665556  0.11717122  1
  O2-  O419  1  0.75003289  0.50127791  0.66474016  1
  O2-  O420  1  0.03887335  0.33418603  0.37299795  1
  O2-  O421  1  0.96806177  0.33436118  0.37551145  1
  O2-  O422  1  0.02398629  -0.00158862  0.88148536  1
  O2-  O423  1  0.97430050  0.66951425  0.37606471  1
  O2-  O424  1  0.95956835  0.66742717  0.87486390  1
  O2-  O425  1  0.46262381  0.34044181  0.62116683  1
  O2-  O426  1  0.02315637  0.33393539  0.12413857  1
  O2-  O427  1  0.47687585  0.66745860  0.12754004  1
  O2-  O428  1  0.95924966  -0.00053171  0.37186300  1
  O2-  O429  1  0.97418818  0.67126241  0.12828343  1
  O2-  O430  1  0.53776264  0.66049015  0.63644352  1
  O2-  O431  1  0.47404656  0.66490695  0.87543944  1
  O2-  O432  1  0.97407815  0.33916422  0.87965282  1
  O2-  O433  1  0.04070995  0.66859024  0.87528554  1
  O2-  O434  1  0.02536842  0.00078828  0.13078041  1
  O2-  O435  1  0.47534842  -0.00269513  0.13046007  1
  O2-  O436  1  0.47216802  0.33855897  0.12848085  1
  O2-  O437  1  0.02652822  0.33073415  0.62610971  1
  O2-  O438  1  0.52788818  -0.00103379  0.87801830  1
  O2-  O439  1  0.03532535  -0.00968559  0.36438073  1
  O2-  O440  1  0.45867685  0.66613196  0.62523455  1
  O2-  O441  1  0.47643939  0.33972737  0.36680817  1
  O2-  O442  1  0.96862395  0.32641051  0.63168974  1
  O2-  O443  1  0.53673846  0.33622514  0.61947180  1
