# generated using pymatgen
data_La7(Ru4O11)2
_symmetry_space_group_name_H-M   'P 1'
_cell_length_a   23.99147660
_cell_length_b   16.83179926
_cell_length_c   15.42791150
_cell_angle_alpha   89.99926915
_cell_angle_beta   89.99876254
_cell_angle_gamma   90.00163118
_symmetry_Int_Tables_number   1
_chemical_formula_structural   La7(Ru4O11)2
_chemical_formula_sum   'La84 Ru96 O264'
_cell_volume   6230.09486585
_cell_formula_units_Z   12
loop_
 _symmetry_equiv_pos_site_id
 _symmetry_equiv_pos_as_xyz
  1  'x, y, z'
loop_
 _atom_type_symbol
 _atom_type_oxidation_number
  La3+  3.0
  Ru4+  4.0
  O2-  -2.0
loop_
 _atom_site_type_symbol
 _atom_site_label
 _atom_site_symmetry_multiplicity
 _atom_site_fract_x
 _atom_site_fract_y
 _atom_site_fract_z
 _atom_site_occupancy
  La3+  La0  1  0.13363726  -0.00561888  0.12289842  1
  La3+  La1  1  0.14494136  -0.00405738  0.37209951  1
  La3+  La2  1  0.13529383  0.00036520  0.62623693  1
  La3+  La3  1  0.13384046  -0.00477127  0.87507408  1
  La3+  La4  1  0.13639521  0.33298010  0.12695918  1
  La3+  La5  1  0.14174428  0.33098769  0.37904424  1
  La3+  La6  1  0.14150590  0.33145891  0.62007231  1
  La3+  La7  1  0.13535299  0.33238155  0.87605234  1
  La3+  La8  1  0.14032452  0.66833344  0.12430871  1
  La3+  La9  1  0.13732852  0.67069794  0.37444604  1
  La3+  La10  1  0.14088968  0.67224374  0.62573829  1
  La3+  La11  1  0.13663029  0.66929370  0.87773140  1
  La3+  La12  1  0.64778913  -0.00207354  0.12576292  1
  La3+  La13  1  0.63293071  -0.00555984  0.37261299  1
  La3+  La14  1  0.64462543  -0.00225108  0.62550503  1
  La3+  La15  1  0.64396409  -0.00186771  0.87771493  1
  La3+  La16  1  0.64307503  0.33380634  0.11819501  1
  La3+  La17  1  0.63484633  0.33767824  0.38065869  1
  La3+  La18  1  0.63905810  0.33777349  0.62526441  1
  La3+  La19  1  0.64276949  0.33649022  0.87614795  1
  La3+  La20  1  0.64125469  0.66379427  0.12521864  1
  La3+  La21  1  0.64890027  0.66552298  0.37774781  1
  La3+  La22  1  0.64500993  0.66325724  0.62086754  1
  La3+  La23  1  0.63683314  0.66646356  0.87693757  1
  La3+  La24  1  0.36412964  -0.00373122  0.12685984  1
  La3+  La25  1  0.35817929  -0.00112920  0.37403356  1
  La3+  La26  1  0.36255075  -0.00201391  0.62631474  1
  La3+  La27  1  0.35699306  -0.00385747  0.87327007  1
  La3+  La28  1  0.36410655  0.33440188  0.12771650  1
  La3+  La29  1  0.35803655  0.33080438  0.37831070  1
  La3+  La30  1  0.35993866  0.33159823  0.62130068  1
  La3+  La31  1  0.36598898  0.33479225  0.87407434  1
  La3+  La32  1  0.36019949  0.66937056  0.12679482  1
  La3+  La33  1  0.36015539  0.67043528  0.37417074  1
  La3+  La34  1  0.36467354  0.66965233  0.62397394  1
  La3+  La35  1  0.36370706  0.66980797  0.87468507  1
  La3+  La36  1  0.85082382  -0.00078918  0.12442211  1
  La3+  La37  1  0.86311308  -0.00612981  0.37527469  1
  La3+  La38  1  0.86073879  -0.00169208  0.62340254  1
  La3+  La39  1  0.85748115  -0.00030823  0.87852379  1
  La3+  La40  1  0.85603902  0.33257793  0.12188910  1
  La3+  La41  1  0.87366459  0.34735458  0.39108733  1
  La3+  La42  1  0.86588331  0.34459480  0.62013793  1
  La3+  La43  1  0.85374480  0.33330137  0.87689592  1
  La3+  La44  1  0.85864205  0.66073288  0.12310166  1
  La3+  La45  1  0.85559989  0.66415077  0.38237353  1
  La3+  La46  1  0.85841968  0.66493630  0.61688735  1
  La3+  La47  1  0.86423159  0.66564370  0.87641696  1
  La3+  La48  1  0.49345481  0.83736608  0.36875327  1
  La3+  La49  1  0.00056436  0.83737298  0.38534886  1
  La3+  La50  1  -0.00394379  0.83141271  0.61831278  1
  La3+  La51  1  0.50580330  0.17867599  0.12614303  1
  La3+  La52  1  0.50294948  0.16996014  0.36765214  1
  La3+  La53  1  0.49329469  0.83567665  0.36724581  1
  La3+  La54  1  0.00301936  0.82832454  0.13316227  1
  La3+  La55  1  0.49605438  0.16606142  0.86682612  1
  La3+  La56  1  0.50573840  0.16729271  0.14255863  1
  La3+  La57  1  0.50347411  0.82976502  0.87741666  1
  La3+  La58  1  0.00161236  0.84033694  0.88185547  1
  La3+  La59  1  -0.00000721  0.16987626  0.13587846  1
  La3+  La60  1  0.00246475  0.16246338  0.11519515  1
  La3+  La61  1  -0.00548355  0.83009140  0.37313880  1
  La3+  La62  1  -0.00218024  0.49730821  0.12413643  1
  La3+  La63  1  -0.00870940  0.48899787  0.37698247  1
  La3+  La64  1  -0.00163747  0.49794459  0.88031093  1
  La3+  La65  1  0.00030775  0.15678486  0.38701522  1
  La3+  La66  1  0.00447147  0.16675067  0.63507019  1
  La3+  La67  1  -0.00041680  0.83975050  0.11540613  1
  La3+  La68  1  0.00176168  0.50888820  0.59948620  1
  La3+  La69  1  0.50256157  0.83320565  0.13032600  1
  La3+  La70  1  0.49927325  0.50326006  0.38639555  1
  La3+  La71  1  0.00167253  0.50566850  0.85993784  1
  La3+  La72  1  0.74989380  0.16940699  0.47286469  1
  La3+  La73  1  0.75034270  0.83709040  0.24321121  1
  La3+  La74  1  0.25014588  0.14303716  0.70392992  1
  La3+  La75  1  0.25082771  0.49565751  -0.04179713  1
  La3+  La76  1  0.25032177  0.51906273  0.68632231  1
  La3+  La77  1  0.74971571  0.49325732  -0.01517323  1
  La3+  La78  1  0.24904331  0.10656055  0.05028726  1
  La3+  La79  1  0.25024610  0.46165246  0.48629128  1
  La3+  La80  1  0.74888864  0.11544403  0.26109780  1
  La3+  La81  1  0.74979267  0.12745771  0.75494665  1
  La3+  La82  1  0.74950543  0.82139132  0.51001991  1
  La3+  La83  1  0.24978212  0.83164920  0.71926032  1
  Ru4+  Ru84  1  -0.00616502  0.00876948  -0.00428231  1
  Ru4+  Ru85  1  -0.00094034  0.00178895  0.25073497  1
  Ru4+  Ru86  1  0.00590477  0.00517747  0.50702440  1
  Ru4+  Ru87  1  -0.00221543  0.00971719  0.76068815  1
  Ru4+  Ru88  1  0.00187877  0.33443403  0.00085496  1
  Ru4+  Ru89  1  -0.00021819  0.33402243  0.25045306  1
  Ru4+  Ru90  1  -0.00199079  0.33315403  0.49673270  1
  Ru4+  Ru91  1  -0.00082511  0.33662274  0.75149868  1
  Ru4+  Ru92  1  0.00143747  0.67693836  -0.00087816  1
  Ru4+  Ru93  1  0.00041450  0.66341360  0.25675068  1
  Ru4+  Ru94  1  0.00208533  0.66092869  0.50015490  1
  Ru4+  Ru95  1  -0.00380229  0.67081874  0.74633279  1
  Ru4+  Ru96  1  0.49826581  0.00021861  -0.00098560  1
  Ru4+  Ru97  1  0.49492152  0.00871302  0.25316186  1
  Ru4+  Ru98  1  0.50220394  -0.00255525  0.51042062  1
  Ru4+  Ru99  1  0.50042241  -0.00136126  0.74158896  1
  Ru4+  Ru100  1  0.50075582  0.33699108  -0.00262600  1
  Ru4+  Ru101  1  0.49835835  0.33805565  0.25143500  1
  Ru4+  Ru102  1  0.49884556  0.33430530  0.49618469  1
  Ru4+  Ru103  1  0.50293530  0.33525216  0.75583931  1
  Ru4+  Ru104  1  0.50126164  0.66324959  0.00441877  1
  Ru4+  Ru105  1  0.49984090  0.66219272  0.24720422  1
  Ru4+  Ru106  1  0.50472664  0.67113604  0.51258563  1
  Ru4+  Ru107  1  0.49635085  0.66335900  0.74405681  1
  Ru4+  Ru108  1  0.11102368  0.16406663  -0.00136148  1
  Ru4+  Ru109  1  0.11258923  0.16786455  0.24879295  1
  Ru4+  Ru110  1  0.11097692  0.16044763  0.49658822  1
  Ru4+  Ru111  1  0.10876380  0.16482257  0.74984116  1
  Ru4+  Ru112  1  0.11403010  0.49204273  0.00232651  1
  Ru4+  Ru113  1  0.11194221  0.49738562  0.25136888  1
  Ru4+  Ru114  1  0.11128715  0.50363176  0.50209801  1
  Ru4+  Ru115  1  0.10715274  0.49949815  0.74988483  1
  Ru4+  Ru116  1  0.11906316  0.82812312  0.00110195  1
  Ru4+  Ru117  1  0.11887633  0.83116784  0.25256135  1
  Ru4+  Ru118  1  0.11443772  0.83227719  0.49891935  1
  Ru4+  Ru119  1  0.11359358  0.82844160  0.75177736  1
  Ru4+  Ru120  1  0.61502558  0.16784195  0.00005137  1
  Ru4+  Ru121  1  0.60929888  0.16667962  0.25089481  1
  Ru4+  Ru122  1  0.61197447  0.17061197  0.50116152  1
  Ru4+  Ru123  1  0.60890965  0.16653889  0.74566712  1
  Ru4+  Ru124  1  0.60986196  0.49625408  0.00257406  1
  Ru4+  Ru125  1  0.61498545  0.50275071  0.24972497  1
  Ru4+  Ru126  1  0.61644800  0.49825868  0.50106577  1
  Ru4+  Ru127  1  0.61330639  0.49319730  0.75211821  1
  Ru4+  Ru128  1  0.61396942  0.83644196  0.00217740  1
  Ru4+  Ru129  1  0.61647617  0.82919624  0.24934832  1
  Ru4+  Ru130  1  0.61072329  0.83268677  0.50769565  1
  Ru4+  Ru131  1  0.60998580  0.83285337  0.75128412  1
  Ru4+  Ru132  1  0.39054910  0.16443091  -0.00303393  1
  Ru4+  Ru133  1  0.38829475  0.16320793  0.25032756  1
  Ru4+  Ru134  1  0.38644081  0.16988304  0.50340990  1
  Ru4+  Ru135  1  0.39188425  0.16515287  0.75023895  1
  Ru4+  Ru136  1  0.39403139  0.50061687  0.00189700  1
  Ru4+  Ru137  1  0.39253112  0.49982817  0.24887297  1
  Ru4+  Ru138  1  0.38832286  0.49912854  0.49916991  1
  Ru4+  Ru139  1  0.39375578  0.49795167  0.75251205  1
  Ru4+  Ru140  1  0.38704896  0.83256616  -0.00025090  1
  Ru4+  Ru141  1  0.38702092  0.83351238  0.24981510  1
  Ru4+  Ru142  1  0.38670670  0.83026014  0.50203039  1
  Ru4+  Ru143  1  0.38958175  0.83274632  0.75176929  1
  Ru4+  Ru144  1  0.88438490  0.16600489  -0.00141476  1
  Ru4+  Ru145  1  0.88716291  0.16760667  0.25125537  1
  Ru4+  Ru146  1  0.88782151  0.16692843  0.49812408  1
  Ru4+  Ru147  1  0.88801441  0.16183143  0.75380461  1
  Ru4+  Ru148  1  0.88354036  0.49796740  0.00238082  1
  Ru4+  Ru149  1  0.88554510  0.50136674  0.25378792  1
  Ru4+  Ru150  1  0.88479641  0.49776819  0.50027471  1
  Ru4+  Ru151  1  0.88592068  0.49535684  0.74563245  1
  Ru4+  Ru152  1  0.88293238  0.83833357  -0.00242153  1
  Ru4+  Ru153  1  0.88502979  0.82833745  0.25155050  1
  Ru4+  Ru154  1  0.88057213  0.83461218  0.50089612  1
  Ru4+  Ru155  1  0.88795449  0.83259133  0.75111066  1
  Ru4+  Ru156  1  0.24977290  0.08315965  0.24834787  1
  Ru4+  Ru157  1  0.74990288  0.30869151  0.51271145  1
  Ru4+  Ru158  1  0.24961181  0.91768828  -0.00178692  1
  Ru4+  Ru159  1  0.25029844  0.26619447  0.77640504  1
  Ru4+  Ru160  1  0.24984260  0.64313156  0.76873047  1
  Ru4+  Ru161  1  0.74967923  0.75506825  0.01360056  1
  Ru4+  Ru162  1  0.74994652  0.43540975  0.24464815  1
  Ru4+  Ru163  1  0.75050026  0.27005840  0.74090336  1
  Ru4+  Ru164  1  0.25012689  0.90234800  0.49577182  1
  Ru4+  Ru165  1  0.75015433  0.74467487  0.74450229  1
  Ru4+  Ru166  1  0.24940219  0.40118417  0.77018651  1
  Ru4+  Ru167  1  0.25037169  0.61085521  0.49971748  1
  Ru4+  Ru168  1  0.74977969  0.58322096  0.74380831  1
  Ru4+  Ru169  1  0.25005373  0.62792155  0.00084816  1
  Ru4+  Ru170  1  0.24975105  0.01133566  0.76064782  1
  Ru4+  Ru171  1  0.74987694  0.26666407  0.25019297  1
  Ru4+  Ru172  1  0.24982699  0.58566022  0.26094893  1
  Ru4+  Ru173  1  0.25033865  0.26053286  0.25841715  1
  Ru4+  Ru174  1  0.25016798  0.40576738  0.26141555  1
  Ru4+  Ru175  1  0.75017391  0.91233474  0.75030720  1
  Ru4+  Ru176  1  0.25026688  0.09214046  0.50343565  1
  Ru4+  Ru177  1  0.25033930  0.38417700  0.04585501  1
  Ru4+  Ru178  1  0.25065215  0.25648158  0.00829057  1
  Ru4+  Ru179  1  0.75002788  0.02798186  0.50982530  1
  O2-  O180  1  0.16365595  0.07814844  -0.00086642  1
  O2-  O181  1  0.16711347  0.08130022  0.24694343  1
  O2-  O182  1  0.16841916  0.08068111  0.50403125  1
  O2-  O183  1  0.16697398  0.07674005  0.75290354  1
  O2-  O184  1  0.16663815  0.40886442  0.00014282  1
  O2-  O185  1  0.16806154  0.41348358  0.25133171  1
  O2-  O186  1  0.16294301  0.41456688  0.50072688  1
  O2-  O187  1  0.16505170  0.41082001  0.75128320  1
  O2-  O188  1  0.16828729  0.74561709  -0.00179013  1
  O2-  O189  1  0.16865638  0.74691136  0.25084820  1
  O2-  O190  1  0.16484856  0.74645825  0.49810219  1
  O2-  O191  1  0.16687454  0.74677664  0.75214443  1
  O2-  O192  1  0.66334674  0.08139413  0.00080658  1
  O2-  O193  1  0.65947314  0.07721426  0.25325614  1
  O2-  O194  1  0.66938495  0.07852808  0.49650348  1
  O2-  O195  1  0.66406343  0.07930681  0.75467051  1
  O2-  O196  1  0.66645260  0.41668623  -0.00105891  1
  O2-  O197  1  0.66576659  0.41464507  0.24934404  1
  O2-  O198  1  0.66871262  0.41469794  0.49910367  1
  O2-  O199  1  0.66767494  0.41667553  0.74798182  1
  O2-  O200  1  0.66931420  0.74826390  -0.00255682  1
  O2-  O201  1  0.66756961  0.74460981  0.24694867  1
  O2-  O202  1  0.66543011  0.75168734  0.49865607  1
  O2-  O203  1  0.66545057  0.74675421  0.75081970  1
  O2-  O204  1  0.33622136  0.25243321  0.00193409  1
  O2-  O205  1  0.33267005  0.25492706  0.24882959  1
  O2-  O206  1  0.33374969  0.25010011  0.49971994  1
  O2-  O207  1  0.33615131  0.25407949  0.75325274  1
  O2-  O208  1  0.33407646  0.58992200  -0.00112938  1
  O2-  O209  1  0.33430639  0.58357827  0.25259613  1
  O2-  O210  1  0.32921047  0.58705926  0.50220218  1
  O2-  O211  1  0.33380259  0.58909170  0.74823379  1
  O2-  O212  1  0.33378119  0.91944092  0.00466668  1
  O2-  O213  1  0.33587314  0.91993130  0.24632826  1
  O2-  O214  1  0.33368473  0.91850509  0.49972133  1
  O2-  O215  1  0.33204572  0.91972285  0.74791184  1
  O2-  O216  1  0.83542022  0.24961953  0.00141782  1
  O2-  O217  1  0.83243915  0.25551207  0.25447597  1
  O2-  O218  1  0.83384437  0.25625429  0.49846757  1
  O2-  O219  1  0.83216624  0.25310175  0.74599595  1
  O2-  O220  1  0.83354117  0.58633107  -0.00248854  1
  O2-  O221  1  0.83570981  0.58530981  0.24790469  1
  O2-  O222  1  0.83403946  0.58177829  0.50053212  1
  O2-  O223  1  0.83507030  0.58659218  0.75036480  1
  O2-  O224  1  0.83112353  0.91708976  -0.00099639  1
  O2-  O225  1  0.83485218  0.91979295  0.25075540  1
  O2-  O226  1  0.82962369  0.92158904  0.50313878  1
  O2-  O227  1  0.83565023  0.91909415  0.74888878  1
  O2-  O228  1  0.16594899  0.25319767  0.00157706  1
  O2-  O229  1  0.16581875  0.25400288  0.25106503  1
  O2-  O230  1  0.16124590  0.24935097  0.50089950  1
  O2-  O231  1  0.16459208  0.25448021  0.75304626  1
  O2-  O232  1  0.16585600  0.59049283  -0.00084222  1
  O2-  O233  1  0.16542696  0.58514073  0.25174915  1
  O2-  O234  1  0.17137278  0.58570591  0.49858667  1
  O2-  O235  1  0.16720075  0.58908588  0.75172257  1
  O2-  O236  1  0.16661181  0.92005328  -0.00027090  1
  O2-  O237  1  0.16628064  0.91941236  0.24381815  1
  O2-  O238  1  0.16629775  0.91872855  0.50138733  1
  O2-  O239  1  0.16823524  0.92105136  0.74918197  1
  O2-  O240  1  0.66630722  0.24932917  -0.00145109  1
  O2-  O241  1  0.66624303  0.25582818  0.25288227  1
  O2-  O242  1  0.66906493  0.25436890  0.49948728  1
  O2-  O243  1  0.66654974  0.25225640  0.75049346  1
  O2-  O244  1  0.66381318  0.58559965  -0.00358647  1
  O2-  O245  1  0.66387507  0.58474423  0.24832858  1
  O2-  O246  1  0.66706282  0.58181116  0.50118182  1
  O2-  O247  1  0.66509203  0.58633142  0.75158525  1
  O2-  O248  1  0.66592020  0.91633816  0.00017788  1
  O2-  O249  1  0.66678816  0.91774892  0.25177742  1
  O2-  O250  1  0.66974496  0.91732306  0.49597778  1
  O2-  O251  1  0.66689855  0.91585919  0.75195347  1
  O2-  O252  1  0.33528015  0.07839752  0.00323322  1
  O2-  O253  1  0.33428161  0.08098716  0.24617590  1
  O2-  O254  1  0.33339937  0.08199676  0.49957257  1
  O2-  O255  1  0.33087541  0.07559971  0.75138018  1
  O2-  O256  1  0.33695338  0.41307314  0.00070006  1
  O2-  O257  1  0.33396980  0.41392401  0.24873381  1
  O2-  O258  1  0.33698758  0.41388050  0.50036593  1
  O2-  O259  1  0.33354092  0.41448622  0.75090156  1
  O2-  O260  1  0.33559098  0.74873767  -0.00000207  1
  O2-  O261  1  0.33543830  0.74742824  0.25072405  1
  O2-  O262  1  0.33508332  0.74678038  0.50020595  1
  O2-  O263  1  0.33411772  0.74623766  0.75018901  1
  O2-  O264  1  0.83581367  0.08101969  -0.00010414  1
  O2-  O265  1  0.83694113  0.07834433  0.25267718  1
  O2-  O266  1  0.82865724  0.07823206  0.50251947  1
  O2-  O267  1  0.83601092  0.07785235  0.74847190  1
  O2-  O268  1  0.83417782  0.41439063  -0.00008712  1
  O2-  O269  1  0.83407407  0.41356458  0.25095203  1
  O2-  O270  1  0.83037042  0.41464227  0.49881978  1
  O2-  O271  1  0.83235393  0.41674671  0.74516417  1
  O2-  O272  1  0.83288022  0.74610369  -0.00310587  1
  O2-  O273  1  0.83376579  0.74408266  0.24802826  1
  O2-  O274  1  0.83406820  0.74682866  0.50164609  1
  O2-  O275  1  0.83059537  0.74462505  0.75070751  1
  O2-  O276  1  0.54581501  0.56360863  0.53427332  1
  O2-  O277  1  0.05089611  0.41904409  0.48904153  1
  O2-  O278  1  0.45458355  0.55268739  0.53266869  1
  O2-  O279  1  0.95028743  0.90104342  0.24244823  1
  O2-  O280  1  0.05100223  0.90366997  0.00730359  1
  O2-  O281  1  0.04316327  0.55358472  0.45815582  1
  O2-  O282  1  0.95142479  0.57088898  0.26025505  1
  O2-  O283  1  0.45110123  0.76127836  0.51069317  1
  O2-  O284  1  0.94734403  0.41792420  0.48211749  1
  O2-  O285  1  0.54497535  0.76555414  0.74135774  1
  O2-  O286  1  0.45263031  0.56595061  0.01147712  1
  O2-  O287  1  0.05025979  0.90319183  0.23741952  1
  O2-  O288  1  0.45451949  0.77053817  0.99102004  1
  O2-  O289  1  0.96736055  0.44745773  0.70905978  1
  O2-  O290  1  0.94919488  0.43433947  0.50442238  1
  O2-  O291  1  0.54193249  0.76914488  0.45787255  1
  O2-  O292  1  0.45363320  0.56918022  0.25988141  1
  O2-  O293  1  0.04708910  0.57452809  0.98038409  1
  O2-  O294  1  0.94386431  0.57758034  0.47672646  1
  O2-  O295  1  0.54547131  0.76578916  0.25394999  1
  O2-  O296  1  0.53027906  0.11941146  0.74696028  1
  O2-  O297  1  0.95293171  0.23020880  0.01173487  1
  O2-  O298  1  0.95649482  0.10811911  0.54152412  1
  O2-  O299  1  0.45248395  0.23669406  0.25913576  1
  O2-  O300  1  0.54341606  0.89807638  0.46268448  1
  O2-  O301  1  0.45353915  0.57006665  0.75596738  1
  O2-  O302  1  0.04839245  0.56579987  0.01843565  1
  O2-  O303  1  0.94776187  0.57061042  0.01213046  1
  O2-  O304  1  0.95053652  0.42959685  0.99220233  1
  O2-  O305  1  0.05264331  0.24419847  0.74273114  1
  O2-  O306  1  0.54645441  0.11014239  0.47661375  1
  O2-  O307  1  0.45345118  0.42843369  0.23201186  1
  O2-  O308  1  0.04560579  0.76677404  0.51287220  1
  O2-  O309  1  0.04934110  0.24512126  0.48415355  1
  O2-  O310  1  0.55085161  0.42228801  0.47620998  1
  O2-  O311  1  0.05021216  0.56702386  0.23308972  1
  O2-  O312  1  0.45429420  0.56652023  0.74749215  1
  O2-  O313  1  0.04815132  0.90052187  0.76562078  1
  O2-  O314  1  0.94963415  0.24205410  0.48336411  1
  O2-  O315  1  0.46183944  0.10994309  0.03059316  1
  O2-  O316  1  0.94771960  0.76835352  0.48674829  1
  O2-  O317  1  0.95898602  0.90636430  0.49017297  1
  O2-  O318  1  0.45003791  0.90567178  0.50996634  1
  O2-  O319  1  0.95060730  0.76609107  0.00537908  1
  O2-  O320  1  0.05372975  0.08894869  0.54840336  1
  O2-  O321  1  0.54224342  0.90676932  0.25727581  1
  O2-  O322  1  0.95271530  0.23157502  0.72388507  1
  O2-  O323  1  0.45355227  0.10844502  0.46926264  1
  O2-  O324  1  0.06047820  0.07176125  0.96958835  1
  O2-  O325  1  0.05968154  0.07705343  0.55772813  1
  O2-  O326  1  0.91972963  0.06841302  0.44409305  1
  O2-  O327  1  0.06229477  0.06904375  0.72285852  1
  O2-  O328  1  0.55864736  0.92907782  0.03342974  1
  O2-  O329  1  0.56262619  0.25901573  0.03502121  1
  O2-  O330  1  0.57461813  0.93508549  0.56719307  1
  O2-  O331  1  0.93451971  0.92863911  0.02602580  1
  O2-  O332  1  0.06252946  0.40066678  0.28164568  1
  O2-  O333  1  0.56084601  0.92961146  0.78731254  1
  O2-  O334  1  0.93634519  0.07336187  0.77033325  1
  O2-  O335  1  0.56438070  0.41178962  0.77612820  1
  O2-  O336  1  0.56222162  0.91503210  0.27981999  1
  O2-  O337  1  0.07923242  0.60557471  0.55440410  1
  O2-  O338  1  0.93572443  0.74543799  0.77735620  1
  O2-  O339  1  0.56765682  0.25336997  0.81292530  1
  O2-  O340  1  0.42920654  0.06508518  0.54220022  1
  O2-  O341  1  0.06594260  0.73563173  0.03270725  1
  O2-  O342  1  0.56217744  0.40856277  0.03444680  1
  O2-  O343  1  0.92292797  0.40350920  0.81009001  1
  O2-  O344  1  0.43406563  0.25322597  0.55957295  1
  O2-  O345  1  0.93154139  0.39491373  0.53598758  1
  O2-  O346  1  0.93585784  0.25833083  0.22589819  1
  O2-  O347  1  0.06094732  0.92880893  0.77979283  1
  O2-  O348  1  0.06368836  0.07184794  0.21574311  1
  O2-  O349  1  0.57597799  0.05457061  0.70651406  1
  O2-  O350  1  0.56417783  0.25877716  0.46226608  1
  O2-  O351  1  0.93679442  0.91597489  0.47499025  1
  O2-  O352  1  0.93997721  0.58581019  0.46992642  1
  O2-  O353  1  0.56857186  0.07172894  0.55077589  1
  O2-  O354  1  0.57107517  0.72095105  0.56613368  1
  O2-  O355  1  0.56991255  0.59332367  0.45855769  1
  O2-  O356  1  0.08172956  0.08385626  0.41256731  1
  O2-  O357  1  0.06183298  0.92270819  0.03617291  1
  O2-  O358  1  0.06197874  0.74389983  0.27435423  1
  O2-  O359  1  0.56457874  0.74432468  0.97319062  1
  O2-  O360  1  0.55971693  0.40965325  0.46920099  1
  O2-  O361  1  0.06345998  0.26117291  0.03465106  1
  O2-  O362  1  0.92473852  0.26314854  0.79727835  1
  O2-  O363  1  0.93716103  0.08105576  0.27188548  1
  O2-  O364  1  0.42995588  0.60206097  0.46031147  1
  O2-  O365  1  0.43332987  0.07456727  0.72795226  1
  O2-  O366  1  0.43783470  0.39802237  0.78475038  1
  O2-  O367  1  0.43123909  0.04670625  0.93084599  1
  O2-  O368  1  0.43318364  0.25530025  0.43890812  1
  O2-  O369  1  0.56658089  0.25628339  0.69045131  1
  O2-  O370  1  0.94315869  0.74095881  0.46231214  1
  O2-  O371  1  0.93976084  0.60049746  0.03005213  1
  O2-  O372  1  0.74976032  0.67127018  0.62050754  1
  O2-  O373  1  0.75013812  0.67150654  0.40113583  1
  O2-  O374  1  0.25001490  0.00162931  0.60260083  1
  O2-  O375  1  0.75067708  0.67006242  0.08996895  1
  O2-  O376  1  0.25052031  -0.00570980  0.30824319  1
  O2-  O377  1  0.75028167  0.33750591  0.64128443  1
  O2-  O378  1  0.75139677  0.00096426  0.65253951  1
  O2-  O379  1  0.24972346  0.34107020  0.38511049  1
  O2-  O380  1  0.24978174  0.33440813  0.89729204  1
  O2-  O381  1  0.24943011  0.69586013  0.09389732  1
  O2-  O382  1  0.25004336  -0.00009774  0.43612431  1
  O2-  O383  1  0.74992126  0.00121877  0.15944666  1
  O2-  O384  1  0.75029073  0.33356946  0.07276291  1
  O2-  O385  1  0.75004501  0.34674332  0.83228932  1
  O2-  O386  1  0.25029615  0.67403935  0.88729394  1
  O2-  O387  1  0.24953606  0.00165855  0.90326909  1
  O2-  O388  1  0.75015062  0.00322653  0.82590896  1
  O2-  O389  1  0.74978921  0.34468523  0.16543923  1
  O2-  O390  1  0.74980616  0.33240698  0.92250032  1
  O2-  O391  1  0.25039342  0.66763256  0.64291210  1
  O2-  O392  1  0.74978252  0.00015979  0.91706229  1
  O2-  O393  1  0.25021325  0.66704691  0.18915744  1
  O2-  O394  1  0.25027273  0.34005526  0.56740994  1
  O2-  O395  1  0.24984931  0.33253306  0.66334101  1
  O2-  O396  1  0.25013706  0.49649481  0.19004164  1
  O2-  O397  1  0.25015197  0.83237408  0.58291031  1
  O2-  O398  1  0.74995114  0.49646960  0.66807345  1
  O2-  O399  1  0.74993580  0.49379317  0.33549153  1
  O2-  O400  1  0.74998366  0.50974290  0.83534842  1
  O2-  O401  1  0.24969371  0.16690453  0.84233702  1
  O2-  O402  1  0.74995417  0.83436625  0.66120082  1
  O2-  O403  1  0.74995866  0.82907187  0.84075013  1
  O2-  O404  1  0.25026597  0.83491131  0.85510117  1
  O2-  O405  1  0.75013488  0.82629255  0.09921547  1
  O2-  O406  1  0.25010298  0.17836323  0.16910854  1
  O2-  O407  1  0.25004231  0.49957775  0.10126627  1
  O2-  O408  1  0.24991265  0.83675234  0.40957841  1
  O2-  O409  1  0.24998685  0.17345786  0.57727971  1
  O2-  O410  1  0.25045087  0.50302061  0.82667189  1
  O2-  O411  1  0.75022107  0.18140382  0.14492476  1
  O2-  O412  1  0.25061213  0.17243007  0.92972254  1
  O2-  O413  1  0.74987676  0.49269892  0.13175778  1
  O2-  O414  1  0.25028465  0.82588526  0.94160472  1
  O2-  O415  1  0.74981252  0.50228171  0.58502977  1
  O2-  O416  1  0.74993389  0.17072843  0.61501005  1
  O2-  O417  1  0.75030994  0.84019078  0.37685753  1
  O2-  O418  1  0.25007232  0.17206083  0.41767640  1
  O2-  O419  1  0.25027813  0.16681285  0.32955251  1
  O2-  O420  1  0.52784344  0.65847734  0.87143392  1
  O2-  O421  1  0.95495628  0.66662707  0.62251776  1
  O2-  O422  1  0.97296604  -0.00971331  0.87966033  1
  O2-  O423  1  0.98694094  0.33085270  0.88449553  1
  O2-  O424  1  0.45105086  -0.00480815  0.36211844  1
  O2-  O425  1  0.47673743  0.34432902  0.37077097  1
  O2-  O426  1  0.47242954  0.67231652  0.62942811  1
  O2-  O427  1  0.04419312  0.67778447  0.65690571  1
  O2-  O428  1  0.97410752  0.65505584  0.87756917  1
  O2-  O429  1  0.51822711  0.33243082  0.88486234  1
  O2-  O430  1  0.97521341  0.01490095  0.12574825  1
  O2-  O431  1  0.54035511  0.01003968  0.38016036  1
  O2-  O432  1  0.02653017  0.66619587  0.37803373  1
  O2-  O433  1  0.46906118  0.67131739  0.87752394  1
  O2-  O434  1  0.04139213  -0.02385309  0.36486811  1
  O2-  O435  1  0.47114053  0.34398201  0.63894080  1
  O2-  O436  1  0.45479817  0.68698184  0.35698349  1
  O2-  O437  1  0.47845370  -0.01166539  0.63201272  1
  O2-  O438  1  0.52748216  0.34180688  0.61446914  1
  O2-  O439  1  0.96448063  -0.01126616  0.36348511  1
  O2-  O440  1  0.97722829  0.34270783  0.12311843  1
  O2-  O441  1  0.54163857  0.66248551  0.35716448  1
  O2-  O442  1  0.45514980  0.67504915  0.12744293  1
  O2-  O443  1  0.54562586  0.66441495  0.12554009  1
