# generated using pymatgen
data_La7(Ru4O11)2
_symmetry_space_group_name_H-M   'P 1'
_cell_length_a   23.98952339
_cell_length_b   16.82922062
_cell_length_c   15.42595971
_cell_angle_alpha   90.00005123
_cell_angle_beta   90.00029731
_cell_angle_gamma   89.99964461
_symmetry_Int_Tables_number   1
_chemical_formula_structural   La7(Ru4O11)2
_chemical_formula_sum   'La84 Ru96 O264'
_cell_volume   6227.84529956
_cell_formula_units_Z   12
loop_
 _symmetry_equiv_pos_site_id
 _symmetry_equiv_pos_as_xyz
  1  'x, y, z'
loop_
 _atom_type_symbol
 _atom_type_oxidation_number
  La3+  3.0
  Ru4+  4.0
  O2-  -2.0
loop_
 _atom_site_type_symbol
 _atom_site_label
 _atom_site_symmetry_multiplicity
 _atom_site_fract_x
 _atom_site_fract_y
 _atom_site_fract_z
 _atom_site_occupancy
  La3+  La0  1  0.13911377  0.00072683  0.12662461  1
  La3+  La1  1  0.14130799  0.00038839  0.37633756  1
  La3+  La2  1  0.13957604  -0.00014298  0.62113445  1
  La3+  La3  1  0.13724250  0.00001504  0.87645341  1
  La3+  La4  1  0.13771571  0.33334133  0.12491081  1
  La3+  La5  1  0.13674459  0.33267228  0.37538841  1
  La3+  La6  1  0.13761572  0.33296132  0.62352781  1
  La3+  La7  1  0.13811729  0.33278808  0.87685540  1
  La3+  La8  1  0.13681565  0.66736891  0.12641845  1
  La3+  La9  1  0.13979476  0.66762470  0.37557852  1
  La3+  La10  1  0.13839900  0.66755486  0.62420743  1
  La3+  La11  1  0.13827584  0.66645270  0.87425817  1
  La3+  La12  1  0.63874397  0.00117111  0.12569168  1
  La3+  La13  1  0.63858579  0.00277707  0.37461320  1
  La3+  La14  1  0.63781472  0.00046649  0.62573976  1
  La3+  La15  1  0.63785962  -0.00115394  0.87336234  1
  La3+  La16  1  0.63695524  0.33507027  0.12706955  1
  La3+  La17  1  0.63617734  0.33404248  0.37252926  1
  La3+  La18  1  0.63843059  0.33392223  0.62582956  1
  La3+  La19  1  0.63973701  0.33386278  0.87575416  1
  La3+  La20  1  0.63983040  0.66691027  0.12397353  1
  La3+  La21  1  0.63717453  0.66705513  0.37387262  1
  La3+  La22  1  0.63740392  0.66703904  0.62582526  1
  La3+  La23  1  0.63956608  0.66735103  0.87700609  1
  La3+  La24  1  0.35984911  0.00046827  0.12633892  1
  La3+  La25  1  0.35870299  0.00031134  0.37658934  1
  La3+  La26  1  0.35970302  0.00040456  0.62101221  1
  La3+  La27  1  0.36249407  -0.00019470  0.87694246  1
  La3+  La28  1  0.36260294  0.33262339  0.12401580  1
  La3+  La29  1  0.36287216  0.33167948  0.37737682  1
  La3+  La30  1  0.36423087  0.33211002  0.62274215  1
  La3+  La31  1  0.36180382  0.33239094  0.87521314  1
  La3+  La32  1  0.36145157  0.66687874  0.12572936  1
  La3+  La33  1  0.35805415  0.66906891  0.37509545  1
  La3+  La34  1  0.36030236  0.66634651  0.62416919  1
  La3+  La35  1  0.36131752  0.66631352  0.87479040  1
  La3+  La36  1  0.85973863  0.00092161  0.12470156  1
  La3+  La37  1  0.86076270  0.00272832  0.37693206  1
  La3+  La38  1  0.86212586  0.00098061  0.62361546  1
  La3+  La39  1  0.85963771  -0.00102255  0.87480192  1
  La3+  La40  1  0.85975805  0.33341382  0.12287893  1
  La3+  La41  1  0.86048937  0.33281133  0.37644119  1
  La3+  La42  1  0.86100868  0.33413271  0.62527204  1
  La3+  La43  1  0.85933821  0.33359599  0.87615446  1
  La3+  La44  1  0.86316070  0.66943938  0.12768527  1
  La3+  La45  1  0.86503173  0.66963526  0.36997539  1
  La3+  La46  1  0.86166199  0.66699532  0.62565787  1
  La3+  La47  1  0.86147540  0.66743169  0.87619701  1
  La3+  La48  1  -0.00367921  0.49401738  0.86793033  1
  La3+  La49  1  0.49806694  0.16694744  0.13449175  1
  La3+  La50  1  0.50026404  0.16995521  0.62520647  1
  La3+  La51  1  0.50186477  0.49816549  0.36684114  1
  La3+  La52  1  -0.00234756  0.50365502  0.37007869  1
  La3+  La53  1  -0.00165310  0.83176709  0.38015240  1
  La3+  La54  1  0.00355057  0.16789295  0.60996035  1
  La3+  La55  1  0.00209978  0.16400703  0.88047928  1
  La3+  La56  1  0.00075756  0.16512286  0.11583802  1
  La3+  La57  1  0.50040568  0.49966517  0.88507738  1
  La3+  La58  1  0.49973122  0.83304519  0.11352424  1
  La3+  La59  1  0.50259092  0.49711847  0.14112216  1
  La3+  La60  1  0.49952884  0.83182277  0.61635905  1
  La3+  La61  1  0.00055141  0.83147429  0.13594741  1
  La3+  La62  1  0.00036456  0.83303872  0.88378205  1
  La3+  La63  1  0.49791217  0.16419216  0.87905706  1
  La3+  La64  1  -0.00154568  0.16839264  0.63101295  1
  La3+  La65  1  0.50309668  0.83577758  0.37948056  1
  La3+  La66  1  0.00106377  0.83422534  0.61742797  1
  La3+  La67  1  -0.00088404  0.83044750  0.36302074  1
  La3+  La68  1  0.50004686  0.83357772  0.13563177  1
  La3+  La69  1  0.49957295  0.16728331  0.11725004  1
  La3+  La70  1  -0.00157230  0.50319908  0.88751983  1
  La3+  La71  1  0.49973317  0.49878384  0.86244572  1
  La3+  La72  1  0.75004599  0.45924615  0.49258551  1
  La3+  La73  1  0.24992644  0.16672918  -0.00040002  1
  La3+  La74  1  0.24991140  0.79776811  0.74856067  1
  La3+  La75  1  0.74967548  0.80037993  0.21440994  1
  La3+  La76  1  0.24999822  0.83481426  0.28897025  1
  La3+  La77  1  0.24991988  0.83921082  -0.05062945  1
  La3+  La78  1  0.24995238  0.52714311  -0.00031883  1
  La3+  La79  1  0.24987233  0.54323674  0.50002243  1
  La3+  La80  1  0.25002529  0.13556477  0.25422335  1
  La3+  La81  1  0.75006779  0.53186040  0.24378880  1
  La3+  La82  1  0.75002121  0.49837925  -0.00075002  1
  La3+  La83  1  0.24974068  0.17015204  0.74062894  1
  Ru4+  Ru84  1  0.00077577  0.00150191  0.00317818  1
  Ru4+  Ru85  1  0.00193644  0.00122959  0.24635700  1
  Ru4+  Ru86  1  0.00304466  -0.00447311  0.49763580  1
  Ru4+  Ru87  1  0.00033002  -0.00149728  0.75263463  1
  Ru4+  Ru88  1  0.00024626  0.33440202  0.00108817  1
  Ru4+  Ru89  1  -0.00274669  0.32595788  0.25202757  1
  Ru4+  Ru90  1  0.00106207  0.33463303  0.49767439  1
  Ru4+  Ru91  1  0.00056434  0.33702403  0.74947987  1
  Ru4+  Ru92  1  -0.00008401  0.66788454  0.00111458  1
  Ru4+  Ru93  1  -0.00210233  0.66411211  0.25335713  1
  Ru4+  Ru94  1  -0.00019349  0.66492177  0.49721032  1
  Ru4+  Ru95  1  -0.00196480  0.66974297  0.75124885  1
  Ru4+  Ru96  1  0.50079320  -0.00237394  -0.00188036  1
  Ru4+  Ru97  1  0.49821437  -0.00474205  0.25237069  1
  Ru4+  Ru98  1  0.50032176  -0.00018416  0.50036969  1
  Ru4+  Ru99  1  0.49594025  -0.00305270  0.75192517  1
  Ru4+  Ru100  1  0.49992045  0.33384606  0.00017297  1
  Ru4+  Ru101  1  0.49865089  0.33582496  0.25061044  1
  Ru4+  Ru102  1  0.50049321  0.33936522  0.50194128  1
  Ru4+  Ru103  1  0.50268321  0.33754224  0.74919610  1
  Ru4+  Ru104  1  0.49898076  0.66853425  0.00045658  1
  Ru4+  Ru105  1  0.50164988  0.66924150  0.25062919  1
  Ru4+  Ru106  1  0.50195986  0.66224241  0.50123540  1
  Ru4+  Ru107  1  0.50031981  0.66414044  0.74525190  1
  Ru4+  Ru108  1  0.11223008  0.16648172  0.00000876  1
  Ru4+  Ru109  1  0.11120459  0.16507304  0.24948243  1
  Ru4+  Ru110  1  0.11511606  0.16567523  0.49976243  1
  Ru4+  Ru111  1  0.11223539  0.16630290  0.75075553  1
  Ru4+  Ru112  1  0.11196414  0.50157326  0.00032370  1
  Ru4+  Ru113  1  0.11538804  0.50438139  0.24835795  1
  Ru4+  Ru114  1  0.11112980  0.50098062  0.49958948  1
  Ru4+  Ru115  1  0.11377544  0.49826872  0.74843382  1
  Ru4+  Ru116  1  0.11126076  0.83330249  -0.00053155  1
  Ru4+  Ru117  1  0.11393751  0.83657456  0.25075120  1
  Ru4+  Ru118  1  0.11458040  0.83502358  0.50067389  1
  Ru4+  Ru119  1  0.11125677  0.83207176  0.74988371  1
  Ru4+  Ru120  1  0.61479617  0.16611938  -0.00039345  1
  Ru4+  Ru121  1  0.61785012  0.16566358  0.25051984  1
  Ru4+  Ru122  1  0.61406768  0.16438849  0.50117438  1
  Ru4+  Ru123  1  0.61693711  0.17073492  0.74928019  1
  Ru4+  Ru124  1  0.61259672  0.49871664  0.00096995  1
  Ru4+  Ru125  1  0.61110069  0.49860533  0.25088235  1
  Ru4+  Ru126  1  0.61018832  0.50006137  0.49965638  1
  Ru4+  Ru127  1  0.61339125  0.49856200  0.74971152  1
  Ru4+  Ru128  1  0.61364081  0.83312518  0.00084017  1
  Ru4+  Ru129  1  0.61021235  0.83309135  0.24942395  1
  Ru4+  Ru130  1  0.61252021  0.83268576  0.49993885  1
  Ru4+  Ru131  1  0.61626723  0.83198037  0.75109770  1
  Ru4+  Ru132  1  0.38721504  0.16803013  0.00025820  1
  Ru4+  Ru133  1  0.38838868  0.16603478  0.25023113  1
  Ru4+  Ru134  1  0.38349640  0.16372943  0.49954930  1
  Ru4+  Ru135  1  0.38549040  0.16385727  0.75008303  1
  Ru4+  Ru136  1  0.38781139  0.50214802  -0.00001402  1
  Ru4+  Ru137  1  0.38627443  0.49983828  0.24993030  1
  Ru4+  Ru138  1  0.38908370  0.50049936  0.50118584  1
  Ru4+  Ru139  1  0.38819589  0.50044680  0.75072921  1
  Ru4+  Ru140  1  0.38923736  0.83323217  -0.00108267  1
  Ru4+  Ru141  1  0.38823396  0.83372589  0.24939094  1
  Ru4+  Ru142  1  0.38472317  0.83462487  0.50044132  1
  Ru4+  Ru143  1  0.38766976  0.83373713  0.74987471  1
  Ru4+  Ru144  1  0.88570561  0.16554695  0.00021550  1
  Ru4+  Ru145  1  0.88611293  0.16466155  0.24996717  1
  Ru4+  Ru146  1  0.88377596  0.16864046  0.49835595  1
  Ru4+  Ru147  1  0.88522002  0.16622617  0.75133482  1
  Ru4+  Ru148  1  0.88745097  0.50020842  0.00006769  1
  Ru4+  Ru149  1  0.88855135  0.50090264  0.25061773  1
  Ru4+  Ru150  1  0.88845990  0.49921768  0.49993293  1
  Ru4+  Ru151  1  0.88699192  0.49909422  0.74897457  1
  Ru4+  Ru152  1  0.88604840  0.83182198  0.00073674  1
  Ru4+  Ru153  1  0.88831643  0.83106978  0.24981320  1
  Ru4+  Ru154  1  0.88790258  0.83449878  0.49898020  1
  Ru4+  Ru155  1  0.88676831  0.83368972  0.74984788  1
  Ru4+  Ru156  1  0.74992195  0.24399531  0.50163666  1
  Ru4+  Ru157  1  0.25009292  0.27490259  0.25014031  1
  Ru4+  Ru158  1  0.74999619  0.74915410  0.75173920  1
  Ru4+  Ru159  1  0.75027547  0.24706724  0.74795332  1
  Ru4+  Ru160  1  0.25017132  0.41110339  0.24400876  1
  Ru4+  Ru161  1  0.75005635  0.08628428  0.74796051  1
  Ru4+  Ru162  1  0.24999441  0.39310001  0.00405552  1
  Ru4+  Ru163  1  0.24989292  0.39457531  0.49947908  1
  Ru4+  Ru164  1  0.75032894  0.24220690  0.25610675  1
  Ru4+  Ru165  1  0.25002450  0.96080331  0.01151643  1
  Ru4+  Ru166  1  0.75006643  0.08633705  -0.00038576  1
  Ru4+  Ru167  1  0.74989681  0.92025681  0.50419935  1
  Ru4+  Ru168  1  0.75014889  0.74660999  0.50167834  1
  Ru4+  Ru169  1  0.25016070  0.58554525  0.24574760  1
  Ru4+  Ru170  1  0.25023501  0.58950385  0.75504003  1
  Ru4+  Ru171  1  0.75014056  0.60349364  0.49449594  1
  Ru4+  Ru172  1  0.75033401  0.39612127  0.26012917  1
  Ru4+  Ru173  1  0.25027293  0.41730574  0.75757211  1
  Ru4+  Ru174  1  0.25005743  0.04712791  0.73647080  1
  Ru4+  Ru175  1  0.24992852  0.29392776  0.76033742  1
  Ru4+  Ru176  1  0.74997484  0.58615480  0.75284601  1
  Ru4+  Ru177  1  0.74972406  0.93310478  0.24739557  1
  Ru4+  Ru178  1  0.24996971  0.92360593  0.74260141  1
  Ru4+  Ru179  1  0.25007636  0.71380879  -0.01000072  1
  O2-  O180  1  0.16770213  0.08014688  -0.00060542  1
  O2-  O181  1  0.16678248  0.08049738  0.25127001  1
  O2-  O182  1  0.16523064  0.08242341  0.49949299  1
  O2-  O183  1  0.16555045  0.07990638  0.74999396  1
  O2-  O184  1  0.16700688  0.41274280  0.00034642  1
  O2-  O185  1  0.16823915  0.41439278  0.25090802  1
  O2-  O186  1  0.16763929  0.41270411  0.49990327  1
  O2-  O187  1  0.16720697  0.41440625  0.75001835  1
  O2-  O188  1  0.16687948  0.74599593  -0.00033675  1
  O2-  O189  1  0.16874083  0.74712921  0.25082867  1
  O2-  O190  1  0.16691626  0.74779543  0.50009765  1
  O2-  O191  1  0.16760351  0.74676352  0.74949598  1
  O2-  O192  1  0.66707867  0.08109433  0.00052665  1
  O2-  O193  1  0.66639817  0.08184344  0.25011569  1
  O2-  O194  1  0.66730427  0.08157072  0.49937414  1
  O2-  O195  1  0.66855521  0.08071863  0.74990003  1
  O2-  O196  1  0.66857209  0.41536453  0.00039362  1
  O2-  O197  1  0.66775521  0.41345097  0.25025709  1
  O2-  O198  1  0.66474484  0.41241295  0.50082219  1
  O2-  O199  1  0.66781982  0.41467602  0.74882745  1
  O2-  O200  1  0.66662195  0.74787266  0.00012875  1
  O2-  O201  1  0.66700125  0.74545660  0.25111840  1
  O2-  O202  1  0.66716702  0.74723529  0.49933499  1
  O2-  O203  1  0.66780850  0.74801708  0.74962827  1
  O2-  O204  1  0.33231255  0.25300936  0.00049120  1
  O2-  O205  1  0.33254683  0.25417142  0.25036936  1
  O2-  O206  1  0.33247806  0.25248328  0.49853071  1
  O2-  O207  1  0.33441152  0.25364013  0.75006223  1
  O2-  O208  1  0.33325643  0.58638340  -0.00025347  1
  O2-  O209  1  0.33252692  0.58562627  0.24979844  1
  O2-  O210  1  0.33345799  0.58597942  0.50056928  1
  O2-  O211  1  0.33238753  0.58619507  0.74966386  1
  O2-  O212  1  0.33280185  0.92041556  0.00027156  1
  O2-  O213  1  0.33310527  0.91889882  0.25119775  1
  O2-  O214  1  0.33427283  0.91717573  0.50002396  1
  O2-  O215  1  0.33447083  0.91976923  0.74976163  1
  O2-  O216  1  0.83226107  0.25133051  -0.00035570  1
  O2-  O217  1  0.83191379  0.25307120  0.24984871  1
  O2-  O218  1  0.83272701  0.25233748  0.49981214  1
  O2-  O219  1  0.83183882  0.25254586  0.74938702  1
  O2-  O220  1  0.83068643  0.58566285  0.00019080  1
  O2-  O221  1  0.83269953  0.58760001  0.25044401  1
  O2-  O222  1  0.83297506  0.58748811  0.49959422  1
  O2-  O223  1  0.83211799  0.58594686  0.75023340  1
  O2-  O224  1  0.83193105  0.91944885  0.00063289  1
  O2-  O225  1  0.83342506  0.92000914  0.24980832  1
  O2-  O226  1  0.83259012  0.91887470  0.49995708  1
  O2-  O227  1  0.83326650  0.91877715  0.74961528  1
  O2-  O228  1  0.16724274  0.25308982  0.00030282  1
  O2-  O229  1  0.16681238  0.25364838  0.25052070  1
  O2-  O230  1  0.16658531  0.25340474  0.49933868  1
  O2-  O231  1  0.16576374  0.25412618  0.75040303  1
  O2-  O232  1  0.16689384  0.58708763  -0.00031421  1
  O2-  O233  1  0.16687844  0.58589988  0.25067156  1
  O2-  O234  1  0.16496948  0.58667555  0.50054490  1
  O2-  O235  1  0.16813711  0.58607677  0.75003502  1
  O2-  O236  1  0.16723878  0.92030270  -0.00081026  1
  O2-  O237  1  0.16826852  0.91840267  0.25167773  1
  O2-  O238  1  0.16701177  0.91714376  0.49952225  1
  O2-  O239  1  0.16650778  0.91962520  0.75003668  1
  O2-  O240  1  0.66748147  0.25111786  0.00003997  1
  O2-  O241  1  0.66734029  0.25253532  0.24995231  1
  O2-  O242  1  0.66704312  0.25270457  0.50000828  1
  O2-  O243  1  0.66714072  0.25234868  0.74908593  1
  O2-  O244  1  0.66827998  0.58567360  -0.00007527  1
  O2-  O245  1  0.66587975  0.58695399  0.25066649  1
  O2-  O246  1  0.66722439  0.58743674  0.49952786  1
  O2-  O247  1  0.66772993  0.58623603  0.74975862  1
  O2-  O248  1  0.66662052  0.91929498  0.00065195  1
  O2-  O249  1  0.66680550  0.92069552  0.25013943  1
  O2-  O250  1  0.66728521  0.91942049  0.49958724  1
  O2-  O251  1  0.66669949  0.91827867  0.74972235  1
  O2-  O252  1  0.33307304  0.07938005  -0.00054642  1
  O2-  O253  1  0.33442952  0.08031674  0.25056399  1
  O2-  O254  1  0.33508389  0.08233870  0.49935237  1
  O2-  O255  1  0.33381711  0.08018843  0.74938278  1
  O2-  O256  1  0.33215287  0.41284507  0.00071026  1
  O2-  O257  1  0.33306527  0.41412469  0.25056242  1
  O2-  O258  1  0.33202068  0.41368550  0.49945571  1
  O2-  O259  1  0.33242302  0.41356658  0.75006717  1
  O2-  O260  1  0.33294694  0.74621059  -0.00002941  1
  O2-  O261  1  0.33132419  0.74772709  0.24983594  1
  O2-  O262  1  0.33183553  0.74887678  0.50060915  1
  O2-  O263  1  0.33205235  0.74655349  0.74973207  1
  O2-  O264  1  0.83299013  0.08159238  0.00037813  1
  O2-  O265  1  0.83439847  0.08244526  0.25018982  1
  O2-  O266  1  0.83287786  0.08179165  0.50023190  1
  O2-  O267  1  0.83293808  0.08132925  0.74938363  1
  O2-  O268  1  0.83259845  0.41532747  0.00013593  1
  O2-  O269  1  0.83356883  0.41322508  0.25037205  1
  O2-  O270  1  0.83507537  0.41242133  0.50080466  1
  O2-  O271  1  0.83262172  0.41422687  0.74954409  1
  O2-  O272  1  0.83397790  0.74847150  0.00034868  1
  O2-  O273  1  0.83243942  0.74614894  0.25076270  1
  O2-  O274  1  0.83246834  0.74663059  0.49983250  1
  O2-  O275  1  0.83208125  0.74731679  0.74969399  1
  O2-  O276  1  0.04626105  0.57233483  0.23742486  1
  O2-  O277  1  0.54511091  0.90568194  0.72935705  1
  O2-  O278  1  0.04035396  0.43750785  0.25357650  1
  O2-  O279  1  0.45290669  0.90537134  0.48505913  1
  O2-  O280  1  0.45199871  0.23305783  0.51658384  1
  O2-  O281  1  0.54538304  0.90283750  0.76832041  1
  O2-  O282  1  0.45169683  0.23456328  0.26471775  1
  O2-  O283  1  0.45361868  0.23710329  0.73213003  1
  O2-  O284  1  0.54510626  0.56730634  0.73627811  1
  O2-  O285  1  0.54616048  0.23580428  0.26874332  1
  O2-  O286  1  0.04517270  0.43339654  0.48565251  1
  O2-  O287  1  0.54260075  0.10554213  0.75772815  1
  O2-  O288  1  0.04753697  0.43009492  0.73577892  1
  O2-  O289  1  0.95268571  0.43226600  0.73347310  1
  O2-  O290  1  0.95191725  0.09676882  0.73909534  1
  O2-  O291  1  0.53912775  0.22418484  0.97301099  1
  O2-  O292  1  0.54630705  0.56969399  0.26289105  1
  O2-  O293  1  0.04769843  0.09595952  0.73918070  1
  O2-  O294  1  0.54837868  0.42927774  0.23423242  1
  O2-  O295  1  0.54467790  0.56702230  0.01524622  1
  O2-  O296  1  0.54771036  0.23706365  0.22969243  1
  O2-  O297  1  0.54258524  0.10547881  0.75791782  1
  O2-  O298  1  0.54756390  0.90185505  0.51445067  1
  O2-  O299  1  0.96032641  0.22338703  0.97183227  1
  O2-  O300  1  0.46832617  0.54107613  0.48319041  1
  O2-  O301  1  0.45973843  0.76958532  0.47377052  1
  O2-  O302  1  0.05633677  0.75259240  0.22720087  1
  O2-  O303  1  0.95656420  0.77428909  0.26337142  1
  O2-  O304  1  0.45464209  0.09935760  0.98689984  1
  O2-  O305  1  0.45697157  0.10294941  0.72011449  1
  O2-  O306  1  0.54670228  0.09734440  0.23045953  1
  O2-  O307  1  0.04612516  0.42922087  0.98823715  1
  O2-  O308  1  0.46252114  0.44479517  0.03290280  1
  O2-  O309  1  0.95197643  0.76055007  0.24051207  1
  O2-  O310  1  0.95502850  0.23681547  0.48449770  1
  O2-  O311  1  0.04173154  0.56327732  0.77305605  1
  O2-  O312  1  0.45195313  0.42971966  0.26437741  1
  O2-  O313  1  0.95321691  0.76571480  0.51337094  1
  O2-  O314  1  0.54292992  0.43748739  0.25996850  1
  O2-  O315  1  0.95523397  0.90052117  0.73694534  1
  O2-  O316  1  0.04503270  0.23620561  0.76671038  1
  O2-  O317  1  0.95228911  0.09458562  0.51394352  1
  O2-  O318  1  0.45523727  0.23527818  0.77132852  1
  O2-  O319  1  0.04687855  0.76553383  0.48389817  1
  O2-  O320  1  0.54339851  0.09748947  0.26937561  1
  O2-  O321  1  0.04025141  0.43745869  0.25311792  1
  O2-  O322  1  0.53341686  0.77641187  0.75740572  1
  O2-  O323  1  0.54952222  0.56787471  0.51466390  1
  O2-  O324  1  0.93341588  0.73337685  0.28551816  1
  O2-  O325  1  0.56263173  0.06929407  0.53247007  1
  O2-  O326  1  0.93017478  0.27659461  0.05055722  1
  O2-  O327  1  0.06555398  0.73946659  0.02840846  1
  O2-  O328  1  0.93481750  0.26543575  0.69416206  1
  O2-  O329  1  0.43055168  0.60211975  0.56794801  1
  O2-  O330  1  0.57394790  0.05374026  0.70385409  1
  O2-  O331  1  0.56714185  0.39836799  0.28271690  1
  O2-  O332  1  0.93660640  0.93154061  0.94633050  1
  O2-  O333  1  0.56427729  0.40478357  0.77761987  1
  O2-  O334  1  0.06444067  0.92850650  0.52790428  1
  O2-  O335  1  0.93574746  0.93042109  0.05331980  1
  O2-  O336  1  0.06385792  0.93071153  0.78286808  1
  O2-  O337  1  0.07196971  0.60242882  0.70783777  1
  O2-  O338  1  0.43360080  0.59111481  0.20430815  1
  O2-  O339  1  0.43764699  0.26023079  0.52969759  1
  O2-  O340  1  0.43538271  0.73615725  0.70053669  1
  O2-  O341  1  0.43422360  0.74004144  0.79445342  1
  O2-  O342  1  0.93629050  0.93318524  0.30717448  1
  O2-  O343  1  0.07414161  0.38461679  0.20421361  1
  O2-  O344  1  0.42637365  0.61521473  0.43616000  1
  O2-  O345  1  0.06539587  0.74115830  0.71995895  1
  O2-  O346  1  0.43519840  0.26048753  0.03060397  1
  O2-  O347  1  0.93603432  0.26389084  0.30069563  1
  O2-  O348  1  0.93559739  0.93171806  0.19371476  1
  O2-  O349  1  0.43542082  0.93082001  0.96774542  1
  O2-  O350  1  0.57030432  0.27581692  0.05218880  1
  O2-  O351  1  0.06422573  0.07375845  0.02773357  1
  O2-  O352  1  0.56524039  0.40567173  0.97003238  1
  O2-  O353  1  0.93446972  0.59520222  0.97128356  1
  O2-  O354  1  0.42907664  0.39100494  0.94815771  1
  O2-  O355  1  0.93625347  0.26358691  0.19867457  1
  O2-  O356  1  0.05519374  0.75205550  0.22790160  1
  O2-  O357  1  0.57641336  0.72277612  0.78545903  1
  O2-  O358  1  0.43077945  0.05907226  0.79786423  1
  O2-  O359  1  0.06412342  0.07321955  0.22215515  1
  O2-  O360  1  0.93614211  0.59494170  0.28342973  1
  O2-  O361  1  0.06407201  0.92882784  0.96651879  1
  O2-  O362  1  0.93541022  0.07246232  0.52994387  1
  O2-  O363  1  0.06455128  0.92656366  0.22146144  1
  O2-  O364  1  0.06456560  0.26376275  0.96697039  1
  O2-  O365  1  0.43579287  0.74029618  0.22081882  1
  O2-  O366  1  0.43124052  0.73067490  0.54660371  1
  O2-  O367  1  0.93477364  0.73871890  0.77898704  1
  O2-  O368  1  0.93425430  0.26015059  0.80166499  1
  O2-  O369  1  0.43465003  0.40518741  0.52767003  1
  O2-  O370  1  0.43493619  0.59700621  0.29998245  1
  O2-  O371  1  0.43477968  0.73908661  0.97152667  1
  O2-  O372  1  0.24998784  0.33139953  0.90284403  1
  O2-  O373  1  0.25003633  -0.00196146  0.85623442  1
  O2-  O374  1  0.24996392  0.33870469  0.64732470  1
  O2-  O375  1  0.25000539  0.65403135  0.08707517  1
  O2-  O376  1  0.75002947  0.66590531  0.07986714  1
  O2-  O377  1  0.74994774  -0.00110613  0.91986106  1
  O2-  O378  1  0.25024791  -0.00041050  0.60101643  1
  O2-  O379  1  0.74997241  0.33277326  0.40780033  1
  O2-  O380  1  0.75002804  0.00217965  0.15256323  1
  O2-  O381  1  0.24990583  0.66945815  0.84414672  1
  O2-  O382  1  0.24991411  0.66562646  0.42057802  1
  O2-  O383  1  0.25003766  0.67191230  0.17449565  1
  O2-  O384  1  0.75002053  -0.00123481  0.83035719  1
  O2-  O385  1  0.74997861  0.00198053  0.42344638  1
  O2-  O386  1  0.75001537  0.33512767  0.07576905  1
  O2-  O387  1  0.74994065  0.32750250  0.16526374  1
  O2-  O388  1  0.25018073  -0.00014950  0.15296251  1
  O2-  O389  1  0.24997820  0.66937961  0.32970983  1
  O2-  O390  1  0.75005558  0.33351327  0.91852561  1
  O2-  O391  1  0.75009938  0.00687111  0.33353459  1
  O2-  O392  1  0.75011158  0.66568506  0.17139848  1
  O2-  O393  1  0.75007325  0.66850624  0.59810108  1
  O2-  O394  1  0.24997779  -0.00021823  0.40234096  1
  O2-  O395  1  0.74998553  0.33511720  0.82974437  1
  O2-  O396  1  0.75000037  0.16816216  0.92137763  1
  O2-  O397  1  0.25006200  0.48869326  0.60669332  1
  O2-  O398  1  0.24988370  0.49983189  0.84222479  1
  O2-  O399  1  0.24989547  0.83249717  0.16727296  1
  O2-  O400  1  0.74997823  0.83519004  0.83292826  1
  O2-  O401  1  0.75008029  0.16641743  0.83139862  1
  O2-  O402  1  0.25003290  0.16867216  0.12443149  1
  O2-  O403  1  0.75004392  0.49534453  0.68893125  1
  O2-  O404  1  0.75014107  0.83777320  0.34193281  1
  O2-  O405  1  0.74998275  0.83312453  0.42862332  1
  O2-  O406  1  0.24999727  0.16648721  0.87670806  1
  O2-  O407  1  0.75000420  0.83317494  0.58267977  1
  O2-  O408  1  0.75006616  0.17066554  0.33828110  1
  O2-  O409  1  0.75000836  0.83144792  0.91637494  1
  O2-  O410  1  0.24981629  0.50266967  0.68689080  1
  O2-  O411  1  0.75000351  0.50750153  0.37467151  1
  O2-  O412  1  0.24986966  0.16672744  0.59574923  1
  O2-  O413  1  0.74999651  0.17074353  0.58878341  1
  O2-  O414  1  0.24997332  0.83328592  0.08333831  1
  O2-  O415  1  0.24999954  0.49966162  0.31285348  1
  O2-  O416  1  0.24997976  0.49989004  0.15776270  1
  O2-  O417  1  0.75001105  0.83515363  0.66997937  1
  O2-  O418  1  0.25017406  0.48846235  0.39337779  1
  O2-  O419  1  0.74995974  0.50796679  0.60669413  1
  O2-  O420  1  0.47039680  0.65871669  0.87667715  1
  O2-  O421  1  0.03360898  0.00158550  0.62761417  1
  O2-  O422  1  0.96841913  0.66597485  0.12208378  1
  O2-  O423  1  0.47623765  0.33450357  0.63206877  1
  O2-  O424  1  0.52790706  0.66850329  0.37609190  1
  O2-  O425  1  0.97395809  0.33870324  0.87851651  1
  O2-  O426  1  0.02797693  0.33193673  0.37587104  1
  O2-  O427  1  0.02797146  0.66136197  0.12061505  1
  O2-  O428  1  0.53889096  -0.00108376  0.12266596  1
  O2-  O429  1  0.53160269  0.66299825  0.88063414  1
  O2-  O430  1  0.46138441  -0.00094921  0.12531263  1
  O2-  O431  1  0.02789270  0.33175538  0.62328202  1
  O2-  O432  1  0.46803283  0.66843919  0.11638697  1
  O2-  O433  1  0.52798568  0.66962896  0.62564435  1
  O2-  O434  1  0.02352523  -0.00212003  0.12206672  1
  O2-  O435  1  0.47297433  0.33444493  0.12810477  1
  O2-  O436  1  0.02752591  0.66860959  0.61739132  1
  O2-  O437  1  0.53651691  0.66836760  0.12522292  1
  O2-  O438  1  0.03700474  0.66796624  0.87620880  1
  O2-  O439  1  0.96632526  -0.00348845  0.62769878  1
  O2-  O440  1  0.52454845  0.32892621  0.87444046  1
  O2-  O441  1  0.96820041  0.66575058  0.62632337  1
  O2-  O442  1  0.52823602  0.00075222  0.87880899  1
  O2-  O443  1  0.96712794  0.66691075  0.87473904  1
