# generated using pymatgen
data_La7(Ru4O11)2
_symmetry_space_group_name_H-M   'P 1'
_cell_length_a   23.99273302
_cell_length_b   16.83235075
_cell_length_c   15.43045724
_cell_angle_alpha   90.00010859
_cell_angle_beta   90.00097468
_cell_angle_gamma   89.99903346
_symmetry_Int_Tables_number   1
_chemical_formula_structural   La7(Ru4O11)2
_chemical_formula_sum   'La84 Ru96 O264'
_cell_volume   6231.65337970
_cell_formula_units_Z   12
loop_
 _symmetry_equiv_pos_site_id
 _symmetry_equiv_pos_as_xyz
  1  'x, y, z'
loop_
 _atom_type_symbol
 _atom_type_oxidation_number
  La3+  3.0
  Ru4+  4.0
  O2-  -2.0
loop_
 _atom_site_type_symbol
 _atom_site_label
 _atom_site_symmetry_multiplicity
 _atom_site_fract_x
 _atom_site_fract_y
 _atom_site_fract_z
 _atom_site_occupancy
  La3+  La0  1  0.14490820  0.00233584  0.12275660  1
  La3+  La1  1  0.14424000  0.00115958  0.37781885  1
  La3+  La2  1  0.14014669  -0.00320529  0.62696976  1
  La3+  La3  1  0.13778365  -0.00824979  0.87921724  1
  La3+  La4  1  0.12887170  0.32759263  0.12330721  1
  La3+  La5  1  0.14576798  0.33103804  0.37471182  1
  La3+  La6  1  0.12778020  0.33064618  0.62991653  1
  La3+  La7  1  0.13027746  0.33255826  0.87585158  1
  La3+  La8  1  0.13312480  0.66719101  0.12252466  1
  La3+  La9  1  0.13826059  0.66987962  0.37618975  1
  La3+  La10  1  0.14004472  0.67095592  0.62340767  1
  La3+  La11  1  0.12888517  0.67293160  0.87869450  1
  La3+  La12  1  0.63859437  0.00210938  0.13294828  1
  La3+  La13  1  0.63629395  0.00371693  0.36660697  1
  La3+  La14  1  0.64546589  0.00151687  0.62421939  1
  La3+  La15  1  0.63686164  0.00154059  0.87345831  1
  La3+  La16  1  0.64281570  0.33218597  0.12138402  1
  La3+  La17  1  0.64169942  0.33411020  0.37407741  1
  La3+  La18  1  0.64239716  0.33476006  0.62460941  1
  La3+  La19  1  0.64702047  0.33169509  0.87979507  1
  La3+  La20  1  0.63882540  0.66355673  0.12211445  1
  La3+  La21  1  0.64639638  0.66977066  0.37457088  1
  La3+  La22  1  0.64052605  0.67213158  0.62465450  1
  La3+  La23  1  0.63898014  0.66746858  0.87591584  1
  La3+  La24  1  0.35663285  -0.00117663  0.12463434  1
  La3+  La25  1  0.35774073  0.00208088  0.37796826  1
  La3+  La26  1  0.35609036  -0.00078901  0.62691303  1
  La3+  La27  1  0.35668910  -0.00668861  0.87658493  1
  La3+  La28  1  0.36365861  0.33706420  0.12405649  1
  La3+  La29  1  0.35622526  0.32970038  0.37615266  1
  La3+  La30  1  0.36872122  0.33152710  0.62435895  1
  La3+  La31  1  0.35755111  0.33112334  0.88141593  1
  La3+  La32  1  0.35556354  0.66806039  0.12709312  1
  La3+  La33  1  0.35895771  0.67068507  0.37758524  1
  La3+  La34  1  0.36180441  0.66834074  0.62730591  1
  La3+  La35  1  0.36863137  0.66501537  0.86938062  1
  La3+  La36  1  0.86087203  0.00254981  0.12572270  1
  La3+  La37  1  0.86168166  0.00165717  0.37939889  1
  La3+  La38  1  0.85746107  0.00546787  0.62961366  1
  La3+  La39  1  0.87027170  0.00176846  0.87185611  1
  La3+  La40  1  0.86324364  0.33092193  0.12297184  1
  La3+  La41  1  0.85997530  0.32981735  0.37434059  1
  La3+  La42  1  0.86146410  0.33039723  0.62536789  1
  La3+  La43  1  0.85944868  0.33287273  0.88151745  1
  La3+  La44  1  0.86664108  0.66198023  0.13024585  1
  La3+  La45  1  0.86377383  0.66539486  0.37805376  1
  La3+  La46  1  0.87140600  0.67239958  0.61600455  1
  La3+  La47  1  0.86462737  0.66743159  0.87450484  1
  La3+  La48  1  -0.00211764  0.50461896  0.38212498  1
  La3+  La49  1  0.50520490  0.16673760  0.36217204  1
  La3+  La50  1  0.49828966  0.17307785  0.64467627  1
  La3+  La51  1  0.00289448  0.17644087  0.35324446  1
  La3+  La52  1  0.50238458  0.83209118  0.62371037  1
  La3+  La53  1  0.49334180  0.16376968  0.62593824  1
  La3+  La54  1  0.51168549  0.17274061  0.13834746  1
  La3+  La55  1  -0.00001007  0.17253102  0.62389266  1
  La3+  La56  1  0.50153427  0.15600395  0.38026395  1
  La3+  La57  1  0.49495370  0.50224886  0.11553044  1
  La3+  La58  1  -0.00043738  0.17152575  0.88457989  1
  La3+  La59  1  0.50261609  0.83339749  0.11352753  1
  La3+  La60  1  0.00162887  0.50711234  0.88179114  1
  La3+  La61  1  0.49620839  0.48326468  0.86963570  1
  La3+  La62  1  0.49549545  0.83236548  0.13289308  1
  La3+  La63  1  0.00047455  0.50293263  0.12262172  1
  La3+  La64  1  -0.00778504  0.81941784  0.38685476  1
  La3+  La65  1  0.49824143  0.84232948  0.86620666  1
  La3+  La66  1  0.00041466  0.83022880  0.86729065  1
  La3+  La67  1  -0.00115937  0.83778586  0.12920091  1
  La3+  La68  1  0.50082364  0.83467476  0.37542778  1
  La3+  La69  1  -0.00500463  0.50719911  0.62887087  1
  La3+  La70  1  0.49346284  0.51527799  0.61362451  1
  La3+  La71  1  0.50058172  0.48965921  0.13103937  1
  La3+  La72  1  0.24923323  0.54078765  0.24562382  1
  La3+  La73  1  0.25004250  0.22647539  0.00856123  1
  La3+  La74  1  0.25201696  0.16279652  0.77230456  1
  La3+  La75  1  0.75550269  0.52124942  0.55379907  1
  La3+  La76  1  0.75055102  0.12514235  0.78058479  1
  La3+  La77  1  0.24930352  0.82721418  0.74518258  1
  La3+  La78  1  0.24756648  0.46816330  0.72404191  1
  La3+  La79  1  0.24857813  0.16369821  0.49526219  1
  La3+  La80  1  0.75130069  0.49944226  0.23769740  1
  La3+  La81  1  0.75187344  0.48384345  -0.00972477  1
  La3+  La82  1  0.24864592  0.46391809  0.00164762  1
  La3+  La83  1  0.25062340  0.45282432  0.48948957  1
  Ru4+  Ru84  1  -0.00782378  0.00450454  0.00601583  1
  Ru4+  Ru85  1  0.00807134  -0.01032968  0.24567450  1
  Ru4+  Ru86  1  -0.00624318  -0.00625983  0.50472769  1
  Ru4+  Ru87  1  -0.00252505  -0.00977510  0.74012113  1
  Ru4+  Ru88  1  -0.00762615  0.33646544  -0.00102888  1
  Ru4+  Ru89  1  -0.00155075  0.33686183  0.24406110  1
  Ru4+  Ru90  1  -0.00181430  0.33705503  0.49762596  1
  Ru4+  Ru91  1  -0.01029291  0.33438706  0.74688370  1
  Ru4+  Ru92  1  -0.01147507  0.66823202  0.00226750  1
  Ru4+  Ru93  1  0.00359219  0.67079558  0.24990654  1
  Ru4+  Ru94  1  0.01111149  0.67313087  0.51222216  1
  Ru4+  Ru95  1  -0.00171598  0.66690703  0.74987493  1
  Ru4+  Ru96  1  0.49455274  0.00985751  -0.01340359  1
  Ru4+  Ru97  1  0.48881550  -0.00010576  0.25342768  1
  Ru4+  Ru98  1  0.49820078  -0.00444524  0.49585770  1
  Ru4+  Ru99  1  0.50104620  0.00016355  0.75395259  1
  Ru4+  Ru100  1  0.50569711  0.32108226  -0.00691004  1
  Ru4+  Ru101  1  0.50285210  0.34516260  0.25596022  1
  Ru4+  Ru102  1  0.49866510  0.33813203  0.50466618  1
  Ru4+  Ru103  1  0.49677503  0.33653247  0.75880215  1
  Ru4+  Ru104  1  0.50045776  0.66640873  0.00356513  1
  Ru4+  Ru105  1  0.49793412  0.66617285  0.24800771  1
  Ru4+  Ru106  1  0.50935936  0.65831528  0.49102177  1
  Ru4+  Ru107  1  0.50077851  0.67382250  0.74817644  1
  Ru4+  Ru108  1  0.11267358  0.15939595  -0.00074727  1
  Ru4+  Ru109  1  0.11042718  0.17121950  0.25156443  1
  Ru4+  Ru110  1  0.10813321  0.16666298  0.50321015  1
  Ru4+  Ru111  1  0.11331960  0.16076866  0.75145013  1
  Ru4+  Ru112  1  0.11950736  0.50444882  0.00395536  1
  Ru4+  Ru113  1  0.10953008  0.50147209  0.25174637  1
  Ru4+  Ru114  1  0.11072406  0.50131236  0.50180877  1
  Ru4+  Ru115  1  0.11302567  0.50531369  0.74822901  1
  Ru4+  Ru116  1  0.11891566  0.83812490  0.00298300  1
  Ru4+  Ru117  1  0.11082016  0.83945655  0.24645053  1
  Ru4+  Ru118  1  0.11195372  0.82263740  0.50636713  1
  Ru4+  Ru119  1  0.11053359  0.83360001  0.74856317  1
  Ru4+  Ru120  1  0.61255875  0.16689165  0.00195106  1
  Ru4+  Ru121  1  0.62056923  0.16805331  0.24663836  1
  Ru4+  Ru122  1  0.61748434  0.16487668  0.50348320  1
  Ru4+  Ru123  1  0.60931193  0.16446878  0.75343046  1
  Ru4+  Ru124  1  0.61315219  0.49495489  -0.00753083  1
  Ru4+  Ru125  1  0.60560624  0.48817732  0.26013797  1
  Ru4+  Ru126  1  0.60289183  0.50818913  0.49714448  1
  Ru4+  Ru127  1  0.61529005  0.49130494  0.75623248  1
  Ru4+  Ru128  1  0.61655046  0.83623616  0.00131229  1
  Ru4+  Ru129  1  0.61649475  0.82999987  0.25269759  1
  Ru4+  Ru130  1  0.61397688  0.83232748  0.50114537  1
  Ru4+  Ru131  1  0.60937297  0.82957808  0.75008811  1
  Ru4+  Ru132  1  0.39907167  0.16109787  -0.00001789  1
  Ru4+  Ru133  1  0.38208704  0.17406332  0.24708324  1
  Ru4+  Ru134  1  0.38354771  0.16651435  0.50404620  1
  Ru4+  Ru135  1  0.39470317  0.16652384  0.74388076  1
  Ru4+  Ru136  1  0.38404218  0.51008833  -0.00198587  1
  Ru4+  Ru137  1  0.38817514  0.49924937  0.25673273  1
  Ru4+  Ru138  1  0.39121653  0.49931971  0.49799848  1
  Ru4+  Ru139  1  0.38724465  0.48873750  0.75261769  1
  Ru4+  Ru140  1  0.38510030  0.83452350  -0.00422697  1
  Ru4+  Ru141  1  0.38654608  0.83122005  0.25029885  1
  Ru4+  Ru142  1  0.38798480  0.83250928  0.50111142  1
  Ru4+  Ru143  1  0.38705021  0.83600233  0.74955578  1
  Ru4+  Ru144  1  0.88619536  0.16820463  0.00339286  1
  Ru4+  Ru145  1  0.88596366  0.16356510  0.25280117  1
  Ru4+  Ru146  1  0.88526990  0.16894769  0.49720666  1
  Ru4+  Ru147  1  0.88364761  0.17358934  0.74888017  1
  Ru4+  Ru148  1  0.88678628  0.50485689  -0.00323115  1
  Ru4+  Ru149  1  0.89013356  0.48690746  0.25107635  1
  Ru4+  Ru150  1  0.88564398  0.49523265  0.50279422  1
  Ru4+  Ru151  1  0.88421542  0.49721565  0.75103758  1
  Ru4+  Ru152  1  0.88417399  0.83515384  0.00087404  1
  Ru4+  Ru153  1  0.88714721  0.83170686  0.24877145  1
  Ru4+  Ru154  1  0.88431435  0.84110285  0.50482132  1
  Ru4+  Ru155  1  0.88931716  0.83735106  0.74891274  1
  Ru4+  Ru156  1  0.25043144  0.61994732  -0.00559267  1
  Ru4+  Ru157  1  0.24910832  0.76246201  0.24511825  1
  Ru4+  Ru158  1  0.75095328  0.90937032  0.23859740  1
  Ru4+  Ru159  1  0.24877601  0.01033656  0.76070011  1
  Ru4+  Ru160  1  0.24950303  0.29200056  0.71367905  1
  Ru4+  Ru161  1  0.25144927  0.60076061  0.48776130  1
  Ru4+  Ru162  1  0.24895418  0.38512664  0.26643296  1
  Ru4+  Ru163  1  0.75100940  0.77087159  0.00182183  1
  Ru4+  Ru164  1  0.24910567  0.08300503  0.26510897  1
  Ru4+  Ru165  1  0.25105619  0.75675652  -0.00731131  1
  Ru4+  Ru166  1  0.75049665  0.58682040  0.74891799  1
  Ru4+  Ru167  1  0.74773295  0.90540707  0.51117408  1
  Ru4+  Ru168  1  0.74902714  0.90727630  0.74329204  1
  Ru4+  Ru169  1  0.75115335  0.23684059  0.25395260  1
  Ru4+  Ru170  1  0.24936166  0.06222930  0.00282858  1
  Ru4+  Ru171  1  0.25019458  0.90445216  0.25690483  1
  Ru4+  Ru172  1  0.75146875  0.76040352  0.23948606  1
  Ru4+  Ru173  1  0.74908342  0.28018673  0.77035944  1
  Ru4+  Ru174  1  0.24925429  0.90312798  0.49749430  1
  Ru4+  Ru175  1  0.74810658  0.38314155  0.49553590  1
  Ru4+  Ru176  1  0.25011222  0.60393496  0.77800471  1
  Ru4+  Ru177  1  0.74956208  0.66435690  0.52080883  1
  Ru4+  Ru178  1  0.74975685  0.08338774  0.00507539  1
  Ru4+  Ru179  1  0.74961371  0.90515266  0.00320196  1
  O2-  O180  1  0.16655346  0.07898446  -0.00406552  1
  O2-  O181  1  0.16290672  0.08366815  0.25506343  1
  O2-  O182  1  0.16175082  0.07820362  0.50343928  1
  O2-  O183  1  0.16689063  0.07610683  0.75087539  1
  O2-  O184  1  0.16003950  0.41076692  -0.00270981  1
  O2-  O185  1  0.16738682  0.41616924  0.25038624  1
  O2-  O186  1  0.16190309  0.41121279  0.50910899  1
  O2-  O187  1  0.16073861  0.41174929  0.74825602  1
  O2-  O188  1  0.16794292  0.74998038  0.00175170  1
  O2-  O189  1  0.16528702  0.75094868  0.24911245  1
  O2-  O190  1  0.16747799  0.74890955  0.50014918  1
  O2-  O191  1  0.16435057  0.74884262  0.75589725  1
  O2-  O192  1  0.66449106  0.07711346  0.00215831  1
  O2-  O193  1  0.66771334  0.07941474  0.24978849  1
  O2-  O194  1  0.66307152  0.07881087  0.49706826  1
  O2-  O195  1  0.66361537  0.07816501  0.74860759  1
  O2-  O196  1  0.67017631  0.41108360  0.00091006  1
  O2-  O197  1  0.66994374  0.41629716  0.25259271  1
  O2-  O198  1  0.66467681  0.41393587  0.49939009  1
  O2-  O199  1  0.66709939  0.41597086  0.74676650  1
  O2-  O200  1  0.67164002  0.74806174  -0.00597660  1
  O2-  O201  1  0.66854609  0.74835189  0.24308447  1
  O2-  O202  1  0.66943041  0.74592029  0.50602376  1
  O2-  O203  1  0.66250227  0.74631459  0.75416581  1
  O2-  O204  1  0.34541116  0.25140721  0.00293414  1
  O2-  O205  1  0.33080386  0.25482974  0.25288560  1
  O2-  O206  1  0.32985902  0.25430090  0.50427120  1
  O2-  O207  1  0.33413619  0.25660926  0.74649887  1
  O2-  O208  1  0.33057379  0.59159284  -0.00298478  1
  O2-  O209  1  0.33675456  0.58998299  0.25512775  1
  O2-  O210  1  0.33517711  0.58698948  0.49925946  1
  O2-  O211  1  0.33584661  0.58315200  0.75153722  1
  O2-  O212  1  0.33159086  0.91766942  0.00687428  1
  O2-  O213  1  0.32959067  0.91808887  0.25249539  1
  O2-  O214  1  0.33300147  0.91756417  0.50185966  1
  O2-  O215  1  0.32701131  0.91837518  0.74851422  1
  O2-  O216  1  0.83362193  0.24957450  0.00322889  1
  O2-  O217  1  0.83574669  0.25201616  0.24710387  1
  O2-  O218  1  0.83441048  0.25059602  0.50213711  1
  O2-  O219  1  0.82929985  0.25307305  0.75553285  1
  O2-  O220  1  0.83384786  0.59033126  0.00102663  1
  O2-  O221  1  0.84060644  0.58040499  0.24548235  1
  O2-  O222  1  0.83513811  0.59080771  0.49894205  1
  O2-  O223  1  0.83340637  0.59071805  0.75073000  1
  O2-  O224  1  0.82817510  0.91911605  -0.00172910  1
  O2-  O225  1  0.83251684  0.92153573  0.24997524  1
  O2-  O226  1  0.82709551  0.91644385  0.49344628  1
  O2-  O227  1  0.82904218  0.91683037  0.75639563  1
  O2-  O228  1  0.15733081  0.25680978  -0.00325226  1
  O2-  O229  1  0.16616359  0.25076562  0.24640906  1
  O2-  O230  1  0.16270754  0.25460008  0.50783300  1
  O2-  O231  1  0.16586074  0.25767779  0.74753113  1
  O2-  O232  1  0.16917619  0.59206727  0.00142856  1
  O2-  O233  1  0.16272762  0.58943962  0.24922198  1
  O2-  O234  1  0.16876211  0.58446250  0.49615224  1
  O2-  O235  1  0.16690926  0.58609651  0.75577795  1
  O2-  O236  1  0.16859902  0.91915069  0.00060354  1
  O2-  O237  1  0.17018295  0.91781804  0.25468324  1
  O2-  O238  1  0.16330947  0.91524935  0.50177343  1
  O2-  O239  1  0.16985012  0.92006928  0.75356352  1
  O2-  O240  1  0.66259748  0.24812374  0.00168883  1
  O2-  O241  1  0.66800425  0.25616181  0.24946623  1
  O2-  O242  1  0.66472138  0.25495849  0.49794534  1
  O2-  O243  1  0.66560049  0.25243917  0.75023928  1
  O2-  O244  1  0.66866986  0.58603797  -0.00322184  1
  O2-  O245  1  0.65955176  0.58232031  0.24552714  1
  O2-  O246  1  0.67333510  0.58525560  0.50587123  1
  O2-  O247  1  0.66380729  0.58761027  0.75206623  1
  O2-  O248  1  0.66955669  0.92025986  -0.00206403  1
  O2-  O249  1  0.66778868  0.91829904  0.24959400  1
  O2-  O250  1  0.66296271  0.92041822  0.49885937  1
  O2-  O251  1  0.66604409  0.91677775  0.75255535  1
  O2-  O252  1  0.33023392  0.08081723  0.00619045  1
  O2-  O253  1  0.33212920  0.07938902  0.25177938  1
  O2-  O254  1  0.33138110  0.07894875  0.50535242  1
  O2-  O255  1  0.33362355  0.07696458  0.75010172  1
  O2-  O256  1  0.33620697  0.41504966  -0.00094836  1
  O2-  O257  1  0.32848713  0.41721167  0.25425179  1
  O2-  O258  1  0.33886997  0.41121813  0.50646158  1
  O2-  O259  1  0.33131202  0.41253915  0.74142834  1
  O2-  O260  1  0.33355947  0.74760922  0.00009095  1
  O2-  O261  1  0.33200064  0.74817645  0.25458320  1
  O2-  O262  1  0.33954844  0.74776313  0.50121136  1
  O2-  O263  1  0.33859413  0.74549710  0.75276679  1
  O2-  O264  1  0.83451486  0.07725949  0.00191884  1
  O2-  O265  1  0.83848360  0.07757068  0.25321316  1
  O2-  O266  1  0.83834432  0.08183155  0.49454406  1
  O2-  O267  1  0.83785430  0.07861847  0.75922014  1
  O2-  O268  1  0.83481861  0.41020074  0.00400062  1
  O2-  O269  1  0.83115742  0.41064512  0.24470233  1
  O2-  O270  1  0.83187634  0.41002483  0.49920963  1
  O2-  O271  1  0.83822950  0.41261886  0.75012376  1
  O2-  O272  1  0.83075786  0.74781213  -0.00108471  1
  O2-  O273  1  0.83487490  0.74698012  0.24581268  1
  O2-  O274  1  0.83759511  0.74707231  0.50096076  1
  O2-  O275  1  0.83964092  0.74899835  0.75350950  1
  O2-  O276  1  0.04909324  0.23440186  0.76648193  1
  O2-  O277  1  0.45415897  0.43462164  0.00391942  1
  O2-  O278  1  0.45757920  0.76930519  0.50552479  1
  O2-  O279  1  0.04248199  0.42394043  0.76788858  1
  O2-  O280  1  0.54297190  0.23470756  0.76137614  1
  O2-  O281  1  0.45662055  0.77239369  0.74101858  1
  O2-  O282  1  0.04645614  0.43176478  0.51871489  1
  O2-  O283  1  0.54564729  0.23596542  0.51370521  1
  O2-  O284  1  0.05206782  0.76186257  0.98075886  1
  O2-  O285  1  0.04628386  0.43410453  0.24433994  1
  O2-  O286  1  0.51853583  0.53800246  0.48108309  1
  O2-  O287  1  0.44484391  0.56951805  0.77483816  1
  O2-  O288  1  0.94649377  0.76698303  0.51322869  1
  O2-  O289  1  0.04844082  0.57703906  0.22868909  1
  O2-  O290  1  0.99248070  0.88837701  0.50715138  1
  O2-  O291  1  0.46701005  0.09660369  0.05529068  1
  O2-  O292  1  0.05194299  0.90609218  0.01686330  1
  O2-  O293  1  0.05155470  0.41906502  0.97928328  1
  O2-  O294  1  0.94844269  0.10214191  0.74087409  1
  O2-  O295  1  0.54744653  0.91341486  0.22598943  1
  O2-  O296  1  0.95463302  0.10292207  0.00791387  1
  O2-  O297  1  0.94854068  0.90413589  0.26394634  1
  O2-  O298  1  0.45084887  0.43808084  0.70189439  1
  O2-  O299  1  0.45212618  0.57083800  0.24924008  1
  O2-  O300  1  0.04397634  0.09393477  0.24702691  1
  O2-  O301  1  0.54539318  0.23640755  0.49383745  1
  O2-  O302  1  0.05246997  0.42713916  0.73183017  1
  O2-  O303  1  0.54365844  0.09159886  0.25583232  1
  O2-  O304  1  0.53176674  0.45626922  0.30639696  1
  O2-  O305  1  0.04501953  0.57577391  0.00684801  1
  O2-  O306  1  0.05073777  0.23261565  0.01631147  1
  O2-  O307  1  0.94811627  0.76518474  0.98781958  1
  O2-  O308  1  0.05123098  0.76252877  0.01997442  1
  O2-  O309  1  0.95026476  0.43246121  0.99131294  1
  O2-  O310  1  0.55061328  0.90495751  0.26378507  1
  O2-  O311  1  0.45493890  0.23751398  0.01032262  1
  O2-  O312  1  0.05561371  0.43539775  0.01362912  1
  O2-  O313  1  0.45111341  0.58340681  0.73966563  1
  O2-  O314  1  0.05101985  0.57406391  0.73771526  1
  O2-  O315  1  0.54550560  0.76686785  0.24135131  1
  O2-  O316  1  0.94874004  0.56422714  0.76064133  1
  O2-  O317  1  0.94642904  0.56961921  0.26274596  1
  O2-  O318  1  0.04682169  0.88745913  0.30006369  1
  O2-  O319  1  0.03654495  0.23843776  0.20491020  1
  O2-  O320  1  0.04279418  0.90720918  0.98029271  1
  O2-  O321  1  0.55193608  0.46322994  0.70176303  1
  O2-  O322  1  0.94443604  0.74117528  0.48625767  1
  O2-  O323  1  0.95141004  0.56708280  0.50987096  1
  O2-  O324  1  0.05960273  0.74115670  0.78463223  1
  O2-  O325  1  0.55857081  0.75565366  0.47577604  1
  O2-  O326  1  0.43097600  0.40767782  0.22816779  1
  O2-  O327  1  0.43579293  0.25787801  0.51966994  1
  O2-  O328  1  0.93205306  0.92351150  0.02714694  1
  O2-  O329  1  0.56314118  0.74854900  0.01958080  1
  O2-  O330  1  0.56959543  0.37671839  0.80268530  1
  O2-  O331  1  0.42971256  0.23710752  0.18224655  1
  O2-  O332  1  0.07115078  0.94000456  0.17376481  1
  O2-  O333  1  0.93662725  0.25421706  0.72482701  1
  O2-  O334  1  0.93573658  0.41094641  0.32614013  1
  O2-  O335  1  0.43744519  0.92191608  0.76173574  1
  O2-  O336  1  0.56295389  0.08460238  0.27984659  1
  O2-  O337  1  0.56095226  0.93007555  0.03875478  1
  O2-  O338  1  0.05843951  0.26615164  0.00962088  1
  O2-  O339  1  0.06181853  0.59013002  0.03163236  1
  O2-  O340  1  0.41918695  0.06969480  0.94315770  1
  O2-  O341  1  0.43332172  0.92598014  0.20846285  1
  O2-  O342  1  0.56271175  0.58571051  0.01170083  1
  O2-  O343  1  0.43707910  0.07684009  0.48475661  1
  O2-  O344  1  0.06292876  0.26206869  0.77990831  1
  O2-  O345  1  0.44195319  0.26838346  0.33463272  1
  O2-  O346  1  0.93508956  0.41178638  0.52529308  1
  O2-  O347  1  0.93735568  0.25843784  0.97809307  1
  O2-  O348  1  0.06309999  0.59043277  0.53611592  1
  O2-  O349  1  0.93151453  0.91597793  0.67959955  1
  O2-  O350  1  0.93779999  0.06956848  0.73662057  1
  O2-  O351  1  0.06191791  0.92619824  0.72621505  1
  O2-  O352  1  0.93822329  0.59449279  0.28848012  1
  O2-  O353  1  0.91350736  0.95927391  0.52146223  1
  O2-  O354  1  0.43569854  0.08348518  0.27080944  1
  O2-  O355  1  0.93459311  0.40921937  0.17673622  1
  O2-  O356  1  0.57377703  0.42531345  0.07051510  1
  O2-  O357  1  0.06017913  0.24409347  0.19444270  1
  O2-  O358  1  0.56431050  0.40313866  0.53292793  1
  O2-  O359  1  0.56136362  0.40473204  0.93914647  1
  O2-  O360  1  0.44419248  0.91402419  0.97485903  1
  O2-  O361  1  0.06439162  0.74868210  0.58131869  1
  O2-  O362  1  0.58632281  0.61943247  0.47054374  1
  O2-  O363  1  0.08014965  0.24363251  0.34268411  1
  O2-  O364  1  0.94210786  0.25334470  0.46222506  1
  O2-  O365  1  0.43636963  0.41491014  0.02132974  1
  O2-  O366  1  0.57658409  0.38889494  0.20936695  1
  O2-  O367  1  0.06932819  0.74909511  0.43237037  1
  O2-  O368  1  0.42124181  0.40140745  0.81881245  1
  O2-  O369  1  0.94012194  0.59847198  0.51763585  1
  O2-  O370  1  0.93247352  0.91314422  0.82103529  1
  O2-  O371  1  0.56038923  0.07404146  0.76246348  1
  O2-  O372  1  0.25087891  0.68084150  0.69633373  1
  O2-  O373  1  0.25135234  0.66546924  0.38262826  1
  O2-  O374  1  0.75135049  0.32872722  0.88264404  1
  O2-  O375  1  0.74938683  0.00402947  0.69569285  1
  O2-  O376  1  0.75024087  0.33897749  0.31829679  1
  O2-  O377  1  0.74897938  0.30545690  0.40342232  1
  O2-  O378  1  0.24871015  -0.00372073  0.89397705  1
  O2-  O379  1  0.25041359  0.34894033  0.08013534  1
  O2-  O380  1  0.24803120  -0.00417062  0.40469975  1
  O2-  O381  1  0.75069635  0.66147245  0.31171645  1
  O2-  O382  1  0.74926776  0.00494048  0.55453565  1
  O2-  O383  1  0.24971431  0.32249696  0.16667164  1
  O2-  O384  1  0.75009711  0.31000109  0.58791781  1
  O2-  O385  1  0.24919108  0.33972983  0.91983546  1
  O2-  O386  1  0.74953055  0.66171089  0.65072343  1
  O2-  O387  1  0.24941059  -0.00025283  0.63645194  1
  O2-  O388  1  0.25046738  0.34797294  0.39570006  1
  O2-  O389  1  0.24845121  0.66921174  0.15625649  1
  O2-  O390  1  0.75164930  0.67851927  0.40359297  1
  O2-  O391  1  0.24894131  0.34667158  0.82455866  1
  O2-  O392  1  0.24999358  -0.00419943  0.16052273  1
  O2-  O393  1  0.25110855  0.67788437  0.56509750  1
  O2-  O394  1  0.75023016  0.34802450  0.67038680  1
  O2-  O395  1  0.74959595  -0.00838825  0.14415559  1
  O2-  O396  1  0.75427678  0.51932367  0.36031068  1
  O2-  O397  1  0.74893549  0.82793913  0.43017555  1
  O2-  O398  1  0.74975540  0.52748832  0.86770883  1
  O2-  O399  1  0.75000558  0.17665791  0.64872765  1
  O2-  O400  1  0.75010703  0.17104000  0.33744009  1
  O2-  O401  1  0.74963838  0.15868605  0.16637444  1
  O2-  O402  1  0.25035302  0.13794568  0.11295695  1
  O2-  O403  1  0.25028320  0.51417953  0.86276459  1
  O2-  O404  1  0.24998879  0.84572656  0.59689514  1
  O2-  O405  1  0.74384467  0.47359983  0.42625469  1
  O2-  O406  1  0.74964826  0.17636807  0.08055263  1
  O2-  O407  1  0.25017966  0.84034291  0.40365108  1
  O2-  O408  1  0.24986758  0.17141027  0.19419711  1
  O2-  O409  1  0.74931986  0.16579973  0.56439135  1
  O2-  O410  1  0.74929829  0.15959462  0.92108944  1
  O2-  O411  1  0.25027522  0.13641085  0.90571644  1
  O2-  O412  1  0.25044082  0.81623870  0.89459406  1
  O2-  O413  1  0.24925748  0.18921060  0.63283761  1
  O2-  O414  1  0.24995591  0.15602975  0.35512509  1
  O2-  O415  1  0.74787400  0.50778385  0.11420244  1
  O2-  O416  1  0.75056427  0.47555213  0.79961145  1
  O2-  O417  1  0.74808204  0.49634852  0.67998011  1
  O2-  O418  1  0.74917952  0.84150483  0.60164287  1
  O2-  O419  1  0.75030447  0.83594712  0.32226323  1
  O2-  O420  1  0.97361640  0.66180078  0.87654947  1
  O2-  O421  1  0.01679520  0.34751459  0.11409350  1
  O2-  O422  1  0.98468695  0.01493003  0.87830030  1
  O2-  O423  1  0.97497174  0.66582824  0.63051414  1
  O2-  O424  1  0.54919635  -0.02342608  0.89395194  1
  O2-  O425  1  0.54982461  -0.00398537  0.40401428  1
  O2-  O426  1  0.47333690  0.34595350  0.12403241  1
  O2-  O427  1  0.45067790  0.67841786  0.12032711  1
  O2-  O428  1  0.97449321  0.34058343  0.86743829  1
  O2-  O429  1  0.51330395  0.66914533  0.36506114  1
  O2-  O430  1  0.97454710  0.00503529  0.13270178  1
  O2-  O431  1  0.54171520  0.29441472  0.11384871  1
  O2-  O432  1  0.48081335  0.66431982  0.61891903  1
  O2-  O433  1  0.47708431  0.67270358  0.87915443  1
  O2-  O434  1  0.99393602  0.02475019  0.62256599  1
  O2-  O435  1  0.98424207  0.32802291  0.62263942  1
  O2-  O436  1  0.45494933  -0.03024664  0.37475954  1
  O2-  O437  1  0.48011731  0.32104835  0.63276234  1
  O2-  O438  1  0.97048916  0.66846349  0.12903920  1
  O2-  O439  1  0.46662353  0.01394602  0.85444699  1
  O2-  O440  1  0.47910304  0.31761194  0.88041968  1
  O2-  O441  1  0.01932472  0.34712727  0.38074880  1
  O2-  O442  1  0.02237179  0.65114152  0.36779714  1
  O2-  O443  1  0.54371209  0.65324797  0.14249714  1
