# generated using pymatgen
data_La7(Ru4O11)2
_symmetry_space_group_name_H-M   'P 1'
_cell_length_a   23.98980668
_cell_length_b   16.83006408
_cell_length_c   15.42633995
_cell_angle_alpha   90.00085224
_cell_angle_beta   89.99984019
_cell_angle_gamma   90.00034938
_symmetry_Int_Tables_number   1
_chemical_formula_structural   La7(Ru4O11)2
_chemical_formula_sum   'La84 Ru96 O264'
_cell_volume   6228.38450360
_cell_formula_units_Z   12
loop_
 _symmetry_equiv_pos_site_id
 _symmetry_equiv_pos_as_xyz
  1  'x, y, z'
loop_
 _atom_type_symbol
 _atom_type_oxidation_number
  La3+  3.0
  Ru4+  4.0
  O2-  -2.0
loop_
 _atom_site_type_symbol
 _atom_site_label
 _atom_site_symmetry_multiplicity
 _atom_site_fract_x
 _atom_site_fract_y
 _atom_site_fract_z
 _atom_site_occupancy
  La3+  La0  1  0.13879553  -0.00097247  0.12804009  1
  La3+  La1  1  0.13470198  0.00010952  0.37245279  1
  La3+  La2  1  0.13902852  0.00110514  0.62514943  1
  La3+  La3  1  0.14100411  -0.00008932  0.87619945  1
  La3+  La4  1  0.14188832  0.33206480  0.12424550  1
  La3+  La5  1  0.14034251  0.33264224  0.37330884  1
  La3+  La6  1  0.13738016  0.33307371  0.62439738  1
  La3+  La7  1  0.14136079  0.33212141  0.87826807  1
  La3+  La8  1  0.13823683  0.66610696  0.12721391  1
  La3+  La9  1  0.14044099  0.66654283  0.37056378  1
  La3+  La10  1  0.13791369  0.66765567  0.62701804  1
  La3+  La11  1  0.13685315  0.66664934  0.87485344  1
  La3+  La12  1  0.63899068  -0.00189108  0.12626828  1
  La3+  La13  1  0.64021039  0.00051427  0.37451551  1
  La3+  La14  1  0.63999089  0.00045677  0.62537676  1
  La3+  La15  1  0.63777135  -0.00182411  0.87438966  1
  La3+  La16  1  0.63801899  0.33606364  0.12306671  1
  La3+  La17  1  0.63782047  0.33373280  0.37418694  1
  La3+  La18  1  0.63663086  0.33145287  0.62571771  1
  La3+  La19  1  0.63720969  0.33327353  0.87569512  1
  La3+  La20  1  0.63760281  0.66478991  0.12465976  1
  La3+  La21  1  0.63889147  0.66720071  0.37500075  1
  La3+  La22  1  0.63757855  0.66816455  0.62453680  1
  La3+  La23  1  0.63705287  0.66606131  0.87752467  1
  La3+  La24  1  0.36000569  0.00048409  0.12546080  1
  La3+  La25  1  0.36214040  0.00083491  0.37307022  1
  La3+  La26  1  0.36105589  -0.00007018  0.62732657  1
  La3+  La27  1  0.36035890  -0.00076075  0.87570443  1
  La3+  La28  1  0.35832000  0.33205207  0.12388320  1
  La3+  La29  1  0.36039168  0.33276467  0.37352594  1
  La3+  La30  1  0.36250060  0.33290155  0.62539673  1
  La3+  La31  1  0.35913107  0.33333337  0.87590859  1
  La3+  La32  1  0.36151538  0.66695624  0.12802422  1
  La3+  La33  1  0.36055231  0.66600347  0.37124934  1
  La3+  La34  1  0.36212539  0.66760610  0.62600623  1
  La3+  La35  1  0.36298929  0.66808077  0.87598401  1
  La3+  La36  1  0.85987707  -0.00151682  0.12535613  1
  La3+  La37  1  0.85911267  0.00061688  0.37422019  1
  La3+  La38  1  0.86003994  0.00057411  0.62515273  1
  La3+  La39  1  0.86186521  -0.00036962  0.87520451  1
  La3+  La40  1  0.86153136  0.33479682  0.12619492  1
  La3+  La41  1  0.86074124  0.33462987  0.37419431  1
  La3+  La42  1  0.86254679  0.33172292  0.62595383  1
  La3+  La43  1  0.86286629  0.33387269  0.87442046  1
  La3+  La44  1  0.86098662  0.66681766  0.12507762  1
  La3+  La45  1  0.86187329  0.66843324  0.37465328  1
  La3+  La46  1  0.86322849  0.66854098  0.62412953  1
  La3+  La47  1  0.86231776  0.66662534  0.87618260  1
  La3+  La48  1  -0.00014765  0.50592276  0.36534897  1
  La3+  La49  1  0.50101579  0.49965384  0.86459984  1
  La3+  La50  1  -0.00005597  0.50044671  0.61683986  1
  La3+  La51  1  0.49834956  0.50378742  0.37193663  1
  La3+  La52  1  0.00252332  0.16323556  0.36259058  1
  La3+  La53  1  0.00139857  0.50008002  0.86464310  1
  La3+  La54  1  -0.00176854  0.16742855  0.38373642  1
  La3+  La55  1  0.50029477  0.16789284  0.88463099  1
  La3+  La56  1  0.00035473  0.49843392  0.38611295  1
  La3+  La57  1  0.00014007  0.16607759  0.86457504  1
  La3+  La58  1  0.49763535  0.83543503  0.37861475  1
  La3+  La59  1  0.50045538  0.50573266  0.11355058  1
  La3+  La60  1  0.49946854  0.16779057  0.61376641  1
  La3+  La61  1  -0.00158748  0.16684905  0.88666557  1
  La3+  La62  1  0.49804030  0.16414619  0.36842307  1
  La3+  La63  1  0.00346926  0.15617694  0.61538702  1
  La3+  La64  1  -0.00030848  0.16269024  0.63602875  1
  La3+  La65  1  0.49782093  0.83652417  0.36138673  1
  La3+  La66  1  -0.00110544  0.83305292  0.13391034  1
  La3+  La67  1  0.50071728  0.16665073  0.13423460  1
  La3+  La68  1  0.49994712  0.49632950  0.13387392  1
  La3+  La69  1  0.00114534  0.83541586  0.35958483  1
  La3+  La70  1  -0.00045466  0.83223777  0.86207309  1
  La3+  La71  1  -0.00064072  0.16577050  0.11691488  1
  La3+  La72  1  0.25009042  0.19860763  0.78587852  1
  La3+  La73  1  0.24982311  0.49635215  0.02137960  1
  La3+  La74  1  0.75001125  0.87667162  0.73812235  1
  La3+  La75  1  0.25001522  0.49774481  0.71361320  1
  La3+  La76  1  0.24995331  0.83840996  0.49945516  1
  La3+  La77  1  0.75017945  0.86271855  0.24912456  1
  La3+  La78  1  0.24977935  0.45662022  0.49042093  1
  La3+  La79  1  0.75038211  0.50462371  0.47496875  1
  La3+  La80  1  0.75022744  0.15524148  -0.00326641  1
  La3+  La81  1  0.74998263  0.13311010  0.21781186  1
  La3+  La82  1  0.75003792  0.49486648  0.81069250  1
  La3+  La83  1  0.25023186  0.86185736  0.00165824  1
  Ru4+  Ru84  1  -0.00352091  0.00446803  0.00198526  1
  Ru4+  Ru85  1  -0.00006879  -0.00209470  0.25018533  1
  Ru4+  Ru86  1  -0.00337917  -0.00341425  0.49641842  1
  Ru4+  Ru87  1  0.00141466  0.00070401  0.75098188  1
  Ru4+  Ru88  1  0.00127488  0.32930277  0.00179019  1
  Ru4+  Ru89  1  0.00154995  0.33641624  0.24479610  1
  Ru4+  Ru90  1  0.00147908  0.34073890  0.50269396  1
  Ru4+  Ru91  1  -0.00138848  0.33421144  0.75005568  1
  Ru4+  Ru92  1  0.00165466  0.66334604  -0.00024040  1
  Ru4+  Ru93  1  0.00319173  0.66193354  0.24949289  1
  Ru4+  Ru94  1  -0.00027865  0.66803624  0.50078023  1
  Ru4+  Ru95  1  0.00110845  0.66666776  0.74896313  1
  Ru4+  Ru96  1  0.49875623  -0.00142705  0.00355129  1
  Ru4+  Ru97  1  0.50345067  0.00246563  0.24713827  1
  Ru4+  Ru98  1  0.50052499  0.00043603  0.50168008  1
  Ru4+  Ru99  1  0.50287964  0.00048381  0.74782752  1
  Ru4+  Ru100  1  0.49786105  0.33014379  -0.00462614  1
  Ru4+  Ru101  1  0.49524182  0.33049052  0.25231349  1
  Ru4+  Ru102  1  0.50208994  0.33710262  0.50086202  1
  Ru4+  Ru103  1  0.49918297  0.33296950  0.74791251  1
  Ru4+  Ru104  1  0.50258750  0.66340292  0.00125052  1
  Ru4+  Ru105  1  0.49729084  0.67288679  0.24943317  1
  Ru4+  Ru106  1  0.49819393  0.66554845  0.49818915  1
  Ru4+  Ru107  1  0.50154764  0.66733481  0.74768760  1
  Ru4+  Ru108  1  0.11569768  0.16676084  0.00003178  1
  Ru4+  Ru109  1  0.11449539  0.16719270  0.24947794  1
  Ru4+  Ru110  1  0.11781621  0.16796099  0.50044182  1
  Ru4+  Ru111  1  0.11255687  0.16551548  0.75019983  1
  Ru4+  Ru112  1  0.11051257  0.50240660  -0.00098452  1
  Ru4+  Ru113  1  0.11426650  0.50281887  0.24885507  1
  Ru4+  Ru114  1  0.11045408  0.49947568  0.50020818  1
  Ru4+  Ru115  1  0.11201030  0.50127867  0.75059334  1
  Ru4+  Ru116  1  0.11513330  0.82972453  0.00172650  1
  Ru4+  Ru117  1  0.11254157  0.83431747  0.24964892  1
  Ru4+  Ru118  1  0.11147556  0.83274520  0.50006300  1
  Ru4+  Ru119  1  0.11409623  0.83329577  0.75025853  1
  Ru4+  Ru120  1  0.61025549  0.16680277  0.00056138  1
  Ru4+  Ru121  1  0.61304938  0.16379675  0.24984425  1
  Ru4+  Ru122  1  0.61282042  0.16503160  0.50000426  1
  Ru4+  Ru123  1  0.61399697  0.16920584  0.75099728  1
  Ru4+  Ru124  1  0.61655516  0.50339995  -0.00234130  1
  Ru4+  Ru125  1  0.61783961  0.49681867  0.25080112  1
  Ru4+  Ru126  1  0.60996570  0.50060979  0.50031910  1
  Ru4+  Ru127  1  0.61007849  0.50019754  0.74969690  1
  Ru4+  Ru128  1  0.61435170  0.83463077  -0.00007861  1
  Ru4+  Ru129  1  0.61136788  0.83558671  0.24941666  1
  Ru4+  Ru130  1  0.61449947  0.83256671  0.50112646  1
  Ru4+  Ru131  1  0.60957649  0.83509559  0.75062370  1
  Ru4+  Ru132  1  0.38401686  0.16620966  -0.00023209  1
  Ru4+  Ru133  1  0.38580806  0.16725418  0.25028505  1
  Ru4+  Ru134  1  0.38505065  0.16699064  0.50030931  1
  Ru4+  Ru135  1  0.38872106  0.16853659  0.75049045  1
  Ru4+  Ru136  1  0.38755419  0.49937107  -0.00067628  1
  Ru4+  Ru137  1  0.38511968  0.50169597  0.25022092  1
  Ru4+  Ru138  1  0.38993086  0.49974725  0.49913988  1
  Ru4+  Ru139  1  0.38944746  0.49899445  0.75100113  1
  Ru4+  Ru140  1  0.38666254  0.83704585  0.00170698  1
  Ru4+  Ru141  1  0.38476910  0.82782328  0.24802094  1
  Ru4+  Ru142  1  0.38831799  0.83176166  0.50126607  1
  Ru4+  Ru143  1  0.38474950  0.83089954  0.74983462  1
  Ru4+  Ru144  1  0.89011414  0.16631311  0.00027701  1
  Ru4+  Ru145  1  0.88708766  0.16364917  0.24979906  1
  Ru4+  Ru146  1  0.88439856  0.16264657  0.49931143  1
  Ru4+  Ru147  1  0.88516229  0.16638398  0.75047390  1
  Ru4+  Ru148  1  0.88340568  0.50313630  0.00157965  1
  Ru4+  Ru149  1  0.88676528  0.49923234  0.25008813  1
  Ru4+  Ru150  1  0.88911284  0.49852524  0.50041382  1
  Ru4+  Ru151  1  0.88891964  0.49890857  0.75001465  1
  Ru4+  Ru152  1  0.88578989  0.83571747  0.00030909  1
  Ru4+  Ru153  1  0.88639642  0.83788339  0.25050093  1
  Ru4+  Ru154  1  0.88578642  0.83032188  0.49981829  1
  Ru4+  Ru155  1  0.88737661  0.83198026  0.75045384  1
  Ru4+  Ru156  1  0.24976116  0.59118986  0.49546161  1
  Ru4+  Ru157  1  0.74996001  0.61278740  0.75088682  1
  Ru4+  Ru158  1  0.25017381  0.41684960  0.24871230  1
  Ru4+  Ru159  1  0.75009821  0.91081445  0.49767088  1
  Ru4+  Ru160  1  0.75004346  0.72329377  0.24918333  1
  Ru4+  Ru161  1  0.24994332  0.06817783  0.74399497  1
  Ru4+  Ru162  1  0.74997885  0.26644115  0.26112893  1
  Ru4+  Ru163  1  0.25006498  0.37301294  0.76130473  1
  Ru4+  Ru164  1  0.25016905  0.24469618  0.49257179  1
  Ru4+  Ru165  1  0.75000691  0.74180155  0.75570879  1
  Ru4+  Ru166  1  0.24967287  0.72589208  -0.00047296  1
  Ru4+  Ru167  1  0.75008445  0.75077960  0.00792184  1
  Ru4+  Ru168  1  0.24994952  0.71412899  0.49586848  1
  Ru4+  Ru169  1  0.74998547  0.08759147  0.75070732  1
  Ru4+  Ru170  1  0.74996910  0.62676333  0.51088418  1
  Ru4+  Ru171  1  0.74992137  0.38263505  0.50307998  1
  Ru4+  Ru172  1  0.75005387  0.58217461  0.25044718  1
  Ru4+  Ru173  1  0.75017318  0.02894900  0.00206031  1
  Ru4+  Ru174  1  0.75001027  0.24604168  0.50244700  1
  Ru4+  Ru175  1  0.74996610  0.27822088  0.00020037  1
  Ru4+  Ru176  1  0.74990444  0.38261751  0.72860946  1
  Ru4+  Ru177  1  0.25024222  0.91157049  0.24633741  1
  Ru4+  Ru178  1  0.24996108  0.96617123  0.50795129  1
  Ru4+  Ru179  1  0.24994262  0.62270150  0.76328346  1
  O2-  O180  1  0.16575069  0.08159097  -0.00006990  1
  O2-  O181  1  0.16633854  0.08087674  0.25116667  1
  O2-  O182  1  0.16737484  0.08165995  0.50019701  1
  O2-  O183  1  0.16663644  0.08031425  0.75035408  1
  O2-  O184  1  0.16527641  0.41553483  -0.00022159  1
  O2-  O185  1  0.16791513  0.41442014  0.25001324  1
  O2-  O186  1  0.16538512  0.41072591  0.50076701  1
  O2-  O187  1  0.16739156  0.41240215  0.74877768  1
  O2-  O188  1  0.16809879  0.74650069  -0.00032412  1
  O2-  O189  1  0.16515783  0.74879161  0.25014731  1
  O2-  O190  1  0.16490920  0.74651356  0.50020466  1
  O2-  O191  1  0.16787869  0.74813416  0.74958768  1
  O2-  O192  1  0.66593125  0.07926575  -0.00028821  1
  O2-  O193  1  0.66531374  0.08086653  0.25070735  1
  O2-  O194  1  0.66629387  0.08075796  0.50030437  1
  O2-  O195  1  0.66742093  0.08051495  0.74947847  1
  O2-  O196  1  0.66725076  0.41549704  -0.00080646  1
  O2-  O197  1  0.66801944  0.41518342  0.25185126  1
  O2-  O198  1  0.66597869  0.41157205  0.50020672  1
  O2-  O199  1  0.66633590  0.41277047  0.74984012  1
  O2-  O200  1  0.66655921  0.74748700  -0.00066700  1
  O2-  O201  1  0.66697933  0.74612015  0.25065808  1
  O2-  O202  1  0.66749923  0.74791464  0.50004438  1
  O2-  O203  1  0.66593913  0.74674256  0.74996854  1
  O2-  O204  1  0.33328759  0.25041955  0.00059472  1
  O2-  O205  1  0.33406635  0.25166832  0.25016969  1
  O2-  O206  1  0.33299243  0.25280530  0.50066684  1
  O2-  O207  1  0.33272049  0.25428764  0.74781839  1
  O2-  O208  1  0.33271086  0.58713793  -0.00114860  1
  O2-  O209  1  0.33292728  0.58397461  0.25011108  1
  O2-  O210  1  0.33272958  0.58658609  0.50116358  1
  O2-  O211  1  0.33375813  0.58793203  0.75026925  1
  O2-  O212  1  0.33434403  0.91928449  -0.00044054  1
  O2-  O213  1  0.33261901  0.91908216  0.25121867  1
  O2-  O214  1  0.33240888  0.92012944  0.49956622  1
  O2-  O215  1  0.33238904  0.91837786  0.75075058  1
  O2-  O216  1  0.83379277  0.25479825  0.00009140  1
  O2-  O217  1  0.83218643  0.25365595  0.24987874  1
  O2-  O218  1  0.83234819  0.25340905  0.50075743  1
  O2-  O219  1  0.83348860  0.25293770  0.74916943  1
  O2-  O220  1  0.83312080  0.58534873  -0.00035878  1
  O2-  O221  1  0.83154811  0.58565782  0.25019893  1
  O2-  O222  1  0.83365540  0.58880975  0.50068926  1
  O2-  O223  1  0.83435679  0.58730591  0.74966182  1
  O2-  O224  1  0.83296523  0.91838738  -0.00069192  1
  O2-  O225  1  0.83459078  0.91924626  0.25046554  1
  O2-  O226  1  0.83157192  0.91962894  0.50124892  1
  O2-  O227  1  0.83440147  0.92123467  0.75023847  1
  O2-  O228  1  0.16527059  0.25111418  0.00022473  1
  O2-  O229  1  0.16704646  0.25143878  0.25017152  1
  O2-  O230  1  0.16742236  0.25348361  0.50090107  1
  O2-  O231  1  0.16674559  0.25504174  0.74899370  1
  O2-  O232  1  0.16861136  0.58662688  0.00021726  1
  O2-  O233  1  0.16696421  0.58394601  0.24980488  1
  O2-  O234  1  0.16667483  0.58771576  0.50047996  1
  O2-  O235  1  0.16708951  0.58688101  0.74977315  1
  O2-  O236  1  0.16734465  0.91840303  -0.00052594  1
  O2-  O237  1  0.16828521  0.91846667  0.25173988  1
  O2-  O238  1  0.16780306  0.92063882  0.49962257  1
  O2-  O239  1  0.16618274  0.91770798  0.75011710  1
  O2-  O240  1  0.66703229  0.25429142  -0.00093951  1
  O2-  O241  1  0.66776263  0.25361966  0.25095142  1
  O2-  O242  1  0.66635333  0.25351814  0.50008992  1
  O2-  O243  1  0.66671749  0.25148638  0.74919726  1
  O2-  O244  1  0.66791364  0.58526140  -0.00066462  1
  O2-  O245  1  0.66833288  0.58511757  0.25043755  1
  O2-  O246  1  0.66589408  0.58717196  0.50056474  1
  O2-  O247  1  0.66617405  0.58747715  0.75057896  1
  O2-  O248  1  0.66618794  0.91874453  -0.00032715  1
  O2-  O249  1  0.66674967  0.91943850  0.25076876  1
  O2-  O250  1  0.66706331  0.91878982  0.50073494  1
  O2-  O251  1  0.66545345  0.92021527  0.75075595  1
  O2-  O252  1  0.33510904  0.08171815  -0.00011080  1
  O2-  O253  1  0.33360907  0.08086616  0.25026342  1
  O2-  O254  1  0.33245489  0.08137871  0.49998090  1
  O2-  O255  1  0.33395182  0.08016806  0.75041270  1
  O2-  O256  1  0.33400993  0.41488836  -0.00012181  1
  O2-  O257  1  0.33119455  0.41485206  0.25030195  1
  O2-  O258  1  0.33504256  0.41135155  0.50137801  1
  O2-  O259  1  0.33251818  0.41305687  0.74838954  1
  O2-  O260  1  0.33158088  0.74725828  -0.00149119  1
  O2-  O261  1  0.33289858  0.74916121  0.25019558  1
  O2-  O262  1  0.33458839  0.74630349  0.50037150  1
  O2-  O263  1  0.33396220  0.74865417  0.75048370  1
  O2-  O264  1  0.83336281  0.07862485  0.00025437  1
  O2-  O265  1  0.83453909  0.08088868  0.25032494  1
  O2-  O266  1  0.83341283  0.08128583  0.50032766  1
  O2-  O267  1  0.83210075  0.08051446  0.75033940  1
  O2-  O268  1  0.83160068  0.41506215  -0.00049785  1
  O2-  O269  1  0.83264634  0.41458920  0.24990983  1
  O2-  O270  1  0.83408194  0.41266749  0.50046063  1
  O2-  O271  1  0.83258669  0.41287236  0.74920624  1
  O2-  O272  1  0.83270349  0.74709134  -0.00097607  1
  O2-  O273  1  0.83233118  0.74581860  0.25027061  1
  O2-  O274  1  0.83445523  0.74833859  0.50091724  1
  O2-  O275  1  0.83333202  0.74707382  0.74996072  1
  O2-  O276  1  0.95028693  0.76421204  0.23647355  1
  O2-  O277  1  0.04905297  0.23635374  0.51202332  1
  O2-  O278  1  0.95173250  0.43197182  0.26324609  1
  O2-  O279  1  0.05319008  0.57940423  0.97917949  1
  O2-  O280  1  0.54169881  0.77175757  0.46904750  1
  O2-  O281  1  0.03982383  0.88223922  0.50462653  1
  O2-  O282  1  0.04537740  0.09658733  0.01326913  1
  O2-  O283  1  0.04653042  0.90587290  0.26379702  1
  O2-  O284  1  0.04713095  0.76371561  0.23640185  1
  O2-  O285  1  0.45020555  0.43282646  0.48560962  1
  O2-  O286  1  0.45542329  0.23645041  0.48749045  1
  O2-  O287  1  0.95590927  0.22694966  0.52641616  1
  O2-  O288  1  0.54709959  0.43326337  0.50429189  1
  O2-  O289  1  0.04770672  0.43144258  0.26215121  1
  O2-  O290  1  0.54558524  0.76360870  0.73493451  1
  O2-  O291  1  0.54098193  0.44004445  0.27840144  1
  O2-  O292  1  0.45503882  0.90735567  0.01468251  1
  O2-  O293  1  0.03500488  0.88482029  0.00686963  1
  O2-  O294  1  0.54891473  0.90554585  0.48398379  1
  O2-  O295  1  0.95392023  0.56794184  0.51368694  1
  O2-  O296  1  0.46038445  0.10552312  0.47385724  1
  O2-  O297  1  0.54103201  0.22622619  0.27473028  1
  O2-  O298  1  0.46570437  0.77968491  0.00958518  1
  O2-  O299  1  0.45206408  0.76141485  0.51600271  1
  O2-  O300  1  0.03834976  0.44444848  0.71902226  1
  O2-  O301  1  0.54754126  0.56763208  0.73457875  1
  O2-  O302  1  0.04635087  0.09673908  0.48575921  1
  O2-  O303  1  0.04817410  0.23642642  0.73822547  1
  O2-  O304  1  0.46335927  0.88742392  0.50932257  1
  O2-  O305  1  0.54691576  0.57097872  0.23596990  1
  O2-  O306  1  0.04586144  0.23715549  0.01449271  1
  O2-  O307  1  0.45199384  0.56834547  0.76387789  1
  O2-  O308  1  0.45272941  0.90131994  0.26534650  1
  O2-  O309  1  0.53734828  0.10845476  0.71944160  1
  O2-  O310  1  0.95975928  0.89150455  0.72368164  1
  O2-  O311  1  0.45522924  0.90315263  0.76934933  1
  O2-  O312  1  0.95390311  0.56884185  0.76284232  1
  O2-  O313  1  0.46063146  0.77414921  0.97268252  1
  O2-  O314  1  0.45049354  0.23647891  0.04267625  1
  O2-  O315  1  0.94744187  0.42492142  0.96198653  1
  O2-  O316  1  0.95236237  0.23647893  0.73804933  1
  O2-  O317  1  0.96047372  0.22308359  0.22164715  1
  O2-  O318  1  0.03363333  0.88304190  0.99364924  1
  O2-  O319  1  0.95523946  0.89317240  0.52729148  1
  O2-  O320  1  0.45377406  0.90009278  0.73063316  1
  O2-  O321  1  0.04334993  0.89548362  0.23793592  1
  O2-  O322  1  0.54608488  0.43212668  0.49510812  1
  O2-  O323  1  0.54675138  0.43064760  0.01302080  1
  O2-  O324  1  0.93069853  0.93766991  0.45490402  1
  O2-  O325  1  0.43670849  0.40391990  0.78224926  1
  O2-  O326  1  0.06404666  0.73724686  0.03398005  1
  O2-  O327  1  0.43404403  0.40586299  0.22247297  1
  O2-  O328  1  0.05669854  0.58459917  0.97361763  1
  O2-  O329  1  0.56599454  0.25947726  0.02875087  1
  O2-  O330  1  0.06442251  0.59644244  0.78165968  1
  O2-  O331  1  0.93030494  0.93247642  0.79073389  1
  O2-  O332  1  0.93611167  0.93110390  0.03301023  1
  O2-  O333  1  0.06389139  0.07547837  0.47033951  1
  O2-  O334  1  0.92701463  0.26925461  0.29355821  1
  O2-  O335  1  0.06310604  0.59812888  0.21900495  1
  O2-  O336  1  0.93669595  0.73668044  0.04922324  1
  O2-  O337  1  0.06408690  0.26365375  0.21677723  1
  O2-  O338  1  0.43083740  0.27493481  0.92868537  1
  O2-  O339  1  0.56451093  0.59269052  0.22095805  1
  O2-  O340  1  0.56897092  0.72443931  0.54892409  1
  O2-  O341  1  0.56303061  0.26454566  0.78325276  1
  O2-  O342  1  0.92829741  0.39884780  0.05901720  1
  O2-  O343  1  0.93614285  0.73704771  0.95103706  1
  O2-  O344  1  0.07090988  0.39136627  0.80109332  1
  O2-  O345  1  0.06735809  0.93548398  0.21770021  1
  O2-  O346  1  0.93849377  0.73766294  0.21694206  1
  O2-  O347  1  0.94732253  0.42512478  0.96187714  1
  O2-  O348  1  0.43655057  0.73808690  0.21911438  1
  O2-  O349  1  0.42337230  0.94083553  0.53595193  1
  O2-  O350  1  0.92643632  0.26961731  0.45641796  1
  O2-  O351  1  0.42173224  0.71078353  0.04933899  1
  O2-  O352  1  0.43591208  0.59445180  0.21652158  1
  O2-  O353  1  0.07586415  0.94228387  0.53532596  1
  O2-  O354  1  0.57330384  0.39963843  0.20632395  1
  O2-  O355  1  0.43531297  0.59550798  0.47234819  1
  O2-  O356  1  0.56916330  0.06139962  0.79968168  1
  O2-  O357  1  0.93390989  0.40520134  0.77890240  1
  O2-  O358  1  0.56458351  0.59482894  0.97070201  1
  O2-  O359  1  0.43706396  0.26160087  0.78207377  1
  O2-  O360  1  0.56523702  0.92886456  0.78285803  1
  O2-  O361  1  0.06280973  0.73792761  0.78331891  1
  O2-  O362  1  0.57319552  0.26709427  0.20777518  1
  O2-  O363  1  0.56331018  0.40822962  0.02922950  1
  O2-  O364  1  0.56531321  0.92868267  0.22223357  1
  O2-  O365  1  0.07324218  0.94759162  0.06503140  1
  O2-  O366  1  0.93446003  0.07379967  0.78020448  1
  O2-  O367  1  0.43736163  0.92395367  0.28414718  1
  O2-  O368  1  0.42948519  0.06769761  0.54315768  1
  O2-  O369  1  0.44692398  0.24459619  0.03760264  1
  O2-  O370  1  0.93602279  0.73556262  0.78301333  1
  O2-  O371  1  0.07369316  0.94735621  0.93377382  1
  O2-  O372  1  0.74977683  0.32962826  0.39852681  1
  O2-  O373  1  0.74988753  0.66849750  0.40088638  1
  O2-  O374  1  0.75014000  0.32812417  0.60457760  1
  O2-  O375  1  0.75015452  0.66723354  0.09413679  1
  O2-  O376  1  0.24972203  0.66785082  0.35180442  1
  O2-  O377  1  0.74986098  0.66914652  0.64397863  1
  O2-  O378  1  0.24982331  0.33526256  0.89893236  1
  O2-  O379  1  0.24993337  0.00206161  0.39771234  1
  O2-  O380  1  0.75007725  0.00141092  0.42163877  1
  O2-  O381  1  0.25004235  -0.00752397  0.83289497  1
  O2-  O382  1  0.25004110  0.33630015  0.34186851  1
  O2-  O383  1  0.75007482  0.00197311  0.15389976  1
  O2-  O384  1  0.25000889  -0.00402893  0.65182386  1
  O2-  O385  1  0.75005550  0.35350251  0.91265935  1
  O2-  O386  1  0.75001741  -0.00104640  0.32992980  1
  O2-  O387  1  0.74993590  0.32077789  0.83006332  1
  O2-  O388  1  0.75009799  0.34047799  0.17509988  1
  O2-  O389  1  0.75007303  0.35032269  0.08714863  1
  O2-  O390  1  0.25021702  -0.00265928  0.08085478  1
  O2-  O391  1  0.74994333  0.00013459  0.65695277  1
  O2-  O392  1  0.25016449  -0.00058896  0.92227292  1
  O2-  O393  1  0.24992989  0.33612480  0.09899168  1
  O2-  O394  1  0.24993321  0.00163606  0.17125457  1
  O2-  O395  1  0.25012420  0.66938098  0.65226745  1
  O2-  O396  1  0.75003922  0.17187949  0.34441916  1
  O2-  O397  1  0.24983749  0.50059464  0.90583386  1
  O2-  O398  1  0.75003319  0.82775060  0.62166266  1
  O2-  O399  1  0.75008304  0.16253231  0.58286887  1
  O2-  O400  1  0.24997278  0.17151209  0.41325851  1
  O2-  O401  1  0.25006813  0.50812555  0.59903450  1
  O2-  O402  1  0.75006635  0.49786915  0.67674322  1
  O2-  O403  1  0.75003844  0.49946379  0.35628716  1
  O2-  O404  1  0.24996231  0.16352951  0.65518098  1
  O2-  O405  1  0.75011732  0.16206250  0.43025531  1
  O2-  O406  1  0.74999561  0.17006773  0.66874413  1
  O2-  O407  1  0.25012051  0.83530300  0.16050398  1
  O2-  O408  1  0.74990647  0.50042387  0.59579641  1
  O2-  O409  1  0.25003347  0.16317076  0.56887496  1
  O2-  O410  1  0.25000947  0.49921960  0.13914524  1
  O2-  O411  1  0.24996738  0.50185815  0.83095260  1
  O2-  O412  1  0.75001092  0.83812538  0.93669594  1
  O2-  O413  1  0.74996535  0.83109504  0.09010024  1
  O2-  O414  1  0.74999743  0.83618772  0.41156211  1
  O2-  O415  1  0.75010697  0.82404143  0.85336924  1
  O2-  O416  1  0.25004507  0.50461008  0.37569321  1
  O2-  O417  1  0.24991449  0.16557289  0.90803521  1
  O2-  O418  1  0.74998713  0.16310873  0.84010415  1
  O2-  O419  1  0.24992509  0.16736330  0.08977603  1
  O2-  O420  1  0.96122203  0.33526478  0.62356114  1
  O2-  O421  1  0.47699410  0.00116354  0.63174389  1
  O2-  O422  1  0.03781426  0.33203270  0.37589089  1
  O2-  O423  1  0.03874042  0.33388308  0.62383769  1
  O2-  O424  1  0.47443363  0.00227157  0.37783215  1
  O2-  O425  1  0.46632518  0.33342307  0.37240179  1
  O2-  O426  1  0.47371663  0.66969586  0.37035350  1
  O2-  O427  1  0.96901280  0.34300865  0.37711832  1
  O2-  O428  1  0.97617604  0.32254057  0.87353037  1
  O2-  O429  1  0.96327421  0.00253671  0.62314900  1
  O2-  O430  1  0.03489943  0.00380766  0.63280806  1
  O2-  O431  1  0.52596176  0.33195744  0.12402263  1
  O2-  O432  1  0.02615117  -0.00250514  0.37373247  1
  O2-  O433  1  0.97211926  0.66714118  0.37517903  1
  O2-  O434  1  0.46881777  0.33614109  0.12930854  1
  O2-  O435  1  0.52654399  0.66931573  0.12019970  1
  O2-  O436  1  0.52934358  0.66873120  0.87202019  1
  O2-  O437  1  0.52737868  0.33116704  0.62598157  1
  O2-  O438  1  0.97536927  0.32961622  0.12891103  1
  O2-  O439  1  0.53367628  0.33144573  0.37472348  1
  O2-  O440  1  0.97507824  0.00140911  0.88144633  1
  O2-  O441  1  0.52599088  0.00456187  0.12151021  1
  O2-  O442  1  0.97229640  0.66698298  0.62534058  1
  O2-  O443  1  0.46875475  0.66582525  0.87544841  1
