# generated using pymatgen
data_La7(Ru4O11)2
_symmetry_space_group_name_H-M   'P 1'
_cell_length_a   23.99285344
_cell_length_b   16.83368005
_cell_length_c   15.43116104
_cell_angle_alpha   90.00330492
_cell_angle_beta   89.99728670
_cell_angle_gamma   89.99682787
_symmetry_Int_Tables_number   1
_chemical_formula_structural   La7(Ru4O11)2
_chemical_formula_sum   'La84 Ru96 O264'
_cell_volume   6232.46102463
_cell_formula_units_Z   12
loop_
 _symmetry_equiv_pos_site_id
 _symmetry_equiv_pos_as_xyz
  1  'x, y, z'
loop_
 _atom_type_symbol
 _atom_type_oxidation_number
  La3+  3.0
  Ru4+  4.0
  O2-  -2.0
loop_
 _atom_site_type_symbol
 _atom_site_label
 _atom_site_symmetry_multiplicity
 _atom_site_fract_x
 _atom_site_fract_y
 _atom_site_fract_z
 _atom_site_occupancy
  La3+  La0  1  0.13990729  0.00762333  0.12195330  1
  La3+  La1  1  0.13682649  -0.00021009  0.37012780  1
  La3+  La2  1  0.13626530  -0.00414435  0.63023902  1
  La3+  La3  1  0.13887496  -0.00030928  0.87730879  1
  La3+  La4  1  0.15188346  0.32827264  0.12401774  1
  La3+  La5  1  0.14612502  0.33504281  0.37062610  1
  La3+  La6  1  0.13269172  0.33033915  0.63105010  1
  La3+  La7  1  0.14990186  0.32693445  0.87745675  1
  La3+  La8  1  0.14142957  0.67095343  0.12258764  1
  La3+  La9  1  0.13293741  0.66876239  0.37255433  1
  La3+  La10  1  0.14256169  0.66692981  0.62917816  1
  La3+  La11  1  0.13404621  0.66317643  0.88062316  1
  La3+  La12  1  0.63998571  -0.00081691  0.12141738  1
  La3+  La13  1  0.64505862  0.00208498  0.38033907  1
  La3+  La14  1  0.64782396  -0.00171196  0.61901243  1
  La3+  La15  1  0.62809772  -0.00003639  0.88024245  1
  La3+  La16  1  0.63543778  0.33262173  0.12649762  1
  La3+  La17  1  0.64018623  0.33689578  0.37685156  1
  La3+  La18  1  0.63706127  0.33569742  0.62257601  1
  La3+  La19  1  0.63448801  0.33426135  0.87421848  1
  La3+  La20  1  0.64641929  0.67123838  0.13435365  1
  La3+  La21  1  0.64702621  0.67060204  0.37638665  1
  La3+  La22  1  0.63491003  0.66950258  0.61830625  1
  La3+  La23  1  0.64231513  0.66243214  0.87680958  1
  La3+  La24  1  0.36321475  0.00649653  0.12033529  1
  La3+  La25  1  0.35985668  0.00116278  0.36721563  1
  La3+  La26  1  0.36233554  -0.00171634  0.62452965  1
  La3+  La27  1  0.35461596  0.00188201  0.87702968  1
  La3+  La28  1  0.35341080  0.33310121  0.12316981  1
  La3+  La29  1  0.35507119  0.33490772  0.36985255  1
  La3+  La30  1  0.36467642  0.33474888  0.62810349  1
  La3+  La31  1  0.35101015  0.33399103  0.87505663  1
  La3+  La32  1  0.35786799  0.66402590  0.12205035  1
  La3+  La33  1  0.36475304  0.67247122  0.37114628  1
  La3+  La34  1  0.36101747  0.66565365  0.62743417  1
  La3+  La35  1  0.36430048  0.66109689  0.87636350  1
  La3+  La36  1  0.85608367  -0.00883927  0.12059574  1
  La3+  La37  1  0.85892829  0.00185410  0.37746193  1
  La3+  La38  1  0.85220530  -0.00020960  0.62119079  1
  La3+  La39  1  0.87297674  -0.00081575  0.87708508  1
  La3+  La40  1  0.88245802  0.34933308  0.14045802  1
  La3+  La41  1  0.86599113  0.34210504  0.36548725  1
  La3+  La42  1  0.86182964  0.33483068  0.62067852  1
  La3+  La43  1  0.86609337  0.33672070  0.87995424  1
  La3+  La44  1  0.86403085  0.65477422  0.12535840  1
  La3+  La45  1  0.85398756  0.66690166  0.37234900  1
  La3+  La46  1  0.85182065  0.65650210  0.61580355  1
  La3+  La47  1  0.86777525  0.64598426  0.89521783  1
  La3+  La48  1  0.00802927  0.84403897  0.38040309  1
  La3+  La49  1  -0.00858205  0.82364868  0.89062854  1
  La3+  La50  1  -0.01096025  0.50758286  0.86817563  1
  La3+  La51  1  0.50280820  0.83129853  0.88446887  1
  La3+  La52  1  0.49670692  0.83544714  0.14349642  1
  La3+  La53  1  -0.00181202  0.50390193  0.63464357  1
  La3+  La54  1  0.49929771  0.82319294  0.63567615  1
  La3+  La55  1  0.49570652  0.82198829  0.61987116  1
  La3+  La56  1  0.49931128  0.17072838  0.61411030  1
  La3+  La57  1  0.00296318  0.17654905  0.38500412  1
  La3+  La58  1  0.50760715  0.49817606  0.37690743  1
  La3+  La59  1  0.49729960  0.16660534  0.12384732  1
  La3+  La60  1  -0.00670033  0.49848413  0.88739623  1
  La3+  La61  1  -0.00491527  0.50918724  0.61405303  1
  La3+  La62  1  0.49749917  0.16956732  0.88476352  1
  La3+  La63  1  0.50352269  0.16402867  0.86498165  1
  La3+  La64  1  0.49966953  0.50526681  0.10814030  1
  La3+  La65  1  -0.00640719  0.50291367  0.12346902  1
  La3+  La66  1  0.50229318  0.16500734  0.37726763  1
  La3+  La67  1  -0.00840096  0.49127166  0.37497836  1
  La3+  La68  1  0.00034033  0.82987030  0.60899493  1
  La3+  La69  1  0.50329592  0.49557546  0.12724440  1
  La3+  La70  1  0.49985764  0.50053395  0.39569362  1
  La3+  La71  1  -0.00002828  0.49204716  0.35662796  1
  La3+  La72  1  0.75060362  0.45746009  0.04499692  1
  La3+  La73  1  0.75023203  0.82863341  0.46845644  1
  La3+  La74  1  0.24990548  0.49803673  0.74956509  1
  La3+  La75  1  0.24882380  0.52154601  0.49686842  1
  La3+  La76  1  0.74766345  0.52247453  0.26422149  1
  La3+  La77  1  0.24926465  0.79434070  0.52676267  1
  La3+  La78  1  0.25018333  0.17908170  0.43692348  1
  La3+  La79  1  0.75156709  0.17664184  0.30973492  1
  La3+  La80  1  0.75087436  0.11518397  -0.04533260  1
  La3+  La81  1  0.24962777  0.86027761  -0.00561873  1
  La3+  La82  1  0.25081005  0.17551913  0.24481645  1
  La3+  La83  1  0.75035599  0.88906234  0.79918858  1
  Ru4+  Ru84  1  -0.00023911  0.00385141  0.01196104  1
  Ru4+  Ru85  1  0.00076952  0.00637714  0.24460086  1
  Ru4+  Ru86  1  -0.00804702  0.01095736  0.49407198  1
  Ru4+  Ru87  1  -0.00073294  0.01034190  0.76103629  1
  Ru4+  Ru88  1  0.00312017  0.32707202  0.01430819  1
  Ru4+  Ru89  1  -0.00242956  0.33260649  0.25071576  1
  Ru4+  Ru90  1  0.00294079  0.32662139  0.50107688  1
  Ru4+  Ru91  1  -0.00302300  0.32948997  0.74456679  1
  Ru4+  Ru92  1  0.00396685  0.65852193  0.00133196  1
  Ru4+  Ru93  1  -0.00297103  0.68161939  0.24506823  1
  Ru4+  Ru94  1  0.00088477  0.66703769  0.50007751  1
  Ru4+  Ru95  1  -0.00876896  0.68151226  0.74454555  1
  Ru4+  Ru96  1  0.49400653  -0.00523453  0.00895415  1
  Ru4+  Ru97  1  0.50151454  -0.00945543  0.24510088  1
  Ru4+  Ru98  1  0.50179551  -0.00771363  0.48289492  1
  Ru4+  Ru99  1  0.50005228  -0.00214492  0.74880229  1
  Ru4+  Ru100  1  0.50776816  0.33284144  0.00249322  1
  Ru4+  Ru101  1  0.49936321  0.32779730  0.24392793  1
  Ru4+  Ru102  1  0.50032045  0.33183199  0.51124401  1
  Ru4+  Ru103  1  0.50352443  0.34543577  0.74834497  1
  Ru4+  Ru104  1  0.49757392  0.66669676  -0.00846408  1
  Ru4+  Ru105  1  0.49434618  0.68222818  0.25564102  1
  Ru4+  Ru106  1  0.49338079  0.65898902  0.49190932  1
  Ru4+  Ru107  1  0.51102900  0.66930988  0.76448339  1
  Ru4+  Ru108  1  0.10952160  0.16145387  -0.00057038  1
  Ru4+  Ru109  1  0.10899041  0.16012095  0.24968805  1
  Ru4+  Ru110  1  0.10811244  0.16764017  0.50127664  1
  Ru4+  Ru111  1  0.11046807  0.16698207  0.75031157  1
  Ru4+  Ru112  1  0.11323562  0.50881707  0.01282905  1
  Ru4+  Ru113  1  0.11411760  0.49801225  0.24558523  1
  Ru4+  Ru114  1  0.10958815  0.50576978  0.50308963  1
  Ru4+  Ru115  1  0.11248022  0.50429858  0.74655213  1
  Ru4+  Ru116  1  0.10851642  0.83472602  0.00623182  1
  Ru4+  Ru117  1  0.10901984  0.83563146  0.24791250  1
  Ru4+  Ru118  1  0.10969915  0.83426616  0.50053224  1
  Ru4+  Ru119  1  0.11664092  0.83264077  0.75224083  1
  Ru4+  Ru120  1  0.61897824  0.17229581  0.00292793  1
  Ru4+  Ru121  1  0.61271927  0.16283280  0.25093504  1
  Ru4+  Ru122  1  0.61481896  0.16510859  0.49969493  1
  Ru4+  Ru123  1  0.61338610  0.16489766  0.74649312  1
  Ru4+  Ru124  1  0.60966140  0.51060526  -0.00885571  1
  Ru4+  Ru125  1  0.60585887  0.49788378  0.25909077  1
  Ru4+  Ru126  1  0.61216067  0.49954916  0.49623526  1
  Ru4+  Ru127  1  0.61194402  0.49696149  0.74980731  1
  Ru4+  Ru128  1  0.61178997  0.83605863  0.00161050  1
  Ru4+  Ru129  1  0.60944981  0.83139103  0.25227752  1
  Ru4+  Ru130  1  0.61017921  0.84240363  0.49191614  1
  Ru4+  Ru131  1  0.60921786  0.82337975  0.75842850  1
  Ru4+  Ru132  1  0.37992093  0.16526031  0.00177162  1
  Ru4+  Ru133  1  0.39057375  0.16585679  0.25188679  1
  Ru4+  Ru134  1  0.39274057  0.16639938  0.50323578  1
  Ru4+  Ru135  1  0.38724445  0.17085309  0.74603456  1
  Ru4+  Ru136  1  0.38261437  0.50321746  -0.00127356  1
  Ru4+  Ru137  1  0.38401153  0.49954494  0.25448782  1
  Ru4+  Ru138  1  0.39416591  0.50118023  0.50012093  1
  Ru4+  Ru139  1  0.39350545  0.49764163  0.74779762  1
  Ru4+  Ru140  1  0.38943059  0.82830789  0.00019110  1
  Ru4+  Ru141  1  0.39379939  0.82997641  0.25446328  1
  Ru4+  Ru142  1  0.39023620  0.83536209  0.49449421  1
  Ru4+  Ru143  1  0.38629510  0.83938875  0.75044269  1
  Ru4+  Ru144  1  0.88851980  0.16832570  0.00009102  1
  Ru4+  Ru145  1  0.89609117  0.15532018  0.23618850  1
  Ru4+  Ru146  1  0.89021472  0.15416149  0.50538108  1
  Ru4+  Ru147  1  0.88730550  0.16850992  0.74759169  1
  Ru4+  Ru148  1  0.88535733  0.50628194  0.00966736  1
  Ru4+  Ru149  1  0.88370823  0.49354939  0.24193624  1
  Ru4+  Ru150  1  0.88496650  0.50052507  0.49559628  1
  Ru4+  Ru151  1  0.88881485  0.49905409  0.75067456  1
  Ru4+  Ru152  1  0.88630137  0.83814984  0.00261750  1
  Ru4+  Ru153  1  0.89011770  0.82004250  0.24270861  1
  Ru4+  Ru154  1  0.88911486  0.83453130  0.50136949  1
  Ru4+  Ru155  1  0.89386377  0.81899940  0.74829384  1
  Ru4+  Ru156  1  0.75010353  0.03531664  0.25510268  1
  Ru4+  Ru157  1  0.75064445  0.40681121  0.74135176  1
  Ru4+  Ru158  1  0.74939817  0.89801229  0.24243654  1
  Ru4+  Ru159  1  0.75084521  0.72469044  0.75661283  1
  Ru4+  Ru160  1  0.25135602  0.65580649  0.47711503  1
  Ru4+  Ru161  1  0.24905731  0.92564621  0.49475625  1
  Ru4+  Ru162  1  0.25029902  0.25697114  0.56805135  1
  Ru4+  Ru163  1  0.75121754  0.58393384  0.73986765  1
  Ru4+  Ru164  1  0.24970324  0.38412260  0.51844281  1
  Ru4+  Ru165  1  0.24922489  0.57953288  0.23276464  1
  Ru4+  Ru166  1  0.25021076  0.08783089  0.76010038  1
  Ru4+  Ru167  1  0.24986100  0.90118092  0.25567361  1
  Ru4+  Ru168  1  0.25022567  0.76173357  0.75536900  1
  Ru4+  Ru169  1  0.74958370  0.08981417  0.74485746  1
  Ru4+  Ru170  1  0.74812475  0.59742483  -0.01189330  1
  Ru4+  Ru171  1  0.24920159  0.40890548  -0.01124183  1
  Ru4+  Ru172  1  0.75316202  0.26942041  0.00190682  1
  Ru4+  Ru173  1  0.24953577  0.76089868  0.25465468  1
  Ru4+  Ru174  1  0.75138415  0.25414473  0.49792071  1
  Ru4+  Ru175  1  0.75032892  0.25726013  0.74181697  1
  Ru4+  Ru176  1  0.75015014  0.30577475  0.23685721  1
  Ru4+  Ru177  1  0.75083738  0.75666380  0.00332437  1
  Ru4+  Ru178  1  0.24924253  0.06778104  0.53454155  1
  Ru4+  Ru179  1  0.24931829  0.71628968  0.00182782  1
  O2-  O180  1  0.16484301  0.08156705  -0.00372340  1
  O2-  O181  1  0.16908233  0.08255653  0.25365363  1
  O2-  O182  1  0.16616367  0.07884797  0.50265739  1
  O2-  O183  1  0.16796035  0.07976764  0.74643232  1
  O2-  O184  1  0.16402694  0.41674149  -0.00102575  1
  O2-  O185  1  0.16121823  0.41510820  0.25080451  1
  O2-  O186  1  0.16498923  0.40871975  0.50431218  1
  O2-  O187  1  0.16482970  0.41106134  0.74420060  1
  O2-  O188  1  0.16986949  0.75087757  -0.00196432  1
  O2-  O189  1  0.16582110  0.75147493  0.25378614  1
  O2-  O190  1  0.16154409  0.74340919  0.49672113  1
  O2-  O191  1  0.16570980  0.74832800  0.75243060  1
  O2-  O192  1  0.66388599  0.07617737  0.00015344  1
  O2-  O193  1  0.66694676  0.07833678  0.25105224  1
  O2-  O194  1  0.66544461  0.08445749  0.50257231  1
  O2-  O195  1  0.66535521  0.08055745  0.75096626  1
  O2-  O196  1  0.66576214  0.41537031  -0.00290324  1
  O2-  O197  1  0.67165731  0.41273753  0.25004336  1
  O2-  O198  1  0.66355069  0.41273945  0.49964251  1
  O2-  O199  1  0.67006472  0.41083278  0.75056785  1
  O2-  O200  1  0.66504649  0.74893059  0.00220308  1
  O2-  O201  1  0.66538641  0.75350809  0.25198015  1
  O2-  O202  1  0.66294729  0.75181858  0.50181710  1
  O2-  O203  1  0.66831072  0.74473466  0.74894608  1
  O2-  O204  1  0.33515941  0.25312541  -0.00422155  1
  O2-  O205  1  0.33983700  0.25214442  0.25238913  1
  O2-  O206  1  0.33607560  0.24986513  0.49866293  1
  O2-  O207  1  0.33620152  0.25235661  0.74782397  1
  O2-  O208  1  0.33499643  0.58658763  -0.00416412  1
  O2-  O209  1  0.33282042  0.58972439  0.25343425  1
  O2-  O210  1  0.33944163  0.58938505  0.49942491  1
  O2-  O211  1  0.33854281  0.58374169  0.75059421  1
  O2-  O212  1  0.33497227  0.92035126  -0.00072779  1
  O2-  O213  1  0.33199286  0.91143566  0.24350645  1
  O2-  O214  1  0.33123202  0.91659936  0.50302673  1
  O2-  O215  1  0.33803682  0.92267399  0.75018771  1
  O2-  O216  1  0.83660634  0.25559606  -0.00062885  1
  O2-  O217  1  0.83208949  0.25766872  0.24613545  1
  O2-  O218  1  0.83867374  0.25118933  0.50286803  1
  O2-  O219  1  0.83503482  0.25191755  0.74952505  1
  O2-  O220  1  0.82834169  0.58349639  0.00835596  1
  O2-  O221  1  0.83382593  0.58239962  0.25217689  1
  O2-  O222  1  0.83090126  0.58057300  0.49551017  1
  O2-  O223  1  0.83268454  0.58614772  0.75158743  1
  O2-  O224  1  0.83150636  0.91696032  -0.00954229  1
  O2-  O225  1  0.83661286  0.91373176  0.25232158  1
  O2-  O226  1  0.83607433  0.91842910  0.49803138  1
  O2-  O227  1  0.84169186  0.91845036  0.75306500  1
  O2-  O228  1  0.16685092  0.24772346  -0.00588267  1
  O2-  O229  1  0.16168534  0.25015264  0.25233209  1
  O2-  O230  1  0.16495613  0.24953646  0.50219626  1
  O2-  O231  1  0.16148807  0.25107807  0.74449332  1
  O2-  O232  1  0.16865316  0.58875831  0.00144743  1
  O2-  O233  1  0.16672457  0.58954098  0.25167424  1
  O2-  O234  1  0.16312663  0.59157240  0.49944312  1
  O2-  O235  1  0.16492662  0.58744871  0.75446966  1
  O2-  O236  1  0.16859608  0.92008580  -0.00665720  1
  O2-  O237  1  0.16736093  0.91588220  0.24811737  1
  O2-  O238  1  0.16490800  0.91961201  0.50205977  1
  O2-  O239  1  0.16234228  0.91975001  0.74897265  1
  O2-  O240  1  0.67135254  0.25512217  -0.00129590  1
  O2-  O241  1  0.67114698  0.25869183  0.25243315  1
  O2-  O242  1  0.66889402  0.25453203  0.50226573  1
  O2-  O243  1  0.66982327  0.25536458  0.74729825  1
  O2-  O244  1  0.66786335  0.58713679  0.00510036  1
  O2-  O245  1  0.66342646  0.58227286  0.25207517  1
  O2-  O246  1  0.66215906  0.58489565  0.50070456  1
  O2-  O247  1  0.66529827  0.58418976  0.74613078  1
  O2-  O248  1  0.66207500  0.92154072  -0.00410138  1
  O2-  O249  1  0.66585559  0.91799280  0.24925663  1
  O2-  O250  1  0.66917224  0.91715371  0.50044673  1
  O2-  O251  1  0.65874877  0.92066004  0.75342718  1
  O2-  O252  1  0.32812681  0.07962150  -0.00317845  1
  O2-  O253  1  0.33777416  0.08137655  0.24541320  1
  O2-  O254  1  0.33113016  0.08056013  0.50167517  1
  O2-  O255  1  0.33324463  0.07985149  0.74709619  1
  O2-  O256  1  0.33209732  0.41509973  -0.00142786  1
  O2-  O257  1  0.33748383  0.41518794  0.25045396  1
  O2-  O258  1  0.33209210  0.41024600  0.50117506  1
  O2-  O259  1  0.33497160  0.41410037  0.74629447  1
  O2-  O260  1  0.32842041  0.74539784  -0.00228986  1
  O2-  O261  1  0.32941995  0.75075986  0.25400590  1
  O2-  O262  1  0.33764749  0.74522689  0.49646306  1
  O2-  O263  1  0.33392316  0.74703596  0.75282937  1
  O2-  O264  1  0.83861109  0.07749288  -0.00209626  1
  O2-  O265  1  0.83127165  0.07845130  0.25400134  1
  O2-  O266  1  0.83290249  0.08481414  0.50013226  1
  O2-  O267  1  0.83091194  0.08184011  0.75476290  1
  O2-  O268  1  0.83764432  0.41182251  -0.00098672  1
  O2-  O269  1  0.82294926  0.41531264  0.24572837  1
  O2-  O270  1  0.83649353  0.41089123  0.50517606  1
  O2-  O271  1  0.83386786  0.40887692  0.75103630  1
  O2-  O272  1  0.83635437  0.74761365  0.00001760  1
  O2-  O273  1  0.83376023  0.75062300  0.25024909  1
  O2-  O274  1  0.83360502  0.74701301  0.50011731  1
  O2-  O275  1  0.82863850  0.74863536  0.75968875  1
  O2-  O276  1  0.05005976  0.08854337  -0.00070731  1
  O2-  O277  1  0.45329826  0.57362015  0.27117340  1
  O2-  O278  1  0.95006542  0.76598107  0.48817910  1
  O2-  O279  1  0.95225420  0.56846817  0.00255518  1
  O2-  O280  1  0.44879146  0.09177668  0.00560477  1
  O2-  O281  1  0.04927003  0.08758014  0.99027417  1
  O2-  O282  1  0.54285565  0.89812538  0.75956953  1
  O2-  O283  1  0.45398958  0.24056797  0.00476334  1
  O2-  O284  1  0.94533634  0.76201015  0.30512280  1
  O2-  O285  1  0.98089880  0.79731269  0.74606569  1
  O2-  O286  1  0.04954410  0.90176345  0.76482177  1
  O2-  O287  1  0.55288995  0.90387123  0.55126162  1
  O2-  O288  1  0.94490894  0.42039748  0.22877116  1
  O2-  O289  1  0.45168314  0.41858734  0.00857181  1
  O2-  O290  1  0.95362283  0.43381320  0.24853291  1
  O2-  O291  1  0.04180479  0.89371253  0.96131902  1
  O2-  O292  1  0.55034814  0.75945261  0.50916287  1
  O2-  O293  1  0.55867701  0.74544685  0.70173885  1
  O2-  O294  1  0.44909833  0.76173538  0.74589756  1
  O2-  O295  1  0.05383698  0.09866039  0.76151485  1
  O2-  O296  1  0.04887632  0.91856919  0.52136488  1
  O2-  O297  1  0.95036801  0.57713836  0.22803917  1
  O2-  O298  1  0.95198393  0.08573628  0.29350119  1
  O2-  O299  1  0.03176252  0.22529065  0.00541220  1
  O2-  O300  1  0.94207776  0.42007177  0.98741849  1
  O2-  O301  1  0.54745050  0.90035423  0.26344816  1
  O2-  O302  1  0.05764292  0.57683153  0.95305095  1
  O2-  O303  1  0.04637835  0.89831821  0.23917731  1
  O2-  O304  1  0.45343938  0.43243561  0.74029053  1
  O2-  O305  1  0.55024044  0.23341097  0.24376800  1
  O2-  O306  1  0.05164225  0.75844616  0.49238347  1
  O2-  O307  1  0.45470845  0.42820402  0.25596827  1
  O2-  O308  1  0.95064369  0.41898833  0.02432620  1
  O2-  O309  1  0.94304612  0.58320541  0.98438052  1
  O2-  O310  1  0.55137028  0.09082007  0.98123402  1
  O2-  O311  1  0.95476940  0.11171539  0.78024233  1
  O2-  O312  1  0.04566985  0.43200123  0.50939790  1
  O2-  O313  1  0.45552486  0.09853714  0.73257602  1
  O2-  O314  1  0.05153729  0.42553562  0.99033234  1
  O2-  O315  1  0.04877217  0.09739387  0.49567667  1
  O2-  O316  1  0.05144532  0.57323204  0.25571915  1
  O2-  O317  1  0.97507711  0.80143133  0.74804010  1
  O2-  O318  1  0.46808324  0.78586812  0.30260054  1
  O2-  O319  1  0.94533783  0.57490323  0.26657033  1
  O2-  O320  1  0.55242223  0.10016081  0.01919602  1
  O2-  O321  1  0.45066072  0.56507981  0.98653191  1
  O2-  O322  1  0.04622934  0.43052997  0.74330371  1
  O2-  O323  1  0.45186264  0.90395151  0.54494427  1
  O2-  O324  1  0.43397021  0.75426836  0.06565495  1
  O2-  O325  1  0.42979509  0.75428362  0.92522142  1
  O2-  O326  1  0.92769333  0.40211567  0.28162061  1
  O2-  O327  1  0.43129166  0.92697174  0.27300292  1
  O2-  O328  1  0.93727852  0.59616384  0.46134884  1
  O2-  O329  1  0.57003060  0.93736382  0.42288579  1
  O2-  O330  1  0.93226226  0.06018093  0.71256073  1
  O2-  O331  1  0.93996236  0.72370603  0.15716835  1
  O2-  O332  1  0.56361430  0.25229519  0.51412672  1
  O2-  O333  1  0.93212830  0.60498201  0.04030006  1
  O2-  O334  1  0.06637744  0.58168605  0.93988742  1
  O2-  O335  1  0.55578023  0.08553473  0.47022590  1
  O2-  O336  1  0.44044139  0.08138094  0.01730151  1
  O2-  O337  1  0.44108545  0.91226024  0.02032873  1
  O2-  O338  1  0.57034217  0.59420644  0.07567283  1
  O2-  O339  1  0.56419758  0.41786662  0.01324514  1
  O2-  O340  1  0.56322698  0.58935288  0.92816310  1
  O2-  O341  1  0.93182611  0.70620505  0.83426942  1
  O2-  O342  1  0.56785609  0.41855024  0.81735772  1
  O2-  O343  1  0.94977934  0.75537261  0.30350920  1
  O2-  O344  1  0.43082152  0.41110240  0.02928686  1
  O2-  O345  1  0.05986107  0.93304455  0.77561403  1
  O2-  O346  1  0.41959461  0.72471805  0.20664637  1
  O2-  O347  1  0.06770905  0.08709129  0.18391868  1
  O2-  O348  1  0.44001611  0.40915819  0.51284730  1
  O2-  O349  1  0.08100924  0.93784971  0.05430604  1
  O2-  O350  1  0.56629338  0.73806938  0.85091135  1
  O2-  O351  1  0.94078435  0.06739282  0.57260930  1
  O2-  O352  1  0.56570789  0.25506948  0.97202104  1
  O2-  O353  1  0.90785423  0.73629189  0.67468750  1
  O2-  O354  1  0.93542699  0.92599845  0.03196722  1
  O2-  O355  1  0.56172990  0.25525066  0.77186846  1
  O2-  O356  1  0.44295300  0.07430495  0.53726378  1
  O2-  O357  1  0.93511459  0.25250412  0.27255678  1
  O2-  O358  1  0.57093407  0.42124893  0.68741377  1
  O2-  O359  1  0.43585936  0.73346402  0.53644461  1
  O2-  O360  1  0.55855205  0.74279012  0.54167557  1
  O2-  O361  1  0.94784340  0.09158571  0.29812425  1
  O2-  O362  1  0.07609523  0.27606767  0.02776970  1
  O2-  O363  1  0.06810020  0.59085179  0.10197995  1
  O2-  O364  1  0.56572343  0.73420182  0.26873225  1
  O2-  O365  1  0.55917120  0.24467049  0.23583246  1
  O2-  O366  1  0.56455570  0.73427613  0.69251257  1
  O2-  O367  1  0.93589024  0.07422099  0.43865101  1
  O2-  O368  1  0.42102052  0.93678785  0.43567093  1
  O2-  O369  1  0.92443923  0.07168716  0.15261825  1
  O2-  O370  1  0.06169285  0.74105289  0.02956736  1
  O2-  O371  1  0.06756852  0.08557562  0.32027947  1
  O2-  O372  1  0.24974010  0.00494569  0.84375880  1
  O2-  O373  1  0.25091803  0.68019629  0.35605524  1
  O2-  O374  1  0.74913304  0.65746993  0.32977884  1
  O2-  O375  1  0.75118474  0.00185949  0.37892132  1
  O2-  O376  1  0.25024493  0.32322681  0.41090729  1
  O2-  O377  1  0.25101820  0.67128457  0.59322239  1
  O2-  O378  1  0.74931886  -0.00266827  0.13728940  1
  O2-  O379  1  0.74965364  0.32667756  0.39556108  1
  O2-  O380  1  0.25036694  0.34696085  0.87092072  1
  O2-  O381  1  0.75133907  0.67890457  0.88803392  1
  O2-  O382  1  0.75028722  0.67066467  0.42153681  1
  O2-  O383  1  0.24912122  0.01603446  0.42051640  1
  O2-  O384  1  0.24957278  0.00371832  0.28671718  1
  O2-  O385  1  0.75046993  0.33648857  0.11212257  1
  O2-  O386  1  0.24987903  0.65764919  0.70045755  1
  O2-  O387  1  0.24981964  0.32765112  0.07667878  1
  O2-  O388  1  0.75111992  0.67192536  0.08364497  1
  O2-  O389  1  0.25024219  0.67905156  0.15226268  1
  O2-  O390  1  0.74999861  -0.00464773  0.67683177  1
  O2-  O391  1  0.25104932  0.32126705  0.31551552  1
  O2-  O392  1  0.24942770  -0.01575978  0.62278119  1
  O2-  O393  1  0.24982023  0.33270300  0.16964069  1
  O2-  O394  1  0.74945893  0.00228081  0.58464710  1
  O2-  O395  1  0.74903914  0.65196513  0.17779621  1
  O2-  O396  1  0.75068774  0.84081338  0.60156970  1
  O2-  O397  1  0.75003652  0.50542351  0.90684104  1
  O2-  O398  1  0.74944467  0.83350096  0.92470261  1
  O2-  O399  1  0.25021903  0.49816601  0.37017143  1
  O2-  O400  1  0.24976181  0.51415964  0.96560834  1
  O2-  O401  1  0.24972385  0.50719661  0.87751612  1
  O2-  O402  1  0.75031263  0.16935758  0.16670270  1
  O2-  O403  1  0.25037251  0.82709193  0.85024516  1
  O2-  O404  1  0.24976777  0.84915519  0.37528987  1
  O2-  O405  1  0.74990738  0.49698028  0.65746672  1
  O2-  O406  1  0.74977400  0.17968265  0.07810055  1
  O2-  O407  1  0.24997949  0.15261834  0.62142323  1
  O2-  O408  1  0.75042105  0.16036561  0.44833045  1
  O2-  O409  1  0.74983880  0.49673875  0.81924050  1
  O2-  O410  1  0.25122130  0.47762009  0.62151980  1
  O2-  O411  1  0.25009788  0.50860597  0.15084758  1
  O2-  O412  1  0.25019380  0.83027954  0.66744735  1
  O2-  O413  1  0.25073468  0.15966227  0.12397739  1
  O2-  O414  1  0.25031599  0.16440333  0.83277036  1
  O2-  O415  1  0.74925337  0.81261022  0.68312977  1
  O2-  O416  1  0.74994146  0.83381983  0.33414776  1
  O2-  O417  1  0.75005988  0.17540508  0.83058904  1
  O2-  O418  1  0.75038194  0.83697920  0.15132055  1
  O2-  O419  1  0.25003969  0.47928580  0.28589420  1
  O2-  O420  1  0.04898636  0.33153127  0.37027418  1
  O2-  O421  1  0.52308297  -0.00109838  0.88045689  1
  O2-  O422  1  0.53667061  0.33216482  0.61954801  1
  O2-  O423  1  0.96868327  -0.00825843  0.88321007  1
  O2-  O424  1  0.03094428  0.66468077  0.37259265  1
  O2-  O425  1  0.95506511  0.32864071  0.40622800  1
  O2-  O426  1  0.45290955  0.30859471  0.63648958  1
  O2-  O427  1  0.04879778  0.66674234  0.63868577  1
  O2-  O428  1  0.02699894  0.34166512  0.13872002  1
  O2-  O429  1  0.01058131  -0.00430165  0.12984308  1
  O2-  O430  1  0.50718325  0.33271067  0.87646476  1
  O2-  O431  1  0.48126940  0.03025538  0.36281167  1
  O2-  O432  1  0.02660068  0.33007533  0.62132130  1
  O2-  O433  1  0.47425592  0.65222503  0.86418301  1
  O2-  O434  1  0.53974067  0.34196717  0.12425125  1
  O2-  O435  1  0.52514209  0.34240641  0.37807091  1
  O2-  O436  1  0.03009914  0.68729298  0.85712072  1
  O2-  O437  1  0.95885114  0.63933327  0.61342933  1
  O2-  O438  1  0.54901857  -0.00005490  0.13649772  1
  O2-  O439  1  0.48466914  0.64900459  0.12805540  1
  O2-  O440  1  0.45688779  -0.00289795  0.14343189  1
  O2-  O441  1  0.52702040  0.65122580  0.38039474  1
  O2-  O442  1  0.45040868  0.31886614  0.14705070  1
  O2-  O443  1  0.02338406  -0.01949158  0.37860589  1
