# generated using pymatgen
data_La7(Ru4O11)2
_symmetry_space_group_name_H-M   'P 1'
_cell_length_a   23.99605170
_cell_length_b   16.83688982
_cell_length_c   15.43288397
_cell_angle_alpha   90.00199374
_cell_angle_beta   89.99433908
_cell_angle_gamma   89.99420177
_symmetry_Int_Tables_number   1
_chemical_formula_structural   La7(Ru4O11)2
_chemical_formula_sum   'La84 Ru96 O264'
_cell_volume   6235.17640525
_cell_formula_units_Z   12
loop_
 _symmetry_equiv_pos_site_id
 _symmetry_equiv_pos_as_xyz
  1  'x, y, z'
loop_
 _atom_type_symbol
 _atom_type_oxidation_number
  La3+  3.0
  Ru4+  4.0
  O2-  -2.0
loop_
 _atom_site_type_symbol
 _atom_site_label
 _atom_site_symmetry_multiplicity
 _atom_site_fract_x
 _atom_site_fract_y
 _atom_site_fract_z
 _atom_site_occupancy
  La3+  La0  1  0.13720947  -0.00064812  0.12783789  1
  La3+  La1  1  0.13727434  -0.00413355  0.37892282  1
  La3+  La2  1  0.14505541  -0.00103303  0.61787419  1
  La3+  La3  1  0.13970730  0.00268682  0.87665479  1
  La3+  La4  1  0.13349509  0.33320507  0.13153406  1
  La3+  La5  1  0.14991783  0.34750730  0.37247880  1
  La3+  La6  1  0.14565329  0.33523679  0.61955988  1
  La3+  La7  1  0.13207117  0.32989729  0.87941106  1
  La3+  La8  1  0.14373523  0.66843731  0.12757491  1
  La3+  La9  1  0.13850542  0.66699348  0.37616302  1
  La3+  La10  1  0.13759312  0.67735845  0.62885437  1
  La3+  La11  1  0.13287758  0.66980815  0.87638127  1
  La3+  La12  1  0.63811741  -0.00104767  0.12499473  1
  La3+  La13  1  0.63997011  0.00804753  0.38599092  1
  La3+  La14  1  0.62958413  -0.00065050  0.62060068  1
  La3+  La15  1  0.64333532  -0.00991708  0.87543966  1
  La3+  La16  1  0.63842937  0.33544973  0.12784614  1
  La3+  La17  1  0.63794420  0.32803651  0.37340230  1
  La3+  La18  1  0.63734737  0.32472818  0.62567071  1
  La3+  La19  1  0.64173835  0.33655102  0.87665618  1
  La3+  La20  1  0.64480311  0.66697616  0.11996832  1
  La3+  La21  1  0.63588698  0.67369164  0.37137423  1
  La3+  La22  1  0.64437538  0.66852403  0.63014915  1
  La3+  La23  1  0.65196386  0.66880675  0.88070582  1
  La3+  La24  1  0.36562244  -0.00056255  0.12514275  1
  La3+  La25  1  0.36482509  -0.00319186  0.37382398  1
  La3+  La26  1  0.35038183  0.00138090  0.61676680  1
  La3+  La27  1  0.35230746  -0.00501881  0.87101488  1
  La3+  La28  1  0.37233331  0.33300652  0.12757391  1
  La3+  La29  1  0.36006682  0.33012472  0.36523975  1
  La3+  La30  1  0.35265878  0.33147600  0.62219490  1
  La3+  La31  1  0.37570591  0.33676770  0.88799053  1
  La3+  La32  1  0.35999017  0.66273217  0.12225644  1
  La3+  La33  1  0.35371326  0.67136740  0.37368634  1
  La3+  La34  1  0.35650258  0.67931545  0.62654723  1
  La3+  La35  1  0.36524076  0.67004752  0.87602220  1
  La3+  La36  1  0.85637939  -0.00737430  0.12585464  1
  La3+  La37  1  0.85057493  -0.00320619  0.38195364  1
  La3+  La38  1  0.86789469  -0.00518509  0.62154516  1
  La3+  La39  1  0.84896691  -0.00694132  0.87421573  1
  La3+  La40  1  0.85032318  0.33477636  0.12923370  1
  La3+  La41  1  0.86900741  0.32882875  0.37486679  1
  La3+  La42  1  0.86895566  0.32759177  0.62695349  1
  La3+  La43  1  0.87323518  0.33384175  0.87287158  1
  La3+  La44  1  0.84866419  0.66700646  0.12438489  1
  La3+  La45  1  0.86643423  0.66744067  0.38057195  1
  La3+  La46  1  0.86697726  0.66227547  0.62574383  1
  La3+  La47  1  0.84974421  0.66177037  0.87427328  1
  La3+  La48  1  -0.00190649  0.49638834  0.60198304  1
  La3+  La49  1  0.50028188  0.16341041  0.87287830  1
  La3+  La50  1  0.00228693  0.50645855  0.62074116  1
  La3+  La51  1  -0.00204381  0.15828868  0.10842748  1
  La3+  La52  1  0.50869714  0.50515175  0.89203781  1
  La3+  La53  1  0.49607187  0.15477761  0.61209655  1
  La3+  La54  1  -0.00041761  0.83245610  0.85547829  1
  La3+  La55  1  0.50011747  0.50716779  0.35533526  1
  La3+  La56  1  0.50542644  0.49426762  0.64672961  1
  La3+  La57  1  0.49970255  0.84413456  0.12184024  1
  La3+  La58  1  0.01098210  0.50203151  0.85770200  1
  La3+  La59  1  0.50283589  0.48304631  0.62840924  1
  La3+  La60  1  0.00893353  0.17446669  0.39508304  1
  La3+  La61  1  -0.00573190  0.83898044  0.87515780  1
  La3+  La62  1  -0.01053312  0.16357138  0.12551700  1
  La3+  La63  1  0.49779996  0.83643390  0.38047810  1
  La3+  La64  1  0.49567216  0.50170329  0.37594889  1
  La3+  La65  1  0.50328827  0.83436469  0.64283467  1
  La3+  La66  1  -0.01047899  0.15533715  0.87220581  1
  La3+  La67  1  0.00524308  0.16146081  0.37857105  1
  La3+  La68  1  0.00331129  0.50163340  0.12489652  1
  La3+  La69  1  0.50413702  0.16486476  0.37688046  1
  La3+  La70  1  -0.00057579  0.82683202  0.13322276  1
  La3+  La71  1  0.50641037  0.50027644  0.88925416  1
  La3+  La72  1  0.25287394  0.19018645  0.71228760  1
  La3+  La73  1  0.74948322  0.12243513  0.70427026  1
  La3+  La74  1  0.75012708  0.16798744  0.48496014  1
  La3+  La75  1  0.24767676  0.52287400  0.48913763  1
  La3+  La76  1  0.75051025  0.46418735  0.26723374  1
  La3+  La77  1  0.74994472  0.84281247  0.49433433  1
  La3+  La78  1  0.24679418  0.52410871  0.06991145  1
  La3+  La79  1  0.25097884  0.77322088  0.26651500  1
  La3+  La80  1  0.75140965  0.51968222  0.52878569  1
  La3+  La81  1  0.25019751  0.17037929  0.46222677  1
  La3+  La82  1  0.25034793  0.45374452  0.76901352  1
  La3+  La83  1  0.25341546  0.20114348  -0.00196475  1
  Ru4+  Ru84  1  0.00600214  -0.01399943  -0.01747745  1
  Ru4+  Ru85  1  -0.00250600  -0.01167693  0.25048937  1
  Ru4+  Ru86  1  -0.00496971  -0.00830167  0.51135821  1
  Ru4+  Ru87  1  0.00190020  0.00263826  0.74149666  1
  Ru4+  Ru88  1  -0.00598808  0.35048288  -0.00577303  1
  Ru4+  Ru89  1  -0.00208965  0.33983309  0.24634061  1
  Ru4+  Ru90  1  -0.00197242  0.33276664  0.49534438  1
  Ru4+  Ru91  1  0.00335668  0.31674538  0.76160668  1
  Ru4+  Ru92  1  0.00404362  0.66201786  0.00292913  1
  Ru4+  Ru93  1  -0.00631098  0.68490020  0.27021678  1
  Ru4+  Ru94  1  -0.00040924  0.68516209  0.49661297  1
  Ru4+  Ru95  1  0.00248828  0.67458381  0.74470499  1
  Ru4+  Ru96  1  0.49574622  0.00387000  -0.00196087  1
  Ru4+  Ru97  1  0.49484924  0.00631383  0.23676740  1
  Ru4+  Ru98  1  0.49521601  -0.00906783  0.50537443  1
  Ru4+  Ru99  1  0.49974565  -0.00527533  0.75983537  1
  Ru4+  Ru100  1  0.50442048  0.33900745  0.02543781  1
  Ru4+  Ru101  1  0.49839144  0.32763174  0.25482059  1
  Ru4+  Ru102  1  0.48840808  0.32628335  0.50490569  1
  Ru4+  Ru103  1  0.50567621  0.32002824  0.73826433  1
  Ru4+  Ru104  1  0.49950543  0.66559020  -0.00982831  1
  Ru4+  Ru105  1  0.50124503  0.66918999  0.24243426  1
  Ru4+  Ru106  1  0.49646500  0.67123669  0.49496131  1
  Ru4+  Ru107  1  0.49428463  0.66953031  0.76073343  1
  Ru4+  Ru108  1  0.11012735  0.17368922  0.00125084  1
  Ru4+  Ru109  1  0.11326515  0.17448309  0.25326720  1
  Ru4+  Ru110  1  0.11314204  0.16707323  0.50561933  1
  Ru4+  Ru111  1  0.10582586  0.17092616  0.74086231  1
  Ru4+  Ru112  1  0.11312585  0.49835229  0.00147726  1
  Ru4+  Ru113  1  0.11314669  0.49491605  0.24896904  1
  Ru4+  Ru114  1  0.11439574  0.50469994  0.49363833  1
  Ru4+  Ru115  1  0.11475505  0.50185444  0.75302370  1
  Ru4+  Ru116  1  0.11341676  0.83543805  0.00984612  1
  Ru4+  Ru117  1  0.10821015  0.83914871  0.25173695  1
  Ru4+  Ru118  1  0.11043129  0.82985549  0.50215152  1
  Ru4+  Ru119  1  0.11338400  0.82961803  0.74561463  1
  Ru4+  Ru120  1  0.61181205  0.16497265  0.00227635  1
  Ru4+  Ru121  1  0.61112126  0.16320170  0.24538262  1
  Ru4+  Ru122  1  0.61413602  0.17069536  0.49700949  1
  Ru4+  Ru123  1  0.60759942  0.16834838  0.75959481  1
  Ru4+  Ru124  1  0.60984727  0.49971688  0.01013923  1
  Ru4+  Ru125  1  0.60897955  0.49659971  0.24363615  1
  Ru4+  Ru126  1  0.61959986  0.50276833  0.49010152  1
  Ru4+  Ru127  1  0.61979085  0.50107976  0.75447870  1
  Ru4+  Ru128  1  0.60894083  0.83513203  0.00119043  1
  Ru4+  Ru129  1  0.61040754  0.83213323  0.25211652  1
  Ru4+  Ru130  1  0.60863797  0.82626628  0.50009824  1
  Ru4+  Ru131  1  0.61486971  0.83996893  0.74919070  1
  Ru4+  Ru132  1  0.39918776  0.15676916  -0.00327256  1
  Ru4+  Ru133  1  0.38919640  0.16269475  0.24806621  1
  Ru4+  Ru134  1  0.39224273  0.16699342  0.50191265  1
  Ru4+  Ru135  1  0.39525891  0.16620187  0.75110618  1
  Ru4+  Ru136  1  0.37750544  0.49869363  0.00277650  1
  Ru4+  Ru137  1  0.38399120  0.50235609  0.23641137  1
  Ru4+  Ru138  1  0.38294964  0.50475897  0.49279005  1
  Ru4+  Ru139  1  0.38584291  0.50752463  0.75221485  1
  Ru4+  Ru140  1  0.39020753  0.83106803  -0.00046212  1
  Ru4+  Ru141  1  0.39302826  0.83352249  0.24715334  1
  Ru4+  Ru142  1  0.38559014  0.83468627  0.50212247  1
  Ru4+  Ru143  1  0.38974395  0.83188637  0.75385662  1
  Ru4+  Ru144  1  0.88359646  0.16466971  -0.00314081  1
  Ru4+  Ru145  1  0.88094035  0.16519088  0.23489316  1
  Ru4+  Ru146  1  0.88689159  0.16205421  0.51214045  1
  Ru4+  Ru147  1  0.88835519  0.16214387  0.74753630  1
  Ru4+  Ru148  1  0.88701890  0.49224645  0.00808092  1
  Ru4+  Ru149  1  0.89094277  0.49926105  0.24692219  1
  Ru4+  Ru150  1  0.88403186  0.49675300  0.49325881  1
  Ru4+  Ru151  1  0.87898364  0.49996218  0.75465694  1
  Ru4+  Ru152  1  0.88797592  0.83186342  -0.00364370  1
  Ru4+  Ru153  1  0.89238495  0.82155661  0.24893435  1
  Ru4+  Ru154  1  0.89424902  0.82953713  0.49887031  1
  Ru4+  Ru155  1  0.88878250  0.83648116  0.75486071  1
  Ru4+  Ru156  1  0.74949964  0.08901567  0.24828814  1
  Ru4+  Ru157  1  0.74921978  0.42385292  0.01177879  1
  Ru4+  Ru158  1  0.74936375  0.07376433  0.00771869  1
  Ru4+  Ru159  1  0.24937948  0.06031175  0.76044263  1
  Ru4+  Ru160  1  0.25120856  0.90858849  0.00589325  1
  Ru4+  Ru161  1  0.75132419  0.75411283  0.74713017  1
  Ru4+  Ru162  1  0.25040361  0.05769190  0.04291072  1
  Ru4+  Ru163  1  0.24814102  0.38562849  0.00992881  1
  Ru4+  Ru164  1  0.24977759  0.66814393  0.51690030  1
  Ru4+  Ru165  1  0.74932010  0.91012367  0.24824055  1
  Ru4+  Ru166  1  0.24920432  0.08314292  0.24845932  1
  Ru4+  Ru167  1  0.25277348  0.37225097  0.47671928  1
  Ru4+  Ru168  1  0.74895965  0.66805188  0.50169362  1
  Ru4+  Ru169  1  0.75263981  0.37358316  0.48255152  1
  Ru4+  Ru170  1  0.75072403  0.27128447  0.77686686  1
  Ru4+  Ru171  1  0.24951753  0.88504592  0.73498063  1
  Ru4+  Ru172  1  0.74806095  0.23326800  0.24227599  1
  Ru4+  Ru173  1  0.25098526  0.30570016  0.79403788  1
  Ru4+  Ru174  1  0.24961328  0.93537520  0.26879547  1
  Ru4+  Ru175  1  0.75060444  0.42739215  0.76058829  1
  Ru4+  Ru176  1  0.24873029  0.62352139  0.75038916  1
  Ru4+  Ru177  1  0.74955879  0.25922367  0.01207295  1
  Ru4+  Ru178  1  0.74991442  0.60707780  0.24543584  1
  Ru4+  Ru179  1  0.24857498  0.62647865  -0.03729478  1
  O2-  O180  1  0.16706798  0.08419142  0.00666951  1
  O2-  O181  1  0.16474492  0.08286752  0.25132499  1
  O2-  O182  1  0.16487925  0.07824324  0.49057906  1
  O2-  O183  1  0.16381040  0.07915914  0.74697725  1
  O2-  O184  1  0.16658845  0.41159915  0.00693881  1
  O2-  O185  1  0.16602479  0.41775745  0.24325300  1
  O2-  O186  1  0.17316351  0.41526655  0.50110934  1
  O2-  O187  1  0.15712188  0.40862510  0.75071183  1
  O2-  O188  1  0.16094160  0.74910838  -0.00329988  1
  O2-  O189  1  0.15948483  0.74278620  0.25040548  1
  O2-  O190  1  0.16730290  0.74787201  0.50279757  1
  O2-  O191  1  0.16762663  0.74709594  0.75766446  1
  O2-  O192  1  0.66683031  0.07773532  0.00113179  1
  O2-  O193  1  0.66942530  0.07952072  0.25288396  1
  O2-  O194  1  0.67009286  0.08020553  0.51067490  1
  O2-  O195  1  0.66228946  0.07774945  0.74613147  1
  O2-  O196  1  0.66732742  0.41464900  0.00576470  1
  O2-  O197  1  0.66608107  0.40892581  0.25315255  1
  O2-  O198  1  0.67431000  0.41087314  0.49684738  1
  O2-  O199  1  0.66817876  0.41286595  0.74609779  1
  O2-  O200  1  0.66164630  0.75066028  0.00667561  1
  O2-  O201  1  0.66106257  0.74759165  0.25620588  1
  O2-  O202  1  0.67242566  0.74715571  0.49605210  1
  O2-  O203  1  0.66485329  0.74887735  0.74570204  1
  O2-  O204  1  0.34414611  0.25197182  0.00170401  1
  O2-  O205  1  0.33516778  0.24643451  0.24111834  1
  O2-  O206  1  0.33893827  0.25033026  0.49314746  1
  O2-  O207  1  0.34023851  0.25632869  0.75693064  1
  O2-  O208  1  0.32663983  0.58801454  -0.00276115  1
  O2-  O209  1  0.33464156  0.58430260  0.24727079  1
  O2-  O210  1  0.32906795  0.59487169  0.51080395  1
  O2-  O211  1  0.32961583  0.59206875  0.75572130  1
  O2-  O212  1  0.33350294  0.91735574  0.00090146  1
  O2-  O213  1  0.33074751  0.91944592  0.25135751  1
  O2-  O214  1  0.33893579  0.91952584  0.49823756  1
  O2-  O215  1  0.33249652  0.91095840  0.74184230  1
  O2-  O216  1  0.83075082  0.25657922  -0.00371696  1
  O2-  O217  1  0.82787423  0.25269146  0.25550559  1
  O2-  O218  1  0.83521665  0.24869222  0.49426981  1
  O2-  O219  1  0.83026960  0.25381177  0.74577256  1
  O2-  O220  1  0.84158094  0.58128534  0.00105968  1
  O2-  O221  1  0.83339129  0.58422503  0.25550655  1
  O2-  O222  1  0.83003492  0.58751912  0.49963489  1
  O2-  O223  1  0.83188531  0.58460809  0.74769258  1
  O2-  O224  1  0.83807935  0.92019728  0.00552326  1
  O2-  O225  1  0.83541589  0.91472215  0.25489722  1
  O2-  O226  1  0.83086786  0.91518997  0.50875677  1
  O2-  O227  1  0.83686075  0.92041515  0.74280477  1
  O2-  O228  1  0.16588253  0.25773841  0.00818797  1
  O2-  O229  1  0.16882936  0.25073830  0.23872230  1
  O2-  O230  1  0.16417723  0.25036383  0.49585877  1
  O2-  O231  1  0.16452103  0.25270564  0.75312707  1
  O2-  O232  1  0.16875121  0.59042075  -0.00496913  1
  O2-  O233  1  0.15648317  0.58630459  0.25041370  1
  O2-  O234  1  0.16317739  0.59297535  0.50704801  1
  O2-  O235  1  0.16461256  0.59418051  0.75126830  1
  O2-  O236  1  0.16889169  0.92034112  0.00339350  1
  O2-  O237  1  0.16569581  0.92079618  0.25348806  1
  O2-  O238  1  0.15864629  0.91793347  0.49661694  1
  O2-  O239  1  0.16461020  0.91555355  0.74737479  1
  O2-  O240  1  0.66482970  0.25280583  0.00153787  1
  O2-  O241  1  0.66530837  0.24829357  0.24716354  1
  O2-  O242  1  0.66434106  0.25203289  0.49888847  1
  O2-  O243  1  0.66862737  0.25060215  0.75040671  1
  O2-  O244  1  0.66534724  0.57962682  0.01075451  1
  O2-  O245  1  0.66523463  0.58639234  0.25743103  1
  O2-  O246  1  0.67087455  0.59386513  0.49676384  1
  O2-  O247  1  0.66604309  0.58788457  0.74406137  1
  O2-  O248  1  0.66383197  0.91836300  0.00301060  1
  O2-  O249  1  0.66557954  0.92077282  0.25547563  1
  O2-  O250  1  0.66664045  0.91972698  0.50634234  1
  O2-  O251  1  0.67073028  0.92042598  0.73888429  1
  O2-  O252  1  0.33116045  0.08628795  0.00859918  1
  O2-  O253  1  0.33202457  0.07902676  0.24929639  1
  O2-  O254  1  0.33909301  0.08078648  0.49215636  1
  O2-  O255  1  0.33515677  0.07738210  0.74720861  1
  O2-  O256  1  0.33040101  0.40726547  0.00673304  1
  O2-  O257  1  0.33930365  0.41092038  0.24508537  1
  O2-  O258  1  0.33023198  0.41302221  0.49586108  1
  O2-  O259  1  0.34431170  0.41099230  0.75484014  1
  O2-  O260  1  0.33981236  0.74801448  -0.00051755  1
  O2-  O261  1  0.34440869  0.74323982  0.24128096  1
  O2-  O262  1  0.32827105  0.75054927  0.50021552  1
  O2-  O263  1  0.33599959  0.74982525  0.75473818  1
  O2-  O264  1  0.83471410  0.07740307  0.00612841  1
  O2-  O265  1  0.83256476  0.07666530  0.25135233  1
  O2-  O266  1  0.82877403  0.08215434  0.50541563  1
  O2-  O267  1  0.83563044  0.07520601  0.74260565  1
  O2-  O268  1  0.83015592  0.41623913  -0.00601332  1
  O2-  O269  1  0.83646182  0.40901153  0.26088027  1
  O2-  O270  1  0.83187245  0.41037808  0.49856251  1
  O2-  O271  1  0.83342864  0.41252552  0.75024645  1
  O2-  O272  1  0.83942146  0.74794043  0.00152028  1
  O2-  O273  1  0.83366768  0.74985015  0.26067159  1
  O2-  O274  1  0.82403951  0.74650289  0.50212681  1
  O2-  O275  1  0.83581915  0.74680503  0.74691656  1
  O2-  O276  1  0.54420462  0.08743377  0.73074085  1
  O2-  O277  1  0.05096605  0.08525834  0.49634351  1
  O2-  O278  1  0.54899850  0.56626276  0.77090335  1
  O2-  O279  1  0.04218079  0.77081802  0.99439151  1
  O2-  O280  1  0.44916257  0.91087107  0.76019483  1
  O2-  O281  1  0.45265196  0.76295712  0.73569488  1
  O2-  O282  1  0.93365917  0.21105053  0.30804877  1
  O2-  O283  1  0.95614931  0.78658210  0.30392942  1
  O2-  O284  1  0.46184516  0.44693591  0.00010596  1
  O2-  O285  1  0.05103950  0.76434195  0.23525205  1
  O2-  O286  1  0.04891193  0.76728218  0.51511600  1
  O2-  O287  1  0.55386937  0.58138210  0.50728781  1
  O2-  O288  1  0.93756970  0.25438963  0.76309855  1
  O2-  O289  1  0.94693184  0.57332176  0.73249377  1
  O2-  O290  1  0.47060372  0.12229096  1.01714730  1
  O2-  O291  1  0.54345034  0.89480363  0.51095369  1
  O2-  O292  1  0.94632912  0.91145445  0.22903049  1
  O2-  O293  1  0.55172608  0.91074456  0.99214108  1
  O2-  O294  1  0.54926105  0.09772276  0.49434282  1
  O2-  O295  1  0.96345817  0.46872664  -0.01664385  1
  O2-  O296  1  0.96733050  0.46138330  0.98361992  1
  O2-  O297  1  0.55710213  0.23418817  0.69444689  1
  O2-  O298  1  0.94549551  0.42624295  0.48935472  1
  O2-  O299  1  0.55860736  0.08867502  0.01356855  1
  O2-  O300  1  0.04946355  0.08199739  0.25112080  1
  O2-  O301  1  0.94907545  0.57245987  0.77155883  1
  O2-  O302  1  0.45395431  0.42091272  0.76086435  1
  O2-  O303  1  0.54435523  0.75289892  0.02709144  1
  O2-  O304  1  0.45158986  0.89408359  0.98529874  1
  O2-  O305  1  0.03546396  0.22985148  0.23396865  1
  O2-  O306  1  0.54682480  0.54973775  0.06138650  1
  O2-  O307  1  0.05822582  0.41680141  0.48185893  1
  O2-  O308  1  0.45168516  0.43223134  0.25717882  1
  O2-  O309  1  0.04770376  0.22645731  0.79515625  1
  O2-  O310  1  0.45243101  0.56065238  0.79941527  1
  O2-  O311  1  0.94737809  0.43063786  0.76384077  1
  O2-  O312  1  0.05280662  0.57654681  0.73861859  1
  O2-  O313  1  0.44950987  0.43913763  0.98062227  1
  O2-  O314  1  0.95142609  0.24285579  0.52381186  1
  O2-  O315  1  0.44968644  0.55896898  0.01569472  1
  O2-  O316  1  0.46135434  0.55027269  0.99581123  1
  O2-  O317  1  0.45256427  0.25490402  -0.00873900  1
  O2-  O318  1  0.04869347  0.08259314  0.25485496  1
  O2-  O319  1  0.95498715  0.42986717  0.72674485  1
  O2-  O320  1  0.04186505  0.24003587  0.21965683  1
  O2-  O321  1  0.04765989  0.09728070  0.74682318  1
  O2-  O322  1  0.45224663  0.55353678  0.54168574  1
  O2-  O323  1  0.94752758  0.57615640  0.50370232  1
  O2-  O324  1  0.06145846  0.25214258  0.07390868  1
  O2-  O325  1  0.57914798  0.58873683  0.93137387  1
  O2-  O326  1  0.92511438  0.36347253  0.05658581  1
  O2-  O327  1  0.93265591  0.71497216  0.18041357  1
  O2-  O328  1  0.94084135  0.24532652  0.75703042  1
  O2-  O329  1  0.55918402  0.07433365  0.46872447  1
  O2-  O330  1  0.58657729  0.43882467  0.57664825  1
  O2-  O331  1  0.93670946  0.07318428  0.53604461  1
  O2-  O332  1  0.56140624  0.39975010  0.07234007  1
  O2-  O333  1  0.06382872  0.58403404  0.97550178  1
  O2-  O334  1  0.55637821  0.42052190  0.78252751  1
  O2-  O335  1  0.42846955  0.39972757  0.02386610  1
  O2-  O336  1  0.44088022  0.75569220  0.47345323  1
  O2-  O337  1  0.55482735  0.23567249  0.70387503  1
  O2-  O338  1  0.57059245  0.42625441  0.42325198  1
  O2-  O339  1  0.44131664  0.92049902  0.27165963  1
  O2-  O340  1  0.06223750  0.40934855  0.04242635  1
  O2-  O341  1  0.06024902  0.07903976  0.98254209  1
  O2-  O342  1  0.42624737  0.60202439  0.97275374  1
  O2-  O343  1  0.93502031  0.27106262  0.17585280  1
  O2-  O344  1  0.43157580  0.09134762  0.32819117  1
  O2-  O345  1  0.93444376  0.59834540  0.52707491  1
  O2-  O346  1  0.43143785  0.09216606  0.18098444  1
  O2-  O347  1  0.56460613  0.92382377  0.76517310  1
  O2-  O348  1  0.06414707  0.23984966  0.93274781  1
  O2-  O349  1  0.56100314  0.40649672  0.22865232  1
  O2-  O350  1  0.92843463  0.75675446  0.57345590  1
  O2-  O351  1  0.42197350  0.03490950  0.94869309  1
  O2-  O352  1  0.42120971  0.60178903  0.68519050  1
  O2-  O353  1  0.56520043  0.40197457  0.93444603  1
  O2-  O354  1  0.06314964  0.28951928  0.67229344  1
  O2-  O355  1  0.41938440  0.59348060  0.42267270  1
  O2-  O356  1  0.94278114  0.25498738  0.53228021  1
  O2-  O357  1  0.43513291  0.41870844  0.48369588  1
  O2-  O358  1  0.06100441  0.74510130  0.71921970  1
  O2-  O359  1  0.07124275  0.90272966  0.93141126  1
  O2-  O360  1  0.43969942  0.24759030  0.27128940  1
  O2-  O361  1  0.94260802  0.23938591  0.97729842  1
  O2-  O362  1  0.07869688  0.27358339  0.35596615  1
  O2-  O363  1  0.05666216  0.41890063  0.48172042  1
  O2-  O364  1  0.05332676  0.41968480  0.26810746  1
  O2-  O365  1  0.56592671  0.25769510  0.86155025  1
  O2-  O366  1  0.93895272  0.92462874  0.46878925  1
  O2-  O367  1  0.93412759  0.75468487  0.43448430  1
  O2-  O368  1  0.43808610  0.59481168  0.26456015  1
  O2-  O369  1  0.56066257  0.08003713  0.24192539  1
  O2-  O370  1  0.94578749  0.42293162  0.22012375  1
  O2-  O371  1  0.05757497  0.93257154  0.08301742  1
  O2-  O372  1  0.75023435  0.32381687  0.37112817  1
  O2-  O373  1  0.24980823  0.66739709  0.38939110  1
  O2-  O374  1  0.25088937  0.00873996  0.93790064  1
  O2-  O375  1  0.74985784  0.66188761  0.82410131  1
  O2-  O376  1  0.75012367  0.00371640  0.15853517  1
  O2-  O377  1  0.74756228  0.67107905  0.14768563  1
  O2-  O378  1  0.25094040  0.67821189  0.07839954  1
  O2-  O379  1  0.74640539  0.33763590  0.11011200  1
  O2-  O380  1  0.75008534  0.29313344  0.56171806  1
  O2-  O381  1  0.75004699  -0.00795749  0.38097142  1
  O2-  O382  1  0.24828232  0.68187730  0.63971069  1
  O2-  O383  1  0.25019907  0.33614263  0.68159872  1
  O2-  O384  1  0.25102853  0.00136218  0.57143228  1
  O2-  O385  1  0.75266161  0.67120268  0.91536462  1
  O2-  O386  1  0.25283824  0.32882004  0.36313523  1
  O2-  O387  1  0.24916534  -0.01694300  0.66548288  1
  O2-  O388  1  0.75068306  0.34594599  0.68154703  1
  O2-  O389  1  0.25246236  0.31670500  0.91252260  1
  O2-  O390  1  0.74849970  0.00818411  0.90406673  1
  O2-  O391  1  0.25095911  0.29966414  0.56225419  1
  O2-  O392  1  0.24846627  -0.03848954  0.82168725  1
  O2-  O393  1  0.24964365  0.00722157  0.15330145  1
  O2-  O394  1  0.24996621  0.65424991  0.16732129  1
  O2-  O395  1  0.74891316  0.67185706  0.64046516  1
  O2-  O396  1  0.25012298  0.46672589  0.92912883  1
  O2-  O397  1  0.75012176  0.16716869  0.09748599  1
  O2-  O398  1  0.25018752  0.16205053  0.32141561  1
  O2-  O399  1  0.74984461  0.16586383  0.94999357  1
  O2-  O400  1  0.24972267  0.82484263  0.64574600  1
  O2-  O401  1  0.24896414  0.85458736  0.14297540  1
  O2-  O402  1  0.24757035  0.57027973  0.85523292  1
  O2-  O403  1  0.25021602  0.81439862  0.06134621  1
  O2-  O404  1  0.74993511  0.84025438  0.16734429  1
  O2-  O405  1  0.75111527  0.82566068  0.91222551  1
  O2-  O406  1  0.25113088  0.47329937  0.35501234  1
  O2-  O407  1  0.24950735  0.14497617  0.59043115  1
  O2-  O408  1  0.74899473  0.50279666  0.92799493  1
  O2-  O409  1  0.24959127  0.15450001  0.86108146  1
  O2-  O410  1  0.24974739  0.52395193  0.29042508  1
  O2-  O411  1  0.75018037  0.17261266  0.82578539  1
  O2-  O412  1  0.75080168  0.83543388  0.82735303  1
  O2-  O413  1  0.74963749  0.16806866  0.34488810  1
  O2-  O414  1  0.75125634  0.49837132  0.12782507  1
  O2-  O415  1  0.25104868  0.45060703  0.60733924  1
  O2-  O416  1  0.24987292  0.55057465  0.66510333  1
  O2-  O417  1  0.25159561  0.47549041  0.18691502  1
  O2-  O418  1  0.74934867  0.50863870  0.83617446  1
  O2-  O419  1  0.24927336  0.87245034  0.37143458  1
  O2-  O420  1  0.48325118  -0.00986816  0.38710664  1
  O2-  O421  1  0.98583341  0.66027487  0.62571956  1
  O2-  O422  1  0.02714777  0.65458474  0.12303799  1
  O2-  O423  1  0.02708444  -0.00904197  0.62593284  1
  O2-  O424  1  0.44521224  0.31767847  0.61790549  1
  O2-  O425  1  0.47470619  0.32315554  0.13804189  1
  O2-  O426  1  0.96245785  0.33935256  0.88104047  1
  O2-  O427  1  0.53462436  0.34429785  0.61311690  1
  O2-  O428  1  0.97062813  0.33069233  0.36895088  1
  O2-  O429  1  0.02074347  0.68088259  0.87146108  1
  O2-  O430  1  0.45623364  0.68705068  0.87354949  1
  O2-  O431  1  0.04094145  -0.00418937  0.84944307  1
  O2-  O432  1  0.04980310  0.37647694  0.85413917  1
  O2-  O433  1  0.54896259  0.29201920  0.34927262  1
  O2-  O434  1  0.49883188  0.68356284  0.36799426  1
  O2-  O435  1  0.46089531  0.32837965  0.38810371  1
  O2-  O436  1  0.45700674  -0.02165063  0.11197023  1
  O2-  O437  1  0.95253798  0.63321820  0.35082653  1
  O2-  O438  1  0.52423833  0.01840548  0.87788824  1
  O2-  O439  1  0.04475769  0.66609027  0.38054609  1
  O2-  O440  1  0.94727571  -0.00084014  0.88459396  1
  O2-  O441  1  0.49333609  0.68438350  0.61668611  1
  O2-  O442  1  0.54541182  -0.02252430  0.14203684  1
  O2-  O443  1  0.54488743  0.69168884  0.85050137  1
