# generated using pymatgen
data_La7(Ru4O11)2
_symmetry_space_group_name_H-M   'P 1'
_cell_length_a   23.99032773
_cell_length_b   16.83077678
_cell_length_c   15.42732146
_cell_angle_alpha   90.00142496
_cell_angle_beta   89.99919553
_cell_angle_gamma   90.00013209
_symmetry_Int_Tables_number   1
_chemical_formula_structural   La7(Ru4O11)2
_chemical_formula_sum   'La84 Ru96 O264'
_cell_volume   6229.17984585
_cell_formula_units_Z   12
loop_
 _symmetry_equiv_pos_site_id
 _symmetry_equiv_pos_as_xyz
  1  'x, y, z'
loop_
 _atom_type_symbol
 _atom_type_oxidation_number
  La3+  3.0
  Ru4+  4.0
  O2-  -2.0
loop_
 _atom_site_type_symbol
 _atom_site_label
 _atom_site_symmetry_multiplicity
 _atom_site_fract_x
 _atom_site_fract_y
 _atom_site_fract_z
 _atom_site_occupancy
  La3+  La0  1  0.13377703  0.00147299  0.12723125  1
  La3+  La1  1  0.13846616  -0.00217139  0.37829535  1
  La3+  La2  1  0.13607014  -0.00317826  0.62336582  1
  La3+  La3  1  0.13852334  -0.00129019  0.87276834  1
  La3+  La4  1  0.13890804  0.32904440  0.12848852  1
  La3+  La5  1  0.13688396  0.33039856  0.37608326  1
  La3+  La6  1  0.13471542  0.33163845  0.62341567  1
  La3+  La7  1  0.13493986  0.33309866  0.87297430  1
  La3+  La8  1  0.13600438  0.66773571  0.12649980  1
  La3+  La9  1  0.13708689  0.67007336  0.37886018  1
  La3+  La10  1  0.13761215  0.67032146  0.62415058  1
  La3+  La11  1  0.13964625  0.66562715  0.87205799  1
  La3+  La12  1  0.64548910  -0.00335666  0.12265942  1
  La3+  La13  1  0.64405434  0.00014475  0.37728059  1
  La3+  La14  1  0.64587416  -0.00110726  0.62190598  1
  La3+  La15  1  0.63963770  -0.00219458  0.87556979  1
  La3+  La16  1  0.64402051  0.33405755  0.12268633  1
  La3+  La17  1  0.63900872  0.33127074  0.37442820  1
  La3+  La18  1  0.63983703  0.33200854  0.62654571  1
  La3+  La19  1  0.64713196  0.33351063  0.87676012  1
  La3+  La20  1  0.63702799  0.67632723  0.11530803  1
  La3+  La21  1  0.64271469  0.66965206  0.37425625  1
  La3+  La22  1  0.64048623  0.66666946  0.62659041  1
  La3+  La23  1  0.63923017  0.67199711  0.88249148  1
  La3+  La24  1  0.37068202  -0.00357320  0.12294092  1
  La3+  La25  1  0.36370220  -0.00032857  0.37496913  1
  La3+  La26  1  0.36657195  -0.00220161  0.62470721  1
  La3+  La27  1  0.36817276  -0.00739307  0.88056140  1
  La3+  La28  1  0.36404617  0.33094800  0.12628577  1
  La3+  La29  1  0.35939804  0.33054156  0.37371883  1
  La3+  La30  1  0.36181236  0.33261513  0.62593151  1
  La3+  La31  1  0.36649042  0.33386091  0.87392097  1
  La3+  La32  1  0.36800018  0.66569152  0.12514490  1
  La3+  La33  1  0.36313088  0.66908529  0.37633847  1
  La3+  La34  1  0.36358084  0.66877094  0.62606075  1
  La3+  La35  1  0.36241852  0.66620220  0.87366327  1
  La3+  La36  1  0.85254315  -0.00070124  0.12182311  1
  La3+  La37  1  0.85498717  -0.00007129  0.37869255  1
  La3+  La38  1  0.85397532  0.00002692  0.62291916  1
  La3+  La39  1  0.86029132  0.00029501  0.87462320  1
  La3+  La40  1  0.85937859  0.33423786  0.12392635  1
  La3+  La41  1  0.85945476  0.33332012  0.37029347  1
  La3+  La42  1  0.85833545  0.33515075  0.62972795  1
  La3+  La43  1  0.86143999  0.33741944  0.87310156  1
  La3+  La44  1  0.86143221  0.66475542  0.12946826  1
  La3+  La45  1  0.86365815  0.66216061  0.36731119  1
  La3+  La46  1  0.85860229  0.66716904  0.62480703  1
  La3+  La47  1  0.85745968  0.66656098  0.87466909  1
  La3+  La48  1  0.49741718  0.50340969  0.12987795  1
  La3+  La49  1  -0.00072813  0.16316792  0.38328918  1
  La3+  La50  1  0.49692300  0.82918082  0.89542051  1
  La3+  La51  1  0.00232300  0.16462310  0.88398236  1
  La3+  La52  1  0.49590456  0.82680187  0.87848968  1
  La3+  La53  1  0.49980862  0.83167599  0.38145316  1
  La3+  La54  1  -0.00185514  0.49347114  0.63438693  1
  La3+  La55  1  0.00005493  0.83391460  0.88377466  1
  La3+  La56  1  -0.00009828  0.83421988  0.86115563  1
  La3+  La57  1  0.00094406  0.49995450  0.36170974  1
  La3+  La58  1  0.49771374  0.17028031  0.86567476  1
  La3+  La59  1  -0.00472610  0.17482991  0.12263898  1
  La3+  La60  1  0.00552493  0.82333831  0.37872000  1
  La3+  La61  1  0.50203019  0.49552565  0.39114613  1
  La3+  La62  1  0.50115551  0.49863232  0.10875506  1
  La3+  La63  1  0.00051204  0.83771031  0.13596311  1
  La3+  La64  1  0.49970334  0.16621831  0.13455175  1
  La3+  La65  1  -0.00739470  0.50260372  0.12166251  1
  La3+  La66  1  -0.00651438  0.49905553  0.85962417  1
  La3+  La67  1  -0.00422738  0.50409586  0.38248305  1
  La3+  La68  1  0.49891628  0.50316379  0.37107556  1
  La3+  La69  1  0.50212554  0.49610846  0.62622480  1
  La3+  La70  1  -0.00805399  0.50439067  0.13847145  1
  La3+  La71  1  -0.00753052  0.50105277  0.87665953  1
  La3+  La72  1  0.75069706  0.17046243  0.71527406  1
  La3+  La73  1  0.24969150  0.49678646  0.71845899  1
  La3+  La74  1  0.74965779  0.83240157  0.25945238  1
  La3+  La75  1  0.25059584  0.11563505  0.01060237  1
  La3+  La76  1  0.25050339  0.44050289  0.50116071  1
  La3+  La77  1  0.25007854  0.16324108  0.74203059  1
  La3+  La78  1  0.25013895  0.16834920  0.26025916  1
  La3+  La79  1  0.75030166  0.17038945  -0.02586409  1
  La3+  La80  1  0.25107588  0.48195713  0.04275337  1
  La3+  La81  1  0.75031700  0.84016144  0.52457839  1
  La3+  La82  1  0.24908512  0.84948883  -0.02691513  1
  La3+  La83  1  0.25020334  0.82841540  0.19715139  1
  Ru4+  Ru84  1  0.00101760  0.00056653  -0.00105536  1
  Ru4+  Ru85  1  0.00028027  -0.00077192  0.24725777  1
  Ru4+  Ru86  1  -0.00182476  0.00397429  0.49686841  1
  Ru4+  Ru87  1  -0.00062402  0.00223017  0.75700026  1
  Ru4+  Ru88  1  0.00392981  0.32742155  0.00350577  1
  Ru4+  Ru89  1  0.00167162  0.33553125  0.24734001  1
  Ru4+  Ru90  1  -0.00113846  0.33442000  0.50168734  1
  Ru4+  Ru91  1  0.00109313  0.32482037  0.74220595  1
  Ru4+  Ru92  1  -0.00096911  0.66548446  0.00656167  1
  Ru4+  Ru93  1  -0.00422432  0.66939778  0.25266425  1
  Ru4+  Ru94  1  -0.00133182  0.67054342  0.50248577  1
  Ru4+  Ru95  1  -0.00184816  0.67181858  0.74660991  1
  Ru4+  Ru96  1  0.49989966  0.00095056  0.00087959  1
  Ru4+  Ru97  1  0.49834575  -0.00107953  0.24636403  1
  Ru4+  Ru98  1  0.50199071  0.00902762  0.50597257  1
  Ru4+  Ru99  1  0.49858788  -0.00176537  0.74387141  1
  Ru4+  Ru100  1  0.49850818  0.33088813  -0.00643152  1
  Ru4+  Ru101  1  0.50140832  0.32756842  0.25098908  1
  Ru4+  Ru102  1  0.49941015  0.33361269  0.50429749  1
  Ru4+  Ru103  1  0.49732159  0.33213816  0.75082248  1
  Ru4+  Ru104  1  0.50365832  0.67280662  0.00705301  1
  Ru4+  Ru105  1  0.49704499  0.67253550  0.25533782  1
  Ru4+  Ru106  1  0.50041157  0.67013425  0.50180137  1
  Ru4+  Ru107  1  0.50284260  0.67207716  0.74402418  1
  Ru4+  Ru108  1  0.11094416  0.16767218  -0.00108940  1
  Ru4+  Ru109  1  0.11084565  0.16570019  0.24974178  1
  Ru4+  Ru110  1  0.11467013  0.16061813  0.49981770  1
  Ru4+  Ru111  1  0.10999761  0.16584318  0.75103662  1
  Ru4+  Ru112  1  0.11056318  0.50026412  0.00338037  1
  Ru4+  Ru113  1  0.11521629  0.49920565  0.24785557  1
  Ru4+  Ru114  1  0.11291713  0.49813721  0.50141289  1
  Ru4+  Ru115  1  0.11076867  0.50071555  0.75074736  1
  Ru4+  Ru116  1  0.10896502  0.83718224  0.00179046  1
  Ru4+  Ru117  1  0.10832287  0.83272028  0.24731735  1
  Ru4+  Ru118  1  0.11444940  0.82640717  0.50136012  1
  Ru4+  Ru119  1  0.11310918  0.83409026  0.74934992  1
  Ru4+  Ru120  1  0.61143093  0.16735247  0.00183501  1
  Ru4+  Ru121  1  0.61293884  0.16554323  0.24731126  1
  Ru4+  Ru122  1  0.61203963  0.15934192  0.50068849  1
  Ru4+  Ru123  1  0.61253436  0.16391400  0.74962332  1
  Ru4+  Ru124  1  0.61405829  0.49893174  -0.00093850  1
  Ru4+  Ru125  1  0.61680432  0.49634306  0.24933455  1
  Ru4+  Ru126  1  0.61399230  0.50074524  0.50198813  1
  Ru4+  Ru127  1  0.61653258  0.50018562  0.75307135  1
  Ru4+  Ru128  1  0.61505192  0.83217124  0.00083378  1
  Ru4+  Ru129  1  0.61139653  0.83594072  0.24653045  1
  Ru4+  Ru130  1  0.61266530  0.83324640  0.49918534  1
  Ru4+  Ru131  1  0.61294635  0.83623097  0.75194896  1
  Ru4+  Ru132  1  0.39007336  0.16721218  -0.00099072  1
  Ru4+  Ru133  1  0.38959651  0.16475147  0.25053766  1
  Ru4+  Ru134  1  0.38930056  0.16481572  0.50104028  1
  Ru4+  Ru135  1  0.39165434  0.16488131  0.74835297  1
  Ru4+  Ru136  1  0.38764608  0.49401137  -0.00114837  1
  Ru4+  Ru137  1  0.38514077  0.50128424  0.24916153  1
  Ru4+  Ru138  1  0.38918531  0.49621421  0.50073108  1
  Ru4+  Ru139  1  0.38792663  0.49770289  0.75251739  1
  Ru4+  Ru140  1  0.38799496  0.83365229  0.00488762  1
  Ru4+  Ru141  1  0.39088567  0.83464137  0.24696728  1
  Ru4+  Ru142  1  0.38484880  0.82722067  0.49979011  1
  Ru4+  Ru143  1  0.38658663  0.83670022  0.75097084  1
  Ru4+  Ru144  1  0.88685159  0.16663894  0.00074562  1
  Ru4+  Ru145  1  0.88366763  0.16074888  0.25019971  1
  Ru4+  Ru146  1  0.88626441  0.16581593  0.49949005  1
  Ru4+  Ru147  1  0.88892191  0.16769126  0.74775040  1
  Ru4+  Ru148  1  0.88169127  0.50220548  0.00319581  1
  Ru4+  Ru149  1  0.88587145  0.50056208  0.25076765  1
  Ru4+  Ru150  1  0.88468955  0.50020069  0.50035673  1
  Ru4+  Ru151  1  0.88145361  0.50344226  0.74923717  1
  Ru4+  Ru152  1  0.88427779  0.83301695  0.00097791  1
  Ru4+  Ru153  1  0.88922981  0.83514975  0.24822285  1
  Ru4+  Ru154  1  0.88783648  0.82932017  0.50111196  1
  Ru4+  Ru155  1  0.88668415  0.83285791  0.74738932  1
  Ru4+  Ru156  1  0.25032944  0.02575595  0.75062749  1
  Ru4+  Ru157  1  0.75008183  0.57801744  0.50130712  1
  Ru4+  Ru158  1  0.25014454  0.09202826  0.50128090  1
  Ru4+  Ru159  1  0.24950436  0.37024912  -0.02648380  1
  Ru4+  Ru160  1  0.74957873  0.42588142  0.50102644  1
  Ru4+  Ru161  1  0.74982202  0.75442625  0.74900941  1
  Ru4+  Ru162  1  0.25016382  0.60594386  0.49785886  1
  Ru4+  Ru163  1  0.74968186  0.07251664  0.25896593  1
  Ru4+  Ru164  1  0.25008957  0.24746932  -0.00139914  1
  Ru4+  Ru165  1  0.75019717  0.25385822  0.26036411  1
  Ru4+  Ru166  1  0.74929884  0.57759971  0.24568133  1
  Ru4+  Ru167  1  0.24992800  0.30163638  0.76311097  1
  Ru4+  Ru168  1  0.25004623  0.24276371  0.49536850  1
  Ru4+  Ru169  1  0.24985955  0.75818679  0.74840908  1
  Ru4+  Ru170  1  0.25008656  0.91391313  0.50759146  1
  Ru4+  Ru171  1  0.24969616  0.71473302  0.28282011  1
  Ru4+  Ru172  1  0.24992668  0.40592160  0.24465464  1
  Ru4+  Ru173  1  0.25014586  0.73219390  0.03577002  1
  Ru4+  Ru174  1  0.25003203  0.60636958  0.00081004  1
  Ru4+  Ru175  1  0.24969488  0.96024301  0.23201836  1
  Ru4+  Ru176  1  0.24992640  0.58524340  0.24240393  1
  Ru4+  Ru177  1  0.74955735  0.57325259  -0.00487371  1
  Ru4+  Ru178  1  0.24922801  0.97642967  0.02151162  1
  Ru4+  Ru179  1  0.75038696  0.24407073  0.49080827  1
  O2-  O180  1  0.16131912  0.07652031  0.00188936  1
  O2-  O181  1  0.16710736  0.08095617  0.24681922  1
  O2-  O182  1  0.16762258  0.08257932  0.50219148  1
  O2-  O183  1  0.16628577  0.07856245  0.74863188  1
  O2-  O184  1  0.16609511  0.41123154  -0.00263232  1
  O2-  O185  1  0.16736390  0.41363881  0.25011749  1
  O2-  O186  1  0.16336688  0.40909251  0.50133327  1
  O2-  O187  1  0.16823988  0.41201454  0.74929169  1
  O2-  O188  1  0.16515985  0.74437261  0.00190858  1
  O2-  O189  1  0.16616169  0.74349028  0.25004194  1
  O2-  O190  1  0.16730870  0.74807128  0.49932188  1
  O2-  O191  1  0.16806681  0.74752594  0.74651966  1
  O2-  O192  1  0.66421665  0.08110631  -0.00390814  1
  O2-  O193  1  0.66756223  0.08039657  0.25087047  1
  O2-  O194  1  0.66374637  0.08465142  0.50020333  1
  O2-  O195  1  0.66951500  0.08079654  0.75225423  1
  O2-  O196  1  0.66373663  0.41594119  0.00087357  1
  O2-  O197  1  0.66755501  0.41513369  0.25003468  1
  O2-  O198  1  0.66995955  0.41419400  0.49899369  1
  O2-  O199  1  0.66675620  0.41819698  0.74794764  1
  O2-  O200  1  0.66935112  0.75035890  0.00271257  1
  O2-  O201  1  0.66261394  0.74758261  0.24942921  1
  O2-  O202  1  0.66487010  0.74652892  0.50005207  1
  O2-  O203  1  0.66653260  0.74815131  0.74940834  1
  O2-  O204  1  0.33299237  0.25224076  0.00152959  1
  O2-  O205  1  0.33631156  0.25383149  0.24786186  1
  O2-  O206  1  0.33390230  0.25270855  0.49932238  1
  O2-  O207  1  0.33428232  0.25491708  0.75122877  1
  O2-  O208  1  0.33450288  0.58886263  0.00065297  1
  O2-  O209  1  0.33189850  0.58609628  0.24941629  1
  O2-  O210  1  0.33168605  0.58858901  0.50044677  1
  O2-  O211  1  0.33131846  0.58537861  0.74629425  1
  O2-  O212  1  0.33229169  0.92086728  -0.00097802  1
  O2-  O213  1  0.33177974  0.92126341  0.24791050  1
  O2-  O214  1  0.33359247  0.92005449  0.50083242  1
  O2-  O215  1  0.33451602  0.92006156  0.75066772  1
  O2-  O216  1  0.83536438  0.25213585  -0.00023904  1
  O2-  O217  1  0.83303528  0.25205095  0.25091993  1
  O2-  O218  1  0.83175728  0.25213974  0.50044162  1
  O2-  O219  1  0.83288681  0.24885300  0.74987066  1
  O2-  O220  1  0.83228840  0.58711479  0.00203774  1
  O2-  O221  1  0.83318038  0.58581889  0.24992724  1
  O2-  O222  1  0.83163159  0.58488837  0.49763510  1
  O2-  O223  1  0.83143134  0.58486668  0.74778282  1
  O2-  O224  1  0.83603616  0.91831964  -0.00326722  1
  O2-  O225  1  0.83285177  0.91826000  0.25287045  1
  O2-  O226  1  0.83737481  0.91784403  0.50031508  1
  O2-  O227  1  0.83631466  0.91802359  0.75162198  1
  O2-  O228  1  0.16695684  0.25216316  0.00001835  1
  O2-  O229  1  0.16646981  0.25084347  0.25100581  1
  O2-  O230  1  0.16703579  0.25328354  0.50066809  1
  O2-  O231  1  0.16653624  0.25566919  0.75040884  1
  O2-  O232  1  0.16451448  0.58781951  0.00158910  1
  O2-  O233  1  0.16640187  0.58632203  0.24941939  1
  O2-  O234  1  0.16743804  0.58786801  0.50092883  1
  O2-  O235  1  0.16536285  0.58594268  0.74702162  1
  O2-  O236  1  0.16501088  0.92135186  0.00088238  1
  O2-  O237  1  0.16719769  0.92150557  0.24696656  1
  O2-  O238  1  0.16501201  0.91925491  0.50244033  1
  O2-  O239  1  0.16722665  0.91888955  0.74808363  1
  O2-  O240  1  0.66664060  0.25150295  -0.00003480  1
  O2-  O241  1  0.66564793  0.25195769  0.24975090  1
  O2-  O242  1  0.66762611  0.25080716  0.50051551  1
  O2-  O243  1  0.66414834  0.24959756  0.75009358  1
  O2-  O244  1  0.66764221  0.58633314  0.00268462  1
  O2-  O245  1  0.66604509  0.58669493  0.24864093  1
  O2-  O246  1  0.66768367  0.58503869  0.49888837  1
  O2-  O247  1  0.66868403  0.58234600  0.74654229  1
  O2-  O248  1  0.66355368  0.91747971  -0.00323123  1
  O2-  O249  1  0.66673589  0.91937484  0.25181620  1
  O2-  O250  1  0.66334508  0.91794749  0.49939512  1
  O2-  O251  1  0.66552695  0.91870074  0.75272682  1
  O2-  O252  1  0.33963443  0.07638109  -0.00031293  1
  O2-  O253  1  0.33207733  0.08014951  0.24783479  1
  O2-  O254  1  0.33313409  0.08083301  0.49997711  1
  O2-  O255  1  0.33131056  0.07781438  0.75196798  1
  O2-  O256  1  0.33585941  0.40919513  -0.00084798  1
  O2-  O257  1  0.33342498  0.41223545  0.24935690  1
  O2-  O258  1  0.33925753  0.40875478  0.50023531  1
  O2-  O259  1  0.33274122  0.41270542  0.74981322  1
  O2-  O260  1  0.33585591  0.74663670  0.00058923  1
  O2-  O261  1  0.33256498  0.74523965  0.24943226  1
  O2-  O262  1  0.33445678  0.74753736  0.50029561  1
  O2-  O263  1  0.33402692  0.74708845  0.74882697  1
  O2-  O264  1  0.83401389  0.08095321  -0.00381579  1
  O2-  O265  1  0.83188552  0.08047755  0.25224677  1
  O2-  O266  1  0.83529503  0.08464387  0.50201551  1
  O2-  O267  1  0.83413769  0.08151086  0.74904156  1
  O2-  O268  1  0.83469203  0.41636917  0.00036038  1
  O2-  O269  1  0.83454694  0.41550726  0.25075234  1
  O2-  O270  1  0.83157842  0.41537892  0.49813209  1
  O2-  O271  1  0.83410115  0.41729488  0.75015845  1
  O2-  O272  1  0.83245009  0.74870708  0.00137609  1
  O2-  O273  1  0.83746681  0.74741032  0.25098474  1
  O2-  O274  1  0.83325471  0.74753135  0.49788729  1
  O2-  O275  1  0.83123760  0.74739996  0.74976137  1
  O2-  O276  1  0.54978665  0.77563043  0.98367127  1
  O2-  O277  1  0.45038198  0.90386676  0.48777132  1
  O2-  O278  1  0.45403184  0.89499147  -0.00165751  1
  O2-  O279  1  0.04930387  0.10036467  0.01451894  1
  O2-  O280  1  0.45718577  0.76651813  0.76090965  1
  O2-  O281  1  0.95070839  0.43359107  0.98812954  1
  O2-  O282  1  0.55000668  0.09043710  0.51583329  1
  O2-  O283  1  0.44636954  0.42674197  0.76171932  1
  O2-  O284  1  0.45321181  0.56625460  0.49297160  1
  O2-  O285  1  0.95035429  0.23444378  0.79286631  1
  O2-  O286  1  0.45699059  0.76736914  0.74796668  1
  O2-  O287  1  0.96423689  0.88903122  0.28631710  1
  O2-  O288  1  0.05043924  0.57291039  0.22822025  1
  O2-  O289  1  0.03537484  0.11341158  0.21865790  1
  O2-  O290  1  0.95101846  0.57036551  0.25826240  1
  O2-  O291  1  0.04509837  0.76489152  0.01688621  1
  O2-  O292  1  0.04627567  0.23297948  0.51995564  1
  O2-  O293  1  0.55232861  0.91093603  0.98644802  1
  O2-  O294  1  0.04848575  0.42748271  0.25198640  1
  O2-  O295  1  0.95198062  0.43396762  0.76043576  1
  O2-  O296  1  0.54706900  0.57038335  0.25586025  1
  O2-  O297  1  0.53831998  0.43789763  0.75758356  1
  O2-  O298  1  0.04394853  0.44658481  0.96550268  1
  O2-  O299  1  0.45248221  0.57185541  0.01136876  1
  O2-  O300  1  0.05123528  0.90006769  0.48586538  1
  O2-  O301  1  0.45270142  0.90932715  0.97399096  1
  O2-  O302  1  0.04908458  0.23793562  0.48138153  1
  O2-  O303  1  0.45187426  0.56242823  0.71894943  1
  O2-  O304  1  0.94996264  0.23354477  0.24011680  1
  O2-  O305  1  0.05000083  0.23529035  0.76283571  1
  O2-  O306  1  0.45774761  0.09853578  0.98578857  1
  O2-  O307  1  0.95292274  0.42567044  0.49515357  1
  O2-  O308  1  0.54782170  0.90001404  0.73894474  1
  O2-  O309  1  0.54392809  0.24047219  0.51721367  1
  O2-  O310  1  0.45181260  0.42886358  0.26047310  1
  O2-  O311  1  0.54565865  0.76352981  0.00805694  1
  O2-  O312  1  0.94931751  0.57509536  0.49248777  1
  O2-  O313  1  0.44798953  0.76148474  0.01410303  1
  O2-  O314  1  0.05007795  0.57153177  0.49476864  1
  O2-  O315  1  0.95503981  0.09458674  0.75988747  1
  O2-  O316  1  0.45236385  0.90923908  0.77209106  1
  O2-  O317  1  0.03430881  0.78168680  0.70795986  1
  O2-  O318  1  0.53808011  0.56004769  0.75767719  1
  O2-  O319  1  0.95087567  0.09787713  0.99096004  1
  O2-  O320  1  0.55038707  0.22978948  0.48141397  1
  O2-  O321  1  0.44827095  0.10316757  0.51239907  1
  O2-  O322  1  0.45470430  0.23661568  0.73617185  1
  O2-  O323  1  0.53168781  0.12081780  0.74573482  1
  O2-  O324  1  0.93626842  0.26358952  0.52459619  1
  O2-  O325  1  0.42999820  0.93243481  0.02432525  1
  O2-  O326  1  0.93494723  0.74537551  0.97390836  1
  O2-  O327  1  0.43473115  0.92303311  0.22371698  1
  O2-  O328  1  0.43728831  0.59597714  0.02844883  1
  O2-  O329  1  0.07162797  0.38971864  0.06714358  1
  O2-  O330  1  0.43396614  0.25867404  0.97463506  1
  O2-  O331  1  0.57177502  0.73201834  0.96722487  1
  O2-  O332  1  0.56515621  0.40622067  0.27498116  1
  O2-  O333  1  0.93657726  0.26050949  0.22415609  1
  O2-  O334  1  0.93211267  0.74935345  0.81108485  1
  O2-  O335  1  0.06285599  0.07299206  0.46755243  1
  O2-  O336  1  0.56760110  0.41423888  0.56373156  1
  O2-  O337  1  0.93450135  0.59641475  0.20795424  1
  O2-  O338  1  0.06416569  0.26416630  0.21458136  1
  O2-  O339  1  0.06140659  0.40275287  0.78513219  1
  O2-  O340  1  0.57557014  0.04850148  0.70801034  1
  O2-  O341  1  0.93789611  0.73698565  0.52917927  1
  O2-  O342  1  0.56366207  0.58990804  0.97508750  1
  O2-  O343  1  0.94167784  0.40998080  0.78471428  1
  O2-  O344  1  0.56116838  0.26281254  0.03479321  1
  O2-  O345  1  0.07048819  0.04993540  0.30846781  1
  O2-  O346  1  0.58057839  0.61072609  0.78177793  1
  O2-  O347  1  0.93269437  0.27350185  0.67083264  1
  O2-  O348  1  0.07828474  0.73051413  0.79739107  1
  O2-  O349  1  0.06295378  0.73556023  0.53130606  1
  O2-  O350  1  0.93932233  0.58674001  0.26949580  1
  O2-  O351  1  0.43415915  0.59127819  0.22259720  1
  O2-  O352  1  0.92806771  0.94876798  0.18799742  1
  O2-  O353  1  0.93684516  0.59350939  0.03760371  1
  O2-  O354  1  0.06546470  0.40508887  0.47280942  1
  O2-  O355  1  0.06343413  0.26201948  0.96529835  1
  O2-  O356  1  0.43603468  0.74703080  0.27608233  1
  O2-  O357  1  0.06161122  0.92995380  0.47084619  1
  O2-  O358  1  0.56220408  0.93089652  0.21808927  1
  O2-  O359  1  0.93583656  0.73482370  0.68350449  1
  O2-  O360  1  0.06379782  0.92549119  0.77384945  1
  O2-  O361  1  0.57423925  0.38197140  0.79091962  1
  O2-  O362  1  0.93598094  0.40237652  0.28389492  1
  O2-  O363  1  0.94158748  0.25915704  0.81759345  1
  O2-  O364  1  0.93859686  0.07148058  0.46835104  1
  O2-  O365  1  0.93664360  0.58904049  0.77263225  1
  O2-  O366  1  0.57148309  0.41035238  0.43628704  1
  O2-  O367  1  0.42611545  0.60103510  0.79277403  1
  O2-  O368  1  0.43363898  0.07218518  0.72646041  1
  O2-  O369  1  0.43487034  0.92909802  0.47372740  1
  O2-  O370  1  0.94086671  0.40869863  0.96456013  1
  O2-  O371  1  0.43525611  0.07665454  0.27504267  1
  O2-  O372  1  0.24979931  0.66656925  0.14800690  1
  O2-  O373  1  0.25059008  0.00512003  0.89187026  1
  O2-  O374  1  0.74975453  0.66566342  0.08080178  1
  O2-  O375  1  0.25012041  -0.00057735  0.43741335  1
  O2-  O376  1  0.74956968  0.00560125  0.10627722  1
  O2-  O377  1  0.25014744  0.01855099  0.32551555  1
  O2-  O378  1  0.74990407  0.00427112  0.38760035  1
  O2-  O379  1  0.74994146  0.33199350  0.34987936  1
  O2-  O380  1  0.74977162  0.32932064  0.08276445  1
  O2-  O381  1  0.74988855  0.33122357  0.91924968  1
  O2-  O382  1  0.75088900  0.65992418  0.34467260  1
  O2-  O383  1  0.74988263  0.66257539  0.59128820  1
  O2-  O384  1  0.74947303  0.33274599  0.83120293  1
  O2-  O385  1  0.24986023  0.66001889  0.80995950  1
  O2-  O386  1  0.75023290  0.66895548  0.17217774  1
  O2-  O387  1  0.75007386  0.66571508  0.82858043  1
  O2-  O388  1  0.75002202  0.33603140  0.17220807  1
  O2-  O389  1  0.74981355  0.33314526  0.57643944  1
  O2-  O390  1  0.74956713  0.67041088  0.91990247  1
  O2-  O391  1  0.74928437  0.32994592  0.66765648  1
  O2-  O392  1  0.25048210  0.33550341  0.34603771  1
  O2-  O393  1  0.25048035  0.33866353  0.64344371  1
  O2-  O394  1  0.75011914  -0.00138420  0.59988713  1
  O2-  O395  1  0.25023354  0.67289960  0.90084272  1
  O2-  O396  1  0.24984086  0.17791824  0.12889487  1
  O2-  O397  1  0.74983569  0.16609737  0.10315371  1
  O2-  O398  1  0.25001757  0.49508575  0.31218063  1
  O2-  O399  1  0.25021956  0.84009254  0.66931891  1
  O2-  O400  1  0.74984469  0.16433955  0.18954122  1
  O2-  O401  1  0.24997046  0.83207467  0.34584913  1
  O2-  O402  1  0.74974446  0.83180128  0.39315926  1
  O2-  O403  1  0.75025600  0.50400992  0.91506205  1
  O2-  O404  1  0.74994775  0.17236337  0.40860172  1
  O2-  O405  1  0.25058592  0.49848566  0.83704778  1
  O2-  O406  1  0.24932245  0.50608142  0.91667766  1
  O2-  O407  1  0.24997377  0.52764812  0.59652948  1
  O2-  O408  1  0.25002296  0.82585134  0.43386365  1
  O2-  O409  1  0.24984333  0.17910002  0.88371109  1
  O2-  O410  1  0.74979233  0.16258280  0.84523425  1
  O2-  O411  1  0.74988078  0.50605492  0.16364716  1
  O2-  O412  1  0.24963230  0.50044453  0.16631536  1
  O2-  O413  1  0.25020722  0.16943151  0.59374829  1
  O2-  O414  1  0.25007879  0.82568391  0.58161572  1
  O2-  O415  1  0.24976648  0.52273901  0.39842854  1
  O2-  O416  1  0.75001199  0.83303044  0.13304846  1
  O2-  O417  1  0.25006926  0.16693128  0.39731489  1
  O2-  O418  1  0.74997778  0.82889548  0.66943763  1
  O2-  O419  1  0.24986084  0.82943848  0.83940841  1
  O2-  O420  1  0.47445752  -0.00226332  0.37243302  1
  O2-  O421  1  0.52573776  0.67366358  0.86468623  1
  O2-  O422  1  0.47622954  0.33647533  0.87494810  1
  O2-  O423  1  0.04125858  0.65512115  0.88651867  1
  O2-  O424  1  0.97294790  0.34140728  0.12100427  1
  O2-  O425  1  0.54273157  0.66680930  0.62387851  1
  O2-  O426  1  0.46701465  0.67320880  0.88743413  1
  O2-  O427  1  0.47194301  0.33295635  0.12592218  1
  O2-  O428  1  0.47947952  0.67137366  0.13084154  1
  O2-  O429  1  0.52112203  0.32942914  0.63336798  1
  O2-  O430  1  0.47505692  -0.00645076  0.61665502  1
  O2-  O431  1  0.02322657  0.32592925  0.37081082  1
  O2-  O432  1  0.53322053  -0.00182978  0.37528335  1
  O2-  O433  1  0.96711756  0.65352679  0.88574454  1
  O2-  O434  1  0.04209441  0.00823311  0.88367233  1
  O2-  O435  1  0.03010317  0.67065024  0.37383444  1
  O2-  O436  1  0.02971959  0.34209022  0.62449493  1
  O2-  O437  1  0.02815865  -0.00686531  0.12212252  1
  O2-  O438  1  0.95436737  -0.01025589  0.87625140  1
  O2-  O439  1  0.54588094  0.67101743  0.37773932  1
  O2-  O440  1  0.45871698  0.66145778  0.38159611  1
  O2-  O441  1  0.47826887  0.01415171  0.12921339  1
  O2-  O442  1  0.51706022  0.32366326  0.37166115  1
  O2-  O443  1  0.45711872  0.66753146  0.61776659  1
