# generated using pymatgen
data_La7(Ru4O11)2
_symmetry_space_group_name_H-M   'P 1'
_cell_length_a   23.99907989
_cell_length_b   16.83901205
_cell_length_c   15.43433047
_cell_angle_alpha   90.00335356
_cell_angle_beta   90.00266882
_cell_angle_gamma   90.00023721
_symmetry_Int_Tables_number   1
_chemical_formula_structural   La7(Ru4O11)2
_chemical_formula_sum   'La84 Ru96 O264'
_cell_volume   6237.33388539
_cell_formula_units_Z   12
loop_
 _symmetry_equiv_pos_site_id
 _symmetry_equiv_pos_as_xyz
  1  'x, y, z'
loop_
 _atom_type_symbol
 _atom_type_oxidation_number
  La3+  3.0
  Ru4+  4.0
  O2-  -2.0
loop_
 _atom_site_type_symbol
 _atom_site_label
 _atom_site_symmetry_multiplicity
 _atom_site_fract_x
 _atom_site_fract_y
 _atom_site_fract_z
 _atom_site_occupancy
  La3+  La0  1  0.13556971  -0.00303615  0.13122746  1
  La3+  La1  1  0.15069144  0.00514981  0.37540772  1
  La3+  La2  1  0.14981926  0.00114109  0.62338139  1
  La3+  La3  1  0.14138494  -0.00885606  0.88524587  1
  La3+  La4  1  0.14323233  0.34108335  0.12856711  1
  La3+  La5  1  0.14223263  0.33566939  0.36656914  1
  La3+  La6  1  0.15060869  0.34233949  0.61700310  1
  La3+  La7  1  0.13162874  0.33522367  0.87874981  1
  La3+  La8  1  0.14640071  0.66109294  0.12725593  1
  La3+  La9  1  0.15441706  0.66349585  0.38149695  1
  La3+  La10  1  0.14122360  0.66673097  0.62675373  1
  La3+  La11  1  0.15082020  0.66214461  0.88020751  1
  La3+  La12  1  0.64082779  -0.00332233  0.12757367  1
  La3+  La13  1  0.64569750  -0.00266965  0.37409804  1
  La3+  La14  1  0.64414945  -0.00006809  0.62485107  1
  La3+  La15  1  0.63650556  0.00543448  0.87605722  1
  La3+  La16  1  0.63833633  0.33297222  0.12322641  1
  La3+  La17  1  0.64618759  0.33492314  0.37065981  1
  La3+  La18  1  0.63614525  0.33832563  0.63167739  1
  La3+  La19  1  0.63712876  0.33700621  0.86895193  1
  La3+  La20  1  0.63923937  0.67300654  0.13045532  1
  La3+  La21  1  0.64264877  0.67137261  0.37455129  1
  La3+  La22  1  0.63722923  0.67210542  0.62386320  1
  La3+  La23  1  0.64665400  0.66592486  0.86940039  1
  La3+  La24  1  0.35417401  0.00369851  0.12620483  1
  La3+  La25  1  0.34832790  -0.00354944  0.37438145  1
  La3+  La26  1  0.34076024  0.00050642  0.61845823  1
  La3+  La27  1  0.37765328  -0.00181831  0.88182360  1
  La3+  La28  1  0.34797116  0.32935352  0.13069102  1
  La3+  La29  1  0.35506954  0.33468026  0.37204879  1
  La3+  La30  1  0.35548365  0.34060745  0.61763399  1
  La3+  La31  1  0.35940682  0.32669383  0.88190331  1
  La3+  La32  1  0.35587972  0.66421888  0.12379512  1
  La3+  La33  1  0.35479063  0.66197020  0.37927721  1
  La3+  La34  1  0.35217461  0.66843253  0.61998369  1
  La3+  La35  1  0.36364258  0.65824484  0.88519661  1
  La3+  La36  1  0.84859937  0.00876019  0.13777445  1
  La3+  La37  1  0.86071469  0.00271377  0.37966941  1
  La3+  La38  1  0.85321073  0.01473476  0.62436197  1
  La3+  La39  1  0.86409707  0.00060952  0.87562564  1
  La3+  La40  1  0.87014109  0.33374506  0.12705741  1
  La3+  La41  1  0.84507696  0.33610629  0.37155964  1
  La3+  La42  1  0.86428165  0.33332872  0.62482975  1
  La3+  La43  1  0.85951478  0.33704249  0.87510769  1
  La3+  La44  1  0.86323701  0.67306941  0.12641088  1
  La3+  La45  1  0.85711561  0.67629746  0.37067760  1
  La3+  La46  1  0.87119363  0.66408963  0.63936593  1
  La3+  La47  1  0.85934113  0.66773338  0.86688343  1
  La3+  La48  1  0.50213471  0.51010481  0.38020799  1
  La3+  La49  1  0.50622054  0.51375903  0.85572046  1
  La3+  La50  1  0.00062902  0.49977886  0.36602383  1
  La3+  La51  1  0.00630566  0.81814400  0.86577314  1
  La3+  La52  1  0.50023897  0.16598805  0.08696372  1
  La3+  La53  1  0.52072180  0.81544456  0.37148417  1
  La3+  La54  1  0.50556148  0.16895137  0.10802551  1
  La3+  La55  1  -0.00216685  0.50241284  0.87131801  1
  La3+  La56  1  -0.00049579  0.49953602  0.63094544  1
  La3+  La57  1  0.49266972  0.82442838  0.86047686  1
  La3+  La58  1  0.50931781  0.51687857  0.62359478  1
  La3+  La59  1  0.49686419  0.50012266  0.11755953  1
  La3+  La60  1  0.49982673  0.15392542  0.36572978  1
  La3+  La61  1  0.00290802  0.50843479  0.61808178  1
  La3+  La62  1  -0.00888785  0.15424452  0.60468975  1
  La3+  La63  1  -0.00129943  0.15721131  0.86451253  1
  La3+  La64  1  0.00319643  0.82005083  0.85031829  1
  La3+  La65  1  0.50636599  0.16974530  0.63064233  1
  La3+  La66  1  -0.00682915  0.51138002  0.89039915  1
  La3+  La67  1  0.49826932  0.16269111  0.64719137  1
  La3+  La68  1  0.00271392  0.15620270  0.11252741  1
  La3+  La69  1  -0.01150266  0.84557365  0.60404175  1
  La3+  La70  1  -0.00544719  0.83438296  0.13597960  1
  La3+  La71  1  0.50240705  0.16431762  0.38452300  1
  La3+  La72  1  0.25523415  0.84682822  0.76320186  1
  La3+  La73  1  0.75325640  0.54696305  0.48323108  1
  La3+  La74  1  0.24731249  0.24438695  0.74418444  1
  La3+  La75  1  0.25090089  0.52031246  0.22174463  1
  La3+  La76  1  0.74849926  0.12618270  0.26600312  1
  La3+  La77  1  0.25465286  0.76681155  0.26710180  1
  La3+  La78  1  0.74974658  0.49844426  0.08456801  1
  La3+  La79  1  0.24860627  0.85042568  0.49928159  1
  La3+  La80  1  0.24914489  0.14857412  0.47960272  1
  La3+  La81  1  0.75069301  0.78952939  0.01153240  1
  La3+  La82  1  0.24810656  0.11054056  -0.00428700  1
  La3+  La83  1  0.24911081  0.51172578  0.47147309  1
  Ru4+  Ru84  1  -0.00295348  -0.01231056  0.02052480  1
  Ru4+  Ru85  1  0.00498781  -0.00591805  0.26793946  1
  Ru4+  Ru86  1  -0.00609516  -0.00702702  0.47653118  1
  Ru4+  Ru87  1  -0.00001729  0.00657294  0.75085177  1
  Ru4+  Ru88  1  0.00273355  0.33036310  0.00939287  1
  Ru4+  Ru89  1  0.00365239  0.31357206  0.24633879  1
  Ru4+  Ru90  1  0.00700137  0.30946486  0.50920933  1
  Ru4+  Ru91  1  0.00739154  0.34083175  0.75391838  1
  Ru4+  Ru92  1  0.01617784  0.66912772  -0.00077963  1
  Ru4+  Ru93  1  0.00967461  0.66587591  0.26798484  1
  Ru4+  Ru94  1  0.00373257  0.66982441  0.49283338  1
  Ru4+  Ru95  1  0.00809547  0.67654312  0.74051111  1
  Ru4+  Ru96  1  0.50486472  -0.02457819  -0.00814337  1
  Ru4+  Ru97  1  0.49081174  -0.01958454  0.25156765  1
  Ru4+  Ru98  1  0.49282940  -0.03878329  0.50453032  1
  Ru4+  Ru99  1  0.49528192  -0.00249490  0.75532705  1
  Ru4+  Ru100  1  0.49273973  0.34702969  0.00775524  1
  Ru4+  Ru101  1  0.49832570  0.33929324  0.25645805  1
  Ru4+  Ru102  1  0.49945128  0.33410624  0.49529938  1
  Ru4+  Ru103  1  0.49677529  0.34373619  0.75390940  1
  Ru4+  Ru104  1  0.50137715  0.67209052  0.00079541  1
  Ru4+  Ru105  1  0.49395005  0.68354403  0.25627858  1
  Ru4+  Ru106  1  0.49945589  0.66958506  0.50242292  1
  Ru4+  Ru107  1  0.49595285  0.67387423  0.73377439  1
  Ru4+  Ru108  1  0.10504239  0.17160028  -0.00303517  1
  Ru4+  Ru109  1  0.10823149  0.18601112  0.25214287  1
  Ru4+  Ru110  1  0.10435039  0.18165609  0.49697337  1
  Ru4+  Ru111  1  0.10590578  0.16076396  0.75308797  1
  Ru4+  Ru112  1  0.10317055  0.50534287  0.00727240  1
  Ru4+  Ru113  1  0.09663479  0.51071923  0.25256109  1
  Ru4+  Ru114  1  0.10731744  0.50057334  0.49940627  1
  Ru4+  Ru115  1  0.10602944  0.49418328  0.74321617  1
  Ru4+  Ru116  1  0.11161294  0.82805591  0.01598212  1
  Ru4+  Ru117  1  0.10725210  0.83173672  0.25145091  1
  Ru4+  Ru118  1  0.10534435  0.83290423  0.49658615  1
  Ru4+  Ru119  1  0.10995513  0.83795353  0.73907290  1
  Ru4+  Ru120  1  0.61372939  0.16767935  -0.00682432  1
  Ru4+  Ru121  1  0.60831649  0.16829978  0.24454807  1
  Ru4+  Ru122  1  0.60934840  0.16406914  0.50849906  1
  Ru4+  Ru123  1  0.61002900  0.16637255  0.75291235  1
  Ru4+  Ru124  1  0.60993572  0.50288361  -0.00558475  1
  Ru4+  Ru125  1  0.60807175  0.50186091  0.24683662  1
  Ru4+  Ru126  1  0.61279816  0.49641083  0.49850182  1
  Ru4+  Ru127  1  0.61770355  0.49763520  0.75369523  1
  Ru4+  Ru128  1  0.60190946  0.83998094  0.01152150  1
  Ru4+  Ru129  1  0.61224797  0.82962981  0.24011758  1
  Ru4+  Ru130  1  0.60579918  0.84139445  0.50993299  1
  Ru4+  Ru131  1  0.61300559  0.82982265  0.74554806  1
  Ru4+  Ru132  1  0.39468928  0.16595505  -0.00156545  1
  Ru4+  Ru133  1  0.38488748  0.16127203  0.24760628  1
  Ru4+  Ru134  1  0.38993030  0.17581550  0.50092600  1
  Ru4+  Ru135  1  0.39409496  0.16689337  0.74641951  1
  Ru4+  Ru136  1  0.39336356  0.49390552  -0.00102022  1
  Ru4+  Ru137  1  0.39607972  0.49552743  0.24882449  1
  Ru4+  Ru138  1  0.39037767  0.49745696  0.50217825  1
  Ru4+  Ru139  1  0.38799363  0.49108854  0.75604555  1
  Ru4+  Ru140  1  0.39030308  0.82950809  0.00407080  1
  Ru4+  Ru141  1  0.40445465  0.83571060  0.23438287  1
  Ru4+  Ru142  1  0.39652287  0.83453044  0.51427001  1
  Ru4+  Ru143  1  0.39372165  0.83129816  0.74571486  1
  Ru4+  Ru144  1  0.89052081  0.16414007  -0.00402334  1
  Ru4+  Ru145  1  0.89983431  0.18193488  0.26420008  1
  Ru4+  Ru146  1  0.88694183  0.16454290  0.49197328  1
  Ru4+  Ru147  1  0.87994584  0.16460078  0.75495832  1
  Ru4+  Ru148  1  0.88563253  0.49973764  -0.00742736  1
  Ru4+  Ru149  1  0.88762052  0.49805409  0.24701685  1
  Ru4+  Ru150  1  0.89104634  0.49930769  0.50299385  1
  Ru4+  Ru151  1  0.87735699  0.49501093  0.74825810  1
  Ru4+  Ru152  1  0.89337683  0.84807894  0.00850544  1
  Ru4+  Ru153  1  0.88828211  0.82495861  0.25228875  1
  Ru4+  Ru154  1  0.88745025  0.84052843  0.49247112  1
  Ru4+  Ru155  1  0.88140168  0.83863556  0.74891128  1
  Ru4+  Ru156  1  0.24996127  0.56797336  0.77293965  1
  Ru4+  Ru157  1  0.24765918  0.42057307  -0.00789358  1
  Ru4+  Ru158  1  0.74891218  0.89095925  0.47552855  1
  Ru4+  Ru159  1  0.75104897  0.24529620  -0.00399931  1
  Ru4+  Ru160  1  0.75048465  0.75788993  0.50740766  1
  Ru4+  Ru161  1  0.25221432  0.70081154  0.75969888  1
  Ru4+  Ru162  1  0.75018172  0.58055973  0.25619233  1
  Ru4+  Ru163  1  0.74712628  0.93846081  0.00337486  1
  Ru4+  Ru164  1  0.24781054  0.26665908  0.01229990  1
  Ru4+  Ru165  1  0.25040511  0.97832155  0.82539976  1
  Ru4+  Ru166  1  0.24761409  0.40147434  0.76714857  1
  Ru4+  Ru167  1  0.25543565  0.09599584  0.74663577  1
  Ru4+  Ru168  1  0.74901951  0.38772328  -0.03291593  1
  Ru4+  Ru169  1  0.74902862  0.39636694  0.52888511  1
  Ru4+  Ru170  1  0.74834535  0.24201310  0.76912517  1
  Ru4+  Ru171  1  0.24879173  0.93106534  0.24679775  1
  Ru4+  Ru172  1  0.25123305  0.74514006  -0.00365744  1
  Ru4+  Ru173  1  0.75132435  0.89884738  0.25640301  1
  Ru4+  Ru174  1  0.75058546  0.27136013  0.21761783  1
  Ru4+  Ru175  1  0.75150371  0.61546715  -0.01838883  1
  Ru4+  Ru176  1  0.74740295  0.91924897  0.73893764  1
  Ru4+  Ru177  1  0.25102486  0.92452928  -0.01474013  1
  Ru4+  Ru178  1  0.74763641  0.22875121  0.50330159  1
  Ru4+  Ru179  1  0.75014147  0.09111924  -0.00228713  1
  O2-  O180  1  0.15276357  0.08022232  0.00916057  1
  O2-  O181  1  0.14951714  0.08994565  0.24647581  1
  O2-  O182  1  0.15343471  0.08905842  0.50033468  1
  O2-  O183  1  0.17400862  0.09648402  0.73858776  1
  O2-  O184  1  0.16228498  0.42029609  -0.00528839  1
  O2-  O185  1  0.15790722  0.42504865  0.24541938  1
  O2-  O186  1  0.16170819  0.41683916  0.49206770  1
  O2-  O187  1  0.16243862  0.40917562  0.75769448  1
  O2-  O188  1  0.16817628  0.74675179  0.00574908  1
  O2-  O189  1  0.15981465  0.74490580  0.25033585  1
  O2-  O190  1  0.16224386  0.74979959  0.50554798  1
  O2-  O191  1  0.16838552  0.74915944  0.74701194  1
  O2-  O192  1  0.66700857  0.08249466  -0.00177732  1
  O2-  O193  1  0.65749003  0.07843505  0.24759115  1
  O2-  O194  1  0.66094056  0.07854011  0.50533127  1
  O2-  O195  1  0.66096677  0.08097441  0.74786965  1
  O2-  O196  1  0.66439988  0.41216806  -0.00272052  1
  O2-  O197  1  0.65787146  0.41670309  0.24420231  1
  O2-  O198  1  0.66516138  0.40952190  0.50258056  1
  O2-  O199  1  0.66873234  0.40737295  0.74321269  1
  O2-  O200  1  0.65693304  0.75210281  0.00201173  1
  O2-  O201  1  0.66634029  0.74936516  0.25113281  1
  O2-  O202  1  0.66753370  0.75672115  0.50123022  1
  O2-  O203  1  0.66958743  0.75068388  0.74866492  1
  O2-  O204  1  0.33277979  0.24941424  0.00400742  1
  O2-  O205  1  0.33872371  0.25090575  0.25563890  1
  O2-  O206  1  0.33265485  0.25517822  0.49645502  1
  O2-  O207  1  0.34339543  0.25576415  0.75148452  1
  O2-  O208  1  0.33995348  0.57511052  0.00236850  1
  O2-  O209  1  0.34425633  0.58471688  0.24761898  1
  O2-  O210  1  0.33372429  0.58304722  0.50185925  1
  O2-  O211  1  0.33706510  0.57824882  0.75655267  1
  O2-  O212  1  0.33599622  0.91999910  -0.00367251  1
  O2-  O213  1  0.33025920  0.90908956  0.25284469  1
  O2-  O214  1  0.33633652  0.91215991  0.49518062  1
  O2-  O215  1  0.34060204  0.92064778  0.75969866  1
  O2-  O216  1  0.83433107  0.25247310  -0.00221665  1
  O2-  O217  1  0.83198654  0.24924293  0.23631012  1
  O2-  O218  1  0.83072836  0.24893073  0.50916276  1
  O2-  O219  1  0.83031968  0.25400437  0.74942287  1
  O2-  O220  1  0.83270710  0.58911087  0.00520124  1
  O2-  O221  1  0.83562555  0.58744608  0.24990320  1
  O2-  O222  1  0.84395559  0.59443235  0.50127915  1
  O2-  O223  1  0.83733641  0.59009536  0.75035640  1
  O2-  O224  1  0.82226511  0.90472461  -0.02358736  1
  O2-  O225  1  0.83672423  0.91551729  0.25515223  1
  O2-  O226  1  0.82401551  0.91607355  0.49880276  1
  O2-  O227  1  0.82421897  0.91686291  0.76892791  1
  O2-  O228  1  0.16397323  0.25405822  -0.00173564  1
  O2-  O229  1  0.16782063  0.25473963  0.24922191  1
  O2-  O230  1  0.17083711  0.25000508  0.49176656  1
  O2-  O231  1  0.15227599  0.25676529  0.75383462  1
  O2-  O232  1  0.16175026  0.57866016  0.00765469  1
  O2-  O233  1  0.16501292  0.57795638  0.24558454  1
  O2-  O234  1  0.16836879  0.58663249  0.50822018  1
  O2-  O235  1  0.16562869  0.57876316  0.75153173  1
  O2-  O236  1  0.16949848  0.91419517  0.01186941  1
  O2-  O237  1  0.16536132  0.91722544  0.25116847  1
  O2-  O238  1  0.15921476  0.91740885  0.50056562  1
  O2-  O239  1  0.16816797  0.91914467  0.74940830  1
  O2-  O240  1  0.66902985  0.25116558  -0.00402906  1
  O2-  O241  1  0.67046953  0.25243624  0.24629345  1
  O2-  O242  1  0.66432508  0.25097730  0.50630826  1
  O2-  O243  1  0.66632209  0.24984920  0.74513020  1
  O2-  O244  1  0.67216021  0.58820813  0.00586770  1
  O2-  O245  1  0.66531214  0.58484940  0.25179238  1
  O2-  O246  1  0.66483360  0.59481292  0.50048266  1
  O2-  O247  1  0.65952089  0.59063547  0.74494437  1
  O2-  O248  1  0.66536014  0.91850936  -0.00357779  1
  O2-  O249  1  0.67043045  0.91373574  0.24688469  1
  O2-  O250  1  0.67262899  0.91659169  0.50704995  1
  O2-  O251  1  0.66646682  0.92039232  0.75674773  1
  O2-  O252  1  0.34096324  0.08120390  -0.01194694  1
  O2-  O253  1  0.32867571  0.08293823  0.24210402  1
  O2-  O254  1  0.34115876  0.08519492  0.49978521  1
  O2-  O255  1  0.34101543  0.08315801  0.75803889  1
  O2-  O256  1  0.32973200  0.41611961  -0.00456291  1
  O2-  O257  1  0.33944269  0.41356362  0.25011599  1
  O2-  O258  1  0.33252411  0.41684357  0.49262847  1
  O2-  O259  1  0.32963692  0.40668465  0.74754607  1
  O2-  O260  1  0.33437195  0.74614482  -0.00146803  1
  O2-  O261  1  0.34686749  0.75071667  0.23932775  1
  O2-  O262  1  0.33599881  0.75476936  0.50017822  1
  O2-  O263  1  0.33929159  0.74198881  0.75713351  1
  O2-  O264  1  0.83308454  0.08600922  -0.00467897  1
  O2-  O265  1  0.84001431  0.09255808  0.26749127  1
  O2-  O266  1  0.83004926  0.08330906  0.49609593  1
  O2-  O267  1  0.82636438  0.08361354  0.75951859  1
  O2-  O268  1  0.82839892  0.41070322  0.00362618  1
  O2-  O269  1  0.83492165  0.41749222  0.23588205  1
  O2-  O270  1  0.83396498  0.41520493  0.50685374  1
  O2-  O271  1  0.83665440  0.40238212  0.74597264  1
  O2-  O272  1  0.84289918  0.75085256  0.00091777  1
  O2-  O273  1  0.83230900  0.74988638  0.24451288  1
  O2-  O274  1  0.83391883  0.75045704  0.50739831  1
  O2-  O275  1  0.82980892  0.75266448  0.74950847  1
  O2-  O276  1  0.95385899  0.57340125  0.51939019  1
  O2-  O277  1  0.02591320  0.55475805  0.04475035  1
  O2-  O278  1  0.48124786  0.86717789  0.25243190  1
  O2-  O279  1  0.95846847  0.56102326  0.74575629  1
  O2-  O280  1  0.93916485  0.25373467  0.49115609  1
  O2-  O281  1  0.04973849  0.24682672  0.76827525  1
  O2-  O282  1  0.05343225  0.77120648  0.68566602  1
  O2-  O283  1  0.43755176  0.73467031  0.97253893  1
  O2-  O284  1  0.45235336  0.74825226  0.17862642  1
  O2-  O285  1  0.55927212  0.75138040  0.51794528  1
  O2-  O286  1  0.55824950  0.41570337  0.76378020  1
  O2-  O287  1  0.47474103  0.45686010  0.97039550  1
  O2-  O288  1  0.54400485  0.42770200  0.22522900  1
  O2-  O289  1  0.55037006  0.75554888  0.02280311  1
  O2-  O290  1  0.95834149  0.42016393  0.51224420  1
  O2-  O291  1  0.45509561  0.87630333  0.44657311  1
  O2-  O292  1  0.45952828  0.10875893  0.51119943  1
  O2-  O293  1  0.45522340  0.90034652  0.73831931  1
  O2-  O294  1  0.93778725  0.74050246  0.71743178  1
  O2-  O295  1  0.94980323  0.73729797  0.03533852  1
  O2-  O296  1  0.05449786  0.41224883  0.27391759  1
  O2-  O297  1  0.94777906  0.43575507  0.26874108  1
  O2-  O298  1  0.55485461  0.57693928  0.49934882  1
  O2-  O299  1  0.04673011  0.91155466  0.70056570  1
  O2-  O300  1  0.94356443  0.91649268  0.80706117  1
  O2-  O301  1  0.54300465  0.09754565  0.76786073  1
  O2-  O302  1  0.45124844  0.24272981  0.27338585  1
  O2-  O303  1  0.97139874  0.87981985  0.99196551  1
  O2-  O304  1  0.56442089  0.90890301  0.92042111  1
  O2-  O305  1  0.45491509  0.08794849  0.20804881  1
  O2-  O306  1  0.95856410  0.08745587  0.27883248  1
  O2-  O307  1  0.95394427  0.84225631  0.44235841  1
  O2-  O308  1  0.95491846  0.23693922  0.98244098  1
  O2-  O309  1  0.04647990  0.89944092  0.48378960  1
  O2-  O310  1  0.55184213  0.76169329  0.74953505  1
  O2-  O311  1  0.53973610  0.90071207  0.57366415  1
  O2-  O312  1  0.97005875  0.88621838  -0.02377110  1
  O2-  O313  1  0.03533203  0.11732780  0.71779100  1
  O2-  O314  1  0.53885772  0.57552308  0.25037976  1
  O2-  O315  1  0.01529302  0.55759631  0.22401941  1
  O2-  O316  1  0.97623076  0.21032475  0.23207777  1
  O2-  O317  1  0.55062435  0.76380494  0.75350634  1
  O2-  O318  1  0.45123063  0.44087410  0.69717640  1
  O2-  O319  1  0.45956172  0.88236431  -0.00126189  1
  O2-  O320  1  0.93815603  0.08990464  0.72991598  1
  O2-  O321  1  0.03524855  0.20305757  0.45342770  1
  O2-  O322  1  0.44555149  0.74738683  0.50979876  1
  O2-  O323  1  0.45415846  0.88930496  0.98414006  1
  O2-  O324  1  0.41850661  0.39333734  0.05809695  1
  O2-  O325  1  0.56005508  0.59324726  0.96923089  1
  O2-  O326  1  0.44244323  0.58966909  0.96621028  1
  O2-  O327  1  0.94157717  0.08156321  0.50821408  1
  O2-  O328  1  0.07497040  0.27204713  0.56520352  1
  O2-  O329  1  0.92448790  0.29861898  0.30194192  1
  O2-  O330  1  0.43896816  1.03128748  0.04355788  1
  O2-  O331  1  0.05990222  0.26429041  0.32032305  1
  O2-  O332  1  0.55165134  0.56882673  0.49764762  1
  O2-  O333  1  0.43566928  0.72033089  0.32779101  1
  O2-  O334  1  0.07268927  0.92948614  0.99294866  1
  O2-  O335  1  0.07210267  0.59223096  0.92333137  1
  O2-  O336  1  0.06172368  0.59108990  0.47293138  1
  O2-  O337  1  0.41607323  0.95285428  0.21682271  1
  O2-  O338  1  0.44273601  0.26213609  0.70993111  1
  O2-  O339  1  0.56403359  0.73327278  0.21643767  1
  O2-  O340  1  0.06255946  0.40271526  0.03284599  1
  O2-  O341  1  0.06516558  0.26053649  0.16716611  1
  O2-  O342  1  0.94429049  0.57421732  0.71681919  1
  O2-  O343  1  0.94501705  0.75601320  0.72255643  1
  O2-  O344  1  0.44250970  0.41061019  0.52846428  1
  O2-  O345  1  0.40808891  0.11526171  0.36255946  1
  O2-  O346  1  0.94146405  0.73636904  0.25293298  1
  O2-  O347  1  0.42113409  0.41503712  0.83222530  1
  O2-  O348  1  0.90860861  0.90969074  0.66967093  1
  O2-  O349  1  0.09146327  0.05916859  0.80157364  1
  O2-  O350  1  0.92633536  0.09083038  0.19976540  1
  O2-  O351  1  0.56836412  0.92640915  0.26720105  1
  O2-  O352  1  0.05863672  0.91808710  0.22876804  1
  O2-  O353  1  0.94152222  0.08302409  0.73465519  1
  O2-  O354  1  0.07057006  0.75177318  0.94086011  1
  O2-  O355  1  0.56317029  0.26870986  0.02407549  1
  O2-  O356  1  0.06352409  0.73128276  0.08374877  1
  O2-  O357  1  0.90041849  0.96701517  0.03163704  1
  O2-  O358  1  0.55955101  0.93480663  0.07598910  1
  O2-  O359  1  0.42375483  0.94212086  0.56557364  1
  O2-  O360  1  0.07901615  0.61635116  0.30933760  1
  O2-  O361  1  0.07243229  0.69567103  0.80333639  1
  O2-  O362  1  0.44949876  0.09335179  0.20776578  1
  O2-  O363  1  0.92165683  0.94616825  0.53113711  1
  O2-  O364  1  0.57491960  0.92473846  0.43915693  1
  O2-  O365  1  0.56304537  0.26120996  0.21718641  1
  O2-  O366  1  0.05121854  0.75138522  0.23414884  1
  O2-  O367  1  0.08018506  0.89856306  0.83852236  1
  O2-  O368  1  0.44033952  0.58695382  0.46214510  1
  O2-  O369  1  0.56200315  0.41680446  0.77218258  1
  O2-  O370  1  0.93681499  0.40662403  0.96358962  1
  O2-  O371  1  0.55482990  0.08226530  0.97669711  1
  O2-  O372  1  0.74932426  0.67520414  0.87456346  1
  O2-  O373  1  0.24791801  0.35077635  0.10551521  1
  O2-  O374  1  0.74820974  0.33461195  0.85314830  1
  O2-  O375  1  0.74911452  0.00941916  0.89607029  1
  O2-  O376  1  0.24880154  0.00781252  0.41885779  1
  O2-  O377  1  0.75132665  0.67877312  0.43045386  1
  O2-  O378  1  0.24953091  0.65915061  0.64489695  1
  O2-  O379  1  0.74843774  -0.00772952  0.65082016  1
  O2-  O380  1  0.74730937  0.34042266  0.10425434  1
  O2-  O381  1  0.25600331  0.66835664  0.89066682  1
  O2-  O382  1  0.24831598  0.01735381  0.32500249  1
  O2-  O383  1  0.25304719  0.65712178  0.36485147  1
  O2-  O384  1  0.75127719  0.67265092  0.31069038  1
  O2-  O385  1  0.25083746  -0.00717897  0.69089868  1
  O2-  O386  1  0.75049536  0.34936691  0.29724033  1
  O2-  O387  1  0.25282691  0.66156559  0.16813255  1
  O2-  O388  1  0.75073968  -0.00213521  0.33334922  1
  O2-  O389  1  0.74689672  0.01637205  0.10701487  1
  O2-  O390  1  0.24775070  -0.00361827  0.55434549  1
  O2-  O391  1  0.74715386  0.32464254  0.43519428  1
  O2-  O392  1  0.25093656  0.33647948  0.63335056  1
  O2-  O393  1  0.24827724  0.33352288  0.89188457  1
  O2-  O394  1  0.75098253  0.64362907  0.13353207  1
  O2-  O395  1  0.25151235  0.65775082  0.07513487  1
  O2-  O396  1  0.24972357  0.18225982  0.35596384  1
  O2-  O397  1  0.25061479  0.49919832  0.60631986  1
  O2-  O398  1  0.25237061  0.46015871  0.34743364  1
  O2-  O399  1  0.25129355  0.82132613  0.63007037  1
  O2-  O400  1  0.24879524  0.85451025  0.15410052  1
  O2-  O401  1  0.24920451  0.49422351  0.07640371  1
  O2-  O402  1  0.74996933  0.17136118  0.09864447  1
  O2-  O403  1  0.74772443  0.47530943  0.61269149  1
  O2-  O404  1  0.24632514  0.87013213  0.35643048  1
  O2-  O405  1  0.74755881  0.16757737  0.40592694  1
  O2-  O406  1  0.75071231  0.49899436  0.92345581  1
  O2-  O407  1  0.25290884  0.83579644  0.06617871  1
  O2-  O408  1  0.24855038  0.48688436  0.69219859  1
  O2-  O409  1  0.75125001  0.51077958  0.68990693  1
  O2-  O410  1  0.25524024  0.14978364  0.63343425  1
  O2-  O411  1  0.25032347  0.19349631  0.10716397  1
  O2-  O412  1  0.75133828  0.85257215  0.14605450  1
  O2-  O413  1  0.74855752  0.17074996  0.85424208  1
  O2-  O414  1  0.24876632  0.82913742  0.91344275  1
  O2-  O415  1  0.75045109  0.50541795  0.34416438  1
  O2-  O416  1  0.74954583  0.50054813  0.83658179  1
  O2-  O417  1  0.25193487  0.15250181  0.85757723  1
  O2-  O418  1  0.75057177  0.84250138  0.35957427  1
  O2-  O419  1  0.24945850  0.48222613  0.86456394  1
  O2-  O420  1  0.96919435  0.65482493  0.87898360  1
  O2-  O421  1  0.05024196  0.04163758  0.10352909  1
  O2-  O422  1  0.48085412  0.31785976  0.13289264  1
  O2-  O423  1  0.03080890  0.64763940  0.61689788  1
  O2-  O424  1  0.02602547  0.34683043  0.88162704  1
  O2-  O425  1  0.04373989  0.02136752  0.58393141  1
  O2-  O426  1  0.44964118  0.64798826  0.63511857  1
  O2-  O427  1  0.97048598  0.65100343  0.37930734  1
  O2-  O428  1  0.54851364  0.64831552  0.64578517  1
  O2-  O429  1  0.49462527  0.02803529  0.63246094  1
  O2-  O430  1  0.04808649  0.01765060  0.37942512  1
  O2-  O431  1  0.00313992  0.02498121  0.89201914  1
  O2-  O432  1  0.46391715  -0.00528793  0.37894003  1
  O2-  O433  1  0.95513606  -0.01933882  0.36835568  1
  O2-  O434  1  0.47308627  0.00857001  0.87408825  1
  O2-  O435  1  0.01466539  0.36139409  0.63108383  1
  O2-  O436  1  0.47382866  0.30354631  0.88873233  1
  O2-  O437  1  0.53241175  0.33107866  0.37621156  1
  O2-  O438  1  0.53209299  0.67321853  0.37780347  1
  O2-  O439  1  0.99169678  0.00306770  0.62487178  1
  O2-  O440  1  0.96863631  0.33680073  0.12723035  1
  O2-  O441  1  0.52875782  0.33683030  0.88387756  1
  O2-  O442  1  0.97086885  -0.02962372  0.14777286  1
  O2-  O443  1  0.55962392  0.05644012  0.35796237  1
