# generated using pymatgen
data_La7(Ru4O11)2
_symmetry_space_group_name_H-M   'P 1'
_cell_length_a   23.99063903
_cell_length_b   16.83264245
_cell_length_c   15.42812203
_cell_angle_alpha   90.00118535
_cell_angle_beta   90.00141198
_cell_angle_gamma   89.99720197
_symmetry_Int_Tables_number   1
_chemical_formula_structural   La7(Ru4O11)2
_chemical_formula_sum   'La84 Ru96 O264'
_cell_volume   6230.27446614
_cell_formula_units_Z   12
loop_
 _symmetry_equiv_pos_site_id
 _symmetry_equiv_pos_as_xyz
  1  'x, y, z'
loop_
 _atom_type_symbol
 _atom_type_oxidation_number
  La3+  3.0
  Ru4+  4.0
  O2-  -2.0
loop_
 _atom_site_type_symbol
 _atom_site_label
 _atom_site_symmetry_multiplicity
 _atom_site_fract_x
 _atom_site_fract_y
 _atom_site_fract_z
 _atom_site_occupancy
  La3+  La0  1  0.13810100  0.00381256  0.12128010  1
  La3+  La1  1  0.14227001  0.00793435  0.37710028  1
  La3+  La2  1  0.14059237  0.00637919  0.62402532  1
  La3+  La3  1  0.13914785  0.00076390  0.87936949  1
  La3+  La4  1  0.14216118  0.33279000  0.12057445  1
  La3+  La5  1  0.14055323  0.32940904  0.37566465  1
  La3+  La6  1  0.13808649  0.33245661  0.62068766  1
  La3+  La7  1  0.13872731  0.33466176  0.88209514  1
  La3+  La8  1  0.13204779  0.67615167  0.10887997  1
  La3+  La9  1  0.13610557  0.66199747  0.37635004  1
  La3+  La10  1  0.13448688  0.66288367  0.62441232  1
  La3+  La11  1  0.13227578  0.67036385  0.88325611  1
  La3+  La12  1  0.64126090  0.00330169  0.12813980  1
  La3+  La13  1  0.64753175  -0.00122341  0.37434613  1
  La3+  La14  1  0.63802809  -0.00179811  0.62247135  1
  La3+  La15  1  0.63907121  0.00173903  0.87810427  1
  La3+  La16  1  0.63973340  0.33295142  0.12789539  1
  La3+  La17  1  0.64194168  0.33676419  0.37178515  1
  La3+  La18  1  0.63440809  0.33275155  0.62182785  1
  La3+  La19  1  0.63914332  0.33389804  0.87548561  1
  La3+  La20  1  0.63918878  0.66692529  0.12599385  1
  La3+  La21  1  0.63239349  0.67368677  0.38363034  1
  La3+  La22  1  0.63478611  0.66829549  0.61952710  1
  La3+  La23  1  0.63856327  0.66665703  0.87620009  1
  La3+  La24  1  0.36128076  0.00521120  0.12179421  1
  La3+  La25  1  0.36464786  0.00167856  0.38070330  1
  La3+  La26  1  0.36516249  0.00097882  0.62003782  1
  La3+  La27  1  0.36066491  0.00258198  0.88056300  1
  La3+  La28  1  0.35593027  0.33136671  0.12191527  1
  La3+  La29  1  0.36255554  0.33174728  0.37778884  1
  La3+  La30  1  0.36476296  0.33196192  0.62079852  1
  La3+  La31  1  0.36320923  0.33310623  0.87754107  1
  La3+  La32  1  0.36034756  0.66534899  0.12050949  1
  La3+  La33  1  0.36273133  0.66096411  0.37489858  1
  La3+  La34  1  0.36475769  0.66283144  0.62502114  1
  La3+  La35  1  0.35580751  0.66610123  0.87794079  1
  La3+  La36  1  0.85987944  -0.00287750  0.13155395  1
  La3+  La37  1  0.85429063  -0.00279496  0.37396303  1
  La3+  La38  1  0.86272192  -0.00023101  0.62251590  1
  La3+  La39  1  0.85925665  -0.00043506  0.87622826  1
  La3+  La40  1  0.86043394  0.33363611  0.12416713  1
  La3+  La41  1  0.85879533  0.33505298  0.37420359  1
  La3+  La42  1  0.86442633  0.33595836  0.62327780  1
  La3+  La43  1  0.86239837  0.33495986  0.87673581  1
  La3+  La44  1  0.85832211  0.66819696  0.12643932  1
  La3+  La45  1  0.86231532  0.66483159  0.37786449  1
  La3+  La46  1  0.86016670  0.66544731  0.62105874  1
  La3+  La47  1  0.86323772  0.66524878  0.87689276  1
  La3+  La48  1  0.00190408  0.83164938  0.87636212  1
  La3+  La49  1  0.50413941  0.17008318  0.36710731  1
  La3+  La50  1  0.00177640  0.83422507  0.12295416  1
  La3+  La51  1  0.00102733  0.82982337  0.63147521  1
  La3+  La52  1  0.50017132  0.49854819  0.38055172  1
  La3+  La53  1  -0.00125568  0.16541507  0.13102793  1
  La3+  La54  1  0.50003036  0.16475815  0.63906453  1
  La3+  La55  1  0.50134392  0.16927163  0.88443212  1
  La3+  La56  1  -0.00712511  0.82668386  0.36752724  1
  La3+  La57  1  0.50053827  0.49226050  0.62866685  1
  La3+  La58  1  0.50255555  0.83036263  0.37039130  1
  La3+  La59  1  0.00596715  0.49081648  0.88311305  1
  La3+  La60  1  0.50422981  0.82726586  0.61899864  1
  La3+  La61  1  -0.00127753  0.50613476  0.63185964  1
  La3+  La62  1  0.50353219  0.82734156  0.60208835  1
  La3+  La63  1  0.49939660  0.83297009  0.86660623  1
  La3+  La64  1  0.49736328  0.50088082  0.87024691  1
  La3+  La65  1  -0.00058166  0.16739144  0.86722286  1
  La3+  La66  1  0.49923277  0.83474333  0.38597793  1
  La3+  La67  1  0.50810008  0.83042471  0.13717469  1
  La3+  La68  1  0.50466380  0.84201272  0.12276375  1
  La3+  La69  1  -0.00910390  0.82856311  0.38394180  1
  La3+  La70  1  -0.00384904  0.49345051  0.37567710  1
  La3+  La71  1  0.00061852  0.16604725  0.38665721  1
  La3+  La72  1  0.24893666  0.52332107  0.73194846  1
  La3+  La73  1  0.75025260  0.12593734  0.04417737  1
  La3+  La74  1  0.75059259  0.46159356  0.21457187  1
  La3+  La75  1  0.25063673  0.83268968  0.47501747  1
  La3+  La76  1  0.24987785  0.82761418  0.24181813  1
  La3+  La77  1  0.24968663  0.50017688  -0.00696977  1
  La3+  La78  1  0.24953207  0.15773852  0.74939536  1
  La3+  La79  1  0.24973336  0.78797531  0.80144808  1
  La3+  La80  1  0.75018917  0.83236403  0.71104216  1
  La3+  La81  1  0.24979537  0.53572812  0.23673407  1
  La3+  La82  1  0.75017886  0.50645230  0.74971588  1
  La3+  La83  1  0.74967508  0.12558124  0.49449175  1
  Ru4+  Ru84  1  -0.00127527  0.00122368  0.00255498  1
  Ru4+  Ru85  1  0.00330236  0.00858747  0.24616864  1
  Ru4+  Ru86  1  -0.00038342  0.00275423  0.49819036  1
  Ru4+  Ru87  1  -0.00042282  0.00337399  0.74649007  1
  Ru4+  Ru88  1  -0.00543880  0.32925566  0.00501667  1
  Ru4+  Ru89  1  0.00166189  0.33452180  0.24085027  1
  Ru4+  Ru90  1  0.00428204  0.33255590  0.50746344  1
  Ru4+  Ru91  1  -0.00113173  0.33210491  0.74863024  1
  Ru4+  Ru92  1  -0.00212357  0.67137060  0.00166257  1
  Ru4+  Ru93  1  0.00381157  0.66311439  0.25548795  1
  Ru4+  Ru94  1  0.00340958  0.66854252  0.50239626  1
  Ru4+  Ru95  1  -0.00223017  0.66913124  0.75206190  1
  Ru4+  Ru96  1  0.49931974  -0.00242203  -0.00236440  1
  Ru4+  Ru97  1  0.50172801  0.00396547  0.25243698  1
  Ru4+  Ru98  1  0.50571283  0.00789891  0.49875698  1
  Ru4+  Ru99  1  0.50230828  -0.00034267  0.75130293  1
  Ru4+  Ru100  1  0.49639290  0.33445207  -0.00006466  1
  Ru4+  Ru101  1  0.50340175  0.33634872  0.24942253  1
  Ru4+  Ru102  1  0.50160040  0.33164798  0.50081597  1
  Ru4+  Ru103  1  0.50921964  0.33444172  0.75245127  1
  Ru4+  Ru104  1  0.49988203  0.66669352  0.00250884  1
  Ru4+  Ru105  1  0.50028264  0.66534221  0.24533674  1
  Ru4+  Ru106  1  0.49997227  0.66956205  0.49818289  1
  Ru4+  Ru107  1  0.50260045  0.66861496  0.74736120  1
  Ru4+  Ru108  1  0.11464621  0.16698245  -0.00009156  1
  Ru4+  Ru109  1  0.11342180  0.16791879  0.24933212  1
  Ru4+  Ru110  1  0.11312823  0.17093395  0.50013414  1
  Ru4+  Ru111  1  0.10852305  0.16782317  0.75118735  1
  Ru4+  Ru112  1  0.11523756  0.50544546  0.00195998  1
  Ru4+  Ru113  1  0.10904624  0.50211170  0.24882110  1
  Ru4+  Ru114  1  0.11350273  0.50099733  0.49706600  1
  Ru4+  Ru115  1  0.11393205  0.49320177  0.74689016  1
  Ru4+  Ru116  1  0.10988341  0.82763265  0.00109071  1
  Ru4+  Ru117  1  0.11101958  0.83340791  0.24561687  1
  Ru4+  Ru118  1  0.11126404  0.83422644  0.49968991  1
  Ru4+  Ru119  1  0.11051921  0.83393528  0.75241287  1
  Ru4+  Ru120  1  0.61532192  0.17275967  0.00012737  1
  Ru4+  Ru121  1  0.61560572  0.16739586  0.25067555  1
  Ru4+  Ru122  1  0.61278948  0.16587005  0.49613248  1
  Ru4+  Ru123  1  0.61368289  0.16562855  0.74956274  1
  Ru4+  Ru124  1  0.61337033  0.49908443  -0.00039923  1
  Ru4+  Ru125  1  0.60980484  0.49769301  0.24883697  1
  Ru4+  Ru126  1  0.61616718  0.50081306  0.49901442  1
  Ru4+  Ru127  1  0.61114378  0.49788266  0.75102543  1
  Ru4+  Ru128  1  0.61376423  0.83178039  -0.00109492  1
  Ru4+  Ru129  1  0.61412524  0.83333273  0.25296534  1
  Ru4+  Ru130  1  0.61189418  0.83521394  0.49775412  1
  Ru4+  Ru131  1  0.61204004  0.83686940  0.74821916  1
  Ru4+  Ru132  1  0.38639392  0.16713091  0.00128488  1
  Ru4+  Ru133  1  0.38619294  0.16940200  0.25110289  1
  Ru4+  Ru134  1  0.38513228  0.16890580  0.49987905  1
  Ru4+  Ru135  1  0.38792485  0.16123757  0.75144182  1
  Ru4+  Ru136  1  0.38823859  0.50007018  0.00131953  1
  Ru4+  Ru137  1  0.39159631  0.50073389  0.25027106  1
  Ru4+  Ru138  1  0.38445653  0.50452888  0.49849552  1
  Ru4+  Ru139  1  0.38488679  0.50405980  0.75264157  1
  Ru4+  Ru140  1  0.38593508  0.82963914  -0.00272738  1
  Ru4+  Ru141  1  0.38874494  0.82861802  0.25041678  1
  Ru4+  Ru142  1  0.38649616  0.82504418  0.50079845  1
  Ru4+  Ru143  1  0.38836188  0.83290395  0.74919144  1
  Ru4+  Ru144  1  0.88931417  0.16493051  0.00131987  1
  Ru4+  Ru145  1  0.88487647  0.16642576  0.24994439  1
  Ru4+  Ru146  1  0.89054096  0.16425206  0.50117928  1
  Ru4+  Ru147  1  0.88848957  0.16521153  0.75048314  1
  Ru4+  Ru148  1  0.88948102  0.49905755  0.00298650  1
  Ru4+  Ru149  1  0.88887478  0.49904951  0.25039081  1
  Ru4+  Ru150  1  0.88370435  0.49679143  0.49895947  1
  Ru4+  Ru151  1  0.88981961  0.50076133  0.74785636  1
  Ru4+  Ru152  1  0.88886847  0.83370902  -0.00150154  1
  Ru4+  Ru153  1  0.88226645  0.83116725  0.24883654  1
  Ru4+  Ru154  1  0.88523594  0.83550572  0.50042300  1
  Ru4+  Ru155  1  0.88740427  0.83347896  0.75058606  1
  Ru4+  Ru156  1  0.75039561  0.24070783  0.73659285  1
  Ru4+  Ru157  1  0.25028754  0.10760251  0.25370459  1
  Ru4+  Ru158  1  0.24905275  0.65408388  0.72209507  1
  Ru4+  Ru159  1  0.75008267  0.57026266  -0.00973429  1
  Ru4+  Ru160  1  0.24972821  0.28000867  0.75657588  1
  Ru4+  Ru161  1  0.25036558  0.40150881  0.76268295  1
  Ru4+  Ru162  1  0.24979479  0.92208050  -0.00705615  1
  Ru4+  Ru163  1  0.75032470  0.27745049  0.49875955  1
  Ru4+  Ru164  1  0.24981957  0.91418989  0.75285470  1
  Ru4+  Ru165  1  0.24994292  0.38753356  0.24052208  1
  Ru4+  Ru166  1  0.74991594  0.37279983  0.73072987  1
  Ru4+  Ru167  1  0.75016839  0.75828782  0.49349933  1
  Ru4+  Ru168  1  0.24950102  0.03446993  0.74818116  1
  Ru4+  Ru169  1  0.24993344  0.96086985  0.23302244  1
  Ru4+  Ru170  1  0.74968618  0.60125673  0.26765158  1
  Ru4+  Ru171  1  0.25001560  0.69146383  0.49167358  1
  Ru4+  Ru172  1  0.75021783  0.27096090  -0.00425901  1
  Ru4+  Ru173  1  0.74986442  0.64253665  0.76393077  1
  Ru4+  Ru174  1  0.25003480  0.41802496  0.51028292  1
  Ru4+  Ru175  1  0.75014813  0.07914219  0.74472730  1
  Ru4+  Ru176  1  0.25012052  0.96098988  0.53707840  1
  Ru4+  Ru177  1  0.24969259  0.69775457  0.25959277  1
  Ru4+  Ru178  1  0.75029809  0.92443040  0.01026978  1
  Ru4+  Ru179  1  0.75040598  0.75428226  0.00320531  1
  O2-  O180  1  0.16506668  0.08177852  -0.00125789  1
  O2-  O181  1  0.16658702  0.08323322  0.24927855  1
  O2-  O182  1  0.16549315  0.08534778  0.50379613  1
  O2-  O183  1  0.16383508  0.07841632  0.75208713  1
  O2-  O184  1  0.16580672  0.41577120  0.00061841  1
  O2-  O185  1  0.16686486  0.41434764  0.24929694  1
  O2-  O186  1  0.16765041  0.41420615  0.49977081  1
  O2-  O187  1  0.16689570  0.41220733  0.75034040  1
  O2-  O188  1  0.16772427  0.75245114  -0.00118594  1
  O2-  O189  1  0.16361496  0.74549266  0.24972646  1
  O2-  O190  1  0.16686765  0.74456557  0.49941186  1
  O2-  O191  1  0.16614241  0.74443222  0.74819751  1
  O2-  O192  1  0.66425947  0.07822434  -0.00124983  1
  O2-  O193  1  0.66550441  0.08306631  0.25079206  1
  O2-  O194  1  0.66373341  0.07916467  0.50316378  1
  O2-  O195  1  0.66685065  0.07963713  0.74949020  1
  O2-  O196  1  0.66316036  0.41525673  -0.00077703  1
  O2-  O197  1  0.66751417  0.41214452  0.24932476  1
  O2-  O198  1  0.66416353  0.41635259  0.50080896  1
  O2-  O199  1  0.66678130  0.41004187  0.75085126  1
  O2-  O200  1  0.66781996  0.74772829  -0.00015901  1
  O2-  O201  1  0.66454194  0.74668121  0.25269318  1
  O2-  O202  1  0.66948401  0.74540570  0.50066009  1
  O2-  O203  1  0.66771907  0.74616629  0.74969951  1
  O2-  O204  1  0.33557278  0.24955348  0.00010129  1
  O2-  O205  1  0.33568213  0.25239902  0.25199565  1
  O2-  O206  1  0.33333110  0.25163320  0.49872189  1
  O2-  O207  1  0.33593881  0.25321130  0.74775218  1
  O2-  O208  1  0.33703166  0.58297155  0.00158024  1
  O2-  O209  1  0.33663928  0.58793828  0.25074444  1
  O2-  O210  1  0.33494714  0.58687422  0.50045902  1
  O2-  O211  1  0.33323957  0.58874240  0.74659287  1
  O2-  O212  1  0.33435397  0.92024818  0.00114457  1
  O2-  O213  1  0.33502087  0.92516021  0.25020980  1
  O2-  O214  1  0.33323068  0.92318801  0.50244049  1
  O2-  O215  1  0.33477920  0.92023409  0.75027240  1
  O2-  O216  1  0.83411763  0.25330081  -0.00133850  1
  O2-  O217  1  0.83597777  0.25345255  0.25207750  1
  O2-  O218  1  0.83483302  0.25256273  0.49873831  1
  O2-  O219  1  0.83422306  0.25187457  0.74794494  1
  O2-  O220  1  0.83301027  0.58413861  -0.00246892  1
  O2-  O221  1  0.83370332  0.58591673  0.25171191  1
  O2-  O222  1  0.83417100  0.58524799  0.49897921  1
  O2-  O223  1  0.83271209  0.58872723  0.75432261  1
  O2-  O224  1  0.83120600  0.91946497  0.00261296  1
  O2-  O225  1  0.83411466  0.91699804  0.25169314  1
  O2-  O226  1  0.83343065  0.91763156  0.50511275  1
  O2-  O227  1  0.83189957  0.91964638  0.74760785  1
  O2-  O228  1  0.16358905  0.25030990  -0.00041475  1
  O2-  O229  1  0.16476592  0.25128049  0.24987652  1
  O2-  O230  1  0.16681565  0.25009431  0.49994384  1
  O2-  O231  1  0.16370292  0.25360714  0.74974955  1
  O2-  O232  1  0.16427668  0.58625505  0.00206551  1
  O2-  O233  1  0.16359863  0.58711969  0.25194775  1
  O2-  O234  1  0.16705789  0.58421425  0.49809524  1
  O2-  O235  1  0.16464727  0.58749236  0.75054081  1
  O2-  O236  1  0.16448118  0.91843132  0.00073116  1
  O2-  O237  1  0.16825133  0.92258841  0.25128366  1
  O2-  O238  1  0.16921219  0.92024057  0.50219847  1
  O2-  O239  1  0.16490847  0.91971969  0.75030612  1
  O2-  O240  1  0.66754863  0.25345615  -0.00006471  1
  O2-  O241  1  0.66735381  0.25112892  0.24901208  1
  O2-  O242  1  0.66897188  0.25242727  0.50106182  1
  O2-  O243  1  0.66864735  0.25221990  0.74900511  1
  O2-  O244  1  0.66710371  0.58558481  -0.00089933  1
  O2-  O245  1  0.66528829  0.58637370  0.25363894  1
  O2-  O246  1  0.66449703  0.58868693  0.49888724  1
  O2-  O247  1  0.66657241  0.58873587  0.75114749  1
  O2-  O248  1  0.66590460  0.91992987  0.00074919  1
  O2-  O249  1  0.66379848  0.91838699  0.25038337  1
  O2-  O250  1  0.66329740  0.91948187  0.50430069  1
  O2-  O251  1  0.66786514  0.92038603  0.74825974  1
  O2-  O252  1  0.33411194  0.08092586  0.00109680  1
  O2-  O253  1  0.33458902  0.08087541  0.25044464  1
  O2-  O254  1  0.33648852  0.08056667  0.50274818  1
  O2-  O255  1  0.33578243  0.07650428  0.74911961  1
  O2-  O256  1  0.33371150  0.41460919  0.00089104  1
  O2-  O257  1  0.33291896  0.41213490  0.25014417  1
  O2-  O258  1  0.33403770  0.41371958  0.49886966  1
  O2-  O259  1  0.33485025  0.41254060  0.74940046  1
  O2-  O260  1  0.33446068  0.75182441  0.00320834  1
  O2-  O261  1  0.33485218  0.74429053  0.25029700  1
  O2-  O262  1  0.33186548  0.74178566  0.50083798  1
  O2-  O263  1  0.33556066  0.74555592  0.74631681  1
  O2-  O264  1  0.83543542  0.07941200  -0.00160851  1
  O2-  O265  1  0.83713527  0.08191659  0.25152516  1
  O2-  O266  1  0.83452279  0.07989224  0.50282823  1
  O2-  O267  1  0.83046416  0.08079686  0.74679934  1
  O2-  O268  1  0.83635886  0.41534307  -0.00081287  1
  O2-  O269  1  0.83624095  0.41060388  0.25170792  1
  O2-  O270  1  0.83493001  0.41479083  0.49975982  1
  O2-  O271  1  0.83355905  0.41159218  0.75037061  1
  O2-  O272  1  0.83495141  0.74783205  -0.00024615  1
  O2-  O273  1  0.83461863  0.74795775  0.25323675  1
  O2-  O274  1  0.83116537  0.74772656  0.50063868  1
  O2-  O275  1  0.83259584  0.74825471  0.75094697  1
  O2-  O276  1  0.44865467  0.09057486  0.98435419  1
  O2-  O277  1  0.45098946  0.23488797  0.76840567  1
  O2-  O278  1  0.95341425  0.23453222  0.76296668  1
  O2-  O279  1  0.45370569  0.42743766  0.76174881  1
  O2-  O280  1  0.46275232  0.44952891  0.02796435  1
  O2-  O281  1  0.95075929  0.43401318  0.01343719  1
  O2-  O282  1  0.04302338  0.76482630  0.99534466  1
  O2-  O283  1  0.45972488  0.78017025  0.02750549  1
  O2-  O284  1  0.45597243  0.90406728  0.73448097  1
  O2-  O285  1  0.95498195  0.90655455  0.73682078  1
  O2-  O286  1  0.45297401  0.23495782  0.98940112  1
  O2-  O287  1  0.45432472  0.24513344  0.73114242  1
  O2-  O288  1  0.05077751  0.43306803  0.98743030  1
  O2-  O289  1  0.45227425  0.76148521  0.73356880  1
  O2-  O290  1  0.04612613  0.42344252  0.26487411  1
  O2-  O291  1  0.45302546  0.90607709  0.24675793  1
  O2-  O292  1  0.45521735  0.09534846  0.76333185  1
  O2-  O293  1  0.04968845  0.75608992  0.48831519  1
  O2-  O294  1  0.04390583  0.23191176  0.24218618  1
  O2-  O295  1  0.02480597  0.88170501  0.50217596  1
  O2-  O296  1  0.55070306  0.09253334  0.98205030  1
  O2-  O297  1  0.94891673  0.42599282  0.50905694  1
  O2-  O298  1  0.45426996  0.56813012  0.71311988  1
  O2-  O299  1  0.04889035  0.75627163  0.02082928  1
  O2-  O300  1  0.54853442  0.10454766  0.01901151  1
  O2-  O301  1  0.95359568  0.76195938  0.74035426  1
  O2-  O302  1  0.45295417  0.43353365  0.24005269  1
  O2-  O303  1  0.95112511  0.90013160  0.23607633  1
  O2-  O304  1  0.95498873  0.57563910  0.51852264  1
  O2-  O305  1  0.04047849  0.88832401  0.28346273  1
  O2-  O306  1  0.04342587  0.44397060  0.53858533  1
  O2-  O307  1  0.45577160  0.90113800  0.49128080  1
  O2-  O308  1  0.45569447  0.57105012  0.51095375  1
  O2-  O309  1  0.54711028  0.43656732  0.50894778  1
  O2-  O310  1  0.04590965  0.90413036  0.01271558  1
  O2-  O311  1  0.03661243  0.55797522  0.28160307  1
  O2-  O312  1  0.94913056  0.56600888  0.48186354  1
  O2-  O313  1  0.05287151  0.56369436  0.76550370  1
  O2-  O314  1  0.54034838  0.22711127  0.53918509  1
  O2-  O315  1  0.54811780  0.76709365  0.73825838  1
  O2-  O316  1  0.95871200  0.55181663  0.78868221  1
  O2-  O317  1  0.45472390  0.90069691  0.25539774  1
  O2-  O318  1  0.54541471  0.89956867  0.98432673  1
  O2-  O319  1  0.95803802  0.57341906  0.96350060  1
  O2-  O320  1  0.54702296  0.76455206  0.48761000  1
  O2-  O321  1  0.03234808  0.88499765  0.50000522  1
  O2-  O322  1  0.04640186  0.09803402  0.76114750  1
  O2-  O323  1  0.44692685  0.43020033  0.48641444  1
  O2-  O324  1  0.06912470  0.72969003  0.97424949  1
  O2-  O325  1  0.56837906  0.41699770  0.68770480  1
  O2-  O326  1  0.93869483  0.07226820  0.53269855  1
  O2-  O327  1  0.43273816  0.60399527  0.83727708  1
  O2-  O328  1  0.93444862  0.92115668  0.97252095  1
  O2-  O329  1  0.06396953  0.40762032  0.96891358  1
  O2-  O330  1  0.43776885  0.59773537  0.28707798  1
  O2-  O331  1  0.07635497  0.94713890  0.41957920  1
  O2-  O332  1  0.93638346  0.73870833  0.53260177  1
  O2-  O333  1  0.93895778  0.92584206  0.21632927  1
  O2-  O334  1  0.42827674  0.40029713  0.95645508  1
  O2-  O335  1  0.55838517  0.74880736  0.47396037  1
  O2-  O336  1  0.92875751  0.61198334  0.69063987  1
  O2-  O337  1  0.56066531  0.24456098  0.55222683  1
  O2-  O338  1  0.06227449  0.40383948  0.71576051  1
  O2-  O339  1  0.93569135  0.93033890  0.46414609  1
  O2-  O340  1  0.06374758  0.26117010  0.56834028  1
  O2-  O341  1  0.93441806  0.40760373  0.72273647  1
  O2-  O342  1  0.93245523  0.07314743  0.77579494  1
  O2-  O343  1  0.93780334  0.07242360  0.03345716  1
  O2-  O344  1  0.56670104  0.74239486  0.02557832  1
  O2-  O345  1  0.56826549  0.73961204  0.53478440  1
  O2-  O346  1  0.06244074  0.59583930  0.77460049  1
  O2-  O347  1  0.07206342  0.39570321  0.43711258  1
  O2-  O348  1  0.43017334  0.71626662  0.93640792  1
  O2-  O349  1  0.07795389  0.93979188  0.19549069  1
  O2-  O350  1  0.43763207  0.91940611  0.47246693  1
  O2-  O351  1  0.05953080  0.08001456  0.46788229  1
  O2-  O352  1  0.06506185  0.74453785  0.80916172  1
  O2-  O353  1  0.43781472  0.40057744  0.46879402  1
  O2-  O354  1  0.43743300  0.25975938  0.53368639  1
  O2-  O355  1  0.56194175  0.07217369  0.28375290  1
  O2-  O356  1  0.56129520  0.59436098  0.96383484  1
  O2-  O357  1  0.57803181  0.26614485  0.42084137  1
  O2-  O358  1  0.43473472  0.40826432  0.77713795  1
  O2-  O359  1  0.56485259  0.25484223  0.72497152  1
  O2-  O360  1  0.56465828  0.59136394  0.72702281  1
  O2-  O361  1  0.44098957  0.58724560  0.68720922  1
  O2-  O362  1  0.93207497  0.61606346  0.08423888  1
  O2-  O363  1  0.56196169  0.25347276  0.27380536  1
  O2-  O364  1  0.56629064  0.41069865  0.22353213  1
  O2-  O365  1  0.07006610  0.61783307  0.18843350  1
  O2-  O366  1  0.06810095  0.74556273  0.69150770  1
  O2-  O367  1  0.56343266  0.40561398  0.82119442  1
  O2-  O368  1  0.07406621  0.95473397  0.58331736  1
  O2-  O369  1  0.06082194  0.25486071  0.42780039  1
  O2-  O370  1  0.94178465  0.59106904  0.94104544  1
  O2-  O371  1  0.06660939  0.59364602  0.52449642  1
  O2-  O372  1  0.75016830  0.01073815  0.40521890  1
  O2-  O373  1  0.25072972  0.33338678  0.59652866  1
  O2-  O374  1  0.25026488  0.66888099  0.06784973  1
  O2-  O375  1  0.74982827  0.33418754  0.09699254  1
  O2-  O376  1  0.74991458  0.32949792  0.85432498  1
  O2-  O377  1  0.25058455  0.66009320  0.60448871  1
  O2-  O378  1  0.75011326  0.66453257  0.90246159  1
  O2-  O379  1  0.25019432  0.00982681  0.43805834  1
  O2-  O380  1  0.74970897  0.67590776  0.18749857  1
  O2-  O381  1  0.25011312  0.00163343  0.90148453  1
  O2-  O382  1  0.75081966  0.33347332  0.39745703  1
  O2-  O383  1  0.24979349  0.66143528  0.93371870  1
  O2-  O384  1  0.25058347  0.01245059  0.12719604  1
  O2-  O385  1  0.75017520  -0.00483400  0.13593439  1
  O2-  O386  1  0.24954849  0.64723581  0.15262058  1
  O2-  O387  1  0.75001655  -0.00084004  0.90843063  1
  O2-  O388  1  0.25007205  0.33248902  0.88933598  1
  O2-  O389  1  0.74964475  0.67430425  0.64465171  1
  O2-  O390  1  0.24944915  0.66857508  0.84207539  1
  O2-  O391  1  0.74997693  0.66074126  0.06423722  1
  O2-  O392  1  0.25025765  0.65613578  0.37050207  1
  O2-  O393  1  0.25052052  0.01866926  0.33023278  1
  O2-  O394  1  0.25046488  0.33936281  0.11435010  1
  O2-  O395  1  0.75000925  0.33504743  0.60508401  1
  O2-  O396  1  0.25012166  0.16479936  0.16209579  1
  O2-  O397  1  0.74999926  0.83451937  0.84282245  1
  O2-  O398  1  0.24929593  0.83476203  0.59543814  1
  O2-  O399  1  0.74998288  0.49573851  0.62090615  1
  O2-  O400  1  0.74986664  0.83960131  0.93058758  1
  O2-  O401  1  0.25031045  0.48875298  0.11923052  1
  O2-  O402  1  0.25012592  0.49637291  0.58921962  1
  O2-  O403  1  0.25004742  0.16409401  0.39485117  1
  O2-  O404  1  0.25026644  0.83097926  0.67525704  1
  O2-  O405  1  0.74997540  0.17775810  0.90947931  1
  O2-  O406  1  0.24978253  0.48265057  0.35292416  1
  O2-  O407  1  0.75000511  0.82683772  0.41287425  1
  O2-  O408  1  0.25007370  0.83731864  0.12294327  1
  O2-  O409  1  0.74988757  0.16356137  0.82248606  1
  O2-  O410  1  0.74972824  0.50601246  0.89188312  1
  O2-  O411  1  0.24999878  0.83751352  0.35961799  1
  O2-  O412  1  0.25019981  0.50763582  0.43803134  1
  O2-  O413  1  0.74983283  0.50120803  0.43314335  1
  O2-  O414  1  0.25019939  0.84174735  0.91772660  1
  O2-  O415  1  0.24994774  0.82036198  0.04610056  1
  O2-  O416  1  0.25051076  0.49791125  0.86549934  1
  O2-  O417  1  0.74997966  0.50453083  0.08258604  1
  O2-  O418  1  0.74989692  0.50878697  0.34912900  1
  O2-  O419  1  0.75018532  0.17251602  0.16004930  1
  O2-  O420  1  0.53026644  0.32745590  0.11791499  1
  O2-  O421  1  0.02018049  0.66333834  0.62259206  1
  O2-  O422  1  0.52771963  0.00065658  0.62367682  1
  O2-  O423  1  0.95578529  0.32652693  0.12836372  1
  O2-  O424  1  0.95503999  0.67078922  0.36873267  1
  O2-  O425  1  0.01764205  0.65987337  0.87855951  1
  O2-  O426  1  0.45444062  0.66540617  0.12704182  1
  O2-  O427  1  0.04026966  0.32271747  0.86342893  1
  O2-  O428  1  0.52217194  0.66499969  0.62331172  1
  O2-  O429  1  0.03413988  -0.00319088  0.87884370  1
  O2-  O430  1  0.02330693  0.01447846  0.11849120  1
  O2-  O431  1  0.48212446  0.32406831  0.87364651  1
  O2-  O432  1  0.54236243  0.66067153  0.13569762  1
  O2-  O433  1  0.04414770  0.66888035  0.37282986  1
  O2-  O434  1  0.95613298  0.33480321  0.88222236  1
  O2-  O435  1  0.47462558  0.01078789  0.37463470  1
  O2-  O436  1  0.97399711  -0.00042851  0.87776662  1
  O2-  O437  1  0.51639556  0.34842509  0.36898583  1
  O2-  O438  1  0.97373484  0.32669903  0.62172577  1
  O2-  O439  1  0.46752128  0.32902753  0.12776284  1
  O2-  O440  1  0.51371630  0.33971681  0.62411342  1
  O2-  O441  1  0.52575658  -0.00493749  0.12624226  1
  O2-  O442  1  0.52490378  -0.00179282  0.87010248  1
  O2-  O443  1  0.04268867  0.33251426  0.11881286  1
