# generated using pymatgen
data_La7(Ru4O11)2
_symmetry_space_group_name_H-M   'P 1'
_cell_length_a   23.99530777
_cell_length_b   16.83395026
_cell_length_c   15.43093630
_cell_angle_alpha   89.99536253
_cell_angle_beta   90.00121510
_cell_angle_gamma   90.00073709
_symmetry_Int_Tables_number   1
_chemical_formula_structural   La7(Ru4O11)2
_chemical_formula_sum   'La84 Ru96 O264'
_cell_volume   6233.10784572
_cell_formula_units_Z   12
loop_
 _symmetry_equiv_pos_site_id
 _symmetry_equiv_pos_as_xyz
  1  'x, y, z'
loop_
 _atom_type_symbol
 _atom_type_oxidation_number
  La3+  3.0
  Ru4+  4.0
  O2-  -2.0
loop_
 _atom_site_type_symbol
 _atom_site_label
 _atom_site_symmetry_multiplicity
 _atom_site_fract_x
 _atom_site_fract_y
 _atom_site_fract_z
 _atom_site_occupancy
  La3+  La0  1  0.13976002  -0.00087570  0.11823962  1
  La3+  La1  1  0.13734077  -0.00226657  0.37800562  1
  La3+  La2  1  0.14514419  -0.00436623  0.62491517  1
  La3+  La3  1  0.14343578  -0.00213651  0.87115963  1
  La3+  La4  1  0.14155163  0.33968857  0.11920638  1
  La3+  La5  1  0.13277769  0.32932855  0.37523287  1
  La3+  La6  1  0.14878868  0.33839702  0.62587609  1
  La3+  La7  1  0.14336596  0.34140292  0.87731337  1
  La3+  La8  1  0.14508800  0.66411446  0.11802716  1
  La3+  La9  1  0.14173376  0.65858496  0.37138875  1
  La3+  La10  1  0.14161975  0.66682049  0.62747203  1
  La3+  La11  1  0.13496641  0.66848693  0.87639137  1
  La3+  La12  1  0.63971735  0.00068315  0.13447927  1
  La3+  La13  1  0.64264637  0.00024281  0.37404510  1
  La3+  La14  1  0.64371124  0.00158969  0.62586607  1
  La3+  La15  1  0.63976561  0.00090723  0.87720438  1
  La3+  La16  1  0.63090964  0.32487261  0.12925505  1
  La3+  La17  1  0.63322966  0.32492908  0.36956204  1
  La3+  La18  1  0.64340542  0.33813026  0.62471457  1
  La3+  La19  1  0.64184855  0.33127859  0.87325056  1
  La3+  La20  1  0.62520903  0.66776139  0.11935753  1
  La3+  La21  1  0.63943328  0.67229948  0.37571836  1
  La3+  La22  1  0.64719145  0.66662007  0.62868359  1
  La3+  La23  1  0.62929053  0.66395489  0.88206827  1
  La3+  La24  1  0.35480761  0.00099427  0.12075466  1
  La3+  La25  1  0.35949459  -0.00347858  0.38039551  1
  La3+  La26  1  0.35641145  0.00264708  0.63209404  1
  La3+  La27  1  0.35881263  0.00071823  0.86692821  1
  La3+  La28  1  0.35627211  0.33735056  0.11671763  1
  La3+  La29  1  0.37142495  0.32540798  0.36947981  1
  La3+  La30  1  0.35401621  0.33902476  0.62535884  1
  La3+  La31  1  0.35746864  0.33747625  0.88075707  1
  La3+  La32  1  0.35636494  0.67016106  0.12492272  1
  La3+  La33  1  0.36357364  0.66952137  0.37395948  1
  La3+  La34  1  0.36452269  0.66907303  0.62837902  1
  La3+  La35  1  0.35593600  0.67229954  0.87172290  1
  La3+  La36  1  0.86108125  0.00026573  0.13365481  1
  La3+  La37  1  0.86550551  -0.00214235  0.37549702  1
  La3+  La38  1  0.86352044  -0.00168963  0.62094020  1
  La3+  La39  1  0.85830080  0.00233385  0.87453359  1
  La3+  La40  1  0.86305691  0.32907322  0.12396849  1
  La3+  La41  1  0.85479477  0.33195308  0.37314476  1
  La3+  La42  1  0.84874146  0.32878584  0.62898147  1
  La3+  La43  1  0.85188404  0.33024223  0.87284991  1
  La3+  La44  1  0.85402463  0.66328294  0.12821789  1
  La3+  La45  1  0.86141641  0.66954526  0.37696098  1
  La3+  La46  1  0.86284040  0.66321158  0.63416823  1
  La3+  La47  1  0.85789032  0.67128739  0.87282272  1
  La3+  La48  1  0.00175896  0.17076170  0.64717726  1
  La3+  La49  1  0.49785706  0.83825806  0.13082295  1
  La3+  La50  1  0.01417109  0.16556177  0.11272355  1
  La3+  La51  1  -0.00892199  0.83490824  0.63564057  1
  La3+  La52  1  -0.00583341  0.50240958  0.12232607  1
  La3+  La53  1  0.49930933  0.16854505  0.37877894  1
  La3+  La54  1  0.49739940  0.49724916  0.10644061  1
  La3+  La55  1  0.49746068  0.50353870  0.62825529  1
  La3+  La56  1  -0.00095025  0.16610611  0.37246267  1
  La3+  La57  1  0.00338481  0.82883671  0.11815669  1
  La3+  La58  1  0.49456053  0.17259111  0.12501133  1
  La3+  La59  1  0.50106559  0.49820030  0.87604072  1
  La3+  La60  1  -0.00451973  0.18093936  0.62990404  1
  La3+  La61  1  -0.00167504  0.83854458  0.39213980  1
  La3+  La62  1  0.48861955  0.81738641  0.38145365  1
  La3+  La63  1  0.50090104  0.50074838  0.12205207  1
  La3+  La64  1  0.49279813  0.15597545  0.88740568  1
  La3+  La65  1  0.49419131  0.16963413  0.62782344  1
  La3+  La66  1  0.00042087  0.84630350  0.64758339  1
  La3+  La67  1  0.00410465  0.49140595  0.61416355  1
  La3+  La68  1  0.50884999  0.51076559  0.39731937  1
  La3+  La69  1  0.50056057  0.16675407  0.36182018  1
  La3+  La70  1  0.50328592  0.16454228  0.64397859  1
  La3+  La71  1  0.50543106  0.83559590  0.88308845  1
  La3+  La72  1  0.24601230  0.89084591  0.25573488  1
  La3+  La73  1  0.75013077  0.83707943  0.24090135  1
  La3+  La74  1  0.74821123  0.56914580  0.25675605  1
  La3+  La75  1  0.25030435  0.83911182  0.00701433  1
  La3+  La76  1  0.74866965  0.83619199  -0.05027817  1
  La3+  La77  1  0.25272305  0.20381879  0.55785289  1
  La3+  La78  1  0.24982417  0.83348514  0.73818527  1
  La3+  La79  1  0.24832843  0.21057655  0.01853458  1
  La3+  La80  1  0.25128562  0.43721128  0.46104600  1
  La3+  La81  1  0.74994083  0.16682374  0.51606320  1
  La3+  La82  1  0.74947768  0.80306989  0.51112659  1
  La3+  La83  1  0.75072334  0.43600734  0.53288136  1
  Ru4+  Ru84  1  -0.00191052  0.01371347  -0.02259077  1
  Ru4+  Ru85  1  0.00359789  0.01142833  0.25296367  1
  Ru4+  Ru86  1  0.00234924  0.00659811  0.49652682  1
  Ru4+  Ru87  1  0.00077057  0.00405766  0.76507385  1
  Ru4+  Ru88  1  -0.00277085  0.33877220  -0.02205800  1
  Ru4+  Ru89  1  -0.01353028  0.32988147  0.25054997  1
  Ru4+  Ru90  1  0.00569631  0.33666091  0.50067601  1
  Ru4+  Ru91  1  -0.00248399  0.33376841  0.77515267  1
  Ru4+  Ru92  1  -0.00709494  0.68249540  -0.01085910  1
  Ru4+  Ru93  1  -0.00370857  0.65524270  0.25397409  1
  Ru4+  Ru94  1  0.00739824  0.66755544  0.48334999  1
  Ru4+  Ru95  1  -0.00739205  0.64692670  0.76767677  1
  Ru4+  Ru96  1  0.49776268  0.00181965  0.00238812  1
  Ru4+  Ru97  1  0.49959467  -0.00299460  0.25545873  1
  Ru4+  Ru98  1  0.50580521  -0.01370496  0.48630633  1
  Ru4+  Ru99  1  0.49985113  -0.01590689  0.76712533  1
  Ru4+  Ru100  1  0.50499330  0.32747144  -0.01139308  1
  Ru4+  Ru101  1  0.49708507  0.34956360  0.26202572  1
  Ru4+  Ru102  1  0.49177563  0.34371539  0.49894046  1
  Ru4+  Ru103  1  0.51053634  0.32871824  0.75506790  1
  Ru4+  Ru104  1  0.49369717  0.67044241  -0.00524148  1
  Ru4+  Ru105  1  0.49663052  0.66140392  0.25773298  1
  Ru4+  Ru106  1  0.50587957  0.67690402  0.49928395  1
  Ru4+  Ru107  1  0.49643646  0.66666794  0.74018485  1
  Ru4+  Ru108  1  0.10979798  0.16245649  0.00110547  1
  Ru4+  Ru109  1  0.11108061  0.16896311  0.24764381  1
  Ru4+  Ru110  1  0.11359203  0.17176752  0.49330546  1
  Ru4+  Ru111  1  0.11337484  0.16481471  0.74795019  1
  Ru4+  Ru112  1  0.11400724  0.50807847  -0.00143622  1
  Ru4+  Ru113  1  0.11192778  0.49951319  0.25324487  1
  Ru4+  Ru114  1  0.10707015  0.50064308  0.50184415  1
  Ru4+  Ru115  1  0.11873786  0.50022362  0.74556874  1
  Ru4+  Ru116  1  0.10866141  0.83508822  0.00042654  1
  Ru4+  Ru117  1  0.10629491  0.82075773  0.24437983  1
  Ru4+  Ru118  1  0.11378356  0.82943285  0.49701580  1
  Ru4+  Ru119  1  0.11053658  0.83360513  0.74947324  1
  Ru4+  Ru120  1  0.61244336  0.17210352  0.00319085  1
  Ru4+  Ru121  1  0.61713297  0.16249524  0.24857047  1
  Ru4+  Ru122  1  0.61334451  0.16716993  0.49663306  1
  Ru4+  Ru123  1  0.61182313  0.16869791  0.76156174  1
  Ru4+  Ru124  1  0.61929605  0.49022199  -0.00534115  1
  Ru4+  Ru125  1  0.61242981  0.49532568  0.24964703  1
  Ru4+  Ru126  1  0.60959119  0.49932074  0.50611503  1
  Ru4+  Ru127  1  0.61171198  0.49562161  0.74921710  1
  Ru4+  Ru128  1  0.61672025  0.83991534  -0.00025931  1
  Ru4+  Ru129  1  0.61086780  0.82835436  0.24894803  1
  Ru4+  Ru130  1  0.60561379  0.83499070  0.51151855  1
  Ru4+  Ru131  1  0.61124167  0.83226718  0.74871649  1
  Ru4+  Ru132  1  0.39045405  0.16447007  -0.00004372  1
  Ru4+  Ru133  1  0.38323082  0.16102700  0.25190490  1
  Ru4+  Ru134  1  0.39287013  0.16818257  0.49625228  1
  Ru4+  Ru135  1  0.38310648  0.17176034  0.74832298  1
  Ru4+  Ru136  1  0.38306229  0.50369611  -0.00071100  1
  Ru4+  Ru137  1  0.39063094  0.49467123  0.24815477  1
  Ru4+  Ru138  1  0.39521601  0.49745524  0.50187707  1
  Ru4+  Ru139  1  0.38750692  0.49635624  0.74938685  1
  Ru4+  Ru140  1  0.39074026  0.83305017  -0.00001581  1
  Ru4+  Ru141  1  0.39189647  0.83900797  0.24669466  1
  Ru4+  Ru142  1  0.38640636  0.83520858  0.50665785  1
  Ru4+  Ru143  1  0.39272585  0.83278962  0.74632353  1
  Ru4+  Ru144  1  0.89182075  0.15703354  -0.00579736  1
  Ru4+  Ru145  1  0.88906257  0.17815035  0.25492094  1
  Ru4+  Ru146  1  0.88595893  0.16256007  0.49506531  1
  Ru4+  Ru147  1  0.89286209  0.16853491  0.75902401  1
  Ru4+  Ru148  1  0.89095504  0.49788360  -0.00039821  1
  Ru4+  Ru149  1  0.90163754  0.50045925  0.25179189  1
  Ru4+  Ru150  1  0.89094053  0.50323684  0.49783678  1
  Ru4+  Ru151  1  0.89565919  0.49245848  0.75263625  1
  Ru4+  Ru152  1  0.88912676  0.82531941  0.00145480  1
  Ru4+  Ru153  1  0.88626583  0.82669904  0.25027071  1
  Ru4+  Ru154  1  0.88360085  0.82394585  0.49275052  1
  Ru4+  Ru155  1  0.88401164  0.82925263  0.75341852  1
  Ru4+  Ru156  1  0.25046444  0.56768110  0.25862322  1
  Ru4+  Ru157  1  0.74803384  0.10343653  -0.00420158  1
  Ru4+  Ru158  1  0.24995044  0.06036327  0.49212988  1
  Ru4+  Ru159  1  0.74853578  0.71480830  0.03276028  1
  Ru4+  Ru160  1  0.25128222  0.76254022  0.49896923  1
  Ru4+  Ru161  1  0.75166616  0.38648351  0.23961992  1
  Ru4+  Ru162  1  0.25101855  0.58878260  0.49254160  1
  Ru4+  Ru163  1  0.24808357  0.24847940  0.78171923  1
  Ru4+  Ru164  1  0.75110909  0.41019892  -0.02208392  1
  Ru4+  Ru165  1  0.74984460  0.57857802  0.75142147  1
  Ru4+  Ru166  1  0.25075667  0.58292142  -0.01274216  1
  Ru4+  Ru167  1  0.75010747  0.09967665  0.75750933  1
  Ru4+  Ru168  1  0.25044382  0.73876066  0.26383860  1
  Ru4+  Ru169  1  0.24818119  0.08235456  0.25877501  1
  Ru4+  Ru170  1  0.75005639  0.91337404  0.73904886  1
  Ru4+  Ru171  1  0.25106661  0.58023017  0.75982666  1
  Ru4+  Ru172  1  0.75034617  0.59811483  0.50341254  1
  Ru4+  Ru173  1  0.74949012  0.58566901  -0.02874117  1
  Ru4+  Ru174  1  0.25000532  0.25499158  0.25170047  1
  Ru4+  Ru175  1  0.25083018  0.06424999  -0.03971404  1
  Ru4+  Ru176  1  0.75117314  0.96600420  0.02597631  1
  Ru4+  Ru177  1  0.75067885  0.94408525  0.48670820  1
  Ru4+  Ru178  1  0.24885562  0.42476156  0.25220743  1
  Ru4+  Ru179  1  0.74841412  0.24560349  0.75560143  1
  O2-  O180  1  0.17079962  0.08205591  -0.00491232  1
  O2-  O181  1  0.16223586  0.08154516  0.25367631  1
  O2-  O182  1  0.16533458  0.08019174  0.50307540  1
  O2-  O183  1  0.16275828  0.08153326  0.74503117  1
  O2-  O184  1  0.16335740  0.41882184  0.00144733  1
  O2-  O185  1  0.16459778  0.41326141  0.25357689  1
  O2-  O186  1  0.15981924  0.41097539  0.49385100  1
  O2-  O187  1  0.17143306  0.41825769  0.75406351  1
  O2-  O188  1  0.16496922  0.74928791  -0.00312617  1
  O2-  O189  1  0.16697540  0.74775184  0.25322048  1
  O2-  O190  1  0.17060735  0.74773854  0.50376335  1
  O2-  O191  1  0.16028276  0.74699037  0.74913862  1
  O2-  O192  1  0.66597640  0.08306347  0.00217632  1
  O2-  O193  1  0.66662908  0.07884003  0.25034885  1
  O2-  O194  1  0.66604060  0.08029736  0.50213777  1
  O2-  O195  1  0.66704203  0.08618554  0.75222792  1
  O2-  O196  1  0.67057973  0.40712951  0.00290614  1
  O2-  O197  1  0.66733725  0.40827135  0.24706009  1
  O2-  O198  1  0.66262902  0.40956522  0.48718789  1
  O2-  O199  1  0.66240318  0.41436855  0.75255959  1
  O2-  O200  1  0.66654039  0.74340848  0.00015165  1
  O2-  O201  1  0.67124553  0.74601002  0.24401603  1
  O2-  O202  1  0.66008003  0.75157621  0.49670925  1
  O2-  O203  1  0.65767028  0.74720831  0.75572644  1
  O2-  O204  1  0.33769704  0.25355224  -0.00198630  1
  O2-  O205  1  0.33464319  0.25454217  0.25159696  1
  O2-  O206  1  0.33660592  0.25552862  0.49427358  1
  O2-  O207  1  0.32699624  0.25351293  0.75183821  1
  O2-  O208  1  0.33255733  0.58744990  -0.00433039  1
  O2-  O209  1  0.33732124  0.58041188  0.25256380  1
  O2-  O210  1  0.33709042  0.58669795  0.49823445  1
  O2-  O211  1  0.33351830  0.58601218  0.75338100  1
  O2-  O212  1  0.33545099  0.91723943  -0.00485935  1
  O2-  O213  1  0.33603608  0.92424310  0.25761346  1
  O2-  O214  1  0.33528183  0.91449762  0.49859195  1
  O2-  O215  1  0.33424908  0.91781052  0.74804457  1
  O2-  O216  1  0.84116781  0.24425337  0.00430317  1
  O2-  O217  1  0.82978880  0.25175339  0.24726729  1
  O2-  O218  1  0.83392265  0.25138410  0.49890080  1
  O2-  O219  1  0.82871076  0.24453260  0.75289894  1
  O2-  O220  1  0.83567787  0.58332802  -0.00582072  1
  O2-  O221  1  0.84210527  0.58333488  0.26018069  1
  O2-  O222  1  0.83696888  0.58686237  0.50241263  1
  O2-  O223  1  0.83379408  0.58086706  0.75262901  1
  O2-  O224  1  0.83501795  0.92116680  0.00288766  1
  O2-  O225  1  0.83496795  0.92083772  0.25218699  1
  O2-  O226  1  0.83322136  0.91872609  0.50214388  1
  O2-  O227  1  0.83371882  0.92176786  0.74738575  1
  O2-  O228  1  0.15554155  0.25552198  -0.00000921  1
  O2-  O229  1  0.16678620  0.25445586  0.25185446  1
  O2-  O230  1  0.16953158  0.25306191  0.49437137  1
  O2-  O231  1  0.16907596  0.25180824  0.75218993  1
  O2-  O232  1  0.17129836  0.57959566  -0.00665473  1
  O2-  O233  1  0.16628591  0.58230692  0.24830504  1
  O2-  O234  1  0.16391027  0.58574526  0.49993686  1
  O2-  O235  1  0.16801303  0.58843424  0.75324123  1
  O2-  O236  1  0.16401253  0.91762091  -0.00178222  1
  O2-  O237  1  0.15008023  0.92231528  0.25147745  1
  O2-  O238  1  0.16091955  0.91642571  0.49840063  1
  O2-  O239  1  0.16487568  0.92124533  0.74653066  1
  O2-  O240  1  0.66361899  0.25424657  0.00367701  1
  O2-  O241  1  0.66638875  0.25297817  0.24644739  1
  O2-  O242  1  0.66563921  0.25429212  0.50052886  1
  O2-  O243  1  0.66738433  0.25208030  0.74890903  1
  O2-  O244  1  0.66592025  0.58454486  -0.00302352  1
  O2-  O245  1  0.65592400  0.59182919  0.24667543  1
  O2-  O246  1  0.66342569  0.58510240  0.50141626  1
  O2-  O247  1  0.66560963  0.58323487  0.75790687  1
  O2-  O248  1  0.67069739  0.92454616  0.00333986  1
  O2-  O249  1  0.66765978  0.91648032  0.25289371  1
  O2-  O250  1  0.66891859  0.91753005  0.49989659  1
  O2-  O251  1  0.66657332  0.92090599  0.75134153  1
  O2-  O252  1  0.33349745  0.08153303  -0.00672263  1
  O2-  O253  1  0.33199812  0.07877808  0.25201600  1
  O2-  O254  1  0.33377859  0.07959928  0.50303897  1
  O2-  O255  1  0.33368044  0.08548589  0.74963169  1
  O2-  O256  1  0.33273041  0.41908543  -0.00269847  1
  O2-  O257  1  0.33199767  0.41436989  0.25901659  1
  O2-  O258  1  0.34137474  0.41097523  0.49484629  1
  O2-  O259  1  0.33808265  0.41238111  0.75185803  1
  O2-  O260  1  0.33957992  0.74644405  -0.00138226  1
  O2-  O261  1  0.33331952  0.74863944  0.25005627  1
  O2-  O262  1  0.33465544  0.74815657  0.49873701  1
  O2-  O263  1  0.33470805  0.75052239  0.75095353  1
  O2-  O264  1  0.82696589  0.08792421  0.00729621  1
  O2-  O265  1  0.84432528  0.08264023  0.25396367  1
  O2-  O266  1  0.83122147  0.07708769  0.50475291  1
  O2-  O267  1  0.83457989  0.08607753  0.74923149  1
  O2-  O268  1  0.83229286  0.41253026  -0.00120055  1
  O2-  O269  1  0.83693683  0.41351555  0.24931006  1
  O2-  O270  1  0.84174903  0.41313442  0.49497220  1
  O2-  O271  1  0.82988867  0.42528707  0.75372388  1
  O2-  O272  1  0.82797837  0.74714132  -0.00103813  1
  O2-  O273  1  0.83165384  0.74643285  0.25238739  1
  O2-  O274  1  0.83544832  0.74044457  0.50249649  1
  O2-  O275  1  0.83364930  0.74940770  0.75019316  1
  O2-  O276  1  0.94340417  0.90794691  0.48440879  1
  O2-  O277  1  0.55080564  0.56249020  0.99317664  1
  O2-  O278  1  0.44894618  0.23111529  0.26160839  1
  O2-  O279  1  0.03567441  0.78732346  0.27974643  1
  O2-  O280  1  0.44879733  0.90581451  0.73276490  1
  O2-  O281  1  0.95139349  0.90560170  0.26893185  1
  O2-  O282  1  0.96060691  0.78885915  -0.04123034  1
  O2-  O283  1  0.54237883  0.56061196  0.23839214  1
  O2-  O284  1  0.94744821  0.91029029  0.52305901  1
  O2-  O285  1  0.44893225  0.08393428  0.72741259  1
  O2-  O286  1  0.96009174  0.79447230  0.97761524  1
  O2-  O287  1  0.54123254  0.09673051  0.49918241  1
  O2-  O288  1  0.94661299  0.23471603  0.19391122  1
  O2-  O289  1  0.97357285  0.14021826  0.98639235  1
  O2-  O290  1  0.54583436  0.56709244  0.74026871  1
  O2-  O291  1  0.45854486  0.10591893  0.75488630  1
  O2-  O292  1  0.46141880  0.45530072  0.29688690  1
  O2-  O293  1  0.96939949  0.42609997  0.30408752  1
  O2-  O294  1  0.97337612  0.45544406  0.74542019  1
  O2-  O295  1  0.44690347  0.74971464  0.25433604  1
  O2-  O296  1  0.05531503  0.42908025  0.02491222  1
  O2-  O297  1  0.95395149  0.56823842  0.01012552  1
  O2-  O298  1  0.04552755  0.42697524  0.98869620  1
  O2-  O299  1  0.05177230  0.44619895  0.77048801  1
  O2-  O300  1  0.54474372  0.10516515  0.00703884  1
  O2-  O301  1  0.55050382  0.76773897  0.46527507  1
  O2-  O302  1  0.55006238  0.89757538  0.74145080  1
  O2-  O303  1  0.95349201  0.90651700  0.22972325  1
  O2-  O304  1  0.45185323  0.43107775  0.00605850  1
  O2-  O305  1  0.95656960  0.22567889  0.49202013  1
  O2-  O306  1  0.46899052  0.89533240  0.27946102  1
  O2-  O307  1  0.54249530  0.23666904  0.50226573  1
  O2-  O308  1  0.45021632  0.57428095  0.98136405  1
  O2-  O309  1  0.55224521  0.23664927  0.80313180  1
  O2-  O310  1  0.04791613  0.10067453  0.51403100  1
  O2-  O311  1  0.46159220  0.89213659  0.51225152  1
  O2-  O312  1  0.97453601  0.20171984  0.79128112  1
  O2-  O313  1  0.44330525  0.75490362  0.51509366  1
  O2-  O314  1  0.05251886  0.91412011  0.51821035  1
  O2-  O315  1  0.03631532  0.76139076  0.54438583  1
  O2-  O316  1  0.54401260  0.22803763  0.23741981  1
  O2-  O317  1  0.55783411  0.90144783  0.44284241  1
  O2-  O318  1  0.54942889  0.24389893  0.27143419  1
  O2-  O319  1  0.96544127  0.56197271  0.30452121  1
  O2-  O320  1  0.55094329  0.77089618  0.01334003  1
  O2-  O321  1  0.05749006  0.75675317  0.99729168  1
  O2-  O322  1  0.94748581  0.58833857  0.68292415  1
  O2-  O323  1  0.94774939  0.90507508  0.74904413  1
  O2-  O324  1  0.93784093  0.39976828  0.03578643  1
  O2-  O325  1  0.94523872  0.24361888  0.19029284  1
  O2-  O326  1  0.55806331  0.41048351  0.53621041  1
  O2-  O327  1  0.44038963  0.74893893  0.25577987  1
  O2-  O328  1  0.06166844  0.26673153  0.21983438  1
  O2-  O329  1  0.56002870  0.73727837  0.01459215  1
  O2-  O330  1  0.93324742  0.60361793  0.84123212  1
  O2-  O331  1  0.91270461  0.42258681  0.84260741  1
  O2-  O332  1  0.56397807  0.59214279  0.98516769  1
  O2-  O333  1  0.90866718  0.41993640  0.66428730  1
  O2-  O334  1  0.94195082  0.58347023  0.67979881  1
  O2-  O335  1  0.43560986  0.26674228  0.71510013  1
  O2-  O336  1  0.06651051  0.60100997  0.98605519  1
  O2-  O337  1  0.56039118  0.91795708  0.97444849  1
  O2-  O338  1  0.56785482  0.71016598  0.58144787  1
  O2-  O339  1  0.42030374  0.92966203  0.18063799  1
  O2-  O340  1  0.56389542  0.95320230  0.57514074  1
  O2-  O341  1  0.56740380  0.40453442  0.27378568  1
  O2-  O342  1  0.56605437  0.91812114  0.22063404  1
  O2-  O343  1  0.55426438  0.24282077  0.81047056  1
  O2-  O344  1  0.93623512  0.60807690  0.18261509  1
  O2-  O345  1  0.43525751  0.58410544  0.73169179  1
  O2-  O346  1  0.91542165  0.03785077  0.98781281  1
  O2-  O347  1  0.08329019  0.73637734  0.43426486  1
  O2-  O348  1  0.55830821  0.28182380  0.65580500  1
  O2-  O349  1  0.94108371  0.73909555  0.71903124  1
  O2-  O350  1  0.93656255  0.27517332  0.34272010  1
  O2-  O351  1  0.93790995  0.07303353  0.45883542  1
  O2-  O352  1  0.43973846  0.74140535  0.73426203  1
  O2-  O353  1  0.43259645  0.96137221  0.54515073  1
  O2-  O354  1  0.57150455  0.75667759  0.31770512  1
  O2-  O355  1  0.43194811  0.38555299  0.18683448  1
  O2-  O356  1  0.44629290  0.25506190  0.29030781  1
  O2-  O357  1  0.06577743  0.06824504  0.03607590  1
  O2-  O358  1  0.44256781  0.41459830  0.03801992  1
  O2-  O359  1  0.07601671  0.38612342  0.72014103  1
  O2-  O360  1  0.93768801  0.73480110  0.46211355  1
  O2-  O361  1  0.06178544  0.26308819  0.45034161  1
  O2-  O362  1  0.56395054  0.40594886  0.96074489  1
  O2-  O363  1  0.44315271  0.91580073  0.02151909  1
  O2-  O364  1  0.56796818  0.75870502  0.17139320  1
  O2-  O365  1  0.93102319  0.70273103  0.07420435  1
  O2-  O366  1  0.06561444  0.70958413  0.17889797  1
  O2-  O367  1  0.06516703  0.59575706  0.76262052  1
  O2-  O368  1  0.93071267  0.40154631  0.18499281  1
  O2-  O369  1  0.44277560  0.25264030  0.98433915  1
  O2-  O370  1  0.05490527  0.92358816  0.03670702  1
  O2-  O371  1  0.91903749  0.25552637  0.68732892  1
  O2-  O372  1  0.24928826  0.00737766  0.60383464  1
  O2-  O373  1  0.25166422  0.67235722  0.04474641  1
  O2-  O374  1  0.24800408  0.00278983  0.37830203  1
  O2-  O375  1  0.24976367  0.33995463  0.17827418  1
  O2-  O376  1  0.25076803  0.65492757  0.18291744  1
  O2-  O377  1  0.74825857  0.65184117  0.86396238  1
  O2-  O378  1  0.24908297  0.33533652  0.06835223  1
  O2-  O379  1  0.24941144  0.00006159  0.86378133  1
  O2-  O380  1  0.25220252  0.33139211  0.59784535  1
  O2-  O381  1  0.74744997  0.32109804  0.64882632  1
  O2-  O382  1  0.75141038  0.00115269  0.14120653  1
  O2-  O383  1  0.75154492  0.67048144  0.39442757  1
  O2-  O384  1  0.25028533  0.67312555  0.57296793  1
  O2-  O385  1  0.75108197  0.01038305  0.65675923  1
  O2-  O386  1  0.24807088  0.00226132  0.17955227  1
  O2-  O387  1  0.25076680  0.64902618  0.86920037  1
  O2-  O388  1  0.25082562  -0.00943026  0.04838651  1
  O2-  O389  1  0.24947017  0.66817675  0.39148071  1
  O2-  O390  1  0.75058373  -0.00759377  0.89454792  1
  O2-  O391  1  0.25127497  0.31987535  0.87906012  1
  O2-  O392  1  0.74963142  0.67166664  0.70504589  1
  O2-  O393  1  0.74738513  0.32574714  0.84980076  1
  O2-  O394  1  0.24988702  0.67314343  0.70491247  1
  O2-  O395  1  0.74790728  0.68465217  0.57427189  1
  O2-  O396  1  0.74844485  0.52416347  0.63905208  1
  O2-  O397  1  0.24984961  0.16162288  0.16261906  1
  O2-  O398  1  0.74958208  0.15673557  0.89105475  1
  O2-  O399  1  0.24915756  0.86071624  0.43672433  1
  O2-  O400  1  0.25137848  0.80609804  0.36424522  1
  O2-  O401  1  0.75036067  0.83154719  0.81447689  1
  O2-  O402  1  0.75069512  0.86078135  0.38097048  1
  O2-  O403  1  0.75138328  0.46417121  0.16246607  1
  O2-  O404  1  0.25024328  0.80038640  0.14871516  1
  O2-  O405  1  0.74932399  0.49141454  0.89258708  1
  O2-  O406  1  0.24924700  0.15666557  0.43098084  1
  O2-  O407  1  0.74870082  0.16725569  0.38986775  1
  O2-  O408  1  0.24962137  0.15994230  0.87843227  1
  O2-  O409  1  0.74927295  0.84281447  0.65211439  1
  O2-  O410  1  0.25124685  0.49154811  0.70684121  1
  O2-  O411  1  0.75033395  0.50317214  0.04606928  1
  O2-  O412  1  0.24975099  0.82896460  0.59354240  1
  O2-  O413  1  0.75086316  0.44301707  0.33626166  1
  O2-  O414  1  0.75033753  0.82308505  0.10002208  1
  O2-  O415  1  0.74948397  0.52578957  0.41833425  1
  O2-  O416  1  0.25028165  0.50329086  0.15258742  1
  O2-  O417  1  0.25010919  0.51121482  0.57495572  1
  O2-  O418  1  0.25037649  0.17315097  0.32250214  1
  O2-  O419  1  0.24967082  0.82904288  0.87275402  1
  O2-  O420  1  0.51857782  0.68105078  0.86912593  1
  O2-  O421  1  0.02256217  0.65038442  0.36808171  1
  O2-  O422  1  0.05001198  0.00366938  0.87201011  1
  O2-  O423  1  0.97476869  0.01327995  0.62826715  1
  O2-  O424  1  0.45533193  0.64895766  0.38517770  1
  O2-  O425  1  0.53836985  0.00043495  0.12485162  1
  O2-  O426  1  0.95690770  0.33950506  0.58550892  1
  O2-  O427  1  0.04945704  0.32307801  0.87259929  1
  O2-  O428  1  0.46356495  0.03754654  0.11683700  1
  O2-  O429  1  0.03199670  0.00226074  0.37421553  1
  O2-  O430  1  0.54896524  0.63325100  0.39769454  1
  O2-  O431  1  0.47303384  0.35036499  0.86664462  1
  O2-  O432  1  0.54844554  0.02055019  0.36363474  1
  O2-  O433  1  0.54784155  0.02017707  0.85771417  1
  O2-  O434  1  0.45360823  -0.00323948  0.88385886  1
  O2-  O435  1  0.47752818  0.64804768  0.61300869  1
  O2-  O436  1  0.53129892  0.32965032  0.11267821  1
  O2-  O437  1  0.02329950  0.68340174  0.87099335  1
  O2-  O438  1  0.45402074  0.01725963  0.37937830  1
  O2-  O439  1  0.05168980  0.30590018  0.61021547  1
  O2-  O440  1  0.50968330  0.64537999  0.11787139  1
  O2-  O441  1  0.95415395  0.30997551  0.89073970  1
  O2-  O442  1  0.52466018  0.33047844  0.38406628  1
  O2-  O443  1  0.95692199  -0.00603918  0.86420405  1
