# generated using pymatgen
data_La7(Ru4O11)2
_symmetry_space_group_name_H-M   'P 1'
_cell_length_a   23.99390538
_cell_length_b   16.83312279
_cell_length_c   15.43129819
_cell_angle_alpha   90.00179946
_cell_angle_beta   90.00040144
_cell_angle_gamma   90.00176517
_symmetry_Int_Tables_number   1
_chemical_formula_structural   La7(Ru4O11)2
_chemical_formula_sum   'La84 Ru96 O264'
_cell_volume   6232.58336895
_cell_formula_units_Z   12
loop_
 _symmetry_equiv_pos_site_id
 _symmetry_equiv_pos_as_xyz
  1  'x, y, z'
loop_
 _atom_type_symbol
 _atom_type_oxidation_number
  La3+  3.0
  Ru4+  4.0
  O2-  -2.0
loop_
 _atom_site_type_symbol
 _atom_site_label
 _atom_site_symmetry_multiplicity
 _atom_site_fract_x
 _atom_site_fract_y
 _atom_site_fract_z
 _atom_site_occupancy
  La3+  La0  1  0.14988012  -0.00001146  0.12917908  1
  La3+  La1  1  0.14991463  -0.00438707  0.37081050  1
  La3+  La2  1  0.14153024  0.00133392  0.62525189  1
  La3+  La3  1  0.14156104  -0.00338213  0.87045657  1
  La3+  La4  1  0.13443484  0.33369871  0.12769550  1
  La3+  La5  1  0.14283993  0.32582788  0.38046830  1
  La3+  La6  1  0.12886562  0.33223320  0.62610436  1
  La3+  La7  1  0.13740168  0.33132736  0.87384587  1
  La3+  La8  1  0.13872330  0.66665085  0.12886359  1
  La3+  La9  1  0.14021770  0.67165381  0.37144630  1
  La3+  La10  1  0.13385535  0.66818363  0.62736222  1
  La3+  La11  1  0.13560027  0.66484528  0.87233380  1
  La3+  La12  1  0.63897403  0.00353438  0.12698367  1
  La3+  La13  1  0.64980042  -0.00035079  0.37737324  1
  La3+  La14  1  0.63993403  -0.00018948  0.62257954  1
  La3+  La15  1  0.64018776  -0.00651038  0.86855797  1
  La3+  La16  1  0.64018336  0.33647155  0.12452729  1
  La3+  La17  1  0.63282026  0.33043031  0.37534596  1
  La3+  La18  1  0.65254397  0.33645181  0.61894947  1
  La3+  La19  1  0.64512461  0.33370742  0.87127561  1
  La3+  La20  1  0.63238666  0.66909405  0.12549486  1
  La3+  La21  1  0.64031355  0.66799015  0.38506775  1
  La3+  La22  1  0.65219666  0.67186271  0.62876828  1
  La3+  La23  1  0.63913225  0.66898776  0.87396247  1
  La3+  La24  1  0.35650117  -0.00269879  0.13042077  1
  La3+  La25  1  0.35366941  -0.00059232  0.36927008  1
  La3+  La26  1  0.35985584  0.00026810  0.62403211  1
  La3+  La27  1  0.36597783  -0.00003000  0.87781622  1
  La3+  La28  1  0.36417326  0.33252234  0.12264830  1
  La3+  La29  1  0.36448179  0.33376350  0.37638852  1
  La3+  La30  1  0.36990805  0.32943337  0.62614480  1
  La3+  La31  1  0.35653698  0.33224764  0.86896115  1
  La3+  La32  1  0.35842787  0.66718494  0.12531777  1
  La3+  La33  1  0.36469981  0.67222812  0.37289156  1
  La3+  La34  1  0.36521591  0.67378184  0.62293027  1
  La3+  La35  1  0.35288027  0.66172007  0.87160822  1
  La3+  La36  1  0.85586714  0.00543464  0.12697439  1
  La3+  La37  1  0.85200268  0.00148000  0.37252915  1
  La3+  La38  1  0.85806997  0.00022295  0.62212196  1
  La3+  La39  1  0.86221311  -0.00106144  0.87506097  1
  La3+  La40  1  0.86706081  0.33849989  0.13329776  1
  La3+  La41  1  0.85289136  0.32272244  0.38035711  1
  La3+  La42  1  0.85152518  0.32804600  0.62633943  1
  La3+  La43  1  0.86053174  0.33228050  0.87316502  1
  La3+  La44  1  0.86420371  0.66542421  0.12679660  1
  La3+  La45  1  0.85816379  0.66917404  0.37570782  1
  La3+  La46  1  0.85379010  0.66968108  0.62674122  1
  La3+  La47  1  0.86029820  0.66734151  0.87361832  1
  La3+  La48  1  -0.00407380  0.83833517  0.62167357  1
  La3+  La49  1  0.49741428  0.16647019  0.61670597  1
  La3+  La50  1  0.00166992  0.16488046  0.86207204  1
  La3+  La51  1  -0.00479342  0.17813603  0.38192129  1
  La3+  La52  1  -0.00046813  0.83346702  0.64193976  1
  La3+  La53  1  0.00809935  0.82170643  0.38794012  1
  La3+  La54  1  0.00181690  0.49953338  0.86117569  1
  La3+  La55  1  0.49243230  0.16614452  0.14831763  1
  La3+  La56  1  0.50188486  0.50039518  0.12214933  1
  La3+  La57  1  0.49777892  0.49977681  0.87491450  1
  La3+  La58  1  0.00144254  0.49290137  0.62669254  1
  La3+  La59  1  0.49550989  0.83188847  0.64219603  1
  La3+  La60  1  0.00768522  0.50588167  0.36499219  1
  La3+  La61  1  0.00544304  0.50353233  0.34898938  1
  La3+  La62  1  0.00211717  0.83932042  0.13191564  1
  La3+  La63  1  0.49920898  0.49378209  0.61767271  1
  La3+  La64  1  0.50167670  0.83045348  0.62193754  1
  La3+  La65  1  -0.00770127  0.50894634  0.10396853  1
  La3+  La66  1  0.49259030  0.16719306  0.13171384  1
  La3+  La67  1  0.00408634  0.16187563  0.12465587  1
  La3+  La68  1  0.50292317  0.83804540  0.11704061  1
  La3+  La69  1  0.50415069  0.83104855  0.37614250  1
  La3+  La70  1  -0.00157081  0.83192733  0.11166206  1
  La3+  La71  1  -0.00450007  0.16935758  0.40240651  1
  La3+  La72  1  0.25175075  0.50103460  0.75646907  1
  La3+  La73  1  0.74862881  0.88298433  0.23189135  1
  La3+  La74  1  0.24933583  0.56812059  0.45856729  1
  La3+  La75  1  0.75089463  0.83829733  0.49538735  1
  La3+  La76  1  0.75186100  0.12381113  0.00033898  1
  La3+  La77  1  0.74896085  0.50188611  0.24580352  1
  La3+  La78  1  0.75193599  0.79000072  -0.03767775  1
  La3+  La79  1  0.25165098  0.84585176  0.28169498  1
  La3+  La80  1  0.75063102  0.46375304  -0.00933416  1
  La3+  La81  1  0.24933638  0.54462281  0.08387311  1
  La3+  La82  1  0.24946345  0.83511348  0.71568999  1
  La3+  La83  1  0.75011260  0.45474422  0.48641014  1
  Ru4+  Ru84  1  -0.00760116  -0.00439793  -0.01194654  1
  Ru4+  Ru85  1  0.00106168  -0.00270523  0.25483835  1
  Ru4+  Ru86  1  0.00611861  0.00912932  0.50422112  1
  Ru4+  Ru87  1  0.00799874  -0.00180706  0.75287750  1
  Ru4+  Ru88  1  -0.00299918  0.33093581  -0.00253195  1
  Ru4+  Ru89  1  0.00179022  0.34158551  0.24312927  1
  Ru4+  Ru90  1  -0.00241165  0.33818074  0.50420924  1
  Ru4+  Ru91  1  -0.01038865  0.32646436  0.74291382  1
  Ru4+  Ru92  1  -0.00012099  0.67036081  -0.01063053  1
  Ru4+  Ru93  1  -0.00126297  0.66530362  0.25054975  1
  Ru4+  Ru94  1  -0.00074174  0.67258354  0.49004701  1
  Ru4+  Ru95  1  -0.00716208  0.67513441  0.75397566  1
  Ru4+  Ru96  1  0.49663022  0.00500992  -0.00192421  1
  Ru4+  Ru97  1  0.50501068  0.00754456  0.23955293  1
  Ru4+  Ru98  1  0.50496252  0.00694540  0.50079463  1
  Ru4+  Ru99  1  0.49847452  0.00710685  0.75814869  1
  Ru4+  Ru100  1  0.49310651  0.33183166  -0.01208214  1
  Ru4+  Ru101  1  0.49721220  0.32820935  0.25908086  1
  Ru4+  Ru102  1  0.49680414  0.33149470  0.49876114  1
  Ru4+  Ru103  1  0.51005564  0.32834997  0.76119296  1
  Ru4+  Ru104  1  0.48600835  0.68644409  -0.00015549  1
  Ru4+  Ru105  1  0.49935401  0.66990534  0.24672506  1
  Ru4+  Ru106  1  0.50597101  0.66223773  0.50740314  1
  Ru4+  Ru107  1  0.49858621  0.66278081  0.75136843  1
  Ru4+  Ru108  1  0.11185971  0.16514785  0.00072569  1
  Ru4+  Ru109  1  0.11205288  0.15949076  0.24156112  1
  Ru4+  Ru110  1  0.10887794  0.15855821  0.50727112  1
  Ru4+  Ru111  1  0.10668649  0.15302421  0.74751839  1
  Ru4+  Ru112  1  0.11102916  0.49975265  0.00110975  1
  Ru4+  Ru113  1  0.11495087  0.49970233  0.24775170  1
  Ru4+  Ru114  1  0.10778381  0.50001870  0.49737877  1
  Ru4+  Ru115  1  0.11861579  0.49786543  0.74598254  1
  Ru4+  Ru116  1  0.11240130  0.82897726  -0.00510860  1
  Ru4+  Ru117  1  0.11493464  0.83470613  0.25389370  1
  Ru4+  Ru118  1  0.11484153  0.83318396  0.49961023  1
  Ru4+  Ru119  1  0.10645427  0.84266490  0.75336616  1
  Ru4+  Ru120  1  0.60921597  0.15836105  -0.00620899  1
  Ru4+  Ru121  1  0.61382429  0.16206650  0.25682974  1
  Ru4+  Ru122  1  0.61173568  0.17036963  0.49724949  1
  Ru4+  Ru123  1  0.61102309  0.18500521  0.75318899  1
  Ru4+  Ru124  1  0.60753115  0.49937714  0.00229992  1
  Ru4+  Ru125  1  0.61148794  0.50267292  0.25350868  1
  Ru4+  Ru126  1  0.60805221  0.50050723  0.50062203  1
  Ru4+  Ru127  1  0.61063269  0.49945054  0.75330691  1
  Ru4+  Ru128  1  0.60986024  0.83111515  0.00107535  1
  Ru4+  Ru129  1  0.61177331  0.83357933  0.25037782  1
  Ru4+  Ru130  1  0.61160480  0.83311192  0.49507655  1
  Ru4+  Ru131  1  0.61563523  0.82467084  0.75396889  1
  Ru4+  Ru132  1  0.38952483  0.16859820  -0.00853607  1
  Ru4+  Ru133  1  0.38578361  0.15970748  0.25589710  1
  Ru4+  Ru134  1  0.39174355  0.16664486  0.49779318  1
  Ru4+  Ru135  1  0.38362205  0.15823438  0.75079433  1
  Ru4+  Ru136  1  0.38808015  0.49919071  0.00433488  1
  Ru4+  Ru137  1  0.38615058  0.50273031  0.24828522  1
  Ru4+  Ru138  1  0.38804161  0.49782438  0.50045120  1
  Ru4+  Ru139  1  0.39153361  0.49886761  0.74859363  1
  Ru4+  Ru140  1  0.39977780  0.82419859  -0.00781538  1
  Ru4+  Ru141  1  0.38848110  0.82604498  0.25017177  1
  Ru4+  Ru142  1  0.38067461  0.83156559  0.49942207  1
  Ru4+  Ru143  1  0.38659143  0.83536723  0.74959032  1
  Ru4+  Ru144  1  0.89124212  0.16555086  0.00018189  1
  Ru4+  Ru145  1  0.88331150  0.16628419  0.24586059  1
  Ru4+  Ru146  1  0.88544105  0.16855130  0.50328888  1
  Ru4+  Ru147  1  0.88736175  0.16860499  0.75097347  1
  Ru4+  Ru148  1  0.88911849  0.50072532  0.00145030  1
  Ru4+  Ru149  1  0.88519786  0.49703289  0.25289941  1
  Ru4+  Ru150  1  0.89289304  0.49336228  0.50219583  1
  Ru4+  Ru151  1  0.88722561  0.49914192  0.74838962  1
  Ru4+  Ru152  1  0.89344160  0.84058114  -0.00279123  1
  Ru4+  Ru153  1  0.89114238  0.84125044  0.25073214  1
  Ru4+  Ru154  1  0.89406225  0.83299205  0.50273582  1
  Ru4+  Ru155  1  0.88918484  0.82826604  0.74890693  1
  Ru4+  Ru156  1  0.25040840  0.23353350  0.51131189  1
  Ru4+  Ru157  1  0.75029582  0.26936247  -0.00339332  1
  Ru4+  Ru158  1  0.75005922  0.72821730  0.26482805  1
  Ru4+  Ru159  1  0.74908734  0.60863705  0.00960462  1
  Ru4+  Ru160  1  0.24971164  0.38901114  0.03455091  1
  Ru4+  Ru161  1  0.74847242  0.23817519  0.23830649  1
  Ru4+  Ru162  1  0.74923635  0.42580107  0.74961937  1
  Ru4+  Ru163  1  0.25130915  0.92908637  -0.00849983  1
  Ru4+  Ru164  1  0.75021635  0.09421643  0.49619355  1
  Ru4+  Ru165  1  0.74929165  0.10460594  0.75862346  1
  Ru4+  Ru166  1  0.24923462  0.36891074  0.69486216  1
  Ru4+  Ru167  1  0.74898410  0.93260817  0.00604566  1
  Ru4+  Ru168  1  0.24964955  0.23797966  0.00185735  1
  Ru4+  Ru169  1  0.25002182  0.73766603  -0.00298466  1
  Ru4+  Ru170  1  0.25079050  0.08846738  0.50013960  1
  Ru4+  Ru171  1  0.75079680  0.90013286  0.73834412  1
  Ru4+  Ru172  1  0.24883996  0.22713801  0.74316160  1
  Ru4+  Ru173  1  0.25036554  0.24122782  0.24295141  1
  Ru4+  Ru174  1  0.74936723  0.56721689  0.74169454  1
  Ru4+  Ru175  1  0.25025905  0.08666762  -0.01104203  1
  Ru4+  Ru176  1  0.25157866  0.43353766  0.24400296  1
  Ru4+  Ru177  1  0.25052442  0.65341904  0.73536413  1
  Ru4+  Ru178  1  0.24911567  0.38530671  0.51238071  1
  Ru4+  Ru179  1  0.75130530  0.59760040  0.50261775  1
  O2-  O180  1  0.16662091  0.08306678  -0.00234813  1
  O2-  O181  1  0.16742616  0.08631827  0.25352387  1
  O2-  O182  1  0.17116918  0.08239845  0.50502340  1
  O2-  O183  1  0.16793562  0.08371907  0.74424966  1
  O2-  O184  1  0.16370455  0.41020153  0.00460986  1
  O2-  O185  1  0.17208228  0.41655614  0.23808001  1
  O2-  O186  1  0.16351608  0.40984563  0.50396049  1
  O2-  O187  1  0.16615982  0.40876505  0.74593970  1
  O2-  O188  1  0.16871311  0.74329476  -0.00125530  1
  O2-  O189  1  0.16783405  0.74570292  0.25040204  1
  O2-  O190  1  0.16116648  0.74295009  0.50306804  1
  O2-  O191  1  0.16248980  0.74817916  0.74602018  1
  O2-  O192  1  0.66528037  0.08006973  0.00596017  1
  O2-  O193  1  0.66758963  0.08575244  0.24498774  1
  O2-  O194  1  0.66775726  0.08471764  0.50197884  1
  O2-  O195  1  0.66205777  0.08607794  0.75169364  1
  O2-  O196  1  0.66471522  0.41327488  0.00180193  1
  O2-  O197  1  0.66919213  0.41371454  0.25092666  1
  O2-  O198  1  0.66252120  0.41523119  0.48604529  1
  O2-  O199  1  0.66699133  0.41741010  0.75050313  1
  O2-  O200  1  0.66505737  0.74332563  0.00191098  1
  O2-  O201  1  0.66834256  0.74434112  0.24871007  1
  O2-  O202  1  0.66794029  0.74982548  0.50082174  1
  O2-  O203  1  0.66677163  0.74601841  0.75867566  1
  O2-  O204  1  0.33323054  0.25028614  0.00551191  1
  O2-  O205  1  0.33480975  0.25285069  0.24880072  1
  O2-  O206  1  0.33454021  0.25113957  0.50253510  1
  O2-  O207  1  0.33051511  0.24707837  0.74479496  1
  O2-  O208  1  0.33190476  0.58295554  -0.00026969  1
  O2-  O209  1  0.33419474  0.58647002  0.25530240  1
  O2-  O210  1  0.34090361  0.59020598  0.49911067  1
  O2-  O211  1  0.33485645  0.58656774  0.74197226  1
  O2-  O212  1  0.33571943  0.91802476  -0.00226366  1
  O2-  O213  1  0.33753852  0.91635894  0.25149241  1
  O2-  O214  1  0.33900408  0.92225706  0.50253470  1
  O2-  O215  1  0.33523553  0.92191752  0.74878831  1
  O2-  O216  1  0.83351279  0.25522498  0.00096608  1
  O2-  O217  1  0.82817062  0.25391018  0.24571374  1
  O2-  O218  1  0.83545126  0.24977451  0.50280474  1
  O2-  O219  1  0.83854013  0.25165208  0.75404735  1
  O2-  O220  1  0.83009930  0.58532574  0.00306200  1
  O2-  O221  1  0.82690171  0.58418275  0.24891652  1
  O2-  O222  1  0.83670554  0.58299741  0.50023807  1
  O2-  O223  1  0.83181989  0.58351268  0.75281612  1
  O2-  O224  1  0.83102632  0.92024743  -0.00100008  1
  O2-  O225  1  0.83661619  0.92250659  0.25410914  1
  O2-  O226  1  0.83914464  0.91987631  0.49882974  1
  O2-  O227  1  0.83440403  0.91868599  0.74825586  1
  O2-  O228  1  0.16596361  0.25145375  0.00070038  1
  O2-  O229  1  0.16457983  0.25059490  0.24660629  1
  O2-  O230  1  0.16619826  0.24561783  0.50878176  1
  O2-  O231  1  0.16134487  0.24701956  0.74660445  1
  O2-  O232  1  0.16616590  0.58578635  0.00020836  1
  O2-  O233  1  0.17005124  0.58300743  0.25167394  1
  O2-  O234  1  0.15972659  0.59011841  0.50536356  1
  O2-  O235  1  0.16925509  0.58899105  0.74527666  1
  O2-  O236  1  0.16407075  0.91829351  -0.00210454  1
  O2-  O237  1  0.16781624  0.91620178  0.24794280  1
  O2-  O238  1  0.16037392  0.91958358  0.50359123  1
  O2-  O239  1  0.16946823  0.92212608  0.74611488  1
  O2-  O240  1  0.66480759  0.24989315  0.00079720  1
  O2-  O241  1  0.66753507  0.25226973  0.25182658  1
  O2-  O242  1  0.66435912  0.25292527  0.49162632  1
  O2-  O243  1  0.67328703  0.24955544  0.75240790  1
  O2-  O244  1  0.66528163  0.58630747  0.00049412  1
  O2-  O245  1  0.67100076  0.58509453  0.24630026  1
  O2-  O246  1  0.66822147  0.58297164  0.49598727  1
  O2-  O247  1  0.66766166  0.58366855  0.75519471  1
  O2-  O248  1  0.66449777  0.91820931  -0.00076760  1
  O2-  O249  1  0.65923234  0.92299595  0.24886964  1
  O2-  O250  1  0.66568890  0.91709602  0.50467648  1
  O2-  O251  1  0.66692677  0.91423872  0.74497837  1
  O2-  O252  1  0.33367146  0.08441039  -0.00220633  1
  O2-  O253  1  0.33217429  0.08443169  0.25008798  1
  O2-  O254  1  0.33372065  0.08154053  0.50201429  1
  O2-  O255  1  0.33448585  0.07739638  0.74715211  1
  O2-  O256  1  0.33424531  0.41113110  0.00377149  1
  O2-  O257  1  0.33573991  0.41391566  0.24751410  1
  O2-  O258  1  0.33212686  0.40938701  0.49871087  1
  O2-  O259  1  0.33468618  0.41181233  0.74311403  1
  O2-  O260  1  0.33197306  0.74718695  0.00215330  1
  O2-  O261  1  0.33296707  0.74593737  0.25485317  1
  O2-  O262  1  0.33335083  0.74273344  0.49608999  1
  O2-  O263  1  0.32746178  0.74298276  0.74541719  1
  O2-  O264  1  0.84276525  0.07747653  -0.00368035  1
  O2-  O265  1  0.83310754  0.08385326  0.24949352  1
  O2-  O266  1  0.83546800  0.08053563  0.50017348  1
  O2-  O267  1  0.83434914  0.08167879  0.75224020  1
  O2-  O268  1  0.83576270  0.41214505  0.00153579  1
  O2-  O269  1  0.82276197  0.41777693  0.24370190  1
  O2-  O270  1  0.83481424  0.41245828  0.49372740  1
  O2-  O271  1  0.83103150  0.41596533  0.75330096  1
  O2-  O272  1  0.84311794  0.74620552  0.00186503  1
  O2-  O273  1  0.83332694  0.74840269  0.24848183  1
  O2-  O274  1  0.83740696  0.74654688  0.50084253  1
  O2-  O275  1  0.83749021  0.74775943  0.75116484  1
  O2-  O276  1  0.45902985  0.90900154  0.26714069  1
  O2-  O277  1  0.55327870  0.24220667  0.26486710  1
  O2-  O278  1  0.54720096  0.42235105  0.24712174  1
  O2-  O279  1  0.45426753  0.56682666  0.74013136  1
  O2-  O280  1  0.54851454  0.76926736  0.24361870  1
  O2-  O281  1  0.96966944  0.44384444  0.46700049  1
  O2-  O282  1  0.54729016  0.42457884  0.24616774  1
  O2-  O283  1  0.44295448  0.24550317  0.24225745  1
  O2-  O284  1  0.95309762  0.57498665  0.73012859  1
  O2-  O285  1  0.45832671  0.23429225  0.03240406  1
  O2-  O286  1  0.44956459  0.08963723  0.50197756  1
  O2-  O287  1  0.45826471  0.42464018  0.74529267  1
  O2-  O288  1  0.45082047  0.08523250  0.49957983  1
  O2-  O289  1  0.05539636  0.42877701  0.73847760  1
  O2-  O290  1  0.03036217  0.11738224  0.54851837  1
  O2-  O291  1  0.04712921  0.24273769  0.24554668  1
  O2-  O292  1  0.95518376  0.22854548  0.00501302  1
  O2-  O293  1  0.96269352  0.44781339  0.22917989  1
  O2-  O294  1  0.53465496  0.16378884  0.74526687  1
  O2-  O295  1  0.53655042  0.11720394  0.02865812  1
  O2-  O296  1  0.54194299  0.90485209  0.75890443  1
  O2-  O297  1  0.94747914  0.42309309  0.73172974  1
  O2-  O298  1  0.44840792  0.90383202  0.23186348  1
  O2-  O299  1  0.03325468  0.12422991  0.70835217  1
  O2-  O300  1  0.53500299  0.53944265  0.48194974  1
  O2-  O301  1  0.96029282  0.88957365  0.30288930  1
  O2-  O302  1  0.04662710  0.42308121  0.00596920  1
  O2-  O303  1  0.96054659  0.45647155  0.23562240  1
  O2-  O304  1  0.54770845  0.10198137  0.22442513  1
  O2-  O305  1  0.95552118  0.57341053  0.49788309  1
  O2-  O306  1  0.95582421  0.89733227  0.75521208  1
  O2-  O307  1  0.44276103  0.23548361  0.73308735  1
  O2-  O308  1  0.04669150  0.10472659  0.29488584  1
  O2-  O309  1  0.04982656  0.57132678  0.00110985  1
  O2-  O310  1  0.94691645  0.75719555  0.22874905  1
  O2-  O311  1  0.05509456  0.43982780  0.18739123  1
  O2-  O312  1  0.04945955  0.76326593  0.24980818  1
  O2-  O313  1  0.48401551  0.80681834  0.97854137  1
  O2-  O314  1  0.94869579  0.09394254  0.25553932  1
  O2-  O315  1  0.53086674  0.56292961  0.26091412  1
  O2-  O316  1  0.44852205  0.24761192  0.76866561  1
  O2-  O317  1  0.44489798  0.24668005  0.48771056  1
  O2-  O318  1  0.05350221  0.57144755  0.75701085  1
  O2-  O319  1  0.54611892  0.75996905  0.75990563  1
  O2-  O320  1  0.55717905  0.90330396  0.72741732  1
  O2-  O321  1  0.54931174  0.23907827  0.50595176  1
  O2-  O322  1  0.53525319  0.56636334  0.45608092  1
  O2-  O323  1  0.45037916  0.75642463  0.24500350  1
  O2-  O324  1  0.08910381  0.41055247  0.31103914  1
  O2-  O325  1  0.05540662  0.07126622  0.01960797  1
  O2-  O326  1  0.58103911  0.05754918  0.94126400  1
  O2-  O327  1  0.93394607  0.60112492  0.02779140  1
  O2-  O328  1  0.43221783  0.73960369  0.08517894  1
  O2-  O329  1  0.06313986  0.91425836  0.82416540  1
  O2-  O330  1  0.93692222  0.41139739  0.97533821  1
  O2-  O331  1  0.43682364  0.92937186  0.97045742  1
  O2-  O332  1  0.44197937  0.74610060  0.52119728  1
  O2-  O333  1  0.06460086  0.25767873  0.48829195  1
  O2-  O334  1  0.43909429  0.07068740  0.28724605  1
  O2-  O335  1  0.94241094  0.41818835  0.73330997  1
  O2-  O336  1  0.56727747  0.03474096  0.32526891  1
  O2-  O337  1  0.43471851  0.74410973  0.72437576  1
  O2-  O338  1  0.90521073  0.39363258  0.31327893  1
  O2-  O339  1  0.57568859  0.62944485  0.57158211  1
  O2-  O340  1  0.93325787  0.91095765  0.92515740  1
  O2-  O341  1  0.56851440  0.07597870  0.52879971  1
  O2-  O342  1  0.06933664  0.75847617  0.93041396  1
  O2-  O343  1  0.57232900  0.61747228  0.28742373  1
  O2-  O344  1  0.06122820  0.39892115  0.71825004  1
  O2-  O345  1  0.08285041  0.06351053  0.44637336  1
  O2-  O346  1  0.93653978  0.25361974  0.26724979  1
  O2-  O347  1  0.56440613  0.40451677  0.51967262  1
  O2-  O348  1  0.41901406  0.72602177  0.93505820  1
  O2-  O349  1  0.93130800  0.95158805  0.19677676  1
  O2-  O350  1  0.93369932  0.59706832  0.21870251  1
  O2-  O351  1  0.07241863  0.06781954  0.82170259  1
  O2-  O352  1  0.58389594  0.27214846  0.68198424  1
  O2-  O353  1  0.55858424  0.40331812  0.03732381  1
  O2-  O354  1  0.06380065  0.59194641  0.23087427  1
  O2-  O355  1  0.55860094  0.74435267  0.45486434  1
  O2-  O356  1  0.06869438  0.05434999  0.17607688  1
  O2-  O357  1  0.44226714  0.58568246  0.02998239  1
  O2-  O358  1  0.06351919  0.92962676  0.67025140  1
  O2-  O359  1  0.06355189  0.92245746  0.27521065  1
  O2-  O360  1  0.56526617  0.73766302  0.02066873  1
  O2-  O361  1  0.57416592  0.26094971  0.82972690  1
  O2-  O362  1  0.43791120  0.41360875  0.52279074  1
  O2-  O363  1  0.93977285  0.93504325  0.06210779  1
  O2-  O364  1  0.06752650  0.59962988  0.76784620  1
  O2-  O365  1  0.43960730  0.40905102  0.04139874  1
  O2-  O366  1  0.55765846  0.92070064  0.46266836  1
  O2-  O367  1  0.06247282  0.26012469  0.96598976  1
  O2-  O368  1  0.43598204  0.07931780  0.96129295  1
  O2-  O369  1  0.42733198  0.28041570  0.92468304  1
  O2-  O370  1  0.92126902  0.39180625  0.55984411  1
  O2-  O371  1  0.07494605  0.75580107  0.07640121  1
  O2-  O372  1  0.75077259  0.00017175  0.32808705  1
  O2-  O373  1  0.25131365  -0.00091803  0.33222549  1
  O2-  O374  1  0.25131740  0.00788562  0.07633607  1
  O2-  O375  1  0.25136612  0.33544336  0.29767349  1
  O2-  O376  1  0.24936018  -0.00396309  0.18728775  1
  O2-  O377  1  0.75021744  0.00494769  0.10656178  1
  O2-  O378  1  0.24954111  0.31116439  0.42286630  1
  O2-  O379  1  0.75197142  0.68241327  0.58296311  1
  O2-  O380  1  0.74908353  0.66606290  0.39290986  1
  O2-  O381  1  0.24814232  0.66880516  0.85792722  1
  O2-  O382  1  0.74998308  0.00453289  0.69682532  1
  O2-  O383  1  0.75198868  -0.00767726  0.41951601  1
  O2-  O384  1  0.74993062  0.33309450  0.67100330  1
  O2-  O385  1  0.75121277  0.00089376  0.56030088  1
  O2-  O386  1  0.74912182  0.66198716  0.89218825  1
  O2-  O387  1  0.75105781  0.35141767  0.84911952  1
  O2-  O388  1  0.24904602  0.33126614  0.93201433  1
  O2-  O389  1  0.75180843  0.34101438  0.57956035  1
  O2-  O390  1  0.74992581  0.00184677  0.89907893  1
  O2-  O391  1  0.24937882  0.67349910  0.10510976  1
  O2-  O392  1  0.75155274  0.66781067  0.67998385  1
  O2-  O393  1  0.74890767  0.34346806  0.09839292  1
  O2-  O394  1  0.24887763  0.32378203  0.80706718  1
  O2-  O395  1  0.25054131  -0.00067451  0.42525797  1
  O2-  O396  1  0.25009242  0.83223269  0.14804774  1
  O2-  O397  1  0.74976721  0.51278625  0.62187091  1
  O2-  O398  1  0.24968475  0.83438018  0.84842081  1
  O2-  O399  1  0.74961545  0.18365978  0.13942816  1
  O2-  O400  1  0.75060848  0.17189893  0.86073673  1
  O2-  O401  1  0.24988777  0.54752351  0.62431483  1
  O2-  O402  1  0.24997631  0.51386678  0.88818911  1
  O2-  O403  1  0.75041855  0.81284933  0.35457493  1
  O2-  O404  1  0.25059824  0.83220511  0.59328609  1
  O2-  O405  1  0.75095187  0.16244171  0.40877251  1
  O2-  O406  1  0.24958066  0.16909004  0.84424056  1
  O2-  O407  1  0.75011468  0.83812472  0.83142533  1
  O2-  O408  1  0.25003848  0.15332491  0.17532893  1
  O2-  O409  1  0.75012240  0.83894551  0.09587457  1
  O2-  O410  1  0.25032997  0.48574193  0.35258722  1
  O2-  O411  1  0.25105227  0.47846825  0.57032312  1
  O2-  O412  1  0.75033251  0.15930645  0.66411342  1
  O2-  O413  1  0.24932841  0.83163123  0.93359814  1
  O2-  O414  1  0.24865552  0.83385823  0.06295505  1
  O2-  O415  1  0.24957605  0.16067868  0.08549702  1
  O2-  O416  1  0.75072606  0.84215040  0.64106843  1
  O2-  O417  1  0.24889900  0.47958311  0.96614885  1
  O2-  O418  1  0.25069508  0.16511186  0.60724523  1
  O2-  O419  1  0.24936979  0.82527912  0.40402332  1
  O2-  O420  1  0.03323821  0.34145740  0.37937697  1
  O2-  O421  1  0.98769050  0.30667479  0.62389721  1
  O2-  O422  1  0.54766381  -0.01813973  0.12300226  1
  O2-  O423  1  0.97605352  0.02880293  0.86768498  1
  O2-  O424  1  0.45438970  0.00945922  0.12031269  1
  O2-  O425  1  0.01232980  0.66570462  0.12438268  1
  O2-  O426  1  0.46585032  0.31698608  0.62854029  1
  O2-  O427  1  0.47803955  0.65571923  0.62634443  1
  O2-  O428  1  0.47459008  0.34063426  0.37773839  1
  O2-  O429  1  0.51374295  -0.00560382  0.87090905  1
  O2-  O430  1  0.95371171  0.67184237  0.37113367  1
  O2-  O431  1  0.52118189  0.36108622  0.88011736  1
  O2-  O432  1  0.01042721  -0.00856209  0.38523352  1
  O2-  O433  1  0.51773248  -0.00708935  0.63126240  1
  O2-  O434  1  0.52595540  0.65372936  0.12365276  1
  O2-  O435  1  0.97325946  0.32852950  0.12233395  1
  O2-  O436  1  0.52116066  0.34960715  0.62723600  1
  O2-  O437  1  0.48778841  0.64813840  0.87413040  1
  O2-  O438  1  0.97852896  0.32339589  0.86911585  1
  O2-  O439  1  0.94814587  0.30554693  0.41382478  1
  O2-  O440  1  0.96959836  -0.00837575  0.62278693  1
  O2-  O441  1  0.94874223  0.66941312  0.87650270  1
  O2-  O442  1  0.04912972  0.66519138  0.38433570  1
  O2-  O443  1  0.03204642  0.65385932  0.87590616  1
