# generated using pymatgen
data_La7(Ru4O11)2
_symmetry_space_group_name_H-M   'P 1'
_cell_length_a   23.98881970
_cell_length_b   16.82836928
_cell_length_c   15.42514371
_cell_angle_alpha   90.00059799
_cell_angle_beta   89.99946069
_cell_angle_gamma   89.99997102
_symmetry_Int_Tables_number   1
_chemical_formula_structural   La7(Ru4O11)2
_chemical_formula_sum   'La84 Ru96 O264'
_cell_volume   6227.01816278
_cell_formula_units_Z   12
loop_
 _symmetry_equiv_pos_site_id
 _symmetry_equiv_pos_as_xyz
  1  'x, y, z'
loop_
 _atom_type_symbol
 _atom_type_oxidation_number
  La3+  3.0
  Ru4+  4.0
  O2-  -2.0
loop_
 _atom_site_type_symbol
 _atom_site_label
 _atom_site_symmetry_multiplicity
 _atom_site_fract_x
 _atom_site_fract_y
 _atom_site_fract_z
 _atom_site_occupancy
  La3+  La0  1  0.13855192  0.00088128  0.12465533  1
  La3+  La1  1  0.13900257  0.00026685  0.37661093  1
  La3+  La2  1  0.13918539  0.00050965  0.62420361  1
  La3+  La3  1  0.13898305  0.00112854  0.87439191  1
  La3+  La4  1  0.13856185  0.33344423  0.12524755  1
  La3+  La5  1  0.13809087  0.33329898  0.37490662  1
  La3+  La6  1  0.13809495  0.33298063  0.62543608  1
  La3+  La7  1  0.13759910  0.33307384  0.87442801  1
  La3+  La8  1  0.13882001  0.66631035  0.12549815  1
  La3+  La9  1  0.13943156  0.66671653  0.37414244  1
  La3+  La10  1  0.13847828  0.66746147  0.62496485  1
  La3+  La11  1  0.13785065  0.66695162  0.87546748  1
  La3+  La12  1  0.63839462  0.00052813  0.12583121  1
  La3+  La13  1  0.63862862  0.00064997  0.37510832  1
  La3+  La14  1  0.63852371  0.00065649  0.62452139  1
  La3+  La15  1  0.63810387  0.00023621  0.87448879  1
  La3+  La16  1  0.63853476  0.33319578  0.12476427  1
  La3+  La17  1  0.63880728  0.33241066  0.37532332  1
  La3+  La18  1  0.63877291  0.33333603  0.62564188  1
  La3+  La19  1  0.63860638  0.33443613  0.87448002  1
  La3+  La20  1  0.63736626  0.66681324  0.12410763  1
  La3+  La21  1  0.63719833  0.66744641  0.37508950  1
  La3+  La22  1  0.63858443  0.66639363  0.62611765  1
  La3+  La23  1  0.63765336  0.66574052  0.87435871  1
  La3+  La24  1  0.36162420  0.00074383  0.12457132  1
  La3+  La25  1  0.36076675  -0.00007111  0.37614124  1
  La3+  La26  1  0.36034621  -0.00030841  0.62470327  1
  La3+  La27  1  0.36099989  0.00020490  0.87457410  1
  La3+  La28  1  0.36098460  0.33300185  0.12523489  1
  La3+  La29  1  0.36185785  0.33349925  0.37484765  1
  La3+  La30  1  0.36187141  0.33234822  0.62584986  1
  La3+  La31  1  0.36214054  0.33211893  0.87383189  1
  La3+  La32  1  0.36115587  0.66649968  0.12599930  1
  La3+  La33  1  0.36108443  0.66724114  0.37418062  1
  La3+  La34  1  0.36225212  0.66835163  0.62444085  1
  La3+  La35  1  0.36174923  0.66727926  0.87498961  1
  La3+  La36  1  0.86153129  0.00045359  0.12635897  1
  La3+  La37  1  0.86176695  0.00072191  0.37496780  1
  La3+  La38  1  0.86162873  0.00081496  0.62465825  1
  La3+  La39  1  0.86188916  0.00085458  0.87335537  1
  La3+  La40  1  0.86210477  0.33284695  0.12523725  1
  La3+  La41  1  0.86251594  0.33274667  0.37510416  1
  La3+  La42  1  0.86171158  0.33387859  0.62534938  1
  La3+  La43  1  0.86204008  0.33387909  0.87415767  1
  La3+  La44  1  0.86171930  0.66624802  0.12370486  1
  La3+  La45  1  0.86159400  0.66693905  0.37507714  1
  La3+  La46  1  0.86082797  0.66676542  0.62569347  1
  La3+  La47  1  0.86094428  0.66580928  0.87508215  1
  La3+  La48  1  0.49995620  0.50001295  0.11533661  1
  La3+  La49  1  -0.00003169  0.16664782  0.38496157  1
  La3+  La50  1  0.50020795  0.83239741  0.63533618  1
  La3+  La51  1  0.49953329  0.83262708  0.38710432  1
  La3+  La52  1  0.00050472  0.16883489  0.11695902  1
  La3+  La53  1  0.50048004  0.50007184  0.63592366  1
  La3+  La54  1  0.50119386  0.16724763  0.88484229  1
  La3+  La55  1  -0.00045068  0.16726011  0.13517622  1
  La3+  La56  1  0.50008588  0.83347379  0.88496416  1
  La3+  La57  1  -0.00048335  0.83122138  0.88392126  1
  La3+  La58  1  0.50016187  0.50006623  0.61815073  1
  La3+  La59  1  0.49945448  0.16982131  0.38348017  1
  La3+  La60  1  0.00137504  0.49908714  0.61762222  1
  La3+  La61  1  0.00035791  0.83182977  0.11559179  1
  La3+  La62  1  0.50024945  0.83342536  0.11358647  1
  La3+  La63  1  0.50020657  0.50000035  0.86456166  1
  La3+  La64  1  -0.00016792  0.16619979  0.63716240  1
  La3+  La65  1  -0.00119853  0.83481379  0.38328495  1
  La3+  La66  1  -0.00035840  0.83535748  0.63406718  1
  La3+  La67  1  -0.00030017  0.83319658  0.13760852  1
  La3+  La68  1  0.50073378  0.16697098  0.86284006  1
  La3+  La69  1  0.49964561  0.16686294  0.36135062  1
  La3+  La70  1  -0.00038442  0.83329632  0.86369050  1
  La3+  La71  1  0.00061523  0.16622430  0.61697016  1
  La3+  La72  1  0.25006145  0.50081988  0.75188385  1
  La3+  La73  1  0.75007831  0.81012226  0.75141499  1
  La3+  La74  1  0.75016359  0.85890905  0.22500090  1
  La3+  La75  1  0.75020347  0.16669374  0.00023481  1
  La3+  La76  1  0.75012410  0.83325277  -0.00063476  1
  La3+  La77  1  0.24998069  0.81086571  0.02042521  1
  La3+  La78  1  0.74998383  0.83283374  0.51048637  1
  La3+  La79  1  0.24997668  0.14321304  0.48398827  1
  La3+  La80  1  0.25001285  0.80961024  0.26822247  1
  La3+  La81  1  0.75010567  0.49937202  0.24908076  1
  La3+  La82  1  0.24996862  0.47443811  0.50576402  1
  La3+  La83  1  0.74999335  0.47373230  0.50134182  1
  Ru4+  Ru84  1  0.00247436  -0.00203668  -0.00379809  1
  Ru4+  Ru85  1  -0.00055873  0.00059869  0.25195028  1
  Ru4+  Ru86  1  -0.00188935  -0.00238125  0.49751621  1
  Ru4+  Ru87  1  0.00011885  0.00044575  0.75176708  1
  Ru4+  Ru88  1  -0.00041301  0.33289893  0.00105606  1
  Ru4+  Ru89  1  0.00084063  0.33528216  0.24973071  1
  Ru4+  Ru90  1  0.00112020  0.33257878  0.49901295  1
  Ru4+  Ru91  1  -0.00030439  0.33379905  0.75151993  1
  Ru4+  Ru92  1  0.00020587  0.66526585  -0.00180292  1
  Ru4+  Ru93  1  0.00046903  0.66730920  0.25174520  1
  Ru4+  Ru94  1  0.00106381  0.66461154  0.49832969  1
  Ru4+  Ru95  1  0.00222493  0.66832850  0.75233573  1
  Ru4+  Ru96  1  0.50036269  -0.00010642  -0.00030606  1
  Ru4+  Ru97  1  0.49932822  0.00141841  0.25044755  1
  Ru4+  Ru98  1  0.49942125  -0.00185154  0.50131800  1
  Ru4+  Ru99  1  0.50180409  0.00040449  0.74934674  1
  Ru4+  Ru100  1  0.50123159  0.33244679  -0.00085493  1
  Ru4+  Ru101  1  0.49931265  0.33292649  0.25031906  1
  Ru4+  Ru102  1  0.49938572  0.33211062  0.49998132  1
  Ru4+  Ru103  1  0.50093198  0.33472590  0.74977581  1
  Ru4+  Ru104  1  0.49919393  0.66522780  0.00078093  1
  Ru4+  Ru105  1  0.49878084  0.66299088  0.25024747  1
  Ru4+  Ru106  1  0.50231414  0.66631350  0.49796927  1
  Ru4+  Ru107  1  0.49929752  0.66781128  0.75100456  1
  Ru4+  Ru108  1  0.11301966  0.16587116  -0.00007762  1
  Ru4+  Ru109  1  0.11236527  0.16659236  0.24995367  1
  Ru4+  Ru110  1  0.11401966  0.16764218  0.49925124  1
  Ru4+  Ru111  1  0.11342101  0.16663502  0.75050363  1
  Ru4+  Ru112  1  0.11195111  0.50070289  -0.00008711  1
  Ru4+  Ru113  1  0.11311153  0.50042929  0.24974918  1
  Ru4+  Ru114  1  0.11229802  0.49973176  0.49995448  1
  Ru4+  Ru115  1  0.11113856  0.50025684  0.75054132  1
  Ru4+  Ru116  1  0.11304127  0.83182734  -0.00002795  1
  Ru4+  Ru117  1  0.11239112  0.83227891  0.25001152  1
  Ru4+  Ru118  1  0.11418735  0.83454135  0.50022325  1
  Ru4+  Ru119  1  0.11362572  0.83427801  0.74982740  1
  Ru4+  Ru120  1  0.61216291  0.16671278  0.00047376  1
  Ru4+  Ru121  1  0.61351795  0.16649126  0.24997626  1
  Ru4+  Ru122  1  0.61406135  0.16716520  0.50075585  1
  Ru4+  Ru123  1  0.61314601  0.16628325  0.74948485  1
  Ru4+  Ru124  1  0.61346705  0.49958652  0.00004156  1
  Ru4+  Ru125  1  0.61248673  0.50094564  0.25004267  1
  Ru4+  Ru126  1  0.61295447  0.50051529  0.49994613  1
  Ru4+  Ru127  1  0.61458966  0.49877439  0.74995981  1
  Ru4+  Ru128  1  0.61315120  0.83473629  0.00000789  1
  Ru4+  Ru129  1  0.61488700  0.83450223  0.25039440  1
  Ru4+  Ru130  1  0.61238328  0.83352030  0.49968032  1
  Ru4+  Ru131  1  0.61221905  0.83315217  0.74996355  1
  Ru4+  Ru132  1  0.38645351  0.16625420  0.00052741  1
  Ru4+  Ru133  1  0.38729058  0.16662272  0.24993915  1
  Ru4+  Ru134  1  0.38750754  0.16631099  0.50032862  1
  Ru4+  Ru135  1  0.38461653  0.16616957  0.74906196  1
  Ru4+  Ru136  1  0.38669834  0.50136614  0.00001637  1
  Ru4+  Ru137  1  0.38700179  0.50120517  0.25011210  1
  Ru4+  Ru138  1  0.38710295  0.49865403  0.49982463  1
  Ru4+  Ru139  1  0.38815413  0.50004802  0.75020010  1
  Ru4+  Ru140  1  0.38766438  0.83305712  -0.00012377  1
  Ru4+  Ru141  1  0.38767360  0.83236666  0.25012368  1
  Ru4+  Ru142  1  0.38549983  0.83469025  0.49984693  1
  Ru4+  Ru143  1  0.38602000  0.83171230  0.74998195  1
  Ru4+  Ru144  1  0.88564741  0.17056099  -0.00119477  1
  Ru4+  Ru145  1  0.88570099  0.16511894  0.25078243  1
  Ru4+  Ru146  1  0.88638611  0.16561686  0.49969127  1
  Ru4+  Ru147  1  0.88733393  0.16640962  0.75097704  1
  Ru4+  Ru148  1  0.88655482  0.50069827  0.00024254  1
  Ru4+  Ru149  1  0.88765777  0.49961341  0.24984058  1
  Ru4+  Ru150  1  0.88557183  0.49959003  0.49997076  1
  Ru4+  Ru151  1  0.88495044  0.49682127  0.75072622  1
  Ru4+  Ru152  1  0.88774164  0.83246691  0.00005014  1
  Ru4+  Ru153  1  0.88824650  0.83361699  0.24986809  1
  Ru4+  Ru154  1  0.88715474  0.83468012  0.49973816  1
  Ru4+  Ru155  1  0.88817395  0.83314945  0.74985434  1
  Ru4+  Ru156  1  0.74993905  0.38641984  0.24347859  1
  Ru4+  Ru157  1  0.75005014  0.24249479  0.50012058  1
  Ru4+  Ru158  1  0.24993634  0.41698368  0.24921260  1
  Ru4+  Ru159  1  0.24993393  0.24504806  0.00227812  1
  Ru4+  Ru160  1  0.75003476  0.61393440  0.24932904  1
  Ru4+  Ru161  1  0.25007845  0.93521158  -0.00124123  1
  Ru4+  Ru162  1  0.24989300  0.93640693  0.25057526  1
  Ru4+  Ru163  1  0.25002100  0.38895489  0.74574342  1
  Ru4+  Ru164  1  0.75010409  0.24755147  0.74947144  1
  Ru4+  Ru165  1  0.74999913  0.73298909  0.00213416  1
  Ru4+  Ru166  1  0.25000239  0.60244011  0.49820088  1
  Ru4+  Ru167  1  0.25004377  0.61317180  0.74369768  1
  Ru4+  Ru168  1  0.24998339  0.26818331  0.50097998  1
  Ru4+  Ru169  1  0.24993163  0.91686921  0.74873655  1
  Ru4+  Ru170  1  0.24999528  0.08660356  0.25049086  1
  Ru4+  Ru171  1  0.75017230  0.93550507  0.74756857  1
  Ru4+  Ru172  1  0.75022365  0.73434583  0.25082687  1
  Ru4+  Ru173  1  0.25001984  0.24722012  0.24961316  1
  Ru4+  Ru174  1  0.74992328  0.06785480  -0.00196819  1
  Ru4+  Ru175  1  0.74991411  0.26596015  0.00313196  1
  Ru4+  Ru176  1  0.24996342  0.57902723  0.00084506  1
  Ru4+  Ru177  1  0.74992136  0.60006886  0.50116875  1
  Ru4+  Ru178  1  0.25011000  0.42101046  0.00072408  1
  Ru4+  Ru179  1  0.75005150  0.93361291  -0.00232628  1
  O2-  O180  1  0.16806386  0.08073507  0.00016770  1
  O2-  O181  1  0.16854990  0.08050635  0.25002302  1
  O2-  O182  1  0.16703732  0.08109373  0.49981717  1
  O2-  O183  1  0.16742771  0.08125459  0.74994944  1
  O2-  O184  1  0.16785334  0.41443679  -0.00011575  1
  O2-  O185  1  0.16850955  0.41399951  0.25006162  1
  O2-  O186  1  0.16739660  0.41327402  0.49986808  1
  O2-  O187  1  0.16706366  0.41362735  0.74988920  1
  O2-  O188  1  0.16785204  0.74723482  -0.00001616  1
  O2-  O189  1  0.16714215  0.74746548  0.24981924  1
  O2-  O190  1  0.16811398  0.74735242  0.49988306  1
  O2-  O191  1  0.16813338  0.74735659  0.74977670  1
  O2-  O192  1  0.66678045  0.07987139  -0.00029090  1
  O2-  O193  1  0.66822216  0.08082300  0.24959724  1
  O2-  O194  1  0.66781004  0.08076611  0.49987760  1
  O2-  O195  1  0.66772302  0.08087374  0.74990338  1
  O2-  O196  1  0.66731504  0.41453425  0.00008144  1
  O2-  O197  1  0.66716720  0.41341539  0.24967421  1
  O2-  O198  1  0.66758880  0.41346563  0.49985137  1
  O2-  O199  1  0.66794629  0.41423871  0.74957524  1
  O2-  O200  1  0.66691694  0.74677250  0.00041990  1
  O2-  O201  1  0.66761104  0.74713566  0.24988858  1
  O2-  O202  1  0.66738308  0.74736367  0.49982206  1
  O2-  O203  1  0.66784929  0.74740596  0.74972311  1
  O2-  O204  1  0.33225138  0.25266704  -0.00002949  1
  O2-  O205  1  0.33144339  0.25282241  0.25020630  1
  O2-  O206  1  0.33258542  0.25335753  0.49998830  1
  O2-  O207  1  0.33258886  0.25193893  0.74968432  1
  O2-  O208  1  0.33225743  0.58575315  -0.00010956  1
  O2-  O209  1  0.33217236  0.58496227  0.24959464  1
  O2-  O210  1  0.33202562  0.58649790  0.50034985  1
  O2-  O211  1  0.33328027  0.58667350  0.74982091  1
  O2-  O212  1  0.33211132  0.91995793  0.00032250  1
  O2-  O213  1  0.33267638  0.91991965  0.24977484  1
  O2-  O214  1  0.33315584  0.91819822  0.49967594  1
  O2-  O215  1  0.33203923  0.91917369  0.74991915  1
  O2-  O216  1  0.83295835  0.25312768  0.00024579  1
  O2-  O217  1  0.83219392  0.25236215  0.24997114  1
  O2-  O218  1  0.83224340  0.25311016  0.50000487  1
  O2-  O219  1  0.83147920  0.25213441  0.74959217  1
  O2-  O220  1  0.83206821  0.58520757  -0.00031125  1
  O2-  O221  1  0.83282554  0.58633219  0.25018322  1
  O2-  O222  1  0.83276700  0.58617137  0.49992867  1
  O2-  O223  1  0.83219631  0.58578373  0.74982328  1
  O2-  O224  1  0.83288067  0.92033396  -0.00005786  1
  O2-  O225  1  0.83206408  0.91995315  0.24998934  1
  O2-  O226  1  0.83169186  0.91921325  0.50015027  1
  O2-  O227  1  0.83252314  0.92004182  0.74983844  1
  O2-  O228  1  0.16757405  0.25273234  -0.00014023  1
  O2-  O229  1  0.16853287  0.25290075  0.25014326  1
  O2-  O230  1  0.16765916  0.25329306  0.49986548  1
  O2-  O231  1  0.16741580  0.25216660  0.74998355  1
  O2-  O232  1  0.16812014  0.58566464  0.00003923  1
  O2-  O233  1  0.16716384  0.58500148  0.25008022  1
  O2-  O234  1  0.16757048  0.58656951  0.50004700  1
  O2-  O235  1  0.16664042  0.58609137  0.74956944  1
  O2-  O236  1  0.16774070  0.91994967  0.00020113  1
  O2-  O237  1  0.16755573  0.92018906  0.25007031  1
  O2-  O238  1  0.16708534  0.91821067  0.49956895  1
  O2-  O239  1  0.16811552  0.91878471  0.75002854  1
  O2-  O240  1  0.66685706  0.25338793  0.00010439  1
  O2-  O241  1  0.66758711  0.25247742  0.24970775  1
  O2-  O242  1  0.66763079  0.25270534  0.49998326  1
  O2-  O243  1  0.66815505  0.25223641  0.75000455  1
  O2-  O244  1  0.66750680  0.58568723  0.00028056  1
  O2-  O245  1  0.66658620  0.58641599  0.24969789  1
  O2-  O246  1  0.66723858  0.58628686  0.49983509  1
  O2-  O247  1  0.66772040  0.58546984  0.74955127  1
  O2-  O248  1  0.66700651  0.91992786  0.00009080  1
  O2-  O249  1  0.66801490  0.91970541  0.25015839  1
  O2-  O250  1  0.66845806  0.91959404  0.50013090  1
  O2-  O251  1  0.66728058  0.91979257  0.74981271  1
  O2-  O252  1  0.33243441  0.08085843  0.00019790  1
  O2-  O253  1  0.33146177  0.08055596  0.24989981  1
  O2-  O254  1  0.33307331  0.08094581  0.49992338  1
  O2-  O255  1  0.33238732  0.08137099  0.74975045  1
  O2-  O256  1  0.33166669  0.41401452  -0.00005285  1
  O2-  O257  1  0.33195801  0.41407042  0.24998652  1
  O2-  O258  1  0.33273854  0.41348827  0.50000324  1
  O2-  O259  1  0.33289289  0.41335621  0.74982345  1
  O2-  O260  1  0.33265619  0.74688155  -0.00006975  1
  O2-  O261  1  0.33249633  0.74775574  0.24937232  1
  O2-  O262  1  0.33193475  0.74760026  0.50014273  1
  O2-  O263  1  0.33243979  0.74755312  0.75003901  1
  O2-  O264  1  0.83288037  0.07964985  0.00011765  1
  O2-  O265  1  0.83189661  0.08077818  0.24952434  1
  O2-  O266  1  0.83258376  0.08081919  0.50005989  1
  O2-  O267  1  0.83201924  0.08115266  0.74960405  1
  O2-  O268  1  0.83287657  0.41486759  0.00008016  1
  O2-  O269  1  0.83334472  0.41373229  0.25010329  1
  O2-  O270  1  0.83236143  0.41375165  0.49989910  1
  O2-  O271  1  0.83212138  0.41472142  0.74941628  1
  O2-  O272  1  0.83307598  0.74695196  -0.00024496  1
  O2-  O273  1  0.83241207  0.74672268  0.25024259  1
  O2-  O274  1  0.83210133  0.74728711  0.50009141  1
  O2-  O275  1  0.83203448  0.74698810  0.74983253  1
  O2-  O276  1  0.54071436  0.43732357  0.47466721  1
  O2-  O277  1  0.04574617  0.56690378  0.98560943  1
  O2-  O278  1  0.04598823  0.23551388  0.76508965  1
  O2-  O279  1  0.04112098  0.77138784  0.72570302  1
  O2-  O280  1  0.54289422  0.10298296  0.47808596  1
  O2-  O281  1  0.54308887  0.76698180  0.23401458  1
  O2-  O282  1  0.94712837  0.24670313  0.77144807  1
  O2-  O283  1  0.95793454  0.77195618  0.52453496  1
  O2-  O284  1  0.95995046  0.43968727  0.51366757  1
  O2-  O285  1  0.95438158  0.23485489  0.51362252  1
  O2-  O286  1  0.94668597  0.08669311  0.02988166  1
  O2-  O287  1  0.54601410  0.23487676  0.51554471  1
  O2-  O288  1  0.45750346  0.56196717  0.52296981  1
  O2-  O289  1  0.95535835  0.43189319  0.48163696  1
  O2-  O290  1  0.95397503  0.90180928  0.01471196  1
  O2-  O291  1  0.04205598  0.76969951  0.47649688  1
  O2-  O292  1  0.45330670  0.76393003  0.51662323  1
  O2-  O293  1  0.94618976  0.58008409  0.71904127  1
  O2-  O294  1  0.04181123  0.89582571  0.97521431  1
  O2-  O295  1  0.54673075  0.76305829  0.98444556  1
  O2-  O296  1  0.04701309  0.09658240  0.51511158  1
  O2-  O297  1  0.54453042  0.76475258  0.76503538  1
  O2-  O298  1  0.04513354  0.90150405  0.48514961  1
  O2-  O299  1  0.04481036  0.90139538  0.26523098  1
  O2-  O300  1  0.45286830  0.23759441  0.76565975  1
  O2-  O301  1  0.04529350  0.56754626  0.76417908  1
  O2-  O302  1  0.54570622  0.56854920  0.51486231  1
  O2-  O303  1  0.95849833  0.56326394  0.52300247  1
  O2-  O304  1  0.54658331  0.57013863  0.76543839  1
  O2-  O305  1  0.54665793  0.90288447  0.76541827  1
  O2-  O306  1  0.45426041  0.90091856  0.77007882  1
  O2-  O307  1  0.94726629  0.08601448  0.77300070  1
  O2-  O308  1  0.04610328  0.09797258  0.76543110  1
  O2-  O309  1  0.95350556  0.23617639  0.23395516  1
  O2-  O310  1  0.45370470  0.23582349  0.98601894  1
  O2-  O311  1  0.45376590  0.09725676  0.48640178  1
  O2-  O312  1  0.96450214  0.55340932  0.24304126  1
  O2-  O313  1  0.54060840  0.77216348  0.25916326  1
  O2-  O314  1  0.54219661  0.89552615  0.27402279  1
  O2-  O315  1  0.54469070  0.56720387  0.01424162  1
  O2-  O316  1  0.45431029  0.90066146  0.26442001  1
  O2-  O317  1  0.05256522  0.42067847  0.77096030  1
  O2-  O318  1  0.45383469  0.90166968  0.73057541  1
  O2-  O319  1  0.54579169  0.23467437  0.01524122  1
  O2-  O320  1  0.54491068  0.09797947  0.73453115  1
  O2-  O321  1  0.53568490  0.44668974  0.25753634  1
  O2-  O322  1  0.45405400  0.23594170  0.51557403  1
  O2-  O323  1  0.45454517  0.09712494  0.98624134  1
  O2-  O324  1  0.93348910  0.06459962  0.95388314  1
  O2-  O325  1  0.56787219  0.06287806  0.54226757  1
  O2-  O326  1  0.56448217  0.92968549  0.46927994  1
  O2-  O327  1  0.93246219  0.60321633  0.45849545  1
  O2-  O328  1  0.94262213  0.07972421  0.77502964  1
  O2-  O329  1  0.93090866  0.39412667  0.53656951  1
  O2-  O330  1  0.93184037  0.73057885  0.45810328  1
  O2-  O331  1  0.93611362  0.26491886  0.96821867  1
  O2-  O332  1  0.06450872  0.93014599  0.71914213  1
  O2-  O333  1  0.06931120  0.93635778  0.04065191  1
  O2-  O334  1  0.94626650  0.57995943  0.71883610  1
  O2-  O335  1  0.43616376  0.59747858  0.28170197  1
  O2-  O336  1  0.43550471  0.06795047  0.79532065  1
  O2-  O337  1  0.93748606  0.26036209  0.21932393  1
  O2-  O338  1  0.06391187  0.06883833  0.96769633  1
  O2-  O339  1  0.06904306  0.73039380  0.79072799  1
  O2-  O340  1  0.57068194  0.72761456  0.28683563  1
  O2-  O341  1  0.43709631  0.73891569  0.52963773  1
  O2-  O342  1  0.06412229  0.40150113  0.21825700  1
  O2-  O343  1  0.43600739  0.06859702  0.70432102  1
  O2-  O344  1  0.06413894  0.26496234  0.46714079  1
  O2-  O345  1  0.43582881  0.40210809  0.95340144  1
  O2-  O346  1  0.56784685  0.39581208  0.54195132  1
  O2-  O347  1  0.43574950  0.73623307  0.28273232  1
  O2-  O348  1  0.93362268  0.60146945  0.79640993  1
  O2-  O349  1  0.56381552  0.40181433  0.78238248  1
  O2-  O350  1  0.93553615  0.07003725  0.28075375  1
  O2-  O351  1  0.56171987  0.59513015  0.78132472  1
  O2-  O352  1  0.56457923  0.06990705  0.28086789  1
  O2-  O353  1  0.56411431  0.93127423  0.96733098  1
  O2-  O354  1  0.43782174  0.26212533  0.78213680  1
  O2-  O355  1  0.43206684  0.60362821  0.45842440  1
  O2-  O356  1  0.93505086  0.59715476  0.03059583  1
  O2-  O357  1  0.92594867  0.61091846  0.21223118  1
  O2-  O358  1  0.05670266  0.41195178  0.77569219  1
  O2-  O359  1  0.43483188  0.40361634  0.04394504  1
  O2-  O360  1  0.93518329  0.93017008  0.46917022  1
  O2-  O361  1  0.56200043  0.73806397  0.96845743  1
  O2-  O362  1  0.43573877  0.93117306  0.96736831  1
  O2-  O363  1  0.94591472  0.08545774  0.03000720  1
  O2-  O364  1  0.06880530  0.73064227  0.53984008  1
  O2-  O365  1  0.06302175  0.07264942  0.53028040  1
  O2-  O366  1  0.56894321  0.93510347  0.20977766  1
  O2-  O367  1  0.94266926  0.25298028  0.77476167  1
  O2-  O368  1  0.57270356  0.38756695  0.29035378  1
  O2-  O369  1  0.43585710  0.40277096  0.78256478  1
  O2-  O370  1  0.06486846  0.73660061  0.96916749  1
  O2-  O371  1  0.93580734  0.40251352  0.78208766  1
  O2-  O372  1  0.74997413  0.32822315  0.33458942  1
  O2-  O373  1  0.25005709  0.33144354  0.65446763  1
  O2-  O374  1  0.74988726  0.33388989  0.09351972  1
  O2-  O375  1  0.75005033  0.66773919  0.59372202  1
  O2-  O376  1  0.75004499  0.66296981  0.91593968  1
  O2-  O377  1  0.24999618  0.66750342  0.92101755  1
  O2-  O378  1  0.74999795  0.66749346  0.83071746  1
  O2-  O379  1  0.74993356  0.33356244  0.82962889  1
  O2-  O380  1  0.24992490  0.66679054  0.34427374  1
  O2-  O381  1  0.24994070  0.00033761  0.40467134  1
  O2-  O382  1  0.75006909  0.66811201  0.40612296  1
  O2-  O383  1  0.25000671  0.67182229  0.83488042  1
  O2-  O384  1  0.25006430  -0.00043042  0.59432932  1
  O2-  O385  1  0.74999993  0.33459160  0.42080638  1
  O2-  O386  1  0.74994548  0.33641103  0.91657753  1
  O2-  O387  1  0.24998024  0.33367554  0.92109209  1
  O2-  O388  1  0.75002298  -0.00006274  0.09586085  1
  O2-  O389  1  0.24998353  0.66631795  0.16796014  1
  O2-  O390  1  0.25003421  0.33356543  0.09237146  1
  O2-  O391  1  0.24998448  -0.00113896  0.84222926  1
  O2-  O392  1  0.74992356  0.66599723  0.09414478  1
  O2-  O393  1  0.74997778  0.00054609  0.84395382  1
  O2-  O394  1  0.25001100  0.32757122  0.83486793  1
  O2-  O395  1  0.25001591  0.66721557  0.08139430  1
  O2-  O396  1  0.74995475  0.50281462  0.61056198  1
  O2-  O397  1  0.25001740  0.16639103  0.91548149  1
  O2-  O398  1  0.24993125  0.83521364  0.90330524  1
  O2-  O399  1  0.74998644  0.50260636  0.38940583  1
  O2-  O400  1  0.74999125  0.83317618  0.89261100  1
  O2-  O401  1  0.74995563  0.16885751  0.58953194  1
  O2-  O402  1  0.74995387  0.16666896  0.89404433  1
  O2-  O403  1  0.74999939  0.50005107  0.91022275  1
  O2-  O404  1  0.24998466  0.83277358  0.66558197  1
  O2-  O405  1  0.25001209  0.16842250  0.60466068  1
  O2-  O406  1  0.24999715  0.83505778  0.14666091  1
  O2-  O407  1  0.25001187  0.16783860  0.08998583  1
  O2-  O408  1  0.25001652  0.50265637  0.61464728  1
  O2-  O409  1  0.74995215  0.16727751  0.10603516  1
  O2-  O410  1  0.24998975  0.16701070  0.83462665  1
  O2-  O411  1  0.74998297  0.16866826  0.41193043  1
  O2-  O412  1  0.74999521  0.83375523  0.61791601  1
  O2-  O413  1  0.25008550  0.50267534  0.39734130  1
  O2-  O414  1  0.74998554  0.83084345  0.33369171  1
  O2-  O415  1  0.24997981  0.83172166  0.82458322  1
  O2-  O416  1  0.25001549  0.50100033  0.32109811  1
  O2-  O417  1  0.75002377  0.83268873  0.10601017  1
  O2-  O418  1  0.24995741  0.83344461  0.58456588  1
  O2-  O419  1  0.75009127  0.83391439  0.40444747  1
  O2-  O420  1  0.52762475  0.66665900  0.12559598  1
  O2-  O421  1  0.46901966  0.66550148  0.62672850  1
  O2-  O422  1  0.53014440  0.33349969  0.12599491  1
  O2-  O423  1  0.02571179  0.66565880  0.87527935  1
  O2-  O424  1  0.46989698  -0.00008791  0.12529021  1
  O2-  O425  1  0.97010132  0.66815389  0.62503109  1
  O2-  O426  1  0.52705442  0.66571402  0.37723303  1
  O2-  O427  1  0.52912616  0.00130988  0.12338141  1
  O2-  O428  1  0.96880572  -0.00060524  0.62452486  1
  O2-  O429  1  0.02958211  -0.00082589  0.62488504  1
  O2-  O430  1  0.97119006  0.66978138  0.12371897  1
  O2-  O431  1  0.52925815  0.00007743  0.37427706  1
  O2-  O432  1  0.46902387  -0.00035751  0.37446079  1
  O2-  O433  1  0.47087372  0.33170016  0.12757295  1
  O2-  O434  1  0.96875820  -0.00124014  0.12759594  1
  O2-  O435  1  0.03067500  0.00167970  0.12817738  1
  O2-  O436  1  0.97310449  0.33457601  0.12278603  1
  O2-  O437  1  0.97374481  0.00009447  0.37514170  1
  O2-  O438  1  0.53143274  0.66720546  0.62480969  1
  O2-  O439  1  0.02938760  0.66503622  0.62699081  1
  O2-  O440  1  0.47191662  0.33327321  0.37435393  1
  O2-  O441  1  0.03074807  0.66681643  0.12500387  1
  O2-  O442  1  0.97225608  0.33276389  0.37461052  1
  O2-  O443  1  0.02816501  0.33343176  0.62415233  1
