# generated using pymatgen
data_La7(Ru4O11)2
_symmetry_space_group_name_H-M   'P 1'
_cell_length_a   23.99071371
_cell_length_b   16.83078132
_cell_length_c   15.42703990
_cell_angle_alpha   90.00081796
_cell_angle_beta   89.99940046
_cell_angle_gamma   90.00053832
_symmetry_Int_Tables_number   1
_chemical_formula_structural   La7(Ru4O11)2
_chemical_formula_sum   'La84 Ru96 O264'
_cell_volume   6229.16805998
_cell_formula_units_Z   12
loop_
 _symmetry_equiv_pos_site_id
 _symmetry_equiv_pos_as_xyz
  1  'x, y, z'
loop_
 _atom_type_symbol
 _atom_type_oxidation_number
  La3+  3.0
  Ru4+  4.0
  O2-  -2.0
loop_
 _atom_site_type_symbol
 _atom_site_label
 _atom_site_symmetry_multiplicity
 _atom_site_fract_x
 _atom_site_fract_y
 _atom_site_fract_z
 _atom_site_occupancy
  La3+  La0  1  0.13591226  -0.00194927  0.12190614  1
  La3+  La1  1  0.14592554  -0.00392271  0.37402094  1
  La3+  La2  1  0.14178411  -0.00367373  0.62810964  1
  La3+  La3  1  0.13753286  -0.00146322  0.87220293  1
  La3+  La4  1  0.13652983  0.33272690  0.12359836  1
  La3+  La5  1  0.13560449  0.33522344  0.37889888  1
  La3+  La6  1  0.14048243  0.33547522  0.62400872  1
  La3+  La7  1  0.13815659  0.33452415  0.87395061  1
  La3+  La8  1  0.13705117  0.66821457  0.12188587  1
  La3+  La9  1  0.13610168  0.66781005  0.37932619  1
  La3+  La10  1  0.14376819  0.66635264  0.62391506  1
  La3+  La11  1  0.14159280  0.66703999  0.87408765  1
  La3+  La12  1  0.64038564  0.00025535  0.12655939  1
  La3+  La13  1  0.64346368  0.00058150  0.37682349  1
  La3+  La14  1  0.63948802  0.00132259  0.62339258  1
  La3+  La15  1  0.63798528  0.00014770  0.87541969  1
  La3+  La16  1  0.64263479  0.33497301  0.12207941  1
  La3+  La17  1  0.64269385  0.33466991  0.37933707  1
  La3+  La18  1  0.64029087  0.33503588  0.62373261  1
  La3+  La19  1  0.64034967  0.33502197  0.87207489  1
  La3+  La20  1  0.63937354  0.66723122  0.12614220  1
  La3+  La21  1  0.64071871  0.66483478  0.37588502  1
  La3+  La22  1  0.63906935  0.66532141  0.62560661  1
  La3+  La23  1  0.63633248  0.66493397  0.87274067  1
  La3+  La24  1  0.36397731  -0.00040067  0.12444116  1
  La3+  La25  1  0.36169575  -0.00116983  0.37676210  1
  La3+  La26  1  0.35971372  -0.00087037  0.62502609  1
  La3+  La27  1  0.36005309  -0.00030288  0.87252574  1
  La3+  La28  1  0.36420244  0.33434537  0.12416012  1
  La3+  La29  1  0.36622407  0.33569056  0.37689594  1
  La3+  La30  1  0.35972864  0.33455034  0.62255248  1
  La3+  La31  1  0.36223004  0.33494083  0.87503437  1
  La3+  La32  1  0.36266816  0.66942158  0.12213935  1
  La3+  La33  1  0.36007640  0.66602465  0.37785505  1
  La3+  La34  1  0.35827894  0.66493628  0.62715091  1
  La3+  La35  1  0.35657736  0.66778544  0.87156178  1
  La3+  La36  1  0.86140135  0.00039781  0.12658194  1
  La3+  La37  1  0.85685025  -0.00006182  0.37602334  1
  La3+  La38  1  0.86158740  -0.00171234  0.62138749  1
  La3+  La39  1  0.86228976  -0.00137376  0.87670665  1
  La3+  La40  1  0.85764005  0.33422878  0.12249939  1
  La3+  La41  1  0.85627984  0.33510370  0.37731084  1
  La3+  La42  1  0.85930058  0.33603491  0.62434511  1
  La3+  La43  1  0.86137601  0.33582495  0.87584682  1
  La3+  La44  1  0.86164035  0.66668762  0.12537138  1
  La3+  La45  1  0.85980722  0.66594017  0.37675497  1
  La3+  La46  1  0.85919863  0.66532349  0.62425460  1
  La3+  La47  1  0.86290956  0.66459235  0.87265858  1
  La3+  La48  1  0.49818955  0.16604120  0.36686979  1
  La3+  La49  1  0.50306242  0.83277098  0.63945457  1
  La3+  La50  1  0.50057576  0.82968066  0.13147596  1
  La3+  La51  1  0.50098285  0.16955511  0.86766928  1
  La3+  La52  1  0.50038455  0.83364091  0.36490058  1
  La3+  La53  1  -0.00254026  0.16867235  0.36834730  1
  La3+  La54  1  0.50034930  0.49881172  0.13648228  1
  La3+  La55  1  0.49930946  0.49813050  0.38439342  1
  La3+  La56  1  0.50044956  0.83018613  0.89094476  1
  La3+  La57  1  0.49792626  0.83059452  0.38073533  1
  La3+  La58  1  0.49872272  0.49907350  0.86161891  1
  La3+  La59  1  0.00037897  0.50221746  0.38546665  1
  La3+  La60  1  -0.00023436  0.83373021  0.86871074  1
  La3+  La61  1  0.00112234  0.16319577  0.63766848  1
  La3+  La62  1  0.50641446  0.82568314  0.87147379  1
  La3+  La63  1  0.00178479  0.50255531  0.13164805  1
  La3+  La64  1  0.00145553  0.50017628  0.63440540  1
  La3+  La65  1  -0.00010852  0.16671965  0.88796131  1
  La3+  La66  1  0.50076446  0.49833246  0.63192878  1
  La3+  La67  1  0.50464589  0.83308367  0.62280788  1
  La3+  La68  1  -0.00111413  0.17137370  0.37504165  1
  La3+  La69  1  0.00421249  0.16774118  0.63112547  1
  La3+  La70  1  0.50174444  0.16753728  0.63116925  1
  La3+  La71  1  0.49850644  0.16394254  0.11733870  1
  La3+  La72  1  0.24974531  0.12463884  0.76213069  1
  La3+  La73  1  0.74985591  0.20286369  0.00511666  1
  La3+  La74  1  0.25002696  0.50338173  0.75595353  1
  La3+  La75  1  0.25066059  0.15502871  0.25199484  1
  La3+  La76  1  0.25020435  0.22165503  0.00349149  1
  La3+  La77  1  0.24990043  0.19914799  0.49809586  1
  La3+  La78  1  0.74984064  0.16695692  0.52737085  1
  La3+  La79  1  0.74992767  0.83343423  0.71209116  1
  La3+  La80  1  0.24948961  0.83007614  0.73398877  1
  La3+  La81  1  0.24967774  0.53703585  -0.00326629  1
  La3+  La82  1  0.24920350  0.51885563  0.23510398  1
  La3+  La83  1  0.75019046  0.87223399  -0.01450569  1
  Ru4+  Ru84  1  0.00383593  -0.00201071  0.00453544  1
  Ru4+  Ru85  1  -0.00077275  -0.01464552  0.24141268  1
  Ru4+  Ru86  1  -0.00261980  -0.01003699  0.50558666  1
  Ru4+  Ru87  1  0.00415932  -0.00360865  0.75039334  1
  Ru4+  Ru88  1  -0.00021440  0.33237777  0.00226396  1
  Ru4+  Ru89  1  0.00102186  0.33343057  0.24886734  1
  Ru4+  Ru90  1  0.00052979  0.33666394  0.49912354  1
  Ru4+  Ru91  1  0.00092558  0.33587352  0.74974913  1
  Ru4+  Ru92  1  0.00001511  0.66725644  -0.00017152  1
  Ru4+  Ru93  1  0.00230861  0.66738251  0.25504094  1
  Ru4+  Ru94  1  -0.00320215  0.66987472  0.49800085  1
  Ru4+  Ru95  1  -0.00105509  0.67028677  0.75116264  1
  Ru4+  Ru96  1  0.49956303  0.00253431  -0.00128707  1
  Ru4+  Ru97  1  0.50169411  0.00202762  0.24874579  1
  Ru4+  Ru98  1  0.49533799  0.00806676  0.49726227  1
  Ru4+  Ru99  1  0.50142264  -0.00047180  0.74808211  1
  Ru4+  Ru100  1  0.50127396  0.32576648  0.00532152  1
  Ru4+  Ru101  1  0.50247582  0.32820684  0.25168625  1
  Ru4+  Ru102  1  0.50057518  0.33298384  0.50001158  1
  Ru4+  Ru103  1  0.50161458  0.33378298  0.75235201  1
  Ru4+  Ru104  1  0.49921562  0.66917048  0.00012721  1
  Ru4+  Ru105  1  0.50009035  0.66530384  0.25509436  1
  Ru4+  Ru106  1  0.49923486  0.66418011  0.49861048  1
  Ru4+  Ru107  1  0.49873167  0.66395605  0.74840550  1
  Ru4+  Ru108  1  0.10948983  0.16656286  0.00051524  1
  Ru4+  Ru109  1  0.11485134  0.17361819  0.24812573  1
  Ru4+  Ru110  1  0.11374780  0.16641021  0.49875578  1
  Ru4+  Ru111  1  0.11266752  0.16451742  0.74978671  1
  Ru4+  Ru112  1  0.11063345  0.50158314  0.00158247  1
  Ru4+  Ru113  1  0.10879593  0.50061076  0.24960922  1
  Ru4+  Ru114  1  0.11576039  0.50073843  0.50004182  1
  Ru4+  Ru115  1  0.11185228  0.49755051  0.75051332  1
  Ru4+  Ru116  1  0.11271641  0.83314830  0.00058050  1
  Ru4+  Ru117  1  0.11119115  0.83048990  0.25118088  1
  Ru4+  Ru118  1  0.11404684  0.83549287  0.50073175  1
  Ru4+  Ru119  1  0.11146497  0.83415992  0.74970236  1
  Ru4+  Ru120  1  0.61055712  0.16552350  0.00016483  1
  Ru4+  Ru121  1  0.61365304  0.16380067  0.24959547  1
  Ru4+  Ru122  1  0.61179703  0.16879233  0.50026109  1
  Ru4+  Ru123  1  0.61303994  0.16784109  0.74910409  1
  Ru4+  Ru124  1  0.61668904  0.49812767  -0.00039572  1
  Ru4+  Ru125  1  0.61199192  0.49991436  0.25002977  1
  Ru4+  Ru126  1  0.61553274  0.49839091  0.49988055  1
  Ru4+  Ru127  1  0.61512124  0.49874412  0.75069526  1
  Ru4+  Ru128  1  0.61160660  0.83231348  0.00143162  1
  Ru4+  Ru129  1  0.61207515  0.83392706  0.25106637  1
  Ru4+  Ru130  1  0.61775684  0.82968453  0.49956850  1
  Ru4+  Ru131  1  0.61427446  0.83906174  0.75060575  1
  Ru4+  Ru132  1  0.39051626  0.16772608  0.00028536  1
  Ru4+  Ru133  1  0.39094304  0.16607992  0.25104663  1
  Ru4+  Ru134  1  0.38969000  0.16789460  0.50073680  1
  Ru4+  Ru135  1  0.38805750  0.16571484  0.75047093  1
  Ru4+  Ru136  1  0.38343459  0.50418001  -0.00100606  1
  Ru4+  Ru137  1  0.38684299  0.50475879  0.25026293  1
  Ru4+  Ru138  1  0.38550051  0.50013038  0.49978385  1
  Ru4+  Ru139  1  0.38468855  0.49567763  0.75024706  1
  Ru4+  Ru140  1  0.38650280  0.83123053  0.00060011  1
  Ru4+  Ru141  1  0.38752564  0.83079102  0.24924159  1
  Ru4+  Ru142  1  0.38411752  0.83262670  0.49922080  1
  Ru4+  Ru143  1  0.38668371  0.83257665  0.74909378  1
  Ru4+  Ru144  1  0.88849096  0.16948319  -0.00122290  1
  Ru4+  Ru145  1  0.88177505  0.17019030  0.24917867  1
  Ru4+  Ru146  1  0.88521924  0.16604893  0.49830878  1
  Ru4+  Ru147  1  0.88598644  0.16765092  0.75068397  1
  Ru4+  Ru148  1  0.88611655  0.49759019  0.00041782  1
  Ru4+  Ru149  1  0.88778417  0.50187404  0.24930436  1
  Ru4+  Ru150  1  0.88396844  0.49973839  0.49991644  1
  Ru4+  Ru151  1  0.88478543  0.49850629  0.75023520  1
  Ru4+  Ru152  1  0.89064387  0.83506443  0.00002585  1
  Ru4+  Ru153  1  0.88949895  0.83419282  0.24910403  1
  Ru4+  Ru154  1  0.89061596  0.83533139  0.50069719  1
  Ru4+  Ru155  1  0.89011568  0.83240708  0.75064224  1
  Ru4+  Ru156  1  0.25047536  0.27545759  0.26892544  1
  Ru4+  Ru157  1  0.74979381  0.25202200  0.74740261  1
  Ru4+  Ru158  1  0.75008279  0.06218956  0.00166817  1
  Ru4+  Ru159  1  0.75005012  0.70369880  0.77478459  1
  Ru4+  Ru160  1  0.74978833  0.25115634  0.24528374  1
  Ru4+  Ru161  1  0.25005436  0.05912394  0.50619504  1
  Ru4+  Ru162  1  0.24961642  0.39111922  -0.00256426  1
  Ru4+  Ru163  1  0.25039562  0.03140692  0.28297107  1
  Ru4+  Ru164  1  0.74969755  0.76351388  0.24921973  1
  Ru4+  Ru165  1  0.74968724  0.56973247  0.25575369  1
  Ru4+  Ru166  1  0.24964335  0.64065221  0.25440462  1
  Ru4+  Ru167  1  0.24985047  0.26637505  0.75070301  1
  Ru4+  Ru168  1  0.74990613  0.42047521  0.25623712  1
  Ru4+  Ru169  1  0.75043658  0.75613973  0.49959792  1
  Ru4+  Ru170  1  0.75019932  0.96605979  0.75686409  1
  Ru4+  Ru171  1  0.75000954  0.09420085  0.75445545  1
  Ru4+  Ru172  1  0.24983545  0.90726476  0.00358883  1
  Ru4+  Ru173  1  0.24966107  0.39779537  0.26721443  1
  Ru4+  Ru174  1  0.24986881  0.76099977  0.25150367  1
  Ru4+  Ru175  1  0.75001743  0.90997765  0.25367546  1
  Ru4+  Ru176  1  0.74995118  0.72959963  -0.01346996  1
  Ru4+  Ru177  1  0.24974737  0.90132460  0.25500404  1
  Ru4+  Ru178  1  0.25017333  0.07914116  -0.00482015  1
  Ru4+  Ru179  1  0.75017528  0.57015228  -0.00364252  1
  O2-  O180  1  0.16737655  0.08034082  0.00000119  1
  O2-  O181  1  0.16734546  0.08008052  0.24928162  1
  O2-  O182  1  0.16955069  0.08163352  0.50114750  1
  O2-  O183  1  0.16520061  0.07954929  0.75020242  1
  O2-  O184  1  0.16682662  0.41292695  0.00025396  1
  O2-  O185  1  0.16381921  0.41119634  0.25043547  1
  O2-  O186  1  0.16492813  0.41482643  0.49813497  1
  O2-  O187  1  0.16718165  0.41516110  0.74906321  1
  O2-  O188  1  0.16497894  0.74890726  0.00175108  1
  O2-  O189  1  0.16821369  0.74721260  0.25032912  1
  O2-  O190  1  0.16709081  0.74964694  0.49719684  1
  O2-  O191  1  0.16494399  0.74854236  0.75120750  1
  O2-  O192  1  0.66572099  0.08009764  -0.00065642  1
  O2-  O193  1  0.66500907  0.08110118  0.24922105  1
  O2-  O194  1  0.66623546  0.08126600  0.50156732  1
  O2-  O195  1  0.66763248  0.08108459  0.75166099  1
  O2-  O196  1  0.66743899  0.41630380  -0.00012859  1
  O2-  O197  1  0.66855347  0.41354169  0.24980798  1
  O2-  O198  1  0.66649655  0.41634177  0.49984488  1
  O2-  O199  1  0.66723407  0.41554349  0.74990013  1
  O2-  O200  1  0.66800003  0.74635805  -0.00190379  1
  O2-  O201  1  0.66877161  0.74772127  0.25001348  1
  O2-  O202  1  0.66832401  0.74630332  0.49980863  1
  O2-  O203  1  0.66675577  0.74460813  0.75093323  1
  O2-  O204  1  0.33804912  0.25724026  0.00087543  1
  O2-  O205  1  0.33691097  0.25479037  0.24926299  1
  O2-  O206  1  0.33326829  0.25450737  0.49737679  1
  O2-  O207  1  0.33385534  0.25324305  0.75027175  1
  O2-  O208  1  0.33386250  0.58720291  0.00217390  1
  O2-  O209  1  0.33546362  0.58838335  0.24901338  1
  O2-  O210  1  0.33476601  0.58557657  0.49909792  1
  O2-  O211  1  0.33362112  0.58527422  0.75031150  1
  O2-  O212  1  0.33414137  0.92016758  -0.00003241  1
  O2-  O213  1  0.33357324  0.91976803  0.25121911  1
  O2-  O214  1  0.33412904  0.91852287  0.50046235  1
  O2-  O215  1  0.33216498  0.91993010  0.75058295  1
  O2-  O216  1  0.83385051  0.25259425  -0.00114144  1
  O2-  O217  1  0.83292096  0.25342536  0.24959964  1
  O2-  O218  1  0.83208999  0.25177363  0.50287444  1
  O2-  O219  1  0.83267710  0.25206511  0.75155884  1
  O2-  O220  1  0.83308962  0.58632106  -0.00027762  1
  O2-  O221  1  0.83287537  0.58520414  0.25014336  1
  O2-  O222  1  0.83552650  0.58522012  0.49982151  1
  O2-  O223  1  0.83293629  0.58495752  0.75116402  1
  O2-  O224  1  0.83549052  0.92053575  0.00110627  1
  O2-  O225  1  0.83100508  0.91898706  0.24865721  1
  O2-  O226  1  0.83463443  0.91760952  0.50138111  1
  O2-  O227  1  0.83435012  0.92113675  0.74933889  1
  O2-  O228  1  0.16334532  0.25605108  0.00137881  1
  O2-  O229  1  0.16600745  0.25658770  0.25073473  1
  O2-  O230  1  0.16545424  0.25441797  0.49822724  1
  O2-  O231  1  0.16626762  0.25400865  0.75047423  1
  O2-  O232  1  0.16552950  0.58808147  0.00122317  1
  O2-  O233  1  0.16477684  0.58950761  0.24972793  1
  O2-  O234  1  0.16780911  0.58514091  0.49829893  1
  O2-  O235  1  0.16650153  0.58475107  0.75171056  1
  O2-  O236  1  0.16770207  0.91874515  -0.00037103  1
  O2-  O237  1  0.16649985  0.91732715  0.24927725  1
  O2-  O238  1  0.16852422  0.91498633  0.50097057  1
  O2-  O239  1  0.16768729  0.91786672  0.75015337  1
  O2-  O240  1  0.66540130  0.25375712  -0.00082349  1
  O2-  O241  1  0.66698537  0.25392096  0.24997904  1
  O2-  O242  1  0.66815743  0.25131342  0.50078534  1
  O2-  O243  1  0.66820372  0.25120885  0.75203428  1
  O2-  O244  1  0.66802479  0.58523804  -0.00168993  1
  O2-  O245  1  0.66788024  0.58567276  0.25044180  1
  O2-  O246  1  0.66443589  0.58501577  0.50018940  1
  O2-  O247  1  0.66499034  0.58596804  0.75028457  1
  O2-  O248  1  0.66259815  0.92181938  -0.00033723  1
  O2-  O249  1  0.66825759  0.91949856  0.24863837  1
  O2-  O250  1  0.66661774  0.91806663  0.50007624  1
  O2-  O251  1  0.66670535  0.92278575  0.75100542  1
  O2-  O252  1  0.33388914  0.07832111  0.00011482  1
  O2-  O253  1  0.33355212  0.07732431  0.24952671  1
  O2-  O254  1  0.33375463  0.08023384  0.49909411  1
  O2-  O255  1  0.33669447  0.07860958  0.74892533  1
  O2-  O256  1  0.33276357  0.41252048  0.00141792  1
  O2-  O257  1  0.33551372  0.41264374  0.25036622  1
  O2-  O258  1  0.33533462  0.41438541  0.49843257  1
  O2-  O259  1  0.33413092  0.41332649  0.75046066  1
  O2-  O260  1  0.33233924  0.74848727  0.00113643  1
  O2-  O261  1  0.33159834  0.74754706  0.25129423  1
  O2-  O262  1  0.33180950  0.74880824  0.49926918  1
  O2-  O263  1  0.33492008  0.74831578  0.75017800  1
  O2-  O264  1  0.83334189  0.07984339  0.00126961  1
  O2-  O265  1  0.83371285  0.08095023  0.24900798  1
  O2-  O266  1  0.83197985  0.08176679  0.50272640  1
  O2-  O267  1  0.83268862  0.08095918  0.74986684  1
  O2-  O268  1  0.83546357  0.41491361  -0.00105663  1
  O2-  O269  1  0.83130431  0.41382068  0.24886322  1
  O2-  O270  1  0.83471715  0.41519594  0.50136641  1
  O2-  O271  1  0.83483053  0.41502849  0.75073102  1
  O2-  O272  1  0.83386531  0.74596017  -0.00002779  1
  O2-  O273  1  0.83337270  0.74859086  0.24996972  1
  O2-  O274  1  0.83389022  0.74847622  0.49887932  1
  O2-  O275  1  0.83213977  0.74573042  0.75001778  1
  O2-  O276  1  0.04605041  0.76361005  0.76209524  1
  O2-  O277  1  0.54092359  0.44557363  0.99692448  1
  O2-  O278  1  0.95038308  0.10107125  0.23114546  1
  O2-  O279  1  0.96019464  0.10726868  0.02997391  1
  O2-  O280  1  0.45465836  0.89961350  0.24040495  1
  O2-  O281  1  0.45415745  0.23620206  0.73678339  1
  O2-  O282  1  0.44883309  0.42593870  0.98215589  1
  O2-  O283  1  0.45452414  0.90618277  0.51292332  1
  O2-  O284  1  0.54537401  0.23495608  0.26143752  1
  O2-  O285  1  0.04907989  0.57625563  0.51987943  1
  O2-  O286  1  0.95130257  0.75860886  0.51467719  1
  O2-  O287  1  0.45381836  0.42980114  0.26491367  1
  O2-  O288  1  0.54658699  0.76420939  0.73703030  1
  O2-  O289  1  0.04761539  0.42904150  0.48602262  1
  O2-  O290  1  0.04764038  0.23311599  0.76467120  1
  O2-  O291  1  0.95530684  0.56254382  0.77700105  1
  O2-  O292  1  0.03727952  0.12017624  0.24809278  1
  O2-  O293  1  0.46151435  0.77651707  0.52971903  1
  O2-  O294  1  0.95820323  0.22230296  0.53029057  1
  O2-  O295  1  0.03062665  0.11368806  0.49730609  1
  O2-  O296  1  0.95170963  0.23537233  0.76377205  1
  O2-  O297  1  0.04998376  0.24325279  0.48436165  1
  O2-  O298  1  0.03724374  0.12034673  0.24822211  1
  O2-  O299  1  0.94661755  0.09508289  0.26918575  1
  O2-  O300  1  0.44930109  0.42411310  0.02133583  1
  O2-  O301  1  0.95457689  0.43038198  0.23810695  1
  O2-  O302  1  0.02805383  0.87922081  0.48061415  1
  O2-  O303  1  0.95259488  0.42953516  0.73725734  1
  O2-  O304  1  0.02886481  0.11687634  0.50073475  1
  O2-  O305  1  0.94741331  0.90476216  0.51762019  1
  O2-  O306  1  0.45371706  0.56984170  0.23869690  1
  O2-  O307  1  0.95462945  0.76444625  0.01545808  1
  O2-  O308  1  0.95230391  0.43483633  0.51266077  1
  O2-  O309  1  0.46135433  0.55812033  0.99764638  1
  O2-  O310  1  0.55437976  0.90631718  0.46687388  1
  O2-  O311  1  0.46116967  0.89154655  0.78207406  1
  O2-  O312  1  0.04574579  0.55955521  0.77623215  1
  O2-  O313  1  0.95296957  0.09333436  0.73776471  1
  O2-  O314  1  0.95262657  0.90002001  0.23509269  1
  O2-  O315  1  0.54486948  0.23489097  0.01326575  1
  O2-  O316  1  0.45461183  0.09652115  0.76499818  1
  O2-  O317  1  0.54439649  0.09965695  0.48677524  1
  O2-  O318  1  0.54693325  0.56690145  0.96675435  1
  O2-  O319  1  0.04563742  0.76540123  0.47253332  1
  O2-  O320  1  0.45356413  0.56943745  0.73786331  1
  O2-  O321  1  0.95246008  0.90381693  0.76396200  1
  O2-  O322  1  0.54515361  0.90174164  0.01637651  1
  O2-  O323  1  0.54375861  0.56739898  0.51439517  1
  O2-  O324  1  0.06798193  0.60486643  0.70449298  1
  O2-  O325  1  0.07994467  0.93707345  0.44029586  1
  O2-  O326  1  0.93504436  0.06877793  0.56589728  1
  O2-  O327  1  0.43425137  0.73982402  0.22319854  1
  O2-  O328  1  0.93137699  0.60367272  0.70151358  1
  O2-  O329  1  0.43541352  0.07076569  0.28297371  1
  O2-  O330  1  0.92843737  0.27861643  0.44082985  1
  O2-  O331  1  0.93456191  0.26047725  0.97289974  1
  O2-  O332  1  0.08156214  0.06001353  0.57441559  1
  O2-  O333  1  0.06487279  0.92481637  0.02593621  1
  O2-  O334  1  0.07752708  0.05388901  0.18102967  1
  O2-  O335  1  0.05825399  0.58845484  0.52767530  1
  O2-  O336  1  0.56259214  0.73775076  0.28461814  1
  O2-  O337  1  0.93410156  0.73968715  0.77914719  1
  O2-  O338  1  0.55209180  0.91148823  0.45672025  1
  O2-  O339  1  0.06892775  0.73246331  0.54477142  1
  O2-  O340  1  0.08282825  0.06258883  0.42830437  1
  O2-  O341  1  0.56856006  0.94091491  0.57191384  1
  O2-  O342  1  0.08102609  0.05308479  0.31531645  1
  O2-  O343  1  0.06602440  0.74012013  0.27413072  1
  O2-  O344  1  0.56477362  0.25748086  0.52777165  1
  O2-  O345  1  0.56341242  0.06943725  0.71789685  1
  O2-  O346  1  0.42811401  0.94716945  0.68973619  1
  O2-  O347  1  0.06522706  0.07517154  0.72279300  1
  O2-  O348  1  0.56658385  0.25660652  0.72170482  1
  O2-  O349  1  0.93155472  0.07773141  0.44237159  1
  O2-  O350  1  0.56376032  0.40943469  0.77842217  1
  O2-  O351  1  0.56469519  0.74110523  0.02827668  1
  O2-  O352  1  0.57427103  0.59901571  0.04333667  1
  O2-  O353  1  0.43523375  0.25931351  0.52731501  1
  O2-  O354  1  0.06370664  0.26625784  0.21760581  1
  O2-  O355  1  0.06221832  0.59760470  0.03486907  1
  O2-  O356  1  0.06533060  0.25922296  0.97383702  1
  O2-  O357  1  0.56109886  0.74251972  0.71526046  1
  O2-  O358  1  0.93667164  0.92727103  0.96751224  1
  O2-  O359  1  0.43602645  0.74264512  0.02756161  1
  O2-  O360  1  0.06675136  0.07604567  0.02619827  1
  O2-  O361  1  0.42909478  0.71958970  0.44004012  1
  O2-  O362  1  0.93193369  0.06604021  0.95376920  1
  O2-  O363  1  0.06669749  0.40613789  0.77642094  1
  O2-  O364  1  0.57837511  0.38735730  0.96516990  1
  O2-  O365  1  0.06554617  0.92592675  0.77920107  1
  O2-  O366  1  0.43577187  0.59162590  0.72375765  1
  O2-  O367  1  0.56361515  0.40870544  0.52593965  1
  O2-  O368  1  0.42614688  0.61575514  0.95583425  1
  O2-  O369  1  0.07201652  0.92812922  0.56663919  1
  O2-  O370  1  0.43596084  0.40588922  0.27486655  1
  O2-  O371  1  0.56494160  0.73659728  0.53356875  1
  O2-  O372  1  0.24998137  -0.01258360  0.16900484  1
  O2-  O373  1  0.75011353  0.66527500  0.57051383  1
  O2-  O374  1  0.25010356  -0.00426590  0.07638361  1
  O2-  O375  1  0.75000465  0.32902615  0.10274702  1
  O2-  O376  1  0.75000119  0.65824219  0.07389902  1
  O2-  O377  1  0.25030264  0.33685271  0.85089831  1
  O2-  O378  1  0.25066102  -0.00344523  0.40219789  1
  O2-  O379  1  0.75000404  -0.00301138  0.09967378  1
  O2-  O380  1  0.25026982  0.66622360  0.65649894  1
  O2-  O381  1  0.75013059  0.66651504  0.42647240  1
  O2-  O382  1  0.25003543  0.33095018  0.57565761  1
  O2-  O383  1  0.74991664  0.66585259  0.18698641  1
  O2-  O384  1  0.25006380  0.34495693  0.66507327  1
  O2-  O385  1  0.25012488  0.66551836  0.92041147  1
  O2-  O386  1  0.25037521  -0.00111716  0.82227633  1
  O2-  O387  1  0.75017151  0.32989222  0.65893644  1
  O2-  O388  1  0.25024651  0.33597745  0.13584038  1
  O2-  O389  1  0.74987773  -0.00323960  0.39831502  1
  O2-  O390  1  0.74987036  0.33214594  0.39438303  1
  O2-  O391  1  0.75021403  0.66816218  0.32317382  1
  O2-  O392  1  0.25003388  0.66631690  0.83012584  1
  O2-  O393  1  0.74995693  -0.00312597  0.89812084  1
  O2-  O394  1  0.25034448  -0.00949169  0.91517721  1
  O2-  O395  1  0.75000913  0.65636555  0.66777214  1
  O2-  O396  1  0.25002614  0.50010858  0.44220538  1
  O2-  O397  1  0.75008202  0.49978068  0.39619736  1
  O2-  O398  1  0.24963601  0.49997921  0.63865009  1
  O2-  O399  1  0.24989879  0.83387485  0.85899499  1
  O2-  O400  1  0.24996460  0.15507390  0.11884726  1
  O2-  O401  1  0.75023438  0.16859918  0.39916535  1
  O2-  O402  1  0.25005364  0.83368575  0.15510015  1
  O2-  O403  1  0.25028087  0.49935960  0.55897533  1
  O2-  O404  1  0.25020456  0.82000172  0.94219479  1
  O2-  O405  1  0.25001353  0.15960174  0.88858012  1
  O2-  O406  1  0.75013114  0.49914063  0.58990625  1
  O2-  O407  1  0.74988185  0.17082579  0.15902199  1
  O2-  O408  1  0.75003173  0.82540169  0.85629814  1
  O2-  O409  1  0.25021627  0.17069966  0.63267742  1
  O2-  O410  1  0.25018434  0.49547017  0.11470364  1
  O2-  O411  1  0.24996012  0.49448950  0.87944605  1
  O2-  O412  1  0.74998097  0.83291652  0.57982776  1
  O2-  O413  1  0.25005601  0.49739067  0.36097269  1
  O2-  O414  1  0.74991646  0.50384664  0.84912968  1
  O2-  O415  1  0.74987306  0.82772593  0.12413709  1
  O2-  O416  1  0.25028629  0.83524183  0.61265022  1
  O2-  O417  1  0.75010496  0.50468222  0.08797365  1
  O2-  O418  1  0.75009195  0.16317567  0.31351817  1
  O2-  O419  1  0.75000294  0.16583115  0.66255611  1
  O2-  O420  1  0.96625016  -0.00722641  0.36783860  1
  O2-  O421  1  0.46969312  0.65917755  0.11981315  1
  O2-  O422  1  0.97115482  0.66497209  0.88319368  1
  O2-  O423  1  0.52535212  0.00456866  0.36515402  1
  O2-  O424  1  0.96001946  0.33107476  0.62555509  1
  O2-  O425  1  0.02152417  -0.00907489  0.36648989  1
  O2-  O426  1  0.96936195  0.33874844  0.87172216  1
  O2-  O427  1  0.02512486  0.00510896  0.87897218  1
  O2-  O428  1  0.52905165  0.32238741  0.87121203  1
  O2-  O429  1  0.52786666  0.66888005  0.87209052  1
  O2-  O430  1  0.02411417  0.65984221  0.37536920  1
  O2-  O431  1  0.47438998  0.32891479  0.38194412  1
  O2-  O432  1  0.02732724  0.33551948  0.87410127  1
  O2-  O433  1  0.02755603  0.33373022  0.37267731  1
  O2-  O434  1  0.53084767  0.66796942  0.13865388  1
  O2-  O435  1  0.52685775  0.33773398  0.62995909  1
  O2-  O436  1  0.47207134  0.00203002  0.12503192  1
  O2-  O437  1  0.01665351  -0.00357498  0.63448536  1
  O2-  O438  1  0.01900648  -0.00718316  0.12754729  1
  O2-  O439  1  0.46748555  0.34061310  0.62922801  1
  O2-  O440  1  0.46337647  0.33295519  0.87172918  1
  O2-  O441  1  0.04128670  0.33375131  0.62620491  1
  O2-  O442  1  0.03177308  0.66791075  0.88069955  1
  O2-  O443  1  0.47324651  0.66905506  0.62301210  1
