# generated using pymatgen
data_La7(Ru4O11)2
_symmetry_space_group_name_H-M   'P 1'
_cell_length_a   23.98906340
_cell_length_b   16.82869295
_cell_length_c   15.42533658
_cell_angle_alpha   90.00022713
_cell_angle_beta   90.00005387
_cell_angle_gamma   89.99992442
_symmetry_Int_Tables_number   1
_chemical_formula_structural   La7(Ru4O11)2
_chemical_formula_sum   'La84 Ru96 O264'
_cell_volume   6227.27905759
_cell_formula_units_Z   12
loop_
 _symmetry_equiv_pos_site_id
 _symmetry_equiv_pos_as_xyz
  1  'x, y, z'
loop_
 _atom_type_symbol
 _atom_type_oxidation_number
  La3+  3.0
  Ru4+  4.0
  O2-  -2.0
loop_
 _atom_site_type_symbol
 _atom_site_label
 _atom_site_symmetry_multiplicity
 _atom_site_fract_x
 _atom_site_fract_y
 _atom_site_fract_z
 _atom_site_occupancy
  La3+  La0  1  0.13831652  0.00027052  0.12411555  1
  La3+  La1  1  0.13756691  -0.00088741  0.37337600  1
  La3+  La2  1  0.13854432  -0.00019131  0.62680713  1
  La3+  La3  1  0.13852191  0.00157750  0.87619678  1
  La3+  La4  1  0.13694302  0.33023615  0.12724442  1
  La3+  La5  1  0.13655044  0.33106296  0.37302903  1
  La3+  La6  1  0.13745642  0.33148707  0.62697383  1
  La3+  La7  1  0.13749337  0.33091521  0.87299914  1
  La3+  La8  1  0.13946292  0.66705942  0.12539498  1
  La3+  La9  1  0.13724150  0.66672364  0.37593101  1
  La3+  La10  1  0.13807525  0.66773009  0.62473058  1
  La3+  La11  1  0.13969161  0.66795216  0.87421387  1
  La3+  La12  1  0.63934386  0.00022551  0.12613942  1
  La3+  La13  1  0.63968380  0.00048490  0.37340293  1
  La3+  La14  1  0.63976678  0.00066485  0.62693929  1
  La3+  La15  1  0.63913737  0.00022157  0.87335197  1
  La3+  La16  1  0.63956396  0.33256574  0.12555110  1
  La3+  La17  1  0.63967884  0.33351350  0.37545422  1
  La3+  La18  1  0.63902617  0.33329817  0.62477872  1
  La3+  La19  1  0.63989552  0.33268704  0.87450723  1
  La3+  La20  1  0.64084579  0.66684561  0.12578111  1
  La3+  La21  1  0.63963578  0.66793698  0.37567545  1
  La3+  La22  1  0.63972187  0.66795161  0.62408795  1
  La3+  La23  1  0.64031066  0.66664160  0.87559883  1
  La3+  La24  1  0.36151547  0.00008704  0.12469768  1
  La3+  La25  1  0.36325245  -0.00098001  0.37364113  1
  La3+  La26  1  0.36174141  -0.00001908  0.62598594  1
  La3+  La27  1  0.36062688  0.00058603  0.87528988  1
  La3+  La28  1  0.36418774  0.33371658  0.12342296  1
  La3+  La29  1  0.36286461  0.33225918  0.37371066  1
  La3+  La30  1  0.36334394  0.33213958  0.62599884  1
  La3+  La31  1  0.36430073  0.33366863  0.87662595  1
  La3+  La32  1  0.36078124  0.66708340  0.12489000  1
  La3+  La33  1  0.36234756  0.66675348  0.37513698  1
  La3+  La34  1  0.36167648  0.66765658  0.62516498  1
  La3+  La35  1  0.36175364  0.66701669  0.87498116  1
  La3+  La36  1  0.86056241  0.00028627  0.12592129  1
  La3+  La37  1  0.85955875  0.00046361  0.37295288  1
  La3+  La38  1  0.86002744  0.00015441  0.62821622  1
  La3+  La39  1  0.86067603  -0.00013822  0.87300989  1
  La3+  La40  1  0.86094714  0.33261646  0.12524014  1
  La3+  La41  1  0.86021141  0.33337244  0.37543816  1
  La3+  La42  1  0.86106066  0.33351999  0.62544161  1
  La3+  La43  1  0.86069523  0.33307875  0.87405257  1
  La3+  La44  1  0.85916888  0.66682962  0.12518125  1
  La3+  La45  1  0.86107583  0.66767681  0.37677216  1
  La3+  La46  1  0.86232090  0.66741236  0.62263694  1
  La3+  La47  1  0.86060736  0.66624395  0.87551197  1
  La3+  La48  1  0.49946296  0.16629717  0.38674472  1
  La3+  La49  1  0.49874288  0.49965800  0.86937308  1
  La3+  La50  1  -0.00066926  0.49989431  0.13477963  1
  La3+  La51  1  -0.00138782  0.83199994  0.61483527  1
  La3+  La52  1  0.50083007  0.83256209  0.61585626  1
  La3+  La53  1  0.00121564  0.83018444  0.38329899  1
  La3+  La54  1  -0.00087520  0.50203702  0.38403926  1
  La3+  La55  1  0.00005232  0.83353041  0.13648091  1
  La3+  La56  1  -0.00017570  0.83379765  0.11413915  1
  La3+  La57  1  -0.00006400  0.16798869  0.36478212  1
  La3+  La58  1  0.00037308  0.50012187  0.63658606  1
  La3+  La59  1  0.49801264  0.83610379  0.88286492  1
  La3+  La60  1  -0.00017089  0.83304142  0.86357366  1
  La3+  La61  1  0.49916578  0.49958474  0.11572562  1
  La3+  La62  1  0.49914745  0.49828589  0.13328129  1
  La3+  La63  1  0.00036823  0.16642756  0.86617357  1
  La3+  La64  1  0.50063630  0.16826947  0.13442364  1
  La3+  La65  1  0.50011622  0.83301572  0.13410279  1
  La3+  La66  1  0.00013883  0.50072364  0.61404801  1
  La3+  La67  1  0.50117008  0.83186279  0.63356487  1
  La3+  La68  1  0.49757021  0.49903353  0.61858937  1
  La3+  La69  1  0.00146721  0.16670385  0.11581981  1
  La3+  La70  1  0.00066237  0.16639394  0.63594169  1
  La3+  La71  1  0.50012468  0.83334216  0.38134953  1
  La3+  La72  1  0.75000783  0.83218282  0.26466785  1
  La3+  La73  1  0.25002708  0.80121774  0.47719650  1
  La3+  La74  1  0.24988064  0.16954943  0.50023992  1
  La3+  La75  1  0.74985419  0.52904480  0.22992428  1
  La3+  La76  1  0.24994784  0.50367335  0.48065710  1
  La3+  La77  1  0.25009562  0.80573690  -0.01982551  1
  La3+  La78  1  0.24991932  0.53175652  0.27773639  1
  La3+  La79  1  0.25019485  0.19497673  0.24875592  1
  La3+  La80  1  0.74989596  0.80559135  0.52305132  1
  La3+  La81  1  0.25006673  0.53133941  -0.02726672  1
  La3+  La82  1  0.24997948  0.83306332  0.74939380  1
  La3+  La83  1  0.24962577  0.49969834  0.76856147  1
  Ru4+  Ru84  1  -0.00124935  -0.00233913  0.00054582  1
  Ru4+  Ru85  1  -0.00005400  0.00042244  0.24940322  1
  Ru4+  Ru86  1  0.00587590  -0.00380608  0.50270941  1
  Ru4+  Ru87  1  -0.00078760  -0.00042017  0.74773308  1
  Ru4+  Ru88  1  -0.00139192  0.33248533  0.00035975  1
  Ru4+  Ru89  1  -0.00158697  0.33017050  0.25021978  1
  Ru4+  Ru90  1  -0.00062888  0.33177412  0.49863814  1
  Ru4+  Ru91  1  -0.00202522  0.33701959  0.75180394  1
  Ru4+  Ru92  1  -0.00167256  0.66729901  -0.00060129  1
  Ru4+  Ru93  1  -0.00010051  0.66540835  0.24840132  1
  Ru4+  Ru94  1  -0.00203236  0.66980992  0.50259280  1
  Ru4+  Ru95  1  -0.00095118  0.66760576  0.74967694  1
  Ru4+  Ru96  1  0.50000150  -0.00046710  -0.00333995  1
  Ru4+  Ru97  1  0.50199845  -0.00330959  0.25165816  1
  Ru4+  Ru98  1  0.50135652  0.00374842  0.49950507  1
  Ru4+  Ru99  1  0.50051775  0.00412458  0.75267715  1
  Ru4+  Ru100  1  0.49515952  0.32733880  -0.00017224  1
  Ru4+  Ru101  1  0.50148073  0.33973620  0.24699289  1
  Ru4+  Ru102  1  0.49939412  0.33348231  0.50292465  1
  Ru4+  Ru103  1  0.50053149  0.32788409  0.74784945  1
  Ru4+  Ru104  1  0.49897152  0.66544894  -0.00236189  1
  Ru4+  Ru105  1  0.50115707  0.66580112  0.25014435  1
  Ru4+  Ru106  1  0.49734721  0.66589407  0.49831926  1
  Ru4+  Ru107  1  0.49838517  0.66825379  0.75177594  1
  Ru4+  Ru108  1  0.11514807  0.16751275  0.00060822  1
  Ru4+  Ru109  1  0.11109335  0.16877522  0.25055373  1
  Ru4+  Ru110  1  0.11123835  0.16694760  0.49909006  1
  Ru4+  Ru111  1  0.11475846  0.16567617  0.74943559  1
  Ru4+  Ru112  1  0.11342071  0.50038431  -0.00013275  1
  Ru4+  Ru113  1  0.11305821  0.50149758  0.24976747  1
  Ru4+  Ru114  1  0.11390534  0.49792411  0.49971043  1
  Ru4+  Ru115  1  0.11176523  0.50004638  0.74927431  1
  Ru4+  Ru116  1  0.11186649  0.83397841  -0.00026170  1
  Ru4+  Ru117  1  0.11380072  0.83507800  0.24979423  1
  Ru4+  Ru118  1  0.11190165  0.83186806  0.49977329  1
  Ru4+  Ru119  1  0.11172423  0.83342411  0.75009069  1
  Ru4+  Ru120  1  0.61210386  0.16593511  -0.00011800  1
  Ru4+  Ru121  1  0.61517719  0.16507229  0.24981283  1
  Ru4+  Ru122  1  0.61280829  0.16671337  0.49982248  1
  Ru4+  Ru123  1  0.61333014  0.16599924  0.74988009  1
  Ru4+  Ru124  1  0.61667452  0.50644380  0.00071718  1
  Ru4+  Ru125  1  0.61234379  0.50058395  0.24971995  1
  Ru4+  Ru126  1  0.61483508  0.49898254  0.49968215  1
  Ru4+  Ru127  1  0.61556451  0.50155086  0.75025058  1
  Ru4+  Ru128  1  0.61463255  0.83432954  0.00000036  1
  Ru4+  Ru129  1  0.61280719  0.83221527  0.25012875  1
  Ru4+  Ru130  1  0.61256948  0.83278769  0.49927565  1
  Ru4+  Ru131  1  0.61337197  0.83438880  0.74998724  1
  Ru4+  Ru132  1  0.38610750  0.16650396  -0.00077375  1
  Ru4+  Ru133  1  0.38480820  0.16696683  0.24976973  1
  Ru4+  Ru134  1  0.38936723  0.16783739  0.50089687  1
  Ru4+  Ru135  1  0.38829052  0.16604855  0.75054839  1
  Ru4+  Ru136  1  0.38867621  0.49845515  0.00076161  1
  Ru4+  Ru137  1  0.38875689  0.50005814  0.24935573  1
  Ru4+  Ru138  1  0.38921492  0.50072182  0.49932232  1
  Ru4+  Ru139  1  0.38645361  0.50325950  0.75099131  1
  Ru4+  Ru140  1  0.38819905  0.83323495  -0.00017521  1
  Ru4+  Ru141  1  0.38668315  0.83467526  0.24991415  1
  Ru4+  Ru142  1  0.38610919  0.82970068  0.49979050  1
  Ru4+  Ru143  1  0.38705820  0.83215203  0.75025572  1
  Ru4+  Ru144  1  0.88681167  0.16652070  0.00010546  1
  Ru4+  Ru145  1  0.88624343  0.16649886  0.24978051  1
  Ru4+  Ru146  1  0.88400873  0.17172165  0.50152207  1
  Ru4+  Ru147  1  0.88558724  0.16555882  0.74977825  1
  Ru4+  Ru148  1  0.88612529  0.50116275  0.00011084  1
  Ru4+  Ru149  1  0.88762575  0.50115368  0.24999934  1
  Ru4+  Ru150  1  0.88597039  0.50032881  0.49994072  1
  Ru4+  Ru151  1  0.88660915  0.50081899  0.74974230  1
  Ru4+  Ru152  1  0.88688594  0.83230191  -0.00017946  1
  Ru4+  Ru153  1  0.88664123  0.83308953  0.25029984  1
  Ru4+  Ru154  1  0.88705045  0.83005827  0.49986888  1
  Ru4+  Ru155  1  0.88684699  0.83470803  0.74921816  1
  Ru4+  Ru156  1  0.24990816  0.06780647  0.24248770  1
  Ru4+  Ru157  1  0.25006871  0.38744041  0.75104692  1
  Ru4+  Ru158  1  0.74996234  0.94107338  0.49881333  1
  Ru4+  Ru159  1  0.25007556  0.08775147  0.74717568  1
  Ru4+  Ru160  1  0.25020444  0.93827420  0.00376608  1
  Ru4+  Ru161  1  0.25003385  0.61298019  0.50135764  1
  Ru4+  Ru162  1  0.75011105  0.90970679  -0.00150247  1
  Ru4+  Ru163  1  0.25001324  0.39264398  0.00181087  1
  Ru4+  Ru164  1  0.25005138  0.75315956  0.24939843  1
  Ru4+  Ru165  1  0.24998441  0.04787324  0.51455308  1
  Ru4+  Ru166  1  0.24998978  0.92601566  0.51099592  1
  Ru4+  Ru167  1  0.74994671  0.42400271  -0.00192576  1
  Ru4+  Ru168  1  0.74990834  0.39525337  0.25294450  1
  Ru4+  Ru169  1  0.25006305  0.39606873  0.24500210  1
  Ru4+  Ru170  1  0.25011933  0.39630423  0.50169476  1
  Ru4+  Ru171  1  0.24999465  0.24294004  -0.00142684  1
  Ru4+  Ru172  1  0.24996882  0.61091307  0.74857926  1
  Ru4+  Ru173  1  0.74987760  0.08330762  0.49948587  1
  Ru4+  Ru174  1  0.74993661  0.08710986  0.00020958  1
  Ru4+  Ru175  1  0.74989055  0.75266447  0.75110095  1
  Ru4+  Ru176  1  0.24987706  0.29104654  0.50000461  1
  Ru4+  Ru177  1  0.74976813  0.25008294  0.49731067  1
  Ru4+  Ru178  1  0.75000099  0.24748514  -0.00020935  1
  Ru4+  Ru179  1  0.75017751  0.41887412  0.75077163  1
  O2-  O180  1  0.16679365  0.08171432  0.00038558  1
  O2-  O181  1  0.16637660  0.08010366  0.25030699  1
  O2-  O182  1  0.16529925  0.07920545  0.50006012  1
  O2-  O183  1  0.16745954  0.08064732  0.75019358  1
  O2-  O184  1  0.16761701  0.41313746  0.00013032  1
  O2-  O185  1  0.16752898  0.41310960  0.24997471  1
  O2-  O186  1  0.16587951  0.41279850  0.50055564  1
  O2-  O187  1  0.16629602  0.41246605  0.75044021  1
  O2-  O188  1  0.16726621  0.74586129  -0.00013062  1
  O2-  O189  1  0.16768895  0.74734862  0.25052288  1
  O2-  O190  1  0.16752869  0.74641277  0.50043652  1
  O2-  O191  1  0.16763359  0.74723587  0.74947064  1
  O2-  O192  1  0.66765779  0.08080822  -0.00020607  1
  O2-  O193  1  0.66631794  0.08196866  0.24977394  1
  O2-  O194  1  0.66768335  0.08066379  0.50018032  1
  O2-  O195  1  0.66702233  0.08153728  0.75037194  1
  O2-  O196  1  0.66790876  0.41333469  -0.00028152  1
  O2-  O197  1  0.66746813  0.41300331  0.25005452  1
  O2-  O198  1  0.66661865  0.41471148  0.50031822  1
  O2-  O199  1  0.66804185  0.41456486  0.74928697  1
  O2-  O200  1  0.66767956  0.74820048  -0.00002693  1
  O2-  O201  1  0.66727691  0.74844525  0.25034513  1
  O2-  O202  1  0.66783374  0.74725677  0.49958765  1
  O2-  O203  1  0.66850851  0.74787714  0.75031484  1
  O2-  O204  1  0.33246748  0.25275712  0.00023893  1
  O2-  O205  1  0.33239771  0.25282657  0.24965202  1
  O2-  O206  1  0.33377414  0.25347740  0.49965897  1
  O2-  O207  1  0.33366842  0.25183339  0.75056358  1
  O2-  O208  1  0.33301967  0.58689576  0.00015394  1
  O2-  O209  1  0.33298104  0.58688373  0.25012414  1
  O2-  O210  1  0.33288884  0.58720563  0.50013285  1
  O2-  O211  1  0.33341291  0.58662500  0.74952897  1
  O2-  O212  1  0.33224812  0.92010130  0.00050230  1
  O2-  O213  1  0.33344077  0.91876982  0.25042460  1
  O2-  O214  1  0.33307057  0.92081256  0.49969020  1
  O2-  O215  1  0.33131784  0.91934153  0.74979009  1
  O2-  O216  1  0.83212424  0.25246541  -0.00017077  1
  O2-  O217  1  0.83290544  0.25277837  0.25005355  1
  O2-  O218  1  0.83247658  0.25245494  0.50030018  1
  O2-  O219  1  0.83311150  0.25233507  0.75004614  1
  O2-  O220  1  0.83360194  0.58516831  0.00007933  1
  O2-  O221  1  0.83413741  0.58534270  0.24977779  1
  O2-  O222  1  0.83244011  0.58531210  0.49998643  1
  O2-  O223  1  0.83311885  0.58521942  0.75018052  1
  O2-  O224  1  0.83228521  0.91977017  0.00000974  1
  O2-  O225  1  0.83279523  0.91912598  0.25030669  1
  O2-  O226  1  0.83278949  0.91974324  0.49971151  1
  O2-  O227  1  0.83273341  0.91742442  0.75083047  1
  O2-  O228  1  0.16709950  0.25271885  0.00015200  1
  O2-  O229  1  0.16819680  0.25278828  0.24958498  1
  O2-  O230  1  0.16621576  0.25404741  0.50018344  1
  O2-  O231  1  0.16739639  0.25211849  0.74996379  1
  O2-  O232  1  0.16773509  0.58632704  0.00042664  1
  O2-  O233  1  0.16683237  0.58634891  0.25020733  1
  O2-  O234  1  0.16674624  0.58720873  0.50037021  1
  O2-  O235  1  0.16669767  0.58731458  0.74994521  1
  O2-  O236  1  0.16695643  0.91975401  0.00013360  1
  O2-  O237  1  0.16722885  0.91872367  0.25052139  1
  O2-  O238  1  0.16657044  0.92061913  0.50016858  1
  O2-  O239  1  0.16801917  0.91975667  0.75011976  1
  O2-  O240  1  0.66774075  0.25221059  -0.00023795  1
  O2-  O241  1  0.66796474  0.25243683  0.25055683  1
  O2-  O242  1  0.66764793  0.25265946  0.50061120  1
  O2-  O243  1  0.66658915  0.25201183  0.74972036  1
  O2-  O244  1  0.66663126  0.58520901  0.00004077  1
  O2-  O245  1  0.66610128  0.58566627  0.25015790  1
  O2-  O246  1  0.66766361  0.58444327  0.49933618  1
  O2-  O247  1  0.66747324  0.58469997  0.75014744  1
  O2-  O248  1  0.66732346  0.91893829  0.00001648  1
  O2-  O249  1  0.66674745  0.91921193  0.24988678  1
  O2-  O250  1  0.66680090  0.91979656  0.50030056  1
  O2-  O251  1  0.66649099  0.91809523  0.75013888  1
  O2-  O252  1  0.33288450  0.08178142  0.00112843  1
  O2-  O253  1  0.33335765  0.08009754  0.25020037  1
  O2-  O254  1  0.33466252  0.07936886  0.49942946  1
  O2-  O255  1  0.33183796  0.08073952  0.74979040  1
  O2-  O256  1  0.33214868  0.41337991  -0.00032244  1
  O2-  O257  1  0.33280636  0.41319807  0.24965606  1
  O2-  O258  1  0.33406359  0.41269290  0.50026427  1
  O2-  O259  1  0.33377799  0.41281107  0.75005643  1
  O2-  O260  1  0.33321712  0.74623253  0.00020246  1
  O2-  O261  1  0.33205800  0.74721859  0.25006352  1
  O2-  O262  1  0.33301951  0.74594489  0.50033912  1
  O2-  O263  1  0.33250920  0.74752801  0.74984959  1
  O2-  O264  1  0.83229057  0.08108388  -0.00021708  1
  O2-  O265  1  0.83352807  0.08144519  0.24999822  1
  O2-  O266  1  0.83177618  0.08043973  0.49968981  1
  O2-  O267  1  0.83286592  0.08239783  0.75111566  1
  O2-  O268  1  0.83269381  0.41363668  0.00006744  1
  O2-  O269  1  0.83264830  0.41287082  0.24987143  1
  O2-  O270  1  0.83349417  0.41457273  0.50020231  1
  O2-  O271  1  0.83114310  0.41427380  0.74982138  1
  O2-  O272  1  0.83324321  0.74779946  0.00029853  1
  O2-  O273  1  0.83307418  0.74819024  0.25024255  1
  O2-  O274  1  0.83254083  0.74754681  0.49986242  1
  O2-  O275  1  0.83201447  0.74797948  0.75020120  1
  O2-  O276  1  0.45479022  0.90178873  0.48040208  1
  O2-  O277  1  0.04661243  0.90242575  0.51497562  1
  O2-  O278  1  0.54031476  0.77238265  0.97431385  1
  O2-  O279  1  0.02773948  0.54238748  0.98282245  1
  O2-  O280  1  0.04522807  0.09716239  0.26490800  1
  O2-  O281  1  0.46200046  0.11472946  0.99360676  1
  O2-  O282  1  0.45515614  0.09845384  0.51477810  1
  O2-  O283  1  0.45415280  0.76654216  0.23613261  1
  O2-  O284  1  0.53961332  0.77396089  0.49717547  1
  O2-  O285  1  0.52949219  0.54784554  0.51268734  1
  O2-  O286  1  0.04463323  0.76624587  0.98417380  1
  O2-  O287  1  0.45107631  0.23567036  0.26613554  1
  O2-  O288  1  0.45502397  0.56697236  0.26409719  1
  O2-  O289  1  0.54381939  0.76909945  0.51456298  1
  O2-  O290  1  0.04488891  0.23491835  0.98519368  1
  O2-  O291  1  0.45491170  0.56899417  0.01434613  1
  O2-  O292  1  0.54570555  0.09447504  0.75038375  1
  O2-  O293  1  0.95338512  0.76336900  0.51511717  1
  O2-  O294  1  0.04682396  0.09608498  0.98295392  1
  O2-  O295  1  0.45323443  0.43106978  0.77067810  1
  O2-  O296  1  0.04507998  0.76729431  0.26466624  1
  O2-  O297  1  0.45445623  0.90239403  0.51980382  1
  O2-  O298  1  0.95400666  0.23406744  0.73568878  1
  O2-  O299  1  0.45067666  0.10077278  0.76379335  1
  O2-  O300  1  0.04509372  0.56828360  0.23588642  1
  O2-  O301  1  0.54472740  0.90147686  0.23633744  1
  O2-  O302  1  0.45401869  0.09770845  0.23137704  1
  O2-  O303  1  0.45267579  0.42959038  0.98431193  1
  O2-  O304  1  0.04826817  0.23616181  0.76624760  1
  O2-  O305  1  0.04646284  0.23777118  0.23560447  1
  O2-  O306  1  0.45288004  0.43332715  0.73138887  1
  O2-  O307  1  0.04542721  0.43130149  0.48527598  1
  O2-  O308  1  0.54736067  0.42825506  0.51474992  1
  O2-  O309  1  0.45177311  0.43295985  0.51327264  1
  O2-  O310  1  0.04193885  0.43915397  0.27733120  1
  O2-  O311  1  0.54184308  0.22541649  0.27709538  1
  O2-  O312  1  0.94753671  0.08673123  0.46667890  1
  O2-  O313  1  0.54792260  0.09888051  0.98557660  1
  O2-  O314  1  0.04155706  0.22925340  0.26168797  1
  O2-  O315  1  0.95869234  0.77056986  0.48873210  1
  O2-  O316  1  0.45823150  0.43992874  0.01345067  1
  O2-  O317  1  0.54358842  0.43979984  0.72300164  1
  O2-  O318  1  0.45536629  0.09804745  0.27075259  1
  O2-  O319  1  0.54773846  0.10330296  0.74892538  1
  O2-  O320  1  0.04592267  0.57123894  0.48660656  1
  O2-  O321  1  0.55423990  0.41903907  0.96652012  1
  O2-  O322  1  0.95778829  0.89480126  0.47314936  1
  O2-  O323  1  0.95361780  0.43132346  0.26442320  1
  O2-  O324  1  0.93546495  0.92727801  0.72081591  1
  O2-  O325  1  0.57065687  0.60057525  0.44227349  1
  O2-  O326  1  0.06925228  0.39600868  0.20424479  1
  O2-  O327  1  0.93182032  0.73341163  0.46851223  1
  O2-  O328  1  0.94663467  0.08591063  0.46618208  1
  O2-  O329  1  0.93641641  0.93096641  0.21713693  1
  O2-  O330  1  0.93527626  0.73774006  0.72082594  1
  O2-  O331  1  0.57718772  0.61114769  0.55467256  1
  O2-  O332  1  0.56453357  0.59748784  0.79980776  1
  O2-  O333  1  0.06315443  0.59341351  0.47132766  1
  O2-  O334  1  0.43584390  0.26416388  0.96746230  1
  O2-  O335  1  0.07057736  0.60248946  0.05737093  1
  O2-  O336  1  0.43546350  0.92674978  0.97035616  1
  O2-  O337  1  0.06534488  0.73842818  0.46984149  1
  O2-  O338  1  0.06476343  0.92901370  0.22035140  1
  O2-  O339  1  0.56495772  0.73774945  0.21982617  1
  O2-  O340  1  0.06203323  0.07022727  0.96852949  1
  O2-  O341  1  0.43448862  0.92741028  0.79835770  1
  O2-  O342  1  0.43575165  0.26145372  0.27920446  1
  O2-  O343  1  0.93539277  0.40435585  0.72000583  1
  O2-  O344  1  0.43547002  0.93140857  0.69845566  1
  O2-  O345  1  0.06402296  0.40166993  0.04857879  1
  O2-  O346  1  0.06668992  0.26774226  0.28286517  1
  O2-  O347  1  0.92899816  0.93622555  0.54201022  1
  O2-  O348  1  0.43260002  0.39801828  0.03512084  1
  O2-  O349  1  0.93577157  0.06899505  0.03266654  1
  O2-  O350  1  0.56485829  0.73852728  0.72025540  1
  O2-  O351  1  0.56589135  0.59372330  0.70420414  1
  O2-  O352  1  0.43443079  0.59652246  0.47053306  1
  O2-  O353  1  0.57051714  0.26939388  0.20832540  1
  O2-  O354  1  0.93614769  0.73585429  0.21705577  1
  O2-  O355  1  0.07472636  0.61526268  0.94133917  1
  O2-  O356  1  0.06387408  0.59818113  0.71730630  1
  O2-  O357  1  0.57057211  0.72990019  0.04182796  1
  O2-  O358  1  0.06227513  0.26265372  0.78192333  1
  O2-  O359  1  0.56848240  0.39419902  0.79515234  1
  O2-  O360  1  0.42543379  0.05872660  0.96337010  1
  O2-  O361  1  0.93543867  0.07216276  0.72059463  1
  O2-  O362  1  0.55419202  0.41910784  0.96638464  1
  O2-  O363  1  0.06431186  0.26451253  0.46737912  1
  O2-  O364  1  0.93518424  0.59402262  0.46970400  1
  O2-  O365  1  0.93145220  0.06925779  0.54458239  1
  O2-  O366  1  0.56911089  0.40068554  0.04470391  1
  O2-  O367  1  0.57361835  0.72694800  0.46140312  1
  O2-  O368  1  0.43478627  0.59570631  0.78021033  1
  O2-  O369  1  0.43465374  0.26256132  0.52905476  1
  O2-  O370  1  0.06405627  0.40174771  0.95201325  1
  O2-  O371  1  0.93624262  0.26505806  0.96765013  1
  O2-  O372  1  0.74996511  0.66718331  0.34287817  1
  O2-  O373  1  0.75000882  0.33193093  0.40807771  1
  O2-  O374  1  0.24984751  0.33288412  0.65522680  1
  O2-  O375  1  0.24992865  0.66812194  0.65395573  1
  O2-  O376  1  0.74992413  0.66600319  0.83069895  1
  O2-  O377  1  0.74996214  0.33520363  0.84225378  1
  O2-  O378  1  0.74990685  -0.00016507  0.09211637  1
  O2-  O379  1  0.74996133  0.00007633  0.83036800  1
  O2-  O380  1  0.24988802  0.00004723  0.90478518  1
  O2-  O381  1  0.25004519  -0.00734836  0.32687821  1
  O2-  O382  1  0.75007912  0.66605139  0.15742805  1
  O2-  O383  1  0.25002870  -0.00366852  0.41088774  1
  O2-  O384  1  0.24996866  0.33123206  0.34440744  1
  O2-  O385  1  0.25005596  0.00028544  0.65881957  1
  O2-  O386  1  0.74976613  -0.00064533  0.65157751  1
  O2-  O387  1  0.24987123  0.66850991  0.84629817  1
  O2-  O388  1  0.74991880  0.66747023  0.91837683  1
  O2-  O389  1  0.75005616  0.33328308  0.09288854  1
  O2-  O390  1  0.25013853  0.66742424  0.15869768  1
  O2-  O391  1  0.75000600  0.66602326  0.67038481  1
  O2-  O392  1  0.25009295  -0.00162331  0.15472303  1
  O2-  O393  1  0.75002780  0.66801293  0.58030781  1
  O2-  O394  1  0.75023288  -0.00054231  0.34680186  1
  O2-  O395  1  0.74996629  -0.00025443  0.92049274  1
  O2-  O396  1  0.74998247  0.16728693  0.58290009  1
  O2-  O397  1  0.75003607  0.16649698  0.41057522  1
  O2-  O398  1  0.25001821  0.16889979  0.09076358  1
  O2-  O399  1  0.25012872  0.50049708  0.66021412  1
  O2-  O400  1  0.25000115  0.83146192  0.33720277  1
  O2-  O401  1  0.75004840  0.49656557  0.91104002  1
  O2-  O402  1  0.75005666  0.49629883  0.35793759  1
  O2-  O403  1  0.74999545  0.16681585  0.08240335  1
  O2-  O404  1  0.75004702  0.49760201  0.08807421  1
  O2-  O405  1  0.74998663  0.16671486  0.66763600  1
  O2-  O406  1  0.24988609  0.49622382  0.08683979  1
  O2-  O407  1  0.74994578  0.16687875  0.16753163  1
  O2-  O408  1  0.25001044  0.49821478  0.87423714  1
  O2-  O409  1  0.74998362  0.83551516  0.91199844  1
  O2-  O410  1  0.24991709  0.49532764  0.16382772  1
  O2-  O411  1  0.75000496  0.83466838  0.13957642  1
  O2-  O412  1  0.75000224  0.83552901  0.39405091  1
  O2-  O413  1  0.25003676  0.49827342  0.37610259  1
  O2-  O414  1  0.75000376  0.49850460  0.59269745  1
  O2-  O415  1  0.25001312  0.16420837  0.66218186  1
  O2-  O416  1  0.25002771  0.16982378  0.91110462  1
  O2-  O417  1  0.24996337  0.83583356  0.10863445  1
  O2-  O418  1  0.25010373  0.49990169  0.58858280  1
  O2-  O419  1  0.24996754  0.83652067  0.61040555  1
  O2-  O420  1  0.46725599  0.66675984  0.12552160  1
  O2-  O421  1  0.02958069  0.66709228  0.37011568  1
  O2-  O422  1  0.46979969  0.66931827  0.37274598  1
  O2-  O423  1  0.97858289  -0.00022288  0.62636452  1
  O2-  O424  1  0.46653940  0.66651051  0.62464520  1
  O2-  O425  1  0.97009747  0.66572764  0.36821108  1
  O2-  O426  1  0.52447868  0.33295218  0.12637445  1
  O2-  O427  1  0.47327147  0.66923735  0.87741855  1
  O2-  O428  1  0.46809846  -0.00060984  0.12480372  1
  O2-  O429  1  0.02611672  0.67058167  0.12815065  1
  O2-  O430  1  0.03373192  0.33311780  0.62486691  1
  O2-  O431  1  0.52783947  0.00028439  0.37468302  1
  O2-  O432  1  0.47364497  0.33366595  0.62771983  1
  O2-  O433  1  0.52940748  0.66106763  0.12664696  1
  O2-  O434  1  0.47752230  0.00058491  0.87433581  1
  O2-  O435  1  0.97242766  0.66725346  0.87514392  1
  O2-  O436  1  0.53198230  0.00047881  0.12402776  1
  O2-  O437  1  0.47033572  0.33554640  0.37780099  1
  O2-  O438  1  0.02675571  0.00190738  0.12175448  1
  O2-  O439  1  0.97347562  0.66332894  0.62294549  1
  O2-  O440  1  0.96779191  0.33221742  0.62055922  1
  O2-  O441  1  0.53071296  0.33368639  0.37554488  1
  O2-  O442  1  0.52724578  0.67130993  0.62439980  1
  O2-  O443  1  0.52854876  0.66800404  0.36880610  1
