# generated using pymatgen
data_La7(Ru4O11)2
_symmetry_space_group_name_H-M   'P 1'
_cell_length_a   23.99266086
_cell_length_b   16.83274158
_cell_length_c   15.42935992
_cell_angle_alpha   90.00177755
_cell_angle_beta   89.99990909
_cell_angle_gamma   90.00337297
_symmetry_Int_Tables_number   1
_chemical_formula_structural   La7(Ru4O11)2
_chemical_formula_sum   'La84 Ru96 O264'
_cell_volume   6231.33615450
_cell_formula_units_Z   12
loop_
 _symmetry_equiv_pos_site_id
 _symmetry_equiv_pos_as_xyz
  1  'x, y, z'
loop_
 _atom_type_symbol
 _atom_type_oxidation_number
  La3+  3.0
  Ru4+  4.0
  O2-  -2.0
loop_
 _atom_site_type_symbol
 _atom_site_label
 _atom_site_symmetry_multiplicity
 _atom_site_fract_x
 _atom_site_fract_y
 _atom_site_fract_z
 _atom_site_occupancy
  La3+  La0  1  0.14105873  -0.00275861  0.12209290  1
  La3+  La1  1  0.13926189  -0.00201354  0.37781035  1
  La3+  La2  1  0.14197822  -0.00120432  0.62691938  1
  La3+  La3  1  0.14760329  -0.00634547  0.87298909  1
  La3+  La4  1  0.14037332  0.33176865  0.12691662  1
  La3+  La5  1  0.13404634  0.33812487  0.37541085  1
  La3+  La6  1  0.14533213  0.32884192  0.63002315  1
  La3+  La7  1  0.14135815  0.33113981  0.87148511  1
  La3+  La8  1  0.14629956  0.66529614  0.12428153  1
  La3+  La9  1  0.14101680  0.66520189  0.37396706  1
  La3+  La10  1  0.14013518  0.66520529  0.62420483  1
  La3+  La11  1  0.13699330  0.66697840  0.87584740  1
  La3+  La12  1  0.64518461  -0.00115393  0.13049754  1
  La3+  La13  1  0.64709253  0.00039585  0.37110483  1
  La3+  La14  1  0.64019755  0.00031624  0.62624947  1
  La3+  La15  1  0.63602335  -0.00107609  0.87886694  1
  La3+  La16  1  0.64064321  0.32904340  0.12309115  1
  La3+  La17  1  0.63481411  0.32892778  0.37844646  1
  La3+  La18  1  0.63637819  0.33163364  0.61905189  1
  La3+  La19  1  0.63357638  0.33039004  0.87997243  1
  La3+  La20  1  0.64112169  0.67087160  0.12712701  1
  La3+  La21  1  0.63303801  0.66855251  0.37767646  1
  La3+  La22  1  0.64792095  0.66592327  0.62302299  1
  La3+  La23  1  0.63591410  0.67098186  0.87023609  1
  La3+  La24  1  0.36070446  -0.00355114  0.12455277  1
  La3+  La25  1  0.36063925  -0.00585432  0.37651243  1
  La3+  La26  1  0.35818709  -0.00367696  0.62912644  1
  La3+  La27  1  0.35941308  -0.00069579  0.87870764  1
  La3+  La28  1  0.36966036  0.34226935  0.12381294  1
  La3+  La29  1  0.36847311  0.33723166  0.37250813  1
  La3+  La30  1  0.35031302  0.33482912  0.63330400  1
  La3+  La31  1  0.36655605  0.34146839  0.88364127  1
  La3+  La32  1  0.35845139  0.66907107  0.12111702  1
  La3+  La33  1  0.35117584  0.66118130  0.37429068  1
  La3+  La34  1  0.36068260  0.66628522  0.62005474  1
  La3+  La35  1  0.35335723  0.66902506  0.88197206  1
  La3+  La36  1  0.85744779  -0.00002856  0.12854324  1
  La3+  La37  1  0.85490043  0.00129989  0.37168709  1
  La3+  La38  1  0.85972740  0.00177148  0.62133794  1
  La3+  La39  1  0.86201066  0.00334313  0.87814551  1
  La3+  La40  1  0.85793858  0.32897829  0.12211884  1
  La3+  La41  1  0.86286709  0.32941890  0.37876663  1
  La3+  La42  1  0.85780491  0.33336427  0.62132608  1
  La3+  La43  1  0.85902752  0.33459330  0.87157925  1
  La3+  La44  1  0.85731441  0.67487771  0.12809518  1
  La3+  La45  1  0.86817789  0.66562759  0.37331658  1
  La3+  La46  1  0.85251767  0.66709724  0.62161211  1
  La3+  La47  1  0.86341210  0.66747222  0.86969890  1
  La3+  La48  1  0.50127292  0.84438451  0.10469792  1
  La3+  La49  1  0.50024136  0.50117730  0.62556710  1
  La3+  La50  1  0.00397488  0.83608071  0.63074844  1
  La3+  La51  1  0.50380458  0.16750279  0.35784489  1
  La3+  La52  1  0.49319418  0.49443602  0.13121714  1
  La3+  La53  1  0.50307273  0.49958235  0.36915286  1
  La3+  La54  1  0.50258567  0.16432000  0.86880753  1
  La3+  La55  1  0.49835865  0.16718565  0.62816213  1
  La3+  La56  1  0.00003318  0.16520193  0.62038932  1
  La3+  La57  1  0.49910387  0.49757812  0.87191692  1
  La3+  La58  1  -0.00589055  0.84626638  0.86955099  1
  La3+  La59  1  -0.00540707  0.50487185  0.38327242  1
  La3+  La60  1  0.50542610  0.15452306  0.37520027  1
  La3+  La61  1  -0.00338835  0.83418827  0.37079504  1
  La3+  La62  1  0.00250625  0.50392541  0.87823049  1
  La3+  La63  1  0.00318743  0.49934134  0.64003964  1
  La3+  La64  1  0.49880265  0.50193383  0.88794707  1
  La3+  La65  1  0.50165989  0.84637257  0.12144259  1
  La3+  La66  1  0.50739341  0.83657153  0.62776320  1
  La3+  La67  1  -0.00071148  0.50136292  0.12770414  1
  La3+  La68  1  0.00673816  0.49865348  0.61830002  1
  La3+  La69  1  -0.00461038  0.82295980  0.12906497  1
  La3+  La70  1  0.50156374  0.49549419  0.11260046  1
  La3+  La71  1  0.00176683  0.16798038  0.38342841  1
  La3+  La72  1  0.75061655  0.78476261  0.46005339  1
  La3+  La73  1  0.75014576  0.84828608  0.00656853  1
  La3+  La74  1  0.25113236  0.45784971  0.73522974  1
  La3+  La75  1  0.24984290  0.17313719  0.73963801  1
  La3+  La76  1  0.74759629  0.44003188  0.74395452  1
  La3+  La77  1  0.75057861  0.16347265  0.48168178  1
  La3+  La78  1  0.24978305  0.50375245  0.24656422  1
  La3+  La79  1  0.74993923  0.50996320  0.26029076  1
  La3+  La80  1  0.74996935  0.16948773  0.00615893  1
  La3+  La81  1  0.25310393  0.10913304  -0.00740917  1
  La3+  La82  1  0.75045784  0.13135883  0.74697310  1
  La3+  La83  1  0.25259438  0.17339262  0.22842574  1
  Ru4+  Ru84  1  0.00204704  0.01939217  -0.00277029  1
  Ru4+  Ru85  1  0.00600134  -0.00095554  0.25729100  1
  Ru4+  Ru86  1  -0.00179321  -0.00299552  0.49622852  1
  Ru4+  Ru87  1  -0.00019351  0.00330971  0.75153558  1
  Ru4+  Ru88  1  -0.00628721  0.32287833  -0.00226729  1
  Ru4+  Ru89  1  0.00655794  0.32800678  0.24688082  1
  Ru4+  Ru90  1  0.00485017  0.33857032  0.49444708  1
  Ru4+  Ru91  1  -0.00206126  0.32658701  0.76080585  1
  Ru4+  Ru92  1  0.01029030  0.67501773  0.00486259  1
  Ru4+  Ru93  1  -0.00092555  0.66372821  0.25788914  1
  Ru4+  Ru94  1  0.00074541  0.66915426  0.50299654  1
  Ru4+  Ru95  1  0.00070104  0.67597088  0.75275145  1
  Ru4+  Ru96  1  0.50448973  0.01083047  0.00387983  1
  Ru4+  Ru97  1  0.49971083  -0.00574846  0.25738206  1
  Ru4+  Ru98  1  0.49908987  0.00002509  0.49334104  1
  Ru4+  Ru99  1  0.50144969  0.00014420  0.75425693  1
  Ru4+  Ru100  1  0.50005653  0.32810995  0.00328345  1
  Ru4+  Ru101  1  0.50620378  0.32557856  0.24189570  1
  Ru4+  Ru102  1  0.49404923  0.33789745  0.50299672  1
  Ru4+  Ru103  1  0.50380428  0.33365693  0.74763003  1
  Ru4+  Ru104  1  0.49628688  0.67009446  -0.00073298  1
  Ru4+  Ru105  1  0.49505554  0.67430805  0.26027037  1
  Ru4+  Ru106  1  0.49498047  0.67392552  0.49166538  1
  Ru4+  Ru107  1  0.50158205  0.68245134  0.75664005  1
  Ru4+  Ru108  1  0.10897816  0.15973721  -0.00660573  1
  Ru4+  Ru109  1  0.10352063  0.16658087  0.24942925  1
  Ru4+  Ru110  1  0.11321138  0.16439142  0.50347123  1
  Ru4+  Ru111  1  0.10668761  0.16553281  0.75100117  1
  Ru4+  Ru112  1  0.11175368  0.49811450  0.00115231  1
  Ru4+  Ru113  1  0.11038854  0.49782070  0.24848241  1
  Ru4+  Ru114  1  0.11131082  0.49778561  0.49728327  1
  Ru4+  Ru115  1  0.11628125  0.49403731  0.74908964  1
  Ru4+  Ru116  1  0.10874487  0.83295622  -0.00309823  1
  Ru4+  Ru117  1  0.11038758  0.83972181  0.25182131  1
  Ru4+  Ru118  1  0.11304077  0.83477057  0.50201254  1
  Ru4+  Ru119  1  0.11161200  0.83424906  0.74717820  1
  Ru4+  Ru120  1  0.60414898  0.15805653  0.00352901  1
  Ru4+  Ru121  1  0.61507613  0.16711879  0.24999988  1
  Ru4+  Ru122  1  0.61844352  0.15716313  0.50221811  1
  Ru4+  Ru123  1  0.61176801  0.16296643  0.74814336  1
  Ru4+  Ru124  1  0.61565414  0.50081687  -0.00594229  1
  Ru4+  Ru125  1  0.61370447  0.49664348  0.25412418  1
  Ru4+  Ru126  1  0.61450162  0.50020793  0.50050318  1
  Ru4+  Ru127  1  0.60574450  0.50128582  0.75057365  1
  Ru4+  Ru128  1  0.60720896  0.83366797  0.00300422  1
  Ru4+  Ru129  1  0.61774559  0.83296418  0.25107355  1
  Ru4+  Ru130  1  0.60894491  0.83433159  0.49954359  1
  Ru4+  Ru131  1  0.61024784  0.82830789  0.75249728  1
  Ru4+  Ru132  1  0.39139799  0.17107526  -0.00092035  1
  Ru4+  Ru133  1  0.39153104  0.16650749  0.25227393  1
  Ru4+  Ru134  1  0.38192134  0.16312450  0.50189364  1
  Ru4+  Ru135  1  0.38798490  0.16500607  0.75120106  1
  Ru4+  Ru136  1  0.38734878  0.50050258  -0.00671207  1
  Ru4+  Ru137  1  0.38352706  0.50733876  0.25105455  1
  Ru4+  Ru138  1  0.38690926  0.50444341  0.50316684  1
  Ru4+  Ru139  1  0.39139788  0.50516802  0.75390393  1
  Ru4+  Ru140  1  0.38498921  0.83691613  -0.00525452  1
  Ru4+  Ru141  1  0.39004754  0.82733488  0.25600517  1
  Ru4+  Ru142  1  0.38993441  0.82534888  0.49649324  1
  Ru4+  Ru143  1  0.38796099  0.82789625  0.75707713  1
  Ru4+  Ru144  1  0.89565462  0.17043143  -0.00312432  1
  Ru4+  Ru145  1  0.88296774  0.16455330  0.24848292  1
  Ru4+  Ru146  1  0.88787563  0.16483268  0.50178726  1
  Ru4+  Ru147  1  0.89200973  0.16281469  0.75478961  1
  Ru4+  Ru148  1  0.88838889  0.50144621  0.00009890  1
  Ru4+  Ru149  1  0.89007116  0.50482576  0.24050730  1
  Ru4+  Ru150  1  0.88379804  0.50286166  0.49969764  1
  Ru4+  Ru151  1  0.89072971  0.49673414  0.75503469  1
  Ru4+  Ru152  1  0.89329657  0.83354272  -0.00088801  1
  Ru4+  Ru153  1  0.88376921  0.83246684  0.24910897  1
  Ru4+  Ru154  1  0.89011289  0.83264728  0.50017716  1
  Ru4+  Ru155  1  0.88685807  0.83467281  0.74956539  1
  Ru4+  Ru156  1  0.24923389  0.77159214  0.75823872  1
  Ru4+  Ru157  1  0.25054207  0.91214158  0.75307711  1
  Ru4+  Ru158  1  0.24991226  0.31406665  0.26803438  1
  Ru4+  Ru159  1  0.75001313  0.99036591  0.01751047  1
  Ru4+  Ru160  1  0.75066510  0.36344294  0.28247976  1
  Ru4+  Ru161  1  0.24892232  0.74930608  0.50396926  1
  Ru4+  Ru162  1  0.24881717  0.57843347  0.00232807  1
  Ru4+  Ru163  1  0.25055286  0.26804423  0.01391736  1
  Ru4+  Ru164  1  0.75005544  0.71485039  -0.00408200  1
  Ru4+  Ru165  1  0.75059468  0.58668559  -0.00243021  1
  Ru4+  Ru166  1  0.74958660  0.93172993  0.50768824  1
  Ru4+  Ru167  1  0.75018551  0.91201288  0.75982148  1
  Ru4+  Ru168  1  0.25044354  0.60062260  0.73504891  1
  Ru4+  Ru169  1  0.75086966  0.39803644  -0.01651845  1
  Ru4+  Ru170  1  0.25037388  0.42980513  0.49598495  1
  Ru4+  Ru171  1  0.25009887  0.03626399  0.28541524  1
  Ru4+  Ru172  1  0.74939222  0.61163759  0.73411561  1
  Ru4+  Ru173  1  0.24939788  0.25569364  0.50186379  1
  Ru4+  Ru174  1  0.24978124  0.06688777  0.51468394  1
  Ru4+  Ru175  1  0.25030097  0.89812364  0.24466644  1
  Ru4+  Ru176  1  0.24920145  0.75113670  0.25611311  1
  Ru4+  Ru177  1  0.75055015  0.65462291  0.26357092  1
  Ru4+  Ru178  1  0.24902287  0.43253849  -0.00367007  1
  Ru4+  Ru179  1  0.74976379  0.27471617  0.75875071  1
  O2-  O180  1  0.16398161  0.07997957  0.00296537  1
  O2-  O181  1  0.16850056  0.07855772  0.25075052  1
  O2-  O182  1  0.16820361  0.08006138  0.50490962  1
  O2-  O183  1  0.16568430  0.08354427  0.74868437  1
  O2-  O184  1  0.16604315  0.41547964  -0.00205410  1
  O2-  O185  1  0.17274106  0.41517330  0.25536462  1
  O2-  O186  1  0.16887758  0.41418114  0.49740912  1
  O2-  O187  1  0.16465100  0.40947295  0.75199532  1
  O2-  O188  1  0.16546890  0.75462961  -0.00478350  1
  O2-  O189  1  0.16484889  0.74878727  0.24886304  1
  O2-  O190  1  0.16685195  0.74811805  0.49769103  1
  O2-  O191  1  0.16395507  0.74797984  0.75108746  1
  O2-  O192  1  0.67412891  0.08671151  -0.00224784  1
  O2-  O193  1  0.66233062  0.08211244  0.24899224  1
  O2-  O194  1  0.66871055  0.07675533  0.50265356  1
  O2-  O195  1  0.66694495  0.07693962  0.75286484  1
  O2-  O196  1  0.66792761  0.41108478  -0.00296173  1
  O2-  O197  1  0.67017580  0.40958350  0.25265640  1
  O2-  O198  1  0.66207806  0.41179145  0.49958300  1
  O2-  O199  1  0.65520624  0.40782026  0.75080994  1
  O2-  O200  1  0.66498959  0.74306231  -0.00154547  1
  O2-  O201  1  0.66346890  0.74153322  0.25208868  1
  O2-  O202  1  0.66305012  0.74261254  0.49798992  1
  O2-  O203  1  0.66568507  0.74947727  0.75401316  1
  O2-  O204  1  0.33551818  0.25642913  0.00204571  1
  O2-  O205  1  0.33507587  0.25934653  0.25367631  1
  O2-  O206  1  0.33185152  0.25371929  0.49529239  1
  O2-  O207  1  0.33696205  0.24977075  0.75320475  1
  O2-  O208  1  0.33253868  0.58348400  0.00194852  1
  O2-  O209  1  0.33014457  0.58641092  0.24446070  1
  O2-  O210  1  0.33294066  0.58242129  0.50069320  1
  O2-  O211  1  0.33333147  0.58724037  0.74500498  1
  O2-  O212  1  0.33365917  0.91714988  0.00055732  1
  O2-  O213  1  0.33331819  0.91288607  0.25061942  1
  O2-  O214  1  0.33957272  0.91511185  0.50234275  1
  O2-  O215  1  0.33307465  0.91533303  0.75053061  1
  O2-  O216  1  0.83006059  0.24730441  0.00137470  1
  O2-  O217  1  0.83843706  0.25256082  0.24952140  1
  O2-  O218  1  0.83199878  0.25317497  0.49873655  1
  O2-  O219  1  0.83319296  0.24989841  0.74856167  1
  O2-  O220  1  0.83455702  0.58523252  -0.00128385  1
  O2-  O221  1  0.83045261  0.59077163  0.25224680  1
  O2-  O222  1  0.83411702  0.58438240  0.49992832  1
  O2-  O223  1  0.83158880  0.58658336  0.74937726  1
  O2-  O224  1  0.83484798  0.92259609  -0.00089968  1
  O2-  O225  1  0.83852859  0.91896287  0.24987618  1
  O2-  O226  1  0.83284853  0.91939696  0.50165123  1
  O2-  O227  1  0.83398535  0.91981655  0.75160628  1
  O2-  O228  1  0.16537132  0.25429079  -0.00013931  1
  O2-  O229  1  0.16814687  0.25499170  0.25239555  1
  O2-  O230  1  0.16604259  0.25331068  0.49756508  1
  O2-  O231  1  0.16314887  0.24771577  0.75240211  1
  O2-  O232  1  0.16477830  0.58417589  -0.00230698  1
  O2-  O233  1  0.16750443  0.58266569  0.25140662  1
  O2-  O234  1  0.16058271  0.58545326  0.49860075  1
  O2-  O235  1  0.16674622  0.58682485  0.74831193  1
  O2-  O236  1  0.16488932  0.91196539  0.00206499  1
  O2-  O237  1  0.16937079  0.91677547  0.25121421  1
  O2-  O238  1  0.16491533  0.91656782  0.50303376  1
  O2-  O239  1  0.16861971  0.91669221  0.74883001  1
  O2-  O240  1  0.66689729  0.24477599  -0.00216481  1
  O2-  O241  1  0.66178047  0.25386000  0.25120677  1
  O2-  O242  1  0.66897036  0.25393132  0.50189954  1
  O2-  O243  1  0.66640870  0.25281232  0.75319871  1
  O2-  O244  1  0.66738576  0.58760450  -0.00090283  1
  O2-  O245  1  0.66496569  0.59068423  0.25100960  1
  O2-  O246  1  0.66265413  0.58513814  0.49512531  1
  O2-  O247  1  0.66722096  0.58692180  0.75156511  1
  O2-  O248  1  0.66552896  0.92147867  -0.00201478  1
  O2-  O249  1  0.66358556  0.91744129  0.25209170  1
  O2-  O250  1  0.66421341  0.91904132  0.50098860  1
  O2-  O251  1  0.66652474  0.91968461  0.75100534  1
  O2-  O252  1  0.34566991  0.07792194  0.00005603  1
  O2-  O253  1  0.33489423  0.07606219  0.25123477  1
  O2-  O254  1  0.33276500  0.07747510  0.50391445  1
  O2-  O255  1  0.33101611  0.08126329  0.74957059  1
  O2-  O256  1  0.33240971  0.41717476  -0.00190611  1
  O2-  O257  1  0.33103348  0.41241870  0.25440265  1
  O2-  O258  1  0.33517998  0.41542463  0.49218195  1
  O2-  O259  1  0.34135175  0.41349989  0.75706667  1
  O2-  O260  1  0.33388704  0.75138277  0.00240318  1
  O2-  O261  1  0.33068238  0.74796942  0.24459181  1
  O2-  O262  1  0.32806092  0.75195294  0.50057901  1
  O2-  O263  1  0.32818820  0.75411208  0.74598492  1
  O2-  O264  1  0.83063615  0.08542843  0.00088122  1
  O2-  O265  1  0.83150348  0.08505161  0.24951425  1
  O2-  O266  1  0.83298197  0.08198497  0.50172144  1
  O2-  O267  1  0.83390246  0.07753781  0.74900165  1
  O2-  O268  1  0.83505263  0.41252444  0.00019162  1
  O2-  O269  1  0.83561113  0.41071292  0.25111284  1
  O2-  O270  1  0.83762682  0.41171384  0.49884726  1
  O2-  O271  1  0.83917511  0.41084827  0.74635290  1
  O2-  O272  1  0.83465302  0.74419166  -0.00519290  1
  O2-  O273  1  0.83153932  0.74546325  0.25230306  1
  O2-  O274  1  0.83694212  0.74406772  0.50188977  1
  O2-  O275  1  0.83614688  0.74676269  0.75213679  1
  O2-  O276  1  0.55271710  0.77138210  0.81025310  1
  O2-  O277  1  0.04250026  0.11939074  0.01692435  1
  O2-  O278  1  0.45836771  0.20694917  0.49091159  1
  O2-  O279  1  0.44727664  0.42115463  0.97748214  1
  O2-  O280  1  0.44091454  0.58449808  0.02108014  1
  O2-  O281  1  0.03298737  0.43350197  0.28625763  1
  O2-  O282  1  0.45656953  0.43215789  0.76095647  1
  O2-  O283  1  0.04397251  0.56431194  0.01042369  1
  O2-  O284  1  0.55647100  0.91274342  0.75292119  1
  O2-  O285  1  0.04544539  0.90143539  0.51034662  1
  O2-  O286  1  0.95418911  0.90063338  0.24179694  1
  O2-  O287  1  0.54671683  0.57396580  0.24218410  1
  O2-  O288  1  0.94783983  0.23703253  0.76261376  1
  O2-  O289  1  0.03872034  0.89182962  0.04013401  1
  O2-  O290  1  0.95790394  0.11489948  0.26894374  1
  O2-  O291  1  0.46327504  0.89630989  0.75884051  1
  O2-  O292  1  0.04968659  0.24251610  0.75712827  1
  O2-  O293  1  0.97963847  0.22094217  1.00593403  1
  O2-  O294  1  0.94969806  0.24049200  0.49697132  1
  O2-  O295  1  0.04092394  0.12291981  1.02835670  1
  O2-  O296  1  0.55025372  0.89262900  0.24103449  1
  O2-  O297  1  0.55048405  0.23516791  0.73835277  1
  O2-  O298  1  0.04709034  0.09197411  0.73164936  1
  O2-  O299  1  0.95741288  0.43570977  0.99463712  1
  O2-  O300  1  0.93878828  0.08413974  -0.00678124  1
  O2-  O301  1  0.46719333  0.77717495  0.73450029  1
  O2-  O302  1  0.45537923  0.21354168  0.48015490  1
  O2-  O303  1  0.44730430  0.42518911  0.23519731  1
  O2-  O304  1  0.05320889  0.57438908  0.25642262  1
  O2-  O305  1  0.55485869  0.23524509  0.52057691  1
  O2-  O306  1  0.95391299  0.76500269  0.74027144  1
  O2-  O307  1  0.44978659  0.24168571  0.76246271  1
  O2-  O308  1  0.54372453  0.56739314  0.49546457  1
  O2-  O309  1  0.05901041  0.42080471  0.44846329  1
  O2-  O310  1  0.05253498  0.23702275  0.49228021  1
  O2-  O311  1  0.55550049  0.24037056  0.48169806  1
  O2-  O312  1  0.93913006  0.57992811  0.29255331  1
  O2-  O313  1  0.46640312  0.77544824  0.21735920  1
  O2-  O314  1  0.45657208  0.43514143  -0.00309637  1
  O2-  O315  1  0.46395863  0.80860906  0.50751783  1
  O2-  O316  1  0.51938244  0.12967078  0.00244226  1
  O2-  O317  1  0.94136341  0.08039604  0.99622701  1
  O2-  O318  1  0.03327615  0.77655594  0.95796008  1
  O2-  O319  1  0.44929346  0.42909310  0.27412759  1
  O2-  O320  1  0.55436512  0.75822791  0.48771008  1
  O2-  O321  1  0.04260134  0.56947190  0.75934221  1
  O2-  O322  1  0.44500639  0.91283940  0.22798141  1
  O2-  O323  1  0.04760105  0.76458604  0.25754406  1
  O2-  O324  1  0.93905214  0.59286786  0.47579370  1
  O2-  O325  1  0.06287076  0.26166486  0.32420438  1
  O2-  O326  1  0.06546621  0.24492968  0.18422322  1
  O2-  O327  1  0.93938321  0.74389332  0.46897458  1
  O2-  O328  1  0.42621628  0.32299972  0.56410993  1
  O2-  O329  1  0.05272373  0.42036073  0.45115304  1
  O2-  O330  1  0.56105601  0.06951651  0.71347824  1
  O2-  O331  1  0.06050820  0.92711903  0.71602121  1
  O2-  O332  1  0.41249737  0.70164689  0.78239845  1
  O2-  O333  1  0.44458959  0.57962023  0.01504195  1
  O2-  O334  1  0.92762397  0.59363399  0.14756377  1
  O2-  O335  1  0.93520144  0.92194042  0.47612268  1
  O2-  O336  1  0.56511777  0.25712496  0.97133208  1
  O2-  O337  1  0.06244015  0.38653282  0.59087013  1
  O2-  O338  1  0.43673871  0.74856157  0.03048338  1
  O2-  O339  1  0.58495841  0.04294080  0.02594624  1
  O2-  O340  1  0.93751494  0.74283641  0.28207197  1
  O2-  O341  1  0.92099663  0.29198603  0.95530205  1
  O2-  O342  1  0.56166900  0.59357006  0.96447195  1
  O2-  O343  1  0.07281558  0.92127074  0.91918938  1
  O2-  O344  1  0.56471248  0.71072060  0.68072107  1
  O2-  O345  1  0.07976943  0.40206760  0.19068616  1
  O2-  O346  1  0.06492911  0.58405648  0.76901632  1
  O2-  O347  1  0.93940219  0.40945359  0.82031004  1
  O2-  O348  1  0.08072724  0.05721977  0.92315834  1
  O2-  O349  1  0.05854956  0.40857906  0.73247304  1
  O2-  O350  1  0.06381407  0.92356029  0.32597220  1
  O2-  O351  1  0.92961070  0.06391428  0.21215053  1
  O2-  O352  1  0.44128400  0.58911595  0.54337748  1
  O2-  O353  1  0.42485228  0.71030863  0.30671786  1
  O2-  O354  1  0.08008777  0.72640905  0.05607408  1
  O2-  O355  1  0.07037129  0.08741688  0.18719507  1
  O2-  O356  1  0.42105644  0.70622998  0.46117506  1
  O2-  O357  1  0.94186229  0.58463905  0.30019254  1
  O2-  O358  1  0.44164567  0.93156895  0.97100341  1
  O2-  O359  1  0.43977130  0.92102522  0.22201094  1
  O2-  O360  1  0.07055352  0.91060809  0.18327014  1
  O2-  O361  1  0.43173787  0.40170885  0.03153116  1
  O2-  O362  1  0.56804871  0.41018143  0.02108136  1
  O2-  O363  1  0.06106692  0.06918095  0.53530984  1
  O2-  O364  1  0.06576340  0.08035410  0.32694760  1
  O2-  O365  1  0.94047007  0.40298716  0.66947620  1
  O2-  O366  1  0.42206999  0.94460631  0.78953430  1
  O2-  O367  1  0.94039913  0.07320083  0.53801037  1
  O2-  O368  1  0.93752191  0.59317489  0.78460883  1
  O2-  O369  1  0.93630894  0.06530347  0.78035652  1
  O2-  O370  1  0.44089870  0.07913370  0.78253571  1
  O2-  O371  1  0.56613299  0.40916857  0.28004280  1
  O2-  O372  1  0.24975956  0.32502071  0.69249888  1
  O2-  O373  1  0.75108178  0.00206721  0.13846157  1
  O2-  O374  1  0.75115442  0.66672976  0.61693103  1
  O2-  O375  1  0.75082286  0.00520845  0.88699399  1
  O2-  O376  1  0.75099191  0.31452221  0.18235298  1
  O2-  O377  1  0.74830066  0.66530759  0.13956216  1
  O2-  O378  1  0.25099802  0.34288991  0.92439431  1
  O2-  O379  1  0.25022692  0.65722898  0.10074534  1
  O2-  O380  1  0.74985298  0.01324236  0.42109710  1
  O2-  O381  1  0.74990019  0.00854728  0.61174984  1
  O2-  O382  1  0.24794252  0.66751602  0.34492010  1
  O2-  O383  1  0.25032507  0.33740637  0.14270640  1
  O2-  O384  1  0.25061902  0.33234725  0.80700753  1
  O2-  O385  1  0.24984394  -0.00268969  0.65697490  1
  O2-  O386  1  0.74956434  0.33076289  0.64338693  1
  O2-  O387  1  0.75021610  0.31702778  0.05763703  1
  O2-  O388  1  0.24977102  0.67272593  0.59258280  1
  O2-  O389  1  0.24921843  0.66941117  0.94555870  1
  O2-  O390  1  0.24989118  0.00310399  0.40537877  1
  O2-  O391  1  0.25027669  -0.01081278  0.16990875  1
  O2-  O392  1  0.24946896  0.67665138  0.82195123  1
  O2-  O393  1  0.25033122  -0.00174637  0.07362988  1
  O2-  O394  1  0.75068088  -0.00300423  0.33128462  1
  O2-  O395  1  0.25014911  0.34293792  0.57238196  1
  O2-  O396  1  0.25035653  0.50032681  0.58344516  1
  O2-  O397  1  0.74994598  0.83000028  0.68250366  1
  O2-  O398  1  0.74964064  0.49649903  0.91840123  1
  O2-  O399  1  0.75026592  0.48581814  0.37808256  1
  O2-  O400  1  0.24982333  0.49915028  0.09937988  1
  O2-  O401  1  0.75047313  0.53074563  0.64381458  1
  O2-  O402  1  0.74935357  0.48984223  0.13573233  1
  O2-  O403  1  0.25003903  0.15950687  0.45000872  1
  O2-  O404  1  0.25031172  0.83688994  0.86561058  1
  O2-  O405  1  0.74937258  0.83742187  0.34672361  1
  O2-  O406  1  0.74964149  0.17366233  0.35584240  1
  O2-  O407  1  0.75017543  0.83892631  0.84478470  1
  O2-  O408  1  0.74971240  0.84373674  0.59502803  1
  O2-  O409  1  0.74970548  0.51276156  0.45332786  1
  O2-  O410  1  0.24806692  0.18991747  0.09796103  1
  O2-  O411  1  0.24979995  0.83153270  0.34918642  1
  O2-  O412  1  0.75082370  0.53933077  0.84080556  1
  O2-  O413  1  0.74951771  0.83292758  0.13624173  1
  O2-  O414  1  0.24919886  0.83356674  0.65501611  1
  O2-  O415  1  0.75000895  0.48897063  0.05281273  1
  O2-  O416  1  0.25009757  0.50670911  0.88373698  1
  O2-  O417  1  0.24875105  0.15983714  0.36228633  1
  O2-  O418  1  0.74981639  0.48408324  0.57188632  1
  O2-  O419  1  0.24955423  0.17799333  0.87598536  1
  O2-  O420  1  0.53808548  -0.01047816  0.14323727  1
  O2-  O421  1  0.96629874  0.33324369  0.36583132  1
  O2-  O422  1  0.01727377  0.66121317  0.13413406  1
  O2-  O423  1  0.47274898  -0.00054010  0.62150965  1
  O2-  O424  1  0.52951125  0.66597984  0.37069356  1
  O2-  O425  1  0.02057710  0.66780114  0.87443536  1
  O2-  O426  1  0.02920163  0.66998046  0.38470819  1
  O2-  O427  1  0.01659564  0.34036191  0.10814992  1
  O2-  O428  1  0.52842750  0.00602564  0.87832600  1
  O2-  O429  1  0.45800521  0.31141491  0.13550536  1
  O2-  O430  1  0.96617699  -0.01583859  0.10936099  1
  O2-  O431  1  0.97402727  0.00229891  0.37011004  1
  O2-  O432  1  0.02366364  0.00265292  0.12217061  1
  O2-  O433  1  0.52398144  0.34477405  0.87181668  1
  O2-  O434  1  0.48312818  0.66120725  0.13328791  1
  O2-  O435  1  0.02555046  0.66737224  0.62434866  1
  O2-  O436  1  0.54712639  0.32625104  0.13689110  1
  O2-  O437  1  0.52543436  0.34449333  0.62385308  1
  O2-  O438  1  0.45347324  0.00542601  0.38148617  1
  O2-  O439  1  0.47945264  0.65125772  0.87801732  1
  O2-  O440  1  0.54727432  0.00614190  0.37349427  1
  O2-  O441  1  0.45573198  0.01764877  0.10352997  1
  O2-  O442  1  0.52010441  0.32894157  0.37754106  1
  O2-  O443  1  0.02973243  0.33821438  0.88270085  1
