# generated using pymatgen
data_La7(Ru4O11)2
_symmetry_space_group_name_H-M   'P 1'
_cell_length_a   23.99203212
_cell_length_b   16.83273402
_cell_length_c   15.42868576
_cell_angle_alpha   90.00032467
_cell_angle_beta   89.99911334
_cell_angle_gamma   90.00202969
_symmetry_Int_Tables_number   1
_chemical_formula_structural   La7(Ru4O11)2
_chemical_formula_sum   'La84 Ru96 O264'
_cell_volume   6230.89780857
_cell_formula_units_Z   12
loop_
 _symmetry_equiv_pos_site_id
 _symmetry_equiv_pos_as_xyz
  1  'x, y, z'
loop_
 _atom_type_symbol
 _atom_type_oxidation_number
  La3+  3.0
  Ru4+  4.0
  O2-  -2.0
loop_
 _atom_site_type_symbol
 _atom_site_label
 _atom_site_symmetry_multiplicity
 _atom_site_fract_x
 _atom_site_fract_y
 _atom_site_fract_z
 _atom_site_occupancy
  La3+  La0  1  0.12874386  -0.00729976  0.13624537  1
  La3+  La1  1  0.13098731  -0.01006072  0.36752365  1
  La3+  La2  1  0.13921904  -0.00224632  0.62073166  1
  La3+  La3  1  0.14194721  -0.00433775  0.87444971  1
  La3+  La4  1  0.13714563  0.33453853  0.12741832  1
  La3+  La5  1  0.13457067  0.32790350  0.38101608  1
  La3+  La6  1  0.13701630  0.33119579  0.61965665  1
  La3+  La7  1  0.13681164  0.33440955  0.87472300  1
  La3+  La8  1  0.13880469  0.66929549  0.12233518  1
  La3+  La9  1  0.13433251  0.66891466  0.37671856  1
  La3+  La10  1  0.13539536  0.66951409  0.62418184  1
  La3+  La11  1  0.14022772  0.66092684  0.87347675  1
  La3+  La12  1  0.63831309  0.00274259  0.13071245  1
  La3+  La13  1  0.64767547  0.00193804  0.36996288  1
  La3+  La14  1  0.63497704  0.00034353  0.62037080  1
  La3+  La15  1  0.64042873  0.00185455  0.88240701  1
  La3+  La16  1  0.64433380  0.33082350  0.11905929  1
  La3+  La17  1  0.64118194  0.33265162  0.37732533  1
  La3+  La18  1  0.64291806  0.32787384  0.62764009  1
  La3+  La19  1  0.63354959  0.33508513  0.88086799  1
  La3+  La20  1  0.63830675  0.66430796  0.12076140  1
  La3+  La21  1  0.63924949  0.66900953  0.37454497  1
  La3+  La22  1  0.63550533  0.67178985  0.63008990  1
  La3+  La23  1  0.64271405  0.66871444  0.87318542  1
  La3+  La24  1  0.36147760  -0.00353032  0.12040888  1
  La3+  La25  1  0.35540197  0.00069934  0.38137229  1
  La3+  La26  1  0.36047204  -0.00280848  0.62292202  1
  La3+  La27  1  0.36381898  -0.00062610  0.87307670  1
  La3+  La28  1  0.36227228  0.33541484  0.12513355  1
  La3+  La29  1  0.36294773  0.33125529  0.37842437  1
  La3+  La30  1  0.35720308  0.33255006  0.62451155  1
  La3+  La31  1  0.36324376  0.33619729  0.87315279  1
  La3+  La32  1  0.36259141  0.66938516  0.12271815  1
  La3+  La33  1  0.36542612  0.66514703  0.37549976  1
  La3+  La34  1  0.36185370  0.67016530  0.62412732  1
  La3+  La35  1  0.36448361  0.66926841  0.87946073  1
  La3+  La36  1  0.85040324  -0.00175942  0.12349790  1
  La3+  La37  1  0.85427352  0.00373955  0.37237140  1
  La3+  La38  1  0.86340583  -0.00187431  0.62288639  1
  La3+  La39  1  0.85642746  0.00048112  0.88036576  1
  La3+  La40  1  0.85459103  0.33027930  0.12321705  1
  La3+  La41  1  0.86153404  0.33029908  0.37351092  1
  La3+  La42  1  0.86281404  0.33409748  0.62314815  1
  La3+  La43  1  0.86398172  0.33175485  0.87746671  1
  La3+  La44  1  0.86222661  0.66890761  0.11918958  1
  La3+  La45  1  0.86203350  0.66809756  0.37319337  1
  La3+  La46  1  0.86396485  0.66877551  0.62719068  1
  La3+  La47  1  0.86072269  0.66794004  0.87671225  1
  La3+  La48  1  0.49829664  0.16131864  0.13650559  1
  La3+  La49  1  0.49879874  0.16081708  0.62431994  1
  La3+  La50  1  0.49951412  0.83555594  0.37112359  1
  La3+  La51  1  0.49904498  0.50350676  0.62124390  1
  La3+  La52  1  0.50200814  0.83177652  0.11589384  1
  La3+  La53  1  0.49654345  0.50669197  0.36400553  1
  La3+  La54  1  0.49945689  0.83554100  0.13211142  1
  La3+  La55  1  -0.00081141  0.16893653  0.11779063  1
  La3+  La56  1  0.50795053  0.16405067  0.37507656  1
  La3+  La57  1  -0.00080506  0.82827229  0.86475420  1
  La3+  La58  1  0.00485623  0.16868930  0.37893599  1
  La3+  La59  1  0.49649942  0.49916535  0.87976812  1
  La3+  La60  1  -0.00435637  0.16557569  0.60801109  1
  La3+  La61  1  0.50188733  0.16809446  0.87791023  1
  La3+  La62  1  0.50744745  0.16389657  0.39174213  1
  La3+  La63  1  -0.00309118  0.84273900  0.12444983  1
  La3+  La64  1  0.49833432  0.83194842  0.87511159  1
  La3+  La65  1  -0.00089660  0.49663056  0.38939739  1
  La3+  La66  1  -0.00195749  0.82456203  0.88097908  1
  La3+  La67  1  -0.00645062  0.83467593  0.14449765  1
  La3+  La68  1  0.00451243  0.83915084  0.37698002  1
  La3+  La69  1  0.49948876  0.50422020  0.12825360  1
  La3+  La70  1  0.50191908  0.17053867  0.11709502  1
  La3+  La71  1  -0.00617703  0.17624780  0.62694950  1
  La3+  La72  1  0.24995109  0.20331935  0.73696714  1
  La3+  La73  1  0.74938138  0.43210888  0.20793382  1
  La3+  La74  1  0.24909416  0.55057783  0.20162639  1
  La3+  La75  1  0.24881151  0.21428226  0.26046865  1
  La3+  La76  1  0.24853379  0.57541027  0.51041442  1
  La3+  La77  1  0.25048813  0.78558831  -0.04863692  1
  La3+  La78  1  0.74994244  0.89150186  0.49146339  1
  La3+  La79  1  0.74989281  0.48789726  0.53497170  1
  La3+  La80  1  0.74965522  0.17448380  0.70200987  1
  La3+  La81  1  0.25035918  0.76382644  0.27994988  1
  La3+  La82  1  0.75092655  0.49501631  -0.02194875  1
  La3+  La83  1  0.24839460  0.17482460  -0.04732914  1
  Ru4+  Ru84  1  0.00151434  0.00332359  -0.00454677  1
  Ru4+  Ru85  1  -0.00318877  0.00411803  0.25128271  1
  Ru4+  Ru86  1  0.00079322  -0.00991715  0.50858624  1
  Ru4+  Ru87  1  0.00221326  -0.00226922  0.74384300  1
  Ru4+  Ru88  1  -0.00198755  0.33916230  0.01431483  1
  Ru4+  Ru89  1  0.00124069  0.34133857  0.24125085  1
  Ru4+  Ru90  1  -0.00277230  0.33892581  0.49865448  1
  Ru4+  Ru91  1  -0.00437677  0.33765378  0.74543275  1
  Ru4+  Ru92  1  0.00364789  0.65808027  -0.00281890  1
  Ru4+  Ru93  1  0.00408172  0.66207634  0.24976705  1
  Ru4+  Ru94  1  0.00091755  0.66552114  0.50448561  1
  Ru4+  Ru95  1  0.00423569  0.66439381  0.74932083  1
  Ru4+  Ru96  1  0.50007410  -0.01494694  -0.01341492  1
  Ru4+  Ru97  1  0.48981769  -0.00256313  0.24918476  1
  Ru4+  Ru98  1  0.49842913  -0.00507956  0.50215015  1
  Ru4+  Ru99  1  0.49788742  -0.00275421  0.75267082  1
  Ru4+  Ru100  1  0.49784105  0.33367309  -0.00082978  1
  Ru4+  Ru101  1  0.49958601  0.33976564  0.25206059  1
  Ru4+  Ru102  1  0.50547900  0.33632402  0.50328226  1
  Ru4+  Ru103  1  0.50173510  0.33227292  0.74731152  1
  Ru4+  Ru104  1  0.50367038  0.66163817  0.00430438  1
  Ru4+  Ru105  1  0.49967782  0.66646862  0.25913062  1
  Ru4+  Ru106  1  0.50109089  0.66603090  0.49514226  1
  Ru4+  Ru107  1  0.50090904  0.67185079  0.74228839  1
  Ru4+  Ru108  1  0.10728828  0.16640915  0.00129190  1
  Ru4+  Ru109  1  0.10799055  0.16526424  0.24936304  1
  Ru4+  Ru110  1  0.12079518  0.16010561  0.49934284  1
  Ru4+  Ru111  1  0.11011070  0.16195805  0.75775413  1
  Ru4+  Ru112  1  0.11180507  0.50056523  -0.00099479  1
  Ru4+  Ru113  1  0.10706225  0.49900283  0.24850311  1
  Ru4+  Ru114  1  0.10939497  0.49823324  0.49889550  1
  Ru4+  Ru115  1  0.11045365  0.50306508  0.74904161  1
  Ru4+  Ru116  1  0.10914286  0.82778117  0.00097808  1
  Ru4+  Ru117  1  0.10753593  0.83102598  0.25252248  1
  Ru4+  Ru118  1  0.11317832  0.83291009  0.49862644  1
  Ru4+  Ru119  1  0.11399441  0.83647136  0.74768044  1
  Ru4+  Ru120  1  0.61933887  0.16908820  -0.00333338  1
  Ru4+  Ru121  1  0.62178077  0.16905966  0.25094233  1
  Ru4+  Ru122  1  0.61445288  0.16961566  0.50381610  1
  Ru4+  Ru123  1  0.60965172  0.16843411  0.75129850  1
  Ru4+  Ru124  1  0.61591827  0.50624238  0.00019823  1
  Ru4+  Ru125  1  0.61021627  0.50292538  0.25127926  1
  Ru4+  Ru126  1  0.61243331  0.49935138  0.50505377  1
  Ru4+  Ru127  1  0.61076322  0.49976235  0.74603526  1
  Ru4+  Ru128  1  0.61205155  0.83131643  -0.00352925  1
  Ru4+  Ru129  1  0.61759358  0.83312760  0.25048816  1
  Ru4+  Ru130  1  0.60786443  0.83295853  0.50052474  1
  Ru4+  Ru131  1  0.61122802  0.82990264  0.74776530  1
  Ru4+  Ru132  1  0.38338622  0.17370302  -0.00106284  1
  Ru4+  Ru133  1  0.38660037  0.16346492  0.25153310  1
  Ru4+  Ru134  1  0.38267236  0.16515474  0.50070090  1
  Ru4+  Ru135  1  0.39003958  0.16452211  0.74978234  1
  Ru4+  Ru136  1  0.39124027  0.50102232  -0.00080439  1
  Ru4+  Ru137  1  0.38957305  0.49803629  0.24993444  1
  Ru4+  Ru138  1  0.38884908  0.50059914  0.49982985  1
  Ru4+  Ru139  1  0.38742155  0.50015262  0.75108259  1
  Ru4+  Ru140  1  0.38664581  0.83824671  -0.00092713  1
  Ru4+  Ru141  1  0.38829305  0.83268610  0.24824393  1
  Ru4+  Ru142  1  0.38398784  0.83314895  0.50203603  1
  Ru4+  Ru143  1  0.38893984  0.83502348  0.74825421  1
  Ru4+  Ru144  1  0.88414773  0.16647332  -0.00092996  1
  Ru4+  Ru145  1  0.88543192  0.16049874  0.24618878  1
  Ru4+  Ru146  1  0.88264570  0.16423793  0.49937874  1
  Ru4+  Ru147  1  0.88947547  0.16879820  0.75455776  1
  Ru4+  Ru148  1  0.89299284  0.49796130  0.00208594  1
  Ru4+  Ru149  1  0.89255919  0.49835591  0.24875026  1
  Ru4+  Ru150  1  0.89328517  0.50141077  0.50331627  1
  Ru4+  Ru151  1  0.89189497  0.49831918  0.75165599  1
  Ru4+  Ru152  1  0.88162417  0.83947205  0.00095759  1
  Ru4+  Ru153  1  0.88665460  0.83746698  0.25421616  1
  Ru4+  Ru154  1  0.89174497  0.83269486  0.50110806  1
  Ru4+  Ru155  1  0.88639539  0.83174525  0.74711984  1
  Ru4+  Ru156  1  0.25077007  0.58355289  0.75773981  1
  Ru4+  Ru157  1  0.75014000  0.41878841  0.74792818  1
  Ru4+  Ru158  1  0.24910603  0.05512881  0.02116928  1
  Ru4+  Ru159  1  0.75020113  0.75473451  -0.00284809  1
  Ru4+  Ru160  1  0.24903438  0.07465545  0.25176342  1
  Ru4+  Ru161  1  0.24932103  0.92363396  -0.00747598  1
  Ru4+  Ru162  1  0.25013890  0.39804133  0.25430564  1
  Ru4+  Ru163  1  0.24950753  0.41229235  0.77238944  1
  Ru4+  Ru164  1  0.75025143  0.60101778  0.24144248  1
  Ru4+  Ru165  1  0.25052653  0.92207572  0.25793328  1
  Ru4+  Ru166  1  0.75003497  0.59065266  0.75286513  1
  Ru4+  Ru167  1  0.75016448  0.28764126  0.79033695  1
  Ru4+  Ru168  1  0.25020028  0.76541956  0.73767575  1
  Ru4+  Ru169  1  0.24990773  0.05307244  0.74854484  1
  Ru4+  Ru170  1  0.74946002  0.03743595  0.73423634  1
  Ru4+  Ru171  1  0.75039211  0.34696711  0.50630774  1
  Ru4+  Ru172  1  0.74928255  0.89290597  0.74458650  1
  Ru4+  Ru173  1  0.75011819  0.61919798  0.48582581  1
  Ru4+  Ru174  1  0.75083813  0.75686387  0.25773432  1
  Ru4+  Ru175  1  0.24926922  0.29649449  0.03177834  1
  Ru4+  Ru176  1  0.25057097  0.57471018  0.00265934  1
  Ru4+  Ru177  1  0.25019956  0.42520807  -0.01767365  1
  Ru4+  Ru178  1  0.75004997  0.74985568  0.50783109  1
  Ru4+  Ru179  1  0.25004728  0.39755820  0.49643806  1
  O2-  O180  1  0.16570857  0.07803275  0.00165554  1
  O2-  O181  1  0.16610770  0.07763393  0.24820253  1
  O2-  O182  1  0.16913169  0.08010845  0.50026277  1
  O2-  O183  1  0.16938574  0.08225280  0.74776746  1
  O2-  O184  1  0.16559452  0.41455312  -0.00284408  1
  O2-  O185  1  0.16774382  0.41419332  0.24866131  1
  O2-  O186  1  0.16717782  0.41289064  0.49991882  1
  O2-  O187  1  0.16365269  0.41374856  0.75437247  1
  O2-  O188  1  0.16581537  0.74561033  0.00250349  1
  O2-  O189  1  0.16218035  0.74361808  0.24773173  1
  O2-  O190  1  0.16793794  0.74734726  0.50057691  1
  O2-  O191  1  0.16633828  0.74711123  0.74796198  1
  O2-  O192  1  0.66535249  0.08316361  0.00107731  1
  O2-  O193  1  0.66635172  0.08130901  0.25077843  1
  O2-  O194  1  0.66558849  0.08418501  0.50406957  1
  O2-  O195  1  0.66612911  0.07611339  0.74650203  1
  O2-  O196  1  0.66620777  0.41468771  -0.00565374  1
  O2-  O197  1  0.65994453  0.41084317  0.25174432  1
  O2-  O198  1  0.67027368  0.41165048  0.49791645  1
  O2-  O199  1  0.66785473  0.41474370  0.75338264  1
  O2-  O200  1  0.67175175  0.74614837  -0.00008076  1
  O2-  O201  1  0.66790798  0.74670164  0.25069754  1
  O2-  O202  1  0.66524840  0.74840414  0.50110604  1
  O2-  O203  1  0.66623520  0.74865731  0.74824166  1
  O2-  O204  1  0.33010157  0.25727823  -0.00084229  1
  O2-  O205  1  0.34010715  0.25694873  0.25062989  1
  O2-  O206  1  0.33669337  0.25449532  0.50027619  1
  O2-  O207  1  0.33675535  0.25481249  0.75281455  1
  O2-  O208  1  0.33490184  0.58565306  -0.00103185  1
  O2-  O209  1  0.33292772  0.58995478  0.25072809  1
  O2-  O210  1  0.33757388  0.59129107  0.50110019  1
  O2-  O211  1  0.33462931  0.58582748  0.75073039  1
  O2-  O212  1  0.33342709  0.91987304  -0.00345159  1
  O2-  O213  1  0.33367012  0.91965062  0.25061258  1
  O2-  O214  1  0.33315971  0.91633902  0.50531001  1
  O2-  O215  1  0.33911426  0.91755855  0.74995511  1
  O2-  O216  1  0.83770475  0.25199306  -0.00430367  1
  O2-  O217  1  0.83842189  0.25102144  0.25136798  1
  O2-  O218  1  0.83217557  0.25555835  0.50326629  1
  O2-  O219  1  0.83228630  0.25733620  0.74945109  1
  O2-  O220  1  0.83297634  0.58537956  -0.00312798  1
  O2-  O221  1  0.83513139  0.58811426  0.24789082  1
  O2-  O222  1  0.83164645  0.58889667  0.50328236  1
  O2-  O223  1  0.83494663  0.58505598  0.74662727  1
  O2-  O224  1  0.83003396  0.91690107  -0.00314323  1
  O2-  O225  1  0.83537828  0.91744767  0.25197895  1
  O2-  O226  1  0.84101262  0.92312180  0.50198148  1
  O2-  O227  1  0.83248454  0.91812486  0.74756403  1
  O2-  O228  1  0.16556710  0.25626725  -0.00117944  1
  O2-  O229  1  0.15861159  0.25500953  0.24872139  1
  O2-  O230  1  0.16402765  0.25162282  0.50147763  1
  O2-  O231  1  0.16220537  0.25342991  0.75269404  1
  O2-  O232  1  0.16577159  0.58292345  -0.00008811  1
  O2-  O233  1  0.16536293  0.58629012  0.25523285  1
  O2-  O234  1  0.15706015  0.58996412  0.50077974  1
  O2-  O235  1  0.16803506  0.58502772  0.74805282  1
  O2-  O236  1  0.16371713  0.91769833  0.00139307  1
  O2-  O237  1  0.16486612  0.91879657  0.25007138  1
  O2-  O238  1  0.16347789  0.91833187  0.50083203  1
  O2-  O239  1  0.16402341  0.91851821  0.74901603  1
  O2-  O240  1  0.66644062  0.25415737  -0.00408228  1
  O2-  O241  1  0.66623724  0.25625846  0.25071088  1
  O2-  O242  1  0.66926661  0.25241846  0.50043093  1
  O2-  O243  1  0.66521189  0.25399601  0.75395072  1
  O2-  O244  1  0.67030195  0.58765756  -0.00204063  1
  O2-  O245  1  0.66498774  0.58735625  0.24967872  1
  O2-  O246  1  0.66486824  0.58863086  0.50047908  1
  O2-  O247  1  0.66500065  0.58558060  0.74801588  1
  O2-  O248  1  0.66189029  0.91556773  0.00159699  1
  O2-  O249  1  0.66684957  0.91762035  0.25060513  1
  O2-  O250  1  0.65880674  0.92394982  0.50324980  1
  O2-  O251  1  0.66529036  0.91759102  0.74842044  1
  O2-  O252  1  0.33386291  0.07944736  -0.00306031  1
  O2-  O253  1  0.33082653  0.08100874  0.25019463  1
  O2-  O254  1  0.33274139  0.08244580  0.50620821  1
  O2-  O255  1  0.33092306  0.08129146  0.75034325  1
  O2-  O256  1  0.33377648  0.41372838  -0.00169024  1
  O2-  O257  1  0.33421522  0.41196313  0.25015119  1
  O2-  O258  1  0.33391980  0.41215975  0.49902840  1
  O2-  O259  1  0.33325930  0.41336679  0.75429099  1
  O2-  O260  1  0.33815891  0.74505420  0.00131472  1
  O2-  O261  1  0.33826228  0.74124054  0.24672545  1
  O2-  O262  1  0.33215787  0.74905436  0.50250235  1
  O2-  O263  1  0.33480158  0.74671908  0.75025495  1
  O2-  O264  1  0.83276387  0.08434724  -0.00082111  1
  O2-  O265  1  0.83169354  0.08316427  0.25156302  1
  O2-  O266  1  0.83444978  0.08082206  0.50471715  1
  O2-  O267  1  0.83485350  0.07783586  0.74654401  1
  O2-  O268  1  0.83668798  0.41655513  -0.00412002  1
  O2-  O269  1  0.83610116  0.41170571  0.25563671  1
  O2-  O270  1  0.83343900  0.41277040  0.50028446  1
  O2-  O271  1  0.83458450  0.41473251  0.74981991  1
  O2-  O272  1  0.83015531  0.74801979  -0.00172866  1
  O2-  O273  1  0.83287668  0.74809837  0.24950716  1
  O2-  O274  1  0.83469971  0.74832911  0.50187696  1
  O2-  O275  1  0.83618743  0.74652046  0.74593562  1
  O2-  O276  1  0.54435491  0.43466719  0.24167454  1
  O2-  O277  1  0.45281380  0.76428632  0.99466527  1
  O2-  O278  1  0.45981968  0.76621374  0.53334713  1
  O2-  O279  1  0.03637239  0.44324899  0.21108693  1
  O2-  O280  1  0.95172100  0.89841767  0.51246983  1
  O2-  O281  1  0.45005726  0.09923773  0.98132429  1
  O2-  O282  1  0.03789855  0.11717378  0.72631160  1
  O2-  O283  1  0.45457848  0.23731147  0.76261924  1
  O2-  O284  1  0.45057731  0.09233479  0.01985439  1
  O2-  O285  1  0.05183736  0.24062590  0.51785762  1
  O2-  O286  1  0.55206408  0.09762323  0.24363671  1
  O2-  O287  1  0.54922511  0.90217457  0.51222259  1
  O2-  O288  1  0.55447419  0.57448963  0.01574749  1
  O2-  O289  1  0.94861549  0.23753853  0.49203680  1
  O2-  O290  1  0.05227913  0.23496825  0.47919019  1
  O2-  O291  1  0.95318734  0.42528120  0.00831935  1
  O2-  O292  1  0.55032051  0.09733265  0.98506684  1
  O2-  O293  1  0.05048088  0.76355956  0.76255715  1
  O2-  O294  1  0.45430817  0.89683155  0.53001068  1
  O2-  O295  1  0.54555992  0.42815661  0.01853618  1
  O2-  O296  1  0.04527665  0.55895252  0.29407164  1
  O2-  O297  1  0.54442868  0.10222875  0.75800647  1
  O2-  O298  1  0.96173883  0.56167698  0.97280309  1
  O2-  O299  1  0.45416577  0.23701530  0.48769428  1
  O2-  O300  1  0.96954436  0.55293878  0.54221260  1
  O2-  O301  1  0.44346314  0.42067617  0.48387463  1
  O2-  O302  1  0.05011900  0.74677587  0.04598344  1
  O2-  O303  1  0.54637739  0.76628352  0.24202816  1
  O2-  O304  1  0.45367018  0.24370623  0.26787351  1
  O2-  O305  1  0.54935215  0.08951597  0.02326244  1
  O2-  O306  1  0.94701037  0.09107745  0.29904927  1
  O2-  O307  1  0.05292542  0.91377542  0.26450684  1
  O2-  O308  1  0.95296197  0.43139119  0.76341441  1
  O2-  O309  1  0.94861070  0.57100662  0.26236708  1
  O2-  O310  1  0.54671055  0.90002176  0.75939341  1
  O2-  O311  1  0.54015024  0.45222546  0.47837939  1
  O2-  O312  1  0.45281728  0.76695560  0.73936923  1
  O2-  O313  1  0.95175864  0.77140365  0.01015951  1
  O2-  O314  1  0.55098159  0.23766487  0.00300969  1
  O2-  O315  1  0.54430650  0.90518947  0.23481824  1
  O2-  O316  1  0.04857132  0.89980915  0.74627083  1
  O2-  O317  1  0.95170515  0.90483067  0.74082663  1
  O2-  O318  1  0.45630827  0.10656313  0.28860376  1
  O2-  O319  1  0.95074486  0.76003012  0.75844029  1
  O2-  O320  1  0.55289062  0.43359719  0.98126684  1
  O2-  O321  1  0.04245598  0.89974746  0.24683401  1
  O2-  O322  1  0.05067295  0.89784045  0.50591981  1
  O2-  O323  1  0.54101833  0.44523095  0.46907034  1
  O2-  O324  1  0.43765973  0.58833348  0.47730660  1
  O2-  O325  1  0.93603354  0.40382353  0.53168835  1
  O2-  O326  1  0.07104268  0.38799740  0.30704012  1
  O2-  O327  1  0.94898740  0.10135123  0.29569538  1
  O2-  O328  1  0.42954700  0.92858912  0.45276758  1
  O2-  O329  1  0.57836205  0.38570458  0.56877233  1
  O2-  O330  1  0.93220538  0.40676887  0.22578295  1
  O2-  O331  1  0.43764847  0.74145850  0.20894252  1
  O2-  O332  1  0.56110743  0.07553913  0.21643793  1
  O2-  O333  1  0.43459859  0.92034535  0.28115844  1
  O2-  O334  1  0.55941589  0.91992967  0.20758581  1
  O2-  O335  1  0.07071162  0.60233613  0.18814791  1
  O2-  O336  1  0.55955346  0.40795168  0.72146359  1
  O2-  O337  1  0.06323322  0.93327185  0.20994879  1
  O2-  O338  1  0.06522266  0.58897482  0.72338183  1
  O2-  O339  1  0.06217158  0.40624671  0.46967480  1
  O2-  O340  1  0.06305108  0.07704825  0.51806811  1
  O2-  O341  1  0.94279453  0.74966728  0.03792162  1
  O2-  O342  1  0.93812055  0.26390099  0.78284103  1
  O2-  O343  1  0.42004759  0.06289962  0.18885034  1
  O2-  O344  1  0.55333050  0.57936288  0.01752571  1
  O2-  O345  1  0.93601296  0.07862157  0.95138792  1
  O2-  O346  1  0.05352345  0.75469782  0.04703375  1
  O2-  O347  1  0.43557155  0.26526916  0.03123120  1
  O2-  O348  1  0.43954866  0.08026838  0.47398835  1
  O2-  O349  1  0.93499252  0.05076736  0.17010909  1
  O2-  O350  1  0.93562960  0.92929923  0.03139077  1
  O2-  O351  1  0.06643031  0.74929755  0.31730605  1
  O2-  O352  1  0.56509802  0.73645442  0.72859308  1
  O2-  O353  1  0.44272679  0.74020671  0.97004574  1
  O2-  O354  1  0.43842462  0.59430131  0.71752570  1
  O2-  O355  1  0.93520186  0.60072123  0.04671997  1
  O2-  O356  1  0.92198981  0.60293183  0.45042062  1
  O2-  O357  1  0.93792251  0.07593248  0.04562904  1
  O2-  O358  1  0.07276188  0.04901062  0.81422434  1
  O2-  O359  1  0.06211707  0.73974902  0.47604607  1
  O2-  O360  1  0.43671700  0.58587598  0.26896412  1
  O2-  O361  1  0.08004046  0.75414247  0.91110283  1
  O2-  O362  1  0.06501117  0.07302394  0.28627676  1
  O2-  O363  1  0.42898029  0.74186805  0.46009200  1
  O2-  O364  1  0.56470950  0.73930335  0.92185363  1
  O2-  O365  1  0.06041606  0.73888785  0.18917883  1
  O2-  O366  1  0.56980990  0.75466535  0.06906707  1
  O2-  O367  1  0.43840032  0.40768370  0.78514314  1
  O2-  O368  1  0.55983596  0.24793046  0.57414540  1
  O2-  O369  1  0.56366009  0.26621833  0.42536612  1
  O2-  O370  1  0.43447153  0.07494338  0.72515508  1
  O2-  O371  1  0.56001434  0.07264391  0.53277398  1
  O2-  O372  1  0.74944780  -0.00062730  0.16971583  1
  O2-  O373  1  0.25075882  0.66499484  0.65137216  1
  O2-  O374  1  0.75069970  0.66803677  0.35071710  1
  O2-  O375  1  0.75095909  0.00218690  0.92557056  1
  O2-  O376  1  0.25001303  0.00083164  0.86012566  1
  O2-  O377  1  0.24997701  0.65988588  0.93843962  1
  O2-  O378  1  0.74892869  -0.00398041  0.40369154  1
  O2-  O379  1  0.75111377  0.33974807  0.64315457  1
  O2-  O380  1  0.24977739  0.33537024  0.88975628  1
  O2-  O381  1  0.24867419  0.00143081  0.34329981  1
  O2-  O382  1  0.25052454  0.00131528  0.43285472  1
  O2-  O383  1  0.25063510  0.67782655  0.81508702  1
  O2-  O384  1  0.75005363  0.66159504  0.84554655  1
  O2-  O385  1  0.25047208  0.32655153  0.15298155  1
  O2-  O386  1  0.25082564  0.66334511  0.10164414  1
  O2-  O387  1  0.24917284  0.00077144  0.14591485  1
  O2-  O388  1  0.24972117  0.33137574  0.69509109  1
  O2-  O389  1  0.75033761  0.33025695  0.38832137  1
  O2-  O390  1  0.25061646  0.00134836  0.64639929  1
  O2-  O391  1  0.75028509  0.68013369  0.14652818  1
  O2-  O392  1  0.74989619  -0.01870537  0.84061264  1
  O2-  O393  1  0.25040770  0.31443000  0.56584556  1
  O2-  O394  1  0.74906597  -0.00041489  0.08281768  1
  O2-  O395  1  0.74917593  0.33985935  0.10327732  1
  O2-  O396  1  0.75005270  0.51752929  0.31782603  1
  O2-  O397  1  0.25052645  0.16284116  0.38571546  1
  O2-  O398  1  0.25013447  0.85386545  0.37213257  1
  O2-  O399  1  0.24996206  0.83117770  0.65415657  1
  O2-  O400  1  0.25082887  0.47800501  0.41110084  1
  O2-  O401  1  0.25059220  0.46741130  0.58585783  1
  O2-  O402  1  0.74999450  0.83575577  0.83897639  1
  O2-  O403  1  0.75014281  0.49960154  0.83497785  1
  O2-  O404  1  0.74979356  0.16705569  0.15787516  1
  O2-  O405  1  0.24991284  0.49567970  0.69743638  1
  O2-  O406  1  0.25008220  0.48673780  0.08301356  1
  O2-  O407  1  0.25022258  0.16263111  0.11033015  1
  O2-  O408  1  0.24932899  0.84676176  0.16808613  1
  O2-  O409  1  0.74976163  0.16745223  0.33556069  1
  O2-  O410  1  0.75087534  0.49757386  0.40202198  1
  O2-  O411  1  0.74999561  0.52448493  0.11328978  1
  O2-  O412  1  0.24993293  0.84040571  0.82503652  1
  O2-  O413  1  0.75010477  0.81635932  0.36471148  1
  O2-  O414  1  0.75044803  0.50770385  0.66797865  1
  O2-  O415  1  0.75024993  0.17992483  0.85022756  1
  O2-  O416  1  0.24967436  0.49091412  0.32425710  1
  O2-  O417  1  0.25000478  0.83965138  0.07896993  1
  O2-  O418  1  0.75002641  0.16653631  0.41558921  1
  O2-  O419  1  0.74998226  0.83240515  0.63644233  1
  O2-  O420  1  0.52385472  0.32997898  0.12691226  1
  O2-  O421  1  0.04205952  -0.00564641  0.63191739  1
  O2-  O422  1  0.45514325  -0.00527266  0.87072903  1
  O2-  O423  1  0.95236226  0.67304442  0.87307317  1
  O2-  O424  1  0.47869175  -0.01839551  0.11424483  1
  O2-  O425  1  0.48913381  0.00352601  0.37396433  1
  O2-  O426  1  0.95598493  0.31319653  0.12449402  1
  O2-  O427  1  0.52636149  0.33244177  0.87490360  1
  O2-  O428  1  0.52628964  0.65505015  0.61445106  1
  O2-  O429  1  0.96983348  0.68679652  0.36557742  1
  O2-  O430  1  0.97674476  -0.01396197  0.38831155  1
  O2-  O431  1  0.47857419  -0.00153557  0.62765505  1
  O2-  O432  1  0.97681132  -0.01302637  0.86774665  1
  O2-  O433  1  0.95309567  0.01280484  0.62351055  1
  O2-  O434  1  0.03737946  0.64584137  0.86471194  1
  O2-  O435  1  0.02754472  0.33400086  0.62941957  1
  O2-  O436  1  0.02567858  0.64730217  0.38677554  1
  O2-  O437  1  0.54961886  0.66128727  0.37745425  1
  O2-  O438  1  0.97073032  0.33632638  0.37099722  1
  O2-  O439  1  0.46384361  0.67768180  0.36594318  1
  O2-  O440  1  0.54479040  -0.00599136  0.88165642  1
  O2-  O441  1  0.51717569  0.65907327  0.13824273  1
  O2-  O442  1  0.04682811  0.32696431  0.11545019  1
  O2-  O443  1  0.02371313  0.67272093  0.62059928  1
