# generated using pymatgen
data_La7(Ru4O11)2
_symmetry_space_group_name_H-M   'P 1'
_cell_length_a   23.99039675
_cell_length_b   16.83033808
_cell_length_c   15.42732016
_cell_angle_alpha   90.00269665
_cell_angle_beta   90.00128324
_cell_angle_gamma   89.99934099
_symmetry_Int_Tables_number   1
_chemical_formula_structural   La7(Ru4O11)2
_chemical_formula_sum   'La84 Ru96 O264'
_cell_volume   6229.03486782
_cell_formula_units_Z   12
loop_
 _symmetry_equiv_pos_site_id
 _symmetry_equiv_pos_as_xyz
  1  'x, y, z'
loop_
 _atom_type_symbol
 _atom_type_oxidation_number
  La3+  3.0
  Ru4+  4.0
  O2-  -2.0
loop_
 _atom_site_type_symbol
 _atom_site_label
 _atom_site_symmetry_multiplicity
 _atom_site_fract_x
 _atom_site_fract_y
 _atom_site_fract_z
 _atom_site_occupancy
  La3+  La0  1  0.14133852  -0.00292092  0.12420408  1
  La3+  La1  1  0.13811415  -0.00243201  0.37595848  1
  La3+  La2  1  0.13494807  0.00316690  0.62263494  1
  La3+  La3  1  0.14195264  -0.00062398  0.87584280  1
  La3+  La4  1  0.13727124  0.33098939  0.12639784  1
  La3+  La5  1  0.13583051  0.32969273  0.37613071  1
  La3+  La6  1  0.14153213  0.32977544  0.62901567  1
  La3+  La7  1  0.13904456  0.33327038  0.87054726  1
  La3+  La8  1  0.13882915  0.66729345  0.12493399  1
  La3+  La9  1  0.13766823  0.66569071  0.37801925  1
  La3+  La10  1  0.13086200  0.65993408  0.61977944  1
  La3+  La11  1  0.13829249  0.66638759  0.87263179  1
  La3+  La12  1  0.63794806  -0.00298960  0.12877763  1
  La3+  La13  1  0.64132233  0.00241671  0.37123853  1
  La3+  La14  1  0.63858965  0.00366735  0.62429854  1
  La3+  La15  1  0.63914234  -0.00104215  0.87457483  1
  La3+  La16  1  0.63772809  0.33537153  0.12927675  1
  La3+  La17  1  0.64204351  0.33234235  0.37417080  1
  La3+  La18  1  0.63903989  0.33086494  0.62183093  1
  La3+  La19  1  0.63985628  0.33363948  0.87447487  1
  La3+  La20  1  0.64357835  0.66782010  0.12572520  1
  La3+  La21  1  0.63539907  0.66931119  0.36888464  1
  La3+  La22  1  0.63553102  0.66690655  0.62428956  1
  La3+  La23  1  0.64204054  0.66518138  0.88033085  1
  La3+  La24  1  0.35722180  -0.00269900  0.13596889  1
  La3+  La25  1  0.36771636  -0.00990375  0.36448664  1
  La3+  La26  1  0.36360162  0.00365333  0.62334825  1
  La3+  La27  1  0.35366718  0.00123015  0.87526286  1
  La3+  La28  1  0.36631033  0.33215039  0.12950939  1
  La3+  La29  1  0.36372708  0.33044094  0.37503996  1
  La3+  La30  1  0.35868666  0.32964009  0.62568284  1
  La3+  La31  1  0.35940682  0.33273375  0.87190441  1
  La3+  La32  1  0.36307340  0.66775104  0.12562301  1
  La3+  La33  1  0.35896404  0.66913783  0.37442369  1
  La3+  La34  1  0.35906199  0.66427902  0.62413669  1
  La3+  La35  1  0.35870572  0.66452154  0.87766052  1
  La3+  La36  1  0.86277868  -0.00271043  0.13013354  1
  La3+  La37  1  0.85959279  0.00125302  0.37136930  1
  La3+  La38  1  0.86043526  0.00450719  0.62552769  1
  La3+  La39  1  0.86025175  -0.00287970  0.87657860  1
  La3+  La40  1  0.86340586  0.33494824  0.12818394  1
  La3+  La41  1  0.85574317  0.33245685  0.37601111  1
  La3+  La42  1  0.86016847  0.33154726  0.62333101  1
  La3+  La43  1  0.85661274  0.33057165  0.87364541  1
  La3+  La44  1  0.85211867  0.66714050  0.12310255  1
  La3+  La45  1  0.86227581  0.66790760  0.37076974  1
  La3+  La46  1  0.86463917  0.66519998  0.62660204  1
  La3+  La47  1  0.85830737  0.66573718  0.88139227  1
  La3+  La48  1  0.49894251  0.17043300  0.37416097  1
  La3+  La49  1  0.00029370  0.16460480  0.38353660  1
  La3+  La50  1  0.00063382  0.50140861  0.37177075  1
  La3+  La51  1  -0.00054342  0.83724116  0.63045134  1
  La3+  La52  1  0.49641393  0.84286736  0.35865227  1
  La3+  La53  1  0.00741694  0.49158474  0.86889646  1
  La3+  La54  1  0.00415040  0.83848711  0.37013466  1
  La3+  La55  1  0.49773273  0.83007230  0.13920288  1
  La3+  La56  1  0.49794405  0.16442159  0.88443966  1
  La3+  La57  1  0.49655215  0.82868118  0.63455162  1
  La3+  La58  1  0.00176463  0.50445088  0.13383683  1
  La3+  La59  1  0.00126617  0.16838058  0.88184283  1
  La3+  La60  1  0.50502548  0.83045101  0.87712347  1
  La3+  La61  1  0.49572329  0.50703259  0.62020916  1
  La3+  La62  1  -0.00063907  0.50553778  0.38882194  1
  La3+  La63  1  0.49843012  0.17256932  0.12008344  1
  La3+  La64  1  0.00119793  0.50289979  0.11701301  1
  La3+  La65  1  0.50049482  0.49632106  0.88300235  1
  La3+  La66  1  0.00026647  0.82807150  0.11907355  1
  La3+  La67  1  0.00522217  0.84494188  0.87281051  1
  La3+  La68  1  0.00587091  0.83681728  0.37353248  1
  La3+  La69  1  0.50248758  0.49892402  0.13451401  1
  La3+  La70  1  0.49701039  0.17003365  0.13679554  1
  La3+  La71  1  -0.00069573  0.17123380  0.12486360  1
  La3+  La72  1  0.25019859  0.86626505  0.73387853  1
  La3+  La73  1  0.24952301  0.50160518  0.74150964  1
  La3+  La74  1  0.74966047  0.44658990  0.49328265  1
  La3+  La75  1  0.75074639  0.16726398  -0.05115711  1
  La3+  La76  1  0.74948154  0.13069967  0.76617469  1
  La3+  La77  1  0.75022085  0.83086047  0.56730990  1
  La3+  La78  1  0.24976794  0.53444011  0.24505122  1
  La3+  La79  1  0.24974916  0.78903072  0.53320749  1
  La3+  La80  1  0.25139146  0.53973845  0.48348365  1
  La3+  La81  1  0.74994441  0.82267593  0.01072167  1
  La3+  La82  1  0.25013558  0.16579675  0.48424992  1
  La3+  La83  1  0.75050396  0.46257480  0.72316316  1
  Ru4+  Ru84  1  -0.00004295  0.00018726  0.00126443  1
  Ru4+  Ru85  1  0.00615541  0.01097875  0.24552185  1
  Ru4+  Ru86  1  -0.00342218  0.01022725  0.50976059  1
  Ru4+  Ru87  1  0.00032794  0.00185686  0.74994797  1
  Ru4+  Ru88  1  -0.00160182  0.33263081  0.00367955  1
  Ru4+  Ru89  1  -0.00558868  0.33826205  0.24618046  1
  Ru4+  Ru90  1  0.00423156  0.33867359  0.50878337  1
  Ru4+  Ru91  1  -0.00190267  0.32865831  0.74475244  1
  Ru4+  Ru92  1  0.00053708  0.66625057  0.00039348  1
  Ru4+  Ru93  1  -0.00609154  0.66042044  0.25400144  1
  Ru4+  Ru94  1  -0.00270790  0.66671177  0.50232453  1
  Ru4+  Ru95  1  -0.00043686  0.65975120  0.74789283  1
  Ru4+  Ru96  1  0.50218000  -0.00604145  -0.00070004  1
  Ru4+  Ru97  1  0.49981603  -0.00121854  0.24947005  1
  Ru4+  Ru98  1  0.49772003  0.00147860  0.50489261  1
  Ru4+  Ru99  1  0.50050391  0.00291455  0.74625865  1
  Ru4+  Ru100  1  0.50056409  0.33155799  -0.00414067  1
  Ru4+  Ru101  1  0.50361869  0.34236101  0.25298295  1
  Ru4+  Ru102  1  0.50068332  0.32857967  0.50440086  1
  Ru4+  Ru103  1  0.50258485  0.33341700  0.75118551  1
  Ru4+  Ru104  1  0.49484908  0.67113160  0.00295054  1
  Ru4+  Ru105  1  0.50334200  0.65480818  0.25065692  1
  Ru4+  Ru106  1  0.49889049  0.66656088  0.50499224  1
  Ru4+  Ru107  1  0.50063364  0.66449733  0.74741054  1
  Ru4+  Ru108  1  0.11103923  0.16620952  0.00034579  1
  Ru4+  Ru109  1  0.11459158  0.16164648  0.25096254  1
  Ru4+  Ru110  1  0.11082338  0.16550855  0.50076357  1
  Ru4+  Ru111  1  0.11166712  0.16785816  0.75073717  1
  Ru4+  Ru112  1  0.11250765  0.50273014  0.00122528  1
  Ru4+  Ru113  1  0.10957445  0.49624699  0.25230149  1
  Ru4+  Ru114  1  0.11079940  0.49523833  0.50090860  1
  Ru4+  Ru115  1  0.11071705  0.50016677  0.74886924  1
  Ru4+  Ru116  1  0.11280144  0.83574522  0.00061260  1
  Ru4+  Ru117  1  0.11793922  0.83806953  0.24893146  1
  Ru4+  Ru118  1  0.11449353  0.82551845  0.50140807  1
  Ru4+  Ru119  1  0.11454298  0.84034314  0.75007418  1
  Ru4+  Ru120  1  0.61269245  0.16834098  0.00086936  1
  Ru4+  Ru121  1  0.61355583  0.16517465  0.24980988  1
  Ru4+  Ru122  1  0.61724055  0.16882245  0.50148702  1
  Ru4+  Ru123  1  0.61054180  0.16694799  0.74881804  1
  Ru4+  Ru124  1  0.61289081  0.50294426  -0.00100129  1
  Ru4+  Ru125  1  0.61193619  0.50037717  0.25440072  1
  Ru4+  Ru126  1  0.60774629  0.49965993  0.49981228  1
  Ru4+  Ru127  1  0.61075982  0.49879526  0.75129466  1
  Ru4+  Ru128  1  0.61240066  0.83460623  -0.00268762  1
  Ru4+  Ru129  1  0.61689718  0.83683186  0.25000889  1
  Ru4+  Ru130  1  0.61050781  0.82936042  0.50225072  1
  Ru4+  Ru131  1  0.61139090  0.83167982  0.74874539  1
  Ru4+  Ru132  1  0.38602984  0.16837828  -0.00036532  1
  Ru4+  Ru133  1  0.38298878  0.16263249  0.25005301  1
  Ru4+  Ru134  1  0.39090542  0.16492026  0.50146755  1
  Ru4+  Ru135  1  0.38709757  0.16868611  0.75058398  1
  Ru4+  Ru136  1  0.38551876  0.50344962  -0.00179555  1
  Ru4+  Ru137  1  0.39153095  0.49872363  0.24970350  1
  Ru4+  Ru138  1  0.39031820  0.50037241  0.50083071  1
  Ru4+  Ru139  1  0.38939382  0.50109928  0.75035532  1
  Ru4+  Ru140  1  0.38526997  0.83369137  0.00196119  1
  Ru4+  Ru141  1  0.38414458  0.83776326  0.24922975  1
  Ru4+  Ru142  1  0.39074270  0.83159542  0.49739893  1
  Ru4+  Ru143  1  0.39014338  0.83559924  0.75074915  1
  Ru4+  Ru144  1  0.89120922  0.16667976  -0.00027368  1
  Ru4+  Ru145  1  0.88595579  0.16379688  0.24952148  1
  Ru4+  Ru146  1  0.88473329  0.16614933  0.49943184  1
  Ru4+  Ru147  1  0.89067094  0.16961793  0.74989342  1
  Ru4+  Ru148  1  0.88629653  0.50329971  -0.00119394  1
  Ru4+  Ru149  1  0.88844848  0.49708240  0.25091887  1
  Ru4+  Ru150  1  0.89023207  0.50046895  0.49930177  1
  Ru4+  Ru151  1  0.89048322  0.49824588  0.74670356  1
  Ru4+  Ru152  1  0.88906833  0.83257382  0.00039649  1
  Ru4+  Ru153  1  0.88176023  0.82979137  0.25012020  1
  Ru4+  Ru154  1  0.89039260  0.83415511  0.50236905  1
  Ru4+  Ru155  1  0.88858385  0.83353623  0.74971047  1
  Ru4+  Ru156  1  0.25001126  0.09288886  0.74062959  1
  Ru4+  Ru157  1  0.24939730  0.08123282  0.24933916  1
  Ru4+  Ru158  1  0.74949809  0.58653709  0.48130080  1
  Ru4+  Ru159  1  0.74998955  0.04737766  0.02914612  1
  Ru4+  Ru160  1  0.75054923  0.74358251  0.75185025  1
  Ru4+  Ru161  1  0.75018233  0.72900655  0.45930351  1
  Ru4+  Ru162  1  0.24989193  0.74947233  0.25145380  1
  Ru4+  Ru163  1  0.24979963  0.72337674  0.75551959  1
  Ru4+  Ru164  1  0.25013458  0.07606158  -0.00423331  1
  Ru4+  Ru165  1  0.25050878  0.39131464  0.49967495  1
  Ru4+  Ru166  1  0.24980247  0.25001269  0.25681497  1
  Ru4+  Ru167  1  0.74969316  0.26891326  0.71744142  1
  Ru4+  Ru168  1  0.74988503  0.59881041  0.78562939  1
  Ru4+  Ru169  1  0.24997037  0.41645355  0.00829335  1
  Ru4+  Ru170  1  0.24977596  0.39264036  0.23772644  1
  Ru4+  Ru171  1  0.24909590  0.75941122  -0.00520338  1
  Ru4+  Ru172  1  0.74973450  0.24894791  0.26407716  1
  Ru4+  Ru173  1  0.75046616  0.91924806  0.73374858  1
  Ru4+  Ru174  1  0.75012132  0.94833908  0.48090534  1
  Ru4+  Ru175  1  0.75017813  0.28611338  0.03861970  1
  Ru4+  Ru176  1  0.25036068  0.93341515  0.50406194  1
  Ru4+  Ru177  1  0.74988174  0.58689438  0.23549789  1
  Ru4+  Ru178  1  0.24937269  0.25397716  -0.00624201  1
  Ru4+  Ru179  1  0.74967618  0.43192962  0.00581971  1
  O2-  O180  1  0.16513247  0.08022572  -0.00037354  1
  O2-  O181  1  0.16537318  0.08170688  0.24867062  1
  O2-  O182  1  0.16816344  0.08094108  0.50173842  1
  O2-  O183  1  0.17001699  0.08182774  0.74883279  1
  O2-  O184  1  0.16564660  0.41240497  0.00084661  1
  O2-  O185  1  0.16678809  0.41292615  0.25028063  1
  O2-  O186  1  0.17016762  0.41631512  0.49594976  1
  O2-  O187  1  0.16845400  0.41403555  0.74970555  1
  O2-  O188  1  0.16618550  0.74659701  -0.00045848  1
  O2-  O189  1  0.16751820  0.74750317  0.24724516  1
  O2-  O190  1  0.16392926  0.74229547  0.50140437  1
  O2-  O191  1  0.16813166  0.74536064  0.74808712  1
  O2-  O192  1  0.66704435  0.07828623  0.00055836  1
  O2-  O193  1  0.66432400  0.08121447  0.24743711  1
  O2-  O194  1  0.66441934  0.08065537  0.49995261  1
  O2-  O195  1  0.66129129  0.07976820  0.74932178  1
  O2-  O196  1  0.66630339  0.41452864  0.00055338  1
  O2-  O197  1  0.66618658  0.41832945  0.24959015  1
  O2-  O198  1  0.66135932  0.41305287  0.50016944  1
  O2-  O199  1  0.66592648  0.41372907  0.74670635  1
  O2-  O200  1  0.66370813  0.74724312  -0.00121261  1
  O2-  O201  1  0.66483064  0.74784197  0.25175500  1
  O2-  O202  1  0.66676915  0.74700825  0.49946485  1
  O2-  O203  1  0.66567176  0.74727764  0.75047275  1
  O2-  O204  1  0.33372690  0.25404370  0.00103179  1
  O2-  O205  1  0.33362504  0.25347511  0.25199362  1
  O2-  O206  1  0.33288942  0.25289941  0.49677928  1
  O2-  O207  1  0.33518028  0.25133713  0.74913991  1
  O2-  O208  1  0.33421552  0.58438327  0.00241691  1
  O2-  O209  1  0.33542958  0.58768228  0.25176790  1
  O2-  O210  1  0.33943699  0.58818018  0.50025593  1
  O2-  O211  1  0.33459317  0.58604413  0.74851704  1
  O2-  O212  1  0.33209694  0.91174769  -0.00206845  1
  O2-  O213  1  0.32969768  0.91638120  0.25269538  1
  O2-  O214  1  0.33296504  0.92089362  0.50189920  1
  O2-  O215  1  0.33579297  0.92111534  0.74733711  1
  O2-  O216  1  0.83120004  0.25444095  0.00310823  1
  O2-  O217  1  0.83215761  0.25222623  0.24999700  1
  O2-  O218  1  0.83731240  0.25005589  0.49913177  1
  O2-  O219  1  0.83243929  0.25027033  0.74740078  1
  O2-  O220  1  0.83256349  0.58264467  -0.00535895  1
  O2-  O221  1  0.83015264  0.58576526  0.25298250  1
  O2-  O222  1  0.83321151  0.58524424  0.49866276  1
  O2-  O223  1  0.83378309  0.58543332  0.75111546  1
  O2-  O224  1  0.83529305  0.91853114  0.00322738  1
  O2-  O225  1  0.83415442  0.91932130  0.24772709  1
  O2-  O226  1  0.83154529  0.92231182  0.50091331  1
  O2-  O227  1  0.83437190  0.91951891  0.74892278  1
  O2-  O228  1  0.16591774  0.25421169  0.00065277  1
  O2-  O229  1  0.16684186  0.25308634  0.25103228  1
  O2-  O230  1  0.16582979  0.25205665  0.49684573  1
  O2-  O231  1  0.16501474  0.25022217  0.75199249  1
  O2-  O232  1  0.16267874  0.58590274  0.00085612  1
  O2-  O233  1  0.16550303  0.59014537  0.24909406  1
  O2-  O234  1  0.16409868  0.58621701  0.50150050  1
  O2-  O235  1  0.16748591  0.58661440  0.74818084  1
  O2-  O236  1  0.16243020  0.91845997  -0.00022760  1
  O2-  O237  1  0.16839355  0.92002339  0.24663486  1
  O2-  O238  1  0.16712810  0.92118622  0.50290842  1
  O2-  O239  1  0.16548991  0.92401386  0.74913745  1
  O2-  O240  1  0.66878485  0.25408648  0.00126433  1
  O2-  O241  1  0.66764357  0.25384067  0.24910780  1
  O2-  O242  1  0.66605039  0.25088280  0.49996813  1
  O2-  O243  1  0.66886533  0.25259887  0.75015670  1
  O2-  O244  1  0.66298639  0.58432014  -0.00173346  1
  O2-  O245  1  0.67030477  0.58487602  0.25055569  1
  O2-  O246  1  0.66494742  0.58466165  0.49977359  1
  O2-  O247  1  0.66501780  0.58646017  0.75071666  1
  O2-  O248  1  0.66902719  0.91950995  0.00361402  1
  O2-  O249  1  0.66723269  0.91886684  0.24934669  1
  O2-  O250  1  0.66809700  0.92058095  0.50103018  1
  O2-  O251  1  0.66596880  0.91947550  0.74854205  1
  O2-  O252  1  0.33342451  0.08173256  -0.00014169  1
  O2-  O253  1  0.33147395  0.08124197  0.25427106  1
  O2-  O254  1  0.33418443  0.08081509  0.49927804  1
  O2-  O255  1  0.33051146  0.08196129  0.74760143  1
  O2-  O256  1  0.33496061  0.41309617  0.00228347  1
  O2-  O257  1  0.33212337  0.41258723  0.25108783  1
  O2-  O258  1  0.33365091  0.41191861  0.49757849  1
  O2-  O259  1  0.33324264  0.41162838  0.74871134  1
  O2-  O260  1  0.33146062  0.74612116  0.00011992  1
  O2-  O261  1  0.33392351  0.74704809  0.24976737  1
  O2-  O262  1  0.33802977  0.74633248  0.49996195  1
  O2-  O263  1  0.33216651  0.74606966  0.74833816  1
  O2-  O264  1  0.83366828  0.07817926  0.00322243  1
  O2-  O265  1  0.83484494  0.07974359  0.24802129  1
  O2-  O266  1  0.83646442  0.08223872  0.49966159  1
  O2-  O267  1  0.83567051  0.08103886  0.74932006  1
  O2-  O268  1  0.83234149  0.41661770  0.00191467  1
  O2-  O269  1  0.83551986  0.41553092  0.25096496  1
  O2-  O270  1  0.83768377  0.41388286  0.49966894  1
  O2-  O271  1  0.83565901  0.41413482  0.74854868  1
  O2-  O272  1  0.83203592  0.74892879  -0.00440459  1
  O2-  O273  1  0.83346463  0.74704792  0.25352552  1
  O2-  O274  1  0.83547312  0.74572500  0.49843688  1
  O2-  O275  1  0.83438271  0.74635357  0.75066724  1
  O2-  O276  1  0.04486536  0.23814972  0.48555100  1
  O2-  O277  1  0.54080377  0.45295836  0.71371480  1
  O2-  O278  1  0.95570863  0.09632322  0.25404394  1
  O2-  O279  1  0.96620482  0.11431640  0.75169154  1
  O2-  O280  1  0.04671047  0.57782538  0.50977358  1
  O2-  O281  1  0.44865511  0.24338158  0.50209063  1
  O2-  O282  1  0.46600774  0.87719082  1.00240164  1
  O2-  O283  1  0.05107541  0.76576191  0.26582913  1
  O2-  O284  1  0.46576427  0.87658650  -0.00231000  1
  O2-  O285  1  0.94268835  0.24213754  0.23311311  1
  O2-  O286  1  0.95596773  0.90083165  0.23245989  1
  O2-  O287  1  0.02291277  0.45351698  0.50519750  1
  O2-  O288  1  0.04665833  0.23268442  0.74098964  1
  O2-  O289  1  0.45510603  0.09308532  0.51114696  1
  O2-  O290  1  0.45128486  0.89723331  0.48590044  1
  O2-  O291  1  0.96529740  0.78142688  0.96482900  1
  O2-  O292  1  0.04558422  0.56898288  0.24375593  1
  O2-  O293  1  0.04465810  0.89960374  0.48782137  1
  O2-  O294  1  0.44839897  0.76164653  0.24096334  1
  O2-  O295  1  0.45457964  0.89280623  0.24351959  1
  O2-  O296  1  0.94220219  0.42752889  0.04505095  1
  O2-  O297  1  0.45276267  0.90479995  0.26884246  1
  O2-  O298  1  0.45245403  0.10174038  0.01127775  1
  O2-  O299  1  0.45175132  0.43302921  0.76319226  1
  O2-  O300  1  0.53567075  0.21826289  0.78129038  1
  O2-  O301  1  0.04840868  0.23749778  0.26680717  1
  O2-  O302  1  0.04702153  0.76582976  0.77089575  1
  O2-  O303  1  0.94924581  0.90260074  0.27028208  1
  O2-  O304  1  0.55066143  0.22956267  0.49428490  1
  O2-  O305  1  0.44519682  0.41678352  0.22940364  1
  O2-  O306  1  0.04829571  0.76468910  0.73171875  1
  O2-  O307  1  0.55276124  0.88745711  0.04978445  1
  O2-  O308  1  0.45405913  0.76421906  0.76161161  1
  O2-  O309  1  0.54897946  0.23828920  0.49341581  1
  O2-  O310  1  0.54148616  0.88905650  0.52690562  1
  O2-  O311  1  0.54528175  0.89871418  0.73884761  1
  O2-  O312  1  0.05415393  0.90998618  0.26771073  1
  O2-  O313  1  0.54470925  0.43288969  0.48710248  1
  O2-  O314  1  0.45200215  0.23403985  0.23832657  1
  O2-  O315  1  0.54570834  0.43711273  0.00959069  1
  O2-  O316  1  0.54996171  0.76886737  0.26215540  1
  O2-  O317  1  0.04776932  0.56370221  0.48595856  1
  O2-  O318  1  0.54801541  0.09868290  0.01726315  1
  O2-  O319  1  0.45402015  0.09954569  0.76575364  1
  O2-  O320  1  0.96539602  0.55927471  0.96051376  1
  O2-  O321  1  0.45228346  0.57387095  0.23667829  1
  O2-  O322  1  0.44808297  0.24172885  0.49283322  1
  O2-  O323  1  0.95258864  0.76206642  0.26963635  1
  O2-  O324  1  0.06367790  0.07512558  0.47344636  1
  O2-  O325  1  0.56514849  0.25712015  0.02972008  1
  O2-  O326  1  0.93214735  0.90993517  0.43275289  1
  O2-  O327  1  0.43944251  0.59100010  0.96590252  1
  O2-  O328  1  0.93688942  0.25752711  0.81355139  1
  O2-  O329  1  0.44223466  0.41237330  0.22259269  1
  O2-  O330  1  0.06626595  0.06861055  0.78528214  1
  O2-  O331  1  0.42836433  0.95625511  0.91700069  1
  O2-  O332  1  0.93552331  0.25884593  0.68687106  1
  O2-  O333  1  0.41556798  0.94647848  0.06875687  1
  O2-  O334  1  0.56195443  0.25795681  0.28498446  1
  O2-  O335  1  0.56819334  0.58898358  0.18994401  1
  O2-  O336  1  0.93471473  0.59709420  0.53087887  1
  O2-  O337  1  0.57564806  0.26977628  0.70168020  1
  O2-  O338  1  0.57744090  0.39826059  0.80346810  1
  O2-  O339  1  0.56407735  0.93086284  0.21745563  1
  O2-  O340  1  0.94621698  0.25024212  0.23281272  1
  O2-  O341  1  0.93762365  0.40803631  0.80561744  1
  O2-  O342  1  0.06911759  0.60542329  0.45902507  1
  O2-  O343  1  0.93749717  0.40140285  0.46446314  1
  O2-  O344  1  0.44102601  0.73361546  0.21941884  1
  O2-  O345  1  0.56238169  0.59243424  0.31993334  1
  O2-  O346  1  0.57200194  0.93165711  0.45802193  1
  O2-  O347  1  0.43648823  0.07926339  0.22495310  1
  O2-  O348  1  0.43737662  0.73841203  0.93027915  1
  O2-  O349  1  0.94864381  0.42842837  0.04089234  1
  O2-  O350  1  0.93739779  0.93216363  0.57089124  1
  O2-  O351  1  0.08532812  0.37845298  0.53054048  1
  O2-  O352  1  0.43522768  0.73651221  0.06855440  1
  O2-  O353  1  0.06394639  0.40717215  0.77519881  1
  O2-  O354  1  0.55766135  0.73912954  0.28073752  1
  O2-  O355  1  0.93040766  0.39830224  0.91497852  1
  O2-  O356  1  0.44174649  0.25472652  0.21030406  1
  O2-  O357  1  0.42916527  0.93043918  0.22255594  1
  O2-  O358  1  0.92096873  0.59503519  0.05715221  1
  O2-  O359  1  0.93744029  0.59566432  0.72151892  1
  O2-  O360  1  0.56362860  0.73492473  0.53365180  1
  O2-  O361  1  0.92419832  0.05862857  0.78192941  1
  O2-  O362  1  0.05774844  0.74302701  0.29477460  1
  O2-  O363  1  0.06469533  0.26168146  0.28176835  1
  O2-  O364  1  0.57374671  0.93847174  0.94823555  1
  O2-  O365  1  0.93788825  0.41176070  0.68603428  1
  O2-  O366  1  0.06066981  0.91496427  0.46214392  1
  O2-  O367  1  0.92131429  0.73623797  0.05649119  1
  O2-  O368  1  0.56342873  0.41042435  0.28208167  1
  O2-  O369  1  0.05919333  0.91445011  0.27110760  1
  O2-  O370  1  0.06505426  0.58924510  0.77626767  1
  O2-  O371  1  0.93686246  0.25547963  0.96949851  1
  O2-  O372  1  0.75035429  0.33626179  0.39341094  1
  O2-  O373  1  0.25083443  0.66970658  0.60677132  1
  O2-  O374  1  0.24957646  -0.00509435  0.32774531  1
  O2-  O375  1  0.25051501  0.66432790  0.39449127  1
  O2-  O376  1  0.74985369  0.00259822  0.81568776  1
  O2-  O377  1  0.74981457  0.34104380  0.60752608  1
  O2-  O378  1  0.25017266  0.33064525  0.35625702  1
  O2-  O379  1  0.74970948  0.34045477  0.80801314  1
  O2-  O380  1  0.75011088  0.66698888  0.56394378  1
  O2-  O381  1  0.24995624  0.01445795  0.41740114  1
  O2-  O382  1  0.75003404  0.32871160  0.15503290  1
  O2-  O383  1  0.24980170  0.67225109  0.90558249  1
  O2-  O384  1  0.24900893  0.00638480  0.09654703  1
  O2-  O385  1  0.24886643  0.00482484  0.89992557  1
  O2-  O386  1  0.75051820  -0.01110510  0.93045484  1
  O2-  O387  1  0.75017856  0.01591719  0.57216152  1
  O2-  O388  1  0.74941059  0.01364160  0.68236943  1
  O2-  O389  1  0.74998212  0.66953784  0.88890435  1
  O2-  O390  1  0.74947282  0.66317537  0.11234106  1
  O2-  O391  1  0.74973321  0.65871779  0.68071824  1
  O2-  O392  1  0.24989252  0.33675369  0.90356804  1
  O2-  O393  1  0.75039945  0.01159780  0.38517601  1
  O2-  O394  1  0.74959456  0.33882202  0.93055377  1
  O2-  O395  1  0.25060516  0.33229816  0.59856867  1
  O2-  O396  1  0.25007724  0.50892453  0.95086509  1
  O2-  O397  1  0.74984268  0.83801441  0.89088053  1
  O2-  O398  1  0.74983289  0.49757098  0.09177670  1
  O2-  O399  1  0.75028208  0.83721949  0.12568673  1
  O2-  O400  1  0.25022301  0.49232790  0.61004979  1
  O2-  O401  1  0.25010703  0.16646646  0.90873688  1
  O2-  O402  1  0.24999040  0.49654269  0.86607541  1
  O2-  O403  1  0.24999079  0.84017430  0.40259712  1
  O2-  O404  1  0.24969118  0.83958921  0.31391364  1
  O2-  O405  1  0.24991448  0.49350001  0.10037420  1
  O2-  O406  1  0.75012029  0.16060753  0.18305390  1
  O2-  O407  1  0.74985302  0.17281362  0.33756607  1
  O2-  O408  1  0.74949525  0.83437590  0.20510847  1
  O2-  O409  1  0.74996294  0.83519379  0.41142571  1
  O2-  O410  1  0.25004569  0.16704415  0.06324967  1
  O2-  O411  1  0.24986072  0.82238507  0.86570767  1
  O2-  O412  1  0.75042969  0.83125447  0.32557135  1
  O2-  O413  1  0.74967242  0.50669798  0.86094009  1
  O2-  O414  1  0.25008163  0.15535035  0.62424577  1
  O2-  O415  1  0.25012828  0.16785916  0.18239612  1
  O2-  O416  1  0.24964404  0.82204739  0.08613008  1
  O2-  O417  1  0.74998093  0.17725468  0.63984602  1
  O2-  O418  1  0.74955413  0.83710731  0.80798308  1
  O2-  O419  1  0.74974225  0.16652025  0.09409678  1
  O2-  O420  1  0.45614877  -0.00788285  0.62910899  1
  O2-  O421  1  0.54312132  0.00686030  0.62485598  1
  O2-  O422  1  0.04794835  0.67005169  0.11427613  1
  O2-  O423  1  0.52486640  0.33606770  0.12751738  1
  O2-  O424  1  0.02691113  0.00168734  0.12329735  1
  O2-  O425  1  0.02297703  0.32974911  0.63112206  1
  O2-  O426  1  0.02365838  0.66952009  0.88079956  1
  O2-  O427  1  0.52452973  0.01016651  0.86319590  1
  O2-  O428  1  0.54121262  0.01290837  0.35968970  1
  O2-  O429  1  0.45359701  0.33178610  0.87811924  1
  O2-  O430  1  0.45616250  0.00415111  0.38194151  1
  O2-  O431  1  0.02567510  0.66896338  0.62550691  1
  O2-  O432  1  0.48644716  0.01253087  0.12558244  1
  O2-  O433  1  0.02886708  0.00626477  0.36605304  1
  O2-  O434  1  0.96336673  0.66293969  0.14967253  1
  O2-  O435  1  0.97643545  -0.00661034  0.88256647  1
  O2-  O436  1  0.52781579  0.67379440  0.11105861  1
  O2-  O437  1  0.04789570  0.33383125  0.12034159  1
  O2-  O438  1  0.02706203  0.32707532  0.88376068  1
  O2-  O439  1  0.02859542  -0.00094967  0.62714866  1
  O2-  O440  1  0.96282416  0.32969585  0.12753633  1
  O2-  O441  1  0.53977647  0.32484991  0.89150599  1
  O2-  O442  1  0.52004651  0.34343882  0.62169075  1
  O2-  O443  1  0.96804303  0.01128684  0.37507370  1
