# generated using pymatgen
data_La7(Ru4O11)2
_symmetry_space_group_name_H-M   'P 1'
_cell_length_a   23.99119887
_cell_length_b   16.83185051
_cell_length_c   15.42868515
_cell_angle_alpha   89.99957544
_cell_angle_beta   90.00014984
_cell_angle_gamma   90.00029076
_symmetry_Int_Tables_number   1
_chemical_formula_structural   La7(Ru4O11)2
_chemical_formula_sum   'La84 Ru96 O264'
_cell_volume   6230.35413435
_cell_formula_units_Z   12
loop_
 _symmetry_equiv_pos_site_id
 _symmetry_equiv_pos_as_xyz
  1  'x, y, z'
loop_
 _atom_type_symbol
 _atom_type_oxidation_number
  La3+  3.0
  Ru4+  4.0
  O2-  -2.0
loop_
 _atom_site_type_symbol
 _atom_site_label
 _atom_site_symmetry_multiplicity
 _atom_site_fract_x
 _atom_site_fract_y
 _atom_site_fract_z
 _atom_site_occupancy
  La3+  La0  1  0.13388703  0.00098608  0.12267769  1
  La3+  La1  1  0.13453466  0.00327089  0.37241186  1
  La3+  La2  1  0.13386833  0.00194006  0.62519388  1
  La3+  La3  1  0.13780708  -0.00344554  0.87879870  1
  La3+  La4  1  0.13882884  0.33536124  0.12319444  1
  La3+  La5  1  0.13406444  0.33195590  0.37949283  1
  La3+  La6  1  0.13782680  0.33641743  0.62384877  1
  La3+  La7  1  0.14074890  0.33712850  0.87660778  1
  La3+  La8  1  0.13731146  0.66497950  0.11799360  1
  La3+  La9  1  0.13454074  0.66586090  0.37319632  1
  La3+  La10  1  0.13520773  0.66513576  0.62744028  1
  La3+  La11  1  0.14761857  0.66242126  0.87497341  1
  La3+  La12  1  0.64107693  0.00200909  0.12805503  1
  La3+  La13  1  0.63534842  -0.00760387  0.38560520  1
  La3+  La14  1  0.63609024  -0.00910521  0.61507811  1
  La3+  La15  1  0.63831265  0.00139455  0.87433756  1
  La3+  La16  1  0.64224068  0.33025691  0.12618668  1
  La3+  La17  1  0.64455646  0.32854964  0.37807151  1
  La3+  La18  1  0.64099925  0.33154275  0.62216037  1
  La3+  La19  1  0.63753302  0.33149936  0.87552156  1
  La3+  La20  1  0.63622699  0.66417241  0.12463483  1
  La3+  La21  1  0.63926109  0.66610656  0.37508043  1
  La3+  La22  1  0.64468779  0.67189532  0.62567676  1
  La3+  La23  1  0.63374597  0.66269556  0.87179805  1
  La3+  La24  1  0.37097510  -0.00572253  0.13115825  1
  La3+  La25  1  0.36989132  -0.00772115  0.36474850  1
  La3+  La26  1  0.36584840  -0.00055938  0.62121869  1
  La3+  La27  1  0.36070522  -0.00046949  0.87818966  1
  La3+  La28  1  0.36189406  0.33409050  0.12188704  1
  La3+  La29  1  0.35837697  0.33181522  0.37526617  1
  La3+  La30  1  0.35634038  0.33724774  0.62756296  1
  La3+  La31  1  0.36136226  0.33397435  0.87971370  1
  La3+  La32  1  0.36073495  0.66466260  0.12011873  1
  La3+  La33  1  0.36529782  0.66663526  0.37396308  1
  La3+  La34  1  0.35910782  0.66251981  0.62816768  1
  La3+  La35  1  0.35635338  0.66470231  0.87853182  1
  La3+  La36  1  0.86175571  -0.00027136  0.12642126  1
  La3+  La37  1  0.85592857  -0.00268397  0.37695133  1
  La3+  La38  1  0.85605980  -0.00512395  0.62340939  1
  La3+  La39  1  0.86554877  -0.00163741  0.87589131  1
  La3+  La40  1  0.86333223  0.33502975  0.13023783  1
  La3+  La41  1  0.86116374  0.33616346  0.37076828  1
  La3+  La42  1  0.86132858  0.33178304  0.62246881  1
  La3+  La43  1  0.85954781  0.33199610  0.87520522  1
  La3+  La44  1  0.86420641  0.66530594  0.12892600  1
  La3+  La45  1  0.85687772  0.66387138  0.37080540  1
  La3+  La46  1  0.85825051  0.67252831  0.63123997  1
  La3+  La47  1  0.87225455  0.67787824  0.86211466  1
  La3+  La48  1  0.00171383  0.16580943  0.13303342  1
  La3+  La49  1  0.50130081  0.49632507  0.36539498  1
  La3+  La50  1  0.50205902  0.85614854  0.38168499  1
  La3+  La51  1  -0.00081455  0.83805337  0.13873775  1
  La3+  La52  1  -0.00668303  0.82686099  0.64032893  1
  La3+  La53  1  0.48866845  0.49970995  0.86625443  1
  La3+  La54  1  0.50482131  0.16504433  0.63716570  1
  La3+  La55  1  0.49607508  0.83237111  0.13073752  1
  La3+  La56  1  -0.00023125  0.49606022  0.38394640  1
  La3+  La57  1  -0.00138532  0.50034254  0.88636095  1
  La3+  La58  1  -0.00097972  0.16092570  0.38113719  1
  La3+  La59  1  0.50242728  0.50812253  0.09915125  1
  La3+  La60  1  0.00134032  0.49978561  0.62104425  1
  La3+  La61  1  0.49406751  0.50862796  0.11756011  1
  La3+  La62  1  0.50479979  0.85499134  0.36520365  1
  La3+  La63  1  -0.00708984  0.82454969  0.62337839  1
  La3+  La64  1  -0.00142892  0.16096836  0.86528323  1
  La3+  La65  1  -0.00153089  0.49827936  0.14057911  1
  La3+  La66  1  0.49993839  0.83603882  0.62376444  1
  La3+  La67  1  0.50632238  0.84249353  0.87698303  1
  La3+  La68  1  0.49803373  0.16840777  0.11098444  1
  La3+  La69  1  0.50197676  0.50052685  0.38733197  1
  La3+  La70  1  0.49974761  0.16838155  0.13343077  1
  La3+  La71  1  0.50276138  0.50327458  0.62665866  1
  La3+  La72  1  0.24976316  0.15136765  0.79606733  1
  La3+  La73  1  0.75062204  0.83768586  0.25738619  1
  La3+  La74  1  0.24990193  0.12087535  0.04084388  1
  La3+  La75  1  0.24998905  0.50402260  0.73442786  1
  La3+  La76  1  0.74990501  0.49936845  0.76432083  1
  La3+  La77  1  0.24965843  0.83088768  0.02724801  1
  La3+  La78  1  0.75045204  0.53300194  0.02468147  1
  La3+  La79  1  0.24985951  0.82298204  0.58794995  1
  La3+  La80  1  0.25057207  0.82419493  0.19727809  1
  La3+  La81  1  0.75050587  0.79421923  0.02226659  1
  La3+  La82  1  0.75025842  0.21898924  0.72808892  1
  La3+  La83  1  0.25025766  0.49699624  0.56296953  1
  Ru4+  Ru84  1  0.00347482  0.00173986  -0.00292941  1
  Ru4+  Ru85  1  0.00333064  -0.00159879  0.25096546  1
  Ru4+  Ru86  1  -0.00201254  0.01187449  0.49629800  1
  Ru4+  Ru87  1  -0.00173505  0.00225663  0.75037612  1
  Ru4+  Ru88  1  -0.00074902  0.33592594  0.00021634  1
  Ru4+  Ru89  1  0.00230644  0.32781779  0.25525019  1
  Ru4+  Ru90  1  -0.00357477  0.32816535  0.50415420  1
  Ru4+  Ru91  1  -0.00014567  0.33338434  0.74766754  1
  Ru4+  Ru92  1  0.00819535  0.66630364  -0.00583152  1
  Ru4+  Ru93  1  -0.00180924  0.66765202  0.25845873  1
  Ru4+  Ru94  1  -0.00223188  0.67261174  0.49599809  1
  Ru4+  Ru95  1  0.00112479  0.66793914  0.75421830  1
  Ru4+  Ru96  1  0.49668401  -0.00024335  -0.00277015  1
  Ru4+  Ru97  1  0.49805718  -0.00149042  0.25762976  1
  Ru4+  Ru98  1  0.50454511  0.00570343  0.49400194  1
  Ru4+  Ru99  1  0.49430748  0.00176190  0.75059010  1
  Ru4+  Ru100  1  0.50453533  0.33728053  -0.00309716  1
  Ru4+  Ru101  1  0.50316819  0.33304719  0.25568304  1
  Ru4+  Ru102  1  0.49757530  0.32158636  0.50223620  1
  Ru4+  Ru103  1  0.50141031  0.33193026  0.75546990  1
  Ru4+  Ru104  1  0.49458691  0.67680515  0.00389127  1
  Ru4+  Ru105  1  0.50026892  0.67581791  0.24496997  1
  Ru4+  Ru106  1  0.49784606  0.66978869  0.49860463  1
  Ru4+  Ru107  1  0.49884065  0.66549191  0.75424657  1
  Ru4+  Ru108  1  0.11054197  0.16650311  0.00070026  1
  Ru4+  Ru109  1  0.11437962  0.16324592  0.25045075  1
  Ru4+  Ru110  1  0.11497395  0.16725433  0.50294809  1
  Ru4+  Ru111  1  0.10701921  0.16579696  0.74829108  1
  Ru4+  Ru112  1  0.11295795  0.50495417  0.00089448  1
  Ru4+  Ru113  1  0.11069878  0.49941348  0.25010598  1
  Ru4+  Ru114  1  0.11470853  0.50606398  0.49936006  1
  Ru4+  Ru115  1  0.11032838  0.50002681  0.75086433  1
  Ru4+  Ru116  1  0.10753433  0.83127303  -0.00316140  1
  Ru4+  Ru117  1  0.10929850  0.83364492  0.25050479  1
  Ru4+  Ru118  1  0.11195605  0.83661402  0.49964402  1
  Ru4+  Ru119  1  0.11033835  0.83248832  0.75248521  1
  Ru4+  Ru120  1  0.61542374  0.16766378  0.00063352  1
  Ru4+  Ru121  1  0.61327035  0.16253858  0.25095238  1
  Ru4+  Ru122  1  0.61148266  0.16880381  0.49877049  1
  Ru4+  Ru123  1  0.60877978  0.16589414  0.75128687  1
  Ru4+  Ru124  1  0.61357319  0.49525113  -0.00062555  1
  Ru4+  Ru125  1  0.61734091  0.49875341  0.25471112  1
  Ru4+  Ru126  1  0.61186613  0.49929461  0.49882525  1
  Ru4+  Ru127  1  0.60864982  0.50769552  0.74639722  1
  Ru4+  Ru128  1  0.61007193  0.83241334  0.00111507  1
  Ru4+  Ru129  1  0.61165967  0.82869598  0.25301728  1
  Ru4+  Ru130  1  0.61515954  0.83464167  0.50177247  1
  Ru4+  Ru131  1  0.61382927  0.83078721  0.74695485  1
  Ru4+  Ru132  1  0.38674966  0.16062475  -0.00185963  1
  Ru4+  Ru133  1  0.38821385  0.16177378  0.24933226  1
  Ru4+  Ru134  1  0.39284893  0.18361845  0.49691053  1
  Ru4+  Ru135  1  0.39044853  0.16762189  0.74895230  1
  Ru4+  Ru136  1  0.38132691  0.50348864  -0.00302491  1
  Ru4+  Ru137  1  0.38666000  0.49537271  0.25155829  1
  Ru4+  Ru138  1  0.39066061  0.50492793  0.49967111  1
  Ru4+  Ru139  1  0.38979910  0.50021309  0.74890581  1
  Ru4+  Ru140  1  0.39121264  0.83409261  0.00540624  1
  Ru4+  Ru141  1  0.38831700  0.83029361  0.24796978  1
  Ru4+  Ru142  1  0.38553928  0.82506090  0.49863345  1
  Ru4+  Ru143  1  0.38867075  0.83308352  0.74880885  1
  Ru4+  Ru144  1  0.88717067  0.16857755  -0.00057382  1
  Ru4+  Ru145  1  0.88586706  0.16199888  0.25025768  1
  Ru4+  Ru146  1  0.89233670  0.16044452  0.50139216  1
  Ru4+  Ru147  1  0.89096539  0.16456407  0.75012494  1
  Ru4+  Ru148  1  0.89021574  0.49782459  0.00147180  1
  Ru4+  Ru149  1  0.88335900  0.50271479  0.24967255  1
  Ru4+  Ru150  1  0.88613918  0.50253763  0.50013164  1
  Ru4+  Ru151  1  0.89023634  0.50344725  0.75101036  1
  Ru4+  Ru152  1  0.88735939  0.82817980  0.00015525  1
  Ru4+  Ru153  1  0.88872089  0.83038766  0.25118121  1
  Ru4+  Ru154  1  0.88531276  0.82526801  0.49844309  1
  Ru4+  Ru155  1  0.88408284  0.83127472  0.75056558  1
  Ru4+  Ru156  1  0.24945785  0.58240434  0.23975989  1
  Ru4+  Ru157  1  0.75021844  0.40598490  0.49698183  1
  Ru4+  Ru158  1  0.75065866  0.38734586  0.00139055  1
  Ru4+  Ru159  1  0.74990239  0.90897519  0.75876519  1
  Ru4+  Ru160  1  0.75027181  0.08472376  0.00750691  1
  Ru4+  Ru161  1  0.74982918  0.24538985  0.25442539  1
  Ru4+  Ru162  1  0.75036392  0.93229908  -0.00894079  1
  Ru4+  Ru163  1  0.24976955  0.27617266  0.73952414  1
  Ru4+  Ru164  1  0.24996741  0.38703746  0.47594588  1
  Ru4+  Ru165  1  0.24975068  0.70913917  0.27443063  1
  Ru4+  Ru166  1  0.24910986  0.73593853  0.46469958  1
  Ru4+  Ru167  1  0.24828413  0.95899613  0.22779457  1
  Ru4+  Ru168  1  0.25074908  0.09323239  0.50082523  1
  Ru4+  Ru169  1  0.25016475  0.03687173  0.72265728  1
  Ru4+  Ru170  1  0.24969058  0.74660531  0.74626783  1
  Ru4+  Ru171  1  0.74954766  0.06459707  0.76724389  1
  Ru4+  Ru172  1  0.24999216  0.26989030  0.01026105  1
  Ru4+  Ru173  1  0.24914896  0.40499727  0.24509056  1
  Ru4+  Ru174  1  0.25030747  0.59885199  0.46239348  1
  Ru4+  Ru175  1  0.74958366  0.09075224  0.49369059  1
  Ru4+  Ru176  1  0.25019812  0.24932601  0.25151398  1
  Ru4+  Ru177  1  0.24989617  0.90860688  0.73836506  1
  Ru4+  Ru178  1  0.25056646  0.93776887  0.49781890  1
  Ru4+  Ru179  1  0.74998110  0.60024898  0.49496729  1
  O2-  O180  1  0.16451132  0.07858883  -0.00219592  1
  O2-  O181  1  0.16733372  0.08280415  0.25055596  1
  O2-  O182  1  0.16662779  0.08182824  0.50043130  1
  O2-  O183  1  0.16404185  0.07760231  0.74924573  1
  O2-  O184  1  0.16117424  0.41546709  0.00023639  1
  O2-  O185  1  0.16615978  0.41266378  0.25104758  1
  O2-  O186  1  0.16688495  0.41200370  0.49855177  1
  O2-  O187  1  0.16527373  0.41480135  0.75053915  1
  O2-  O188  1  0.17036721  0.75112939  0.00802468  1
  O2-  O189  1  0.16473790  0.74651048  0.24976821  1
  O2-  O190  1  0.16634925  0.74533410  0.49898765  1
  O2-  O191  1  0.16612834  0.74934654  0.74530897  1
  O2-  O192  1  0.66715564  0.07965703  -0.00085250  1
  O2-  O193  1  0.66464097  0.08105401  0.24892742  1
  O2-  O194  1  0.66405763  0.08064639  0.50078216  1
  O2-  O195  1  0.66597646  0.07853094  0.75094373  1
  O2-  O196  1  0.66937974  0.41392367  0.00092813  1
  O2-  O197  1  0.67022697  0.41617929  0.24447230  1
  O2-  O198  1  0.66540670  0.41475685  0.50018908  1
  O2-  O199  1  0.66463619  0.41495926  0.75112978  1
  O2-  O200  1  0.66468673  0.74436297  0.00000744  1
  O2-  O201  1  0.67023084  0.74768119  0.24962787  1
  O2-  O202  1  0.66288096  0.74809621  0.49384280  1
  O2-  O203  1  0.66672895  0.74782936  0.75370531  1
  O2-  O204  1  0.33506741  0.25374265  0.00315114  1
  O2-  O205  1  0.33367189  0.25268201  0.24960632  1
  O2-  O206  1  0.32993797  0.24711985  0.49679912  1
  O2-  O207  1  0.33512588  0.25526146  0.75273654  1
  O2-  O208  1  0.33226485  0.58612490  0.00201881  1
  O2-  O209  1  0.33330877  0.58778071  0.25024193  1
  O2-  O210  1  0.33360138  0.58611173  0.49602875  1
  O2-  O211  1  0.33472135  0.58385842  0.75240478  1
  O2-  O212  1  0.33194183  0.92020868  0.00457819  1
  O2-  O213  1  0.32944179  0.92306105  0.24676986  1
  O2-  O214  1  0.33480864  0.91893756  0.49761352  1
  O2-  O215  1  0.33319248  0.91683537  0.74747058  1
  O2-  O216  1  0.83544654  0.25265409  0.00323155  1
  O2-  O217  1  0.83352374  0.25225893  0.24706826  1
  O2-  O218  1  0.83928004  0.24824685  0.50062880  1
  O2-  O219  1  0.84052062  0.25687748  0.75246872  1
  O2-  O220  1  0.83560427  0.59113589  -0.00043574  1
  O2-  O221  1  0.83269526  0.58654774  0.24322182  1
  O2-  O222  1  0.83312859  0.58527054  0.49788200  1
  O2-  O223  1  0.83450813  0.58669433  0.75409282  1
  O2-  O224  1  0.83423673  0.92099740  0.00112553  1
  O2-  O225  1  0.83124942  0.91712114  0.24586636  1
  O2-  O226  1  0.83662114  0.91277309  0.49798886  1
  O2-  O227  1  0.83566379  0.91680080  0.75562056  1
  O2-  O228  1  0.16637771  0.25332842  0.00229184  1
  O2-  O229  1  0.16620458  0.25386798  0.25187918  1
  O2-  O230  1  0.16623317  0.25017171  0.49738786  1
  O2-  O231  1  0.16457540  0.25482153  0.75092284  1
  O2-  O232  1  0.16720353  0.58366098  0.00375928  1
  O2-  O233  1  0.16596176  0.58636345  0.24908986  1
  O2-  O234  1  0.16847232  0.58697802  0.49777367  1
  O2-  O235  1  0.16513219  0.58373921  0.74543949  1
  O2-  O236  1  0.16904467  0.91504752  0.00060759  1
  O2-  O237  1  0.16954438  0.92198499  0.24853013  1
  O2-  O238  1  0.16540534  0.92306906  0.49996346  1
  O2-  O239  1  0.16591498  0.91846535  0.74589886  1
  O2-  O240  1  0.66704047  0.25130375  -0.00051153  1
  O2-  O241  1  0.66865960  0.24995793  0.24965440  1
  O2-  O242  1  0.66668753  0.24848386  0.50089305  1
  O2-  O243  1  0.66070586  0.25668636  0.75189137  1
  O2-  O244  1  0.66545736  0.58734223  -0.00051917  1
  O2-  O245  1  0.66849534  0.58525464  0.24733117  1
  O2-  O246  1  0.66818072  0.58671922  0.49618976  1
  O2-  O247  1  0.67069803  0.58698172  0.75472780  1
  O2-  O248  1  0.66494187  0.91953279  0.00043558  1
  O2-  O249  1  0.67052223  0.91984336  0.24965648  1
  O2-  O250  1  0.66862195  0.91632434  0.49860708  1
  O2-  O251  1  0.66627182  0.91969672  0.75214768  1
  O2-  O252  1  0.33369079  0.07767939  0.00326960  1
  O2-  O253  1  0.33710794  0.08027044  0.24844980  1
  O2-  O254  1  0.33819544  0.08372455  0.49794466  1
  O2-  O255  1  0.33316132  0.07785828  0.74988319  1
  O2-  O256  1  0.33546735  0.41242914  0.00146577  1
  O2-  O257  1  0.33238160  0.41380391  0.24838822  1
  O2-  O258  1  0.33210554  0.41197693  0.49999092  1
  O2-  O259  1  0.33425922  0.41597726  0.75299355  1
  O2-  O260  1  0.33357635  0.74782446  0.00363546  1
  O2-  O261  1  0.33544609  0.74388535  0.25069536  1
  O2-  O262  1  0.32970942  0.74576864  0.49441686  1
  O2-  O263  1  0.33204210  0.74854612  0.75155960  1
  O2-  O264  1  0.83490723  0.08090449  0.00135138  1
  O2-  O265  1  0.83211605  0.08250402  0.24659863  1
  O2-  O266  1  0.83098880  0.08401093  0.49948130  1
  O2-  O267  1  0.83106746  0.07947966  0.75403693  1
  O2-  O268  1  0.83356966  0.41396840  0.00242249  1
  O2-  O269  1  0.83257234  0.41430293  0.24656285  1
  O2-  O270  1  0.83427007  0.41320791  0.49847087  1
  O2-  O271  1  0.83422257  0.41159507  0.75055958  1
  O2-  O272  1  0.83549891  0.74227082  -0.00108004  1
  O2-  O273  1  0.82594982  0.74752932  0.24583196  1
  O2-  O274  1  0.82881511  0.75094953  0.49936196  1
  O2-  O275  1  0.82909685  0.74763818  0.75436306  1
  O2-  O276  1  0.95318191  0.43186683  0.26658567  1
  O2-  O277  1  0.03287991  0.77730963  0.02387916  1
  O2-  O278  1  0.45473891  0.89404017  0.25221476  1
  O2-  O279  1  0.54610464  0.90979690  0.73787538  1
  O2-  O280  1  0.95511278  0.23293806  0.98650369  1
  O2-  O281  1  0.95122854  0.77551961  0.72670581  1
  O2-  O282  1  0.45243306  0.57052001  0.24623911  1
  O2-  O283  1  0.94915884  0.90337923  0.52401452  1
  O2-  O284  1  0.55309629  0.90489136  0.48026155  1
  O2-  O285  1  0.45310962  0.23647840  0.74281286  1
  O2-  O286  1  0.54755888  0.09380537  0.76548990  1
  O2-  O287  1  0.55101118  0.90292847  0.23168299  1
  O2-  O288  1  0.47451007  0.19179010  0.50827016  1
  O2-  O289  1  0.97732668  0.78485559  0.47096609  1
  O2-  O290  1  0.03667943  0.21738299  0.51040827  1
  O2-  O291  1  0.05514905  0.76684536  0.52278465  1
  O2-  O292  1  0.45625644  0.43177385  0.50816450  1
  O2-  O293  1  0.94527499  0.24913122  0.47709915  1
  O2-  O294  1  0.55135801  0.76096325  0.73760283  1
  O2-  O295  1  0.96048207  0.77006239  0.75068598  1
  O2-  O296  1  0.44783407  0.42884158  0.00740395  1
  O2-  O297  1  0.04489730  0.24284107  0.76454809  1
  O2-  O298  1  0.45930943  0.77723682  0.79163683  1
  O2-  O299  1  0.05179761  0.42894771  0.50787706  1
  O2-  O300  1  0.94700682  0.90242437  0.01735190  1
  O2-  O301  1  0.54443973  0.23022424  0.25863743  1
  O2-  O302  1  0.44764885  0.90121155  0.51060169  1
  O2-  O303  1  0.95734175  0.91031632  0.48797724  1
  O2-  O304  1  0.54564823  0.89350372  0.50297482  1
  O2-  O305  1  0.54758698  0.09664995  0.48847376  1
  O2-  O306  1  0.53604724  0.44479946  0.21693868  1
  O2-  O307  1  0.03550281  0.87862094  0.28742426  1
  O2-  O308  1  0.46409434  0.76893423  0.45813241  1
  O2-  O309  1  0.54491911  0.76321059  0.00997659  1
  O2-  O310  1  0.04499362  0.23321231  0.25532186  1
  O2-  O311  1  0.04700929  0.09450754  0.73591281  1
  O2-  O312  1  0.54257894  0.44207454  0.95722961  1
  O2-  O313  1  0.44526591  0.90605229  0.27232910  1
  O2-  O314  1  0.44885413  0.23376850  0.98489870  1
  O2-  O315  1  0.95648694  0.43281986  0.76307553  1
  O2-  O316  1  0.54806722  0.57961948  0.79627304  1
  O2-  O317  1  0.95605453  0.56647348  0.01692251  1
  O2-  O318  1  0.54548465  0.90673086  0.01767748  1
  O2-  O319  1  0.54888735  0.57311724  0.98331642  1
  O2-  O320  1  0.54479867  0.43077374  0.75549582  1
  O2-  O321  1  0.03013477  0.78258877  1.01269056  1
  O2-  O322  1  0.95314110  0.43255688  0.50692807  1
  O2-  O323  1  0.97981527  0.12440812  0.52676212  1
  O2-  O324  1  0.93737974  0.40552467  0.27704093  1
  O2-  O325  1  0.43005198  0.92947046  0.22020932  1
  O2-  O326  1  0.06306157  0.40891416  0.53553962  1
  O2-  O327  1  0.56321576  0.60043175  0.97071868  1
  O2-  O328  1  0.91847287  0.05990835  0.56296277  1
  O2-  O329  1  0.93763442  0.93369625  0.03059968  1
  O2-  O330  1  0.56068233  0.25288665  0.03548431  1
  O2-  O331  1  0.43771974  0.59915763  0.96602529  1
  O2-  O332  1  0.56600199  0.93210050  0.53378345  1
  O2-  O333  1  0.06841543  0.92674974  0.02898010  1
  O2-  O334  1  0.58048830  0.39288233  0.30770640  1
  O2-  O335  1  0.41771735  0.27111005  0.56626298  1
  O2-  O336  1  0.93352740  0.72321488  0.57743287  1
  O2-  O337  1  0.06316570  0.26046045  0.03476832  1
  O2-  O338  1  0.43064257  0.91955175  0.81206150  1
  O2-  O339  1  0.07520082  0.27617847  0.53855114  1
  O2-  O340  1  0.43433093  0.07963065  0.80950902  1
  O2-  O341  1  0.43928103  0.26632446  0.97638770  1
  O2-  O342  1  0.06020509  0.59721742  0.07576234  1
  O2-  O343  1  0.08273421  0.71512146  0.94109230  1
  O2-  O344  1  0.06298795  0.59121111  0.52590963  1
  O2-  O345  1  0.91706444  0.73098978  0.43777931  1
  O2-  O346  1  0.42045286  0.72798493  0.55032054  1
  O2-  O347  1  0.42194461  0.72837077  0.69957865  1
  O2-  O348  1  0.43233169  0.07843901  0.69386943  1
  O2-  O349  1  0.56326903  0.07237694  0.03676497  1
  O2-  O350  1  0.92979337  0.06305952  0.42141761  1
  O2-  O351  1  0.43047258  0.27355687  0.41886064  1
  O2-  O352  1  0.55486906  0.59011662  0.80864142  1
  O2-  O353  1  0.06257798  0.93023950  0.77992991  1
  O2-  O354  1  0.56711582  0.26076176  0.52763641  1
  O2-  O355  1  0.93380279  0.07496309  0.72830472  1
  O2-  O356  1  0.93504745  0.74230569  0.26840126  1
  O2-  O357  1  0.06048395  0.07506069  0.96426932  1
  O2-  O358  1  0.56213591  0.59672280  0.46606601  1
  O2-  O359  1  0.43574224  0.93050350  0.52401527  1
  O2-  O360  1  0.43616305  0.07595547  0.97550862  1
  O2-  O361  1  0.57267029  0.39248497  0.06701724  1
  O2-  O362  1  0.43381202  0.91786681  0.68395473  1
  O2-  O363  1  0.06390323  0.07898366  0.22307895  1
  O2-  O364  1  0.56281838  0.59560577  0.28856483  1
  O2-  O365  1  0.06342095  0.57992418  0.92697774  1
  O2-  O366  1  0.94027003  0.07078896  0.27184889  1
  O2-  O367  1  0.07430256  0.93508216  0.20151512  1
  O2-  O368  1  0.06476784  0.73711123  0.77914957  1
  O2-  O369  1  0.58055447  0.58460876  0.66333301  1
  O2-  O370  1  0.92969707  0.72592147  0.72383739  1
  O2-  O371  1  0.06851488  0.07179084  0.47585385  1
  O2-  O372  1  0.24913817  0.36639865  0.65783343  1
  O2-  O373  1  0.75086754  0.33547766  0.32471490  1
  O2-  O374  1  0.75009264  0.66207235  0.59172414  1
  O2-  O375  1  0.25007143  0.35330546  0.82450611  1
  O2-  O376  1  0.25095884  0.02534021  0.31610855  1
  O2-  O377  1  0.75069750  0.32450652  0.41503706  1
  O2-  O378  1  0.74982643  0.00469579  0.40672872  1
  O2-  O379  1  0.74992015  0.33672327  0.59732029  1
  O2-  O380  1  0.24993389  0.66796989  0.56809737  1
  O2-  O381  1  0.24931271  0.31686991  0.37822481  1
  O2-  O382  1  0.74917098  -0.00885375  0.67569474  1
  O2-  O383  1  0.75079872  0.33133556  0.89869787  1
  O2-  O384  1  0.24952898  0.00109890  0.85239303  1
  O2-  O385  1  0.25017045  0.65044977  0.69026519  1
  O2-  O386  1  0.25114707  0.67080920  0.92015166  1
  O2-  O387  1  0.24956702  0.01189409  0.60077334  1
  O2-  O388  1  0.24990761  0.32971229  0.14733258  1
  O2-  O389  1  0.25106052  0.65857820  0.83040662  1
  O2-  O390  1  0.74941285  0.01022668  0.89482135  1
  O2-  O391  1  0.74910683  -0.00156579  0.55892982  1
  O2-  O392  1  0.24973583  0.31891380  0.57847031  1
  O2-  O393  1  0.25017231  0.01609767  0.41483724  1
  O2-  O394  1  0.75005344  0.00084664  0.10461877  1
  O2-  O395  1  0.24988297  0.34605669  0.93136965  1
  O2-  O396  1  0.25013740  0.50099392  0.08367352  1
  O2-  O397  1  0.75037878  0.50259409  0.54969709  1
  O2-  O398  1  0.74979210  0.15259871  0.85346967  1
  O2-  O399  1  0.74973149  0.82825303  0.66991418  1
  O2-  O400  1  0.24983520  0.17087522  0.16872943  1
  O2-  O401  1  0.74955201  0.16376015  0.41073913  1
  O2-  O402  1  0.24997744  0.49377408  0.41234539  1
  O2-  O403  1  0.25015683  0.17385439  0.65285510  1
  O2-  O404  1  0.74973226  0.50074306  0.63623517  1
  O2-  O405  1  0.24986317  0.50049867  0.85862240  1
  O2-  O406  1  0.25012664  0.49523888  0.16703250  1
  O2-  O407  1  0.25054590  0.49546922  0.31754051  1
  O2-  O408  1  0.24998024  0.83571100  0.33112138  1
  O2-  O409  1  0.25006120  0.18461375  0.92129716  1
  O2-  O410  1  0.75012851  0.49643619  0.89638838  1
  O2-  O411  1  0.25012155  0.83582410  0.90559563  1
  O2-  O412  1  0.75040948  0.17420547  0.94015155  1
  O2-  O413  1  0.74982131  0.15074591  0.61044442  1
  O2-  O414  1  0.24983959  0.84391291  0.42651822  1
  O2-  O415  1  0.74977493  0.84457338  0.88592255  1
  O2-  O416  1  0.74988125  0.83764628  0.58599698  1
  O2-  O417  1  0.25005473  0.50030725  0.93950325  1
  O2-  O418  1  0.24999616  0.18103052  0.56497112  1
  O2-  O419  1  0.25027992  0.83245235  0.81973298  1
  O2-  O420  1  0.04696191  0.66772449  0.37393906  1
  O2-  O421  1  0.54483732  0.00089716  0.36341839  1
  O2-  O422  1  0.96965414  0.66514923  0.87370252  1
  O2-  O423  1  0.02922765  0.33662143  0.38259332  1
  O2-  O424  1  0.47157886  0.32570629  0.12659380  1
  O2-  O425  1  0.47231513  0.34995116  0.63856494  1
  O2-  O426  1  0.52085773  0.33204393  0.38640930  1
  O2-  O427  1  0.01411607  0.01204923  0.12009505  1
  O2-  O428  1  0.47041139  0.63767531  0.63005548  1
  O2-  O429  1  0.48734984  0.01122599  0.61581765  1
  O2-  O430  1  0.02587297  0.00126476  0.37163918  1
  O2-  O431  1  0.53272186  0.33869560  0.63020657  1
  O2-  O432  1  0.53409259  0.68563064  0.60353117  1
  O2-  O433  1  0.47604604  0.01011323  0.12420392  1
  O2-  O434  1  0.98509456  -0.01872142  0.63215637  1
  O2-  O435  1  0.48852565  -0.00917000  0.88096348  1
  O2-  O436  1  0.45609104  0.00638862  0.38472097  1
  O2-  O437  1  0.96414823  0.63950783  0.36921939  1
  O2-  O438  1  0.97246519  0.00399114  0.87611045  1
  O2-  O439  1  0.97090015  0.33098113  0.62855685  1
  O2-  O440  1  0.54600655  0.66331805  0.13127513  1
  O2-  O441  1  0.45308637  0.67395060  0.12231076  1
  O2-  O442  1  0.02602191  0.66990798  0.63514148  1
  O2-  O443  1  0.52803227  0.32766940  0.87172189  1
