# generated using pymatgen
data_La7(Ru4O11)2
_symmetry_space_group_name_H-M   'P 1'
_cell_length_a   23.99185602
_cell_length_b   16.83305504
_cell_length_c   15.42796465
_cell_angle_alpha   89.99754886
_cell_angle_beta   90.00157368
_cell_angle_gamma   90.00117671
_symmetry_Int_Tables_number   1
_chemical_formula_structural   La7(Ru4O11)2
_chemical_formula_sum   'La84 Ru96 O264'
_cell_volume   6230.67967725
_cell_formula_units_Z   12
loop_
 _symmetry_equiv_pos_site_id
 _symmetry_equiv_pos_as_xyz
  1  'x, y, z'
loop_
 _atom_type_symbol
 _atom_type_oxidation_number
  La3+  3.0
  Ru4+  4.0
  O2-  -2.0
loop_
 _atom_site_type_symbol
 _atom_site_label
 _atom_site_symmetry_multiplicity
 _atom_site_fract_x
 _atom_site_fract_y
 _atom_site_fract_z
 _atom_site_occupancy
  La3+  La0  1  0.14446886  -0.00399906  0.12778495  1
  La3+  La1  1  0.14458032  -0.00040818  0.37856392  1
  La3+  La2  1  0.13456067  -0.00360470  0.62318223  1
  La3+  La3  1  0.13923242  -0.00489099  0.87376205  1
  La3+  La4  1  0.13892662  0.33102524  0.12759955  1
  La3+  La5  1  0.13921119  0.32837083  0.37485807  1
  La3+  La6  1  0.13516941  0.33330824  0.62306390  1
  La3+  La7  1  0.13497162  0.33595468  0.87590609  1
  La3+  La8  1  0.14008158  0.67083101  0.13043336  1
  La3+  La9  1  0.13570311  0.66686189  0.37514325  1
  La3+  La10  1  0.13701464  0.66601177  0.62115153  1
  La3+  La11  1  0.14045377  0.66675970  0.87012871  1
  La3+  La12  1  0.64548890  -0.00060111  0.12182281  1
  La3+  La13  1  0.63860794  -0.00501697  0.37385420  1
  La3+  La14  1  0.63702318  -0.00366587  0.62327772  1
  La3+  La15  1  0.64185850  -0.00308623  0.87892022  1
  La3+  La16  1  0.63390688  0.33117881  0.12280259  1
  La3+  La17  1  0.63709614  0.33325290  0.37163830  1
  La3+  La18  1  0.63634526  0.33737319  0.62763575  1
  La3+  La19  1  0.64000974  0.33569658  0.87730291  1
  La3+  La20  1  0.64025904  0.67101963  0.12639656  1
  La3+  La21  1  0.64233616  0.67280826  0.37624497  1
  La3+  La22  1  0.63533436  0.66771708  0.62479456  1
  La3+  La23  1  0.64529842  0.66782034  0.87191529  1
  La3+  La24  1  0.35493806  -0.00105456  0.12906778  1
  La3+  La25  1  0.36169335  -0.00413898  0.37427121  1
  La3+  La26  1  0.36629293  -0.00332462  0.62197812  1
  La3+  La27  1  0.35382453  -0.00121656  0.87319859  1
  La3+  La28  1  0.36038019  0.32913528  0.13004792  1
  La3+  La29  1  0.36404806  0.32827014  0.37331786  1
  La3+  La30  1  0.36174604  0.32983966  0.62369641  1
  La3+  La31  1  0.36331172  0.33316870  0.87622877  1
  La3+  La32  1  0.36095285  0.67062261  0.12572288  1
  La3+  La33  1  0.36506239  0.67061655  0.37639416  1
  La3+  La34  1  0.36304771  0.66742927  0.62684767  1
  La3+  La35  1  0.36032182  0.66684229  0.87247640  1
  La3+  La36  1  0.85273211  -0.00159000  0.11899161  1
  La3+  La37  1  0.86197497  -0.00339554  0.37354575  1
  La3+  La38  1  0.86745015  -0.00091393  0.62308789  1
  La3+  La39  1  0.86193154  -0.00016865  0.87641074  1
  La3+  La40  1  0.86275023  0.32989897  0.12352507  1
  La3+  La41  1  0.86478446  0.33137804  0.37518065  1
  La3+  La42  1  0.85710270  0.34166679  0.63189740  1
  La3+  La43  1  0.85739872  0.33691853  0.87684457  1
  La3+  La44  1  0.87367091  0.68005434  0.10839371  1
  La3+  La45  1  0.85545627  0.66958409  0.37408197  1
  La3+  La46  1  0.86749413  0.66803170  0.62930987  1
  La3+  La47  1  0.86969088  0.67449636  0.88162488  1
  La3+  La48  1  -0.00041191  0.83827308  0.38932467  1
  La3+  La49  1  0.00040244  0.84084606  0.36693599  1
  La3+  La50  1  0.00170245  0.82852190  0.11523505  1
  La3+  La51  1  0.50079773  0.49566547  0.11912251  1
  La3+  La52  1  0.49691029  0.84337152  0.12005003  1
  La3+  La53  1  0.49927612  0.83734399  0.13499596  1
  La3+  La54  1  0.00415924  0.49730548  0.10605952  1
  La3+  La55  1  0.49595611  0.16049243  0.86675912  1
  La3+  La56  1  0.50145528  0.49935159  0.62385493  1
  La3+  La57  1  -0.00337259  0.17003781  0.11632918  1
  La3+  La58  1  0.49904566  0.50106608  0.86825957  1
  La3+  La59  1  -0.00248629  0.16015880  0.87124470  1
  La3+  La60  1  -0.00631148  0.83049771  0.86898353  1
  La3+  La61  1  -0.00464806  0.83161651  0.88590454  1
  La3+  La62  1  0.50020732  0.16814291  0.88659653  1
  La3+  La63  1  0.49770302  0.49654419  0.36780995  1
  La3+  La64  1  0.50386270  0.84434918  0.61701862  1
  La3+  La65  1  0.00360473  0.15347766  0.37729524  1
  La3+  La66  1  0.49684082  0.83762625  0.37231576  1
  La3+  La67  1  0.49906163  0.16659928  0.12619829  1
  La3+  La68  1  0.49502267  0.17258656  0.62695245  1
  La3+  La69  1  0.00609719  0.15820822  0.61803203  1
  La3+  La70  1  0.00089200  0.49888292  0.86374739  1
  La3+  La71  1  0.00421240  0.16836339  0.13519776  1
  La3+  La72  1  0.74952382  0.12820422  0.76009372  1
  La3+  La73  1  0.74951785  0.78945656  0.72758116  1
  La3+  La74  1  0.75117589  0.45571466  0.24772874  1
  La3+  La75  1  0.74988709  0.52594982  0.51717871  1
  La3+  La76  1  0.24958254  0.50961184  0.02544428  1
  La3+  La77  1  0.75057107  0.11450369  0.54365145  1
  La3+  La78  1  0.25039261  0.14852113  0.75829804  1
  La3+  La79  1  0.25066341  0.16427577  0.49498733  1
  La3+  La80  1  0.24976091  0.83959527  0.50421493  1
  La3+  La81  1  0.75026311  0.48938575  -0.02791333  1
  La3+  La82  1  0.25152069  0.56982754  0.24314403  1
  La3+  La83  1  0.24910388  0.51424274  0.55617552  1
  Ru4+  Ru84  1  0.00152869  -0.00121714  -0.00834746  1
  Ru4+  Ru85  1  0.00244165  -0.00138749  0.25272471  1
  Ru4+  Ru86  1  -0.00078474  0.00182651  0.49598770  1
  Ru4+  Ru87  1  0.00741531  0.00188287  0.74752260  1
  Ru4+  Ru88  1  0.00215172  0.33464201  0.00095246  1
  Ru4+  Ru89  1  -0.00133151  0.34098238  0.25268295  1
  Ru4+  Ru90  1  -0.00217431  0.33926212  0.50728438  1
  Ru4+  Ru91  1  -0.00469977  0.32821522  0.75143987  1
  Ru4+  Ru92  1  0.00311754  0.67334281  -0.00295812  1
  Ru4+  Ru93  1  0.00237404  0.65783512  0.24782274  1
  Ru4+  Ru94  1  0.00057695  0.65757281  0.50255396  1
  Ru4+  Ru95  1  0.00434478  0.65945160  0.74429182  1
  Ru4+  Ru96  1  0.49581037  -0.00671954  -0.00568971  1
  Ru4+  Ru97  1  0.50371274  0.00842271  0.24649904  1
  Ru4+  Ru98  1  0.50383324  0.00984234  0.49528237  1
  Ru4+  Ru99  1  0.49958242  -0.00624572  0.75562345  1
  Ru4+  Ru100  1  0.50274069  0.33463969  -0.00905699  1
  Ru4+  Ru101  1  0.49889266  0.33416183  0.24935284  1
  Ru4+  Ru102  1  0.50144295  0.33041303  0.49806389  1
  Ru4+  Ru103  1  0.49997333  0.33383334  0.75588576  1
  Ru4+  Ru104  1  0.49542942  0.66743142  -0.00203371  1
  Ru4+  Ru105  1  0.49954316  0.66114170  0.25007079  1
  Ru4+  Ru106  1  0.49436825  0.66450904  0.49822911  1
  Ru4+  Ru107  1  0.49583949  0.66936623  0.75625675  1
  Ru4+  Ru108  1  0.11478663  0.16738016  -0.00143934  1
  Ru4+  Ru109  1  0.11421369  0.16656404  0.25135623  1
  Ru4+  Ru110  1  0.11268141  0.16888523  0.50125919  1
  Ru4+  Ru111  1  0.11138319  0.16930514  0.75161754  1
  Ru4+  Ru112  1  0.10990206  0.50031126  -0.00220152  1
  Ru4+  Ru113  1  0.10493571  0.50627112  0.25307011  1
  Ru4+  Ru114  1  0.10613194  0.49627460  0.49902140  1
  Ru4+  Ru115  1  0.11276612  0.50503143  0.74735696  1
  Ru4+  Ru116  1  0.11196778  0.83634469  -0.00071813  1
  Ru4+  Ru117  1  0.11638306  0.83142333  0.24795443  1
  Ru4+  Ru118  1  0.11164186  0.83078828  0.50182970  1
  Ru4+  Ru119  1  0.11570155  0.83592389  0.74737043  1
  Ru4+  Ru120  1  0.61643729  0.16799521  0.00116232  1
  Ru4+  Ru121  1  0.61229899  0.16612385  0.24928444  1
  Ru4+  Ru122  1  0.60927643  0.16236786  0.49553922  1
  Ru4+  Ru123  1  0.61069118  0.16187761  0.74952800  1
  Ru4+  Ru124  1  0.61151399  0.49926187  0.00003903  1
  Ru4+  Ru125  1  0.60918085  0.50075317  0.24980676  1
  Ru4+  Ru126  1  0.60837556  0.50099848  0.50023322  1
  Ru4+  Ru127  1  0.61636809  0.50071529  0.74966371  1
  Ru4+  Ru128  1  0.61666308  0.83293634  -0.00156154  1
  Ru4+  Ru129  1  0.61687568  0.83120201  0.24824921  1
  Ru4+  Ru130  1  0.61584395  0.83723692  0.49927444  1
  Ru4+  Ru131  1  0.61016432  0.83522777  0.74828607  1
  Ru4+  Ru132  1  0.38832331  0.16361655  -0.00002646  1
  Ru4+  Ru133  1  0.38615336  0.17131973  0.24760476  1
  Ru4+  Ru134  1  0.39244404  0.16675896  0.49790215  1
  Ru4+  Ru135  1  0.39137964  0.16737174  0.74852600  1
  Ru4+  Ru136  1  0.38995028  0.49569681  0.00050441  1
  Ru4+  Ru137  1  0.39114496  0.50060152  0.25113028  1
  Ru4+  Ru138  1  0.38922066  0.50212694  0.50151223  1
  Ru4+  Ru139  1  0.38568555  0.50434908  0.74956299  1
  Ru4+  Ru140  1  0.39223768  0.84334425  -0.00595764  1
  Ru4+  Ru141  1  0.38099742  0.82974665  0.25066728  1
  Ru4+  Ru142  1  0.38523904  0.82767440  0.50090095  1
  Ru4+  Ru143  1  0.38860401  0.83567567  0.75067899  1
  Ru4+  Ru144  1  0.88361032  0.16597553  0.00082675  1
  Ru4+  Ru145  1  0.88520702  0.16928152  0.25325873  1
  Ru4+  Ru146  1  0.89111448  0.16547243  0.50130134  1
  Ru4+  Ru147  1  0.89088923  0.16958534  0.75001395  1
  Ru4+  Ru148  1  0.88480910  0.49642551  -0.00108436  1
  Ru4+  Ru149  1  0.89266838  0.50756532  0.25266832  1
  Ru4+  Ru150  1  0.89439784  0.49962294  0.50102510  1
  Ru4+  Ru151  1  0.88227228  0.50127743  0.74979532  1
  Ru4+  Ru152  1  0.88781020  0.83087947  0.00253018  1
  Ru4+  Ru153  1  0.88350390  0.83327091  0.24641881  1
  Ru4+  Ru154  1  0.88590314  0.83018681  0.49831819  1
  Ru4+  Ru155  1  0.88163209  0.83650139  0.75084489  1
  Ru4+  Ru156  1  0.75005604  0.66147008  0.54028020  1
  Ru4+  Ru157  1  0.74922979  0.24797212  0.23132699  1
  Ru4+  Ru158  1  0.24948416  0.42508168  0.75804613  1
  Ru4+  Ru159  1  0.74959086  0.08026366  0.24423126  1
  Ru4+  Ru160  1  0.74940555  0.93372494  0.75914046  1
  Ru4+  Ru161  1  0.75059981  0.90165497  0.48826287  1
  Ru4+  Ru162  1  0.24951310  0.39455480  0.25251579  1
  Ru4+  Ru163  1  0.24958797  0.01248505  0.74861300  1
  Ru4+  Ru164  1  0.75004272  0.34936894  0.01445246  1
  Ru4+  Ru165  1  0.74939002  0.24747791  0.49794255  1
  Ru4+  Ru166  1  0.75009457  0.60160981  0.22864218  1
  Ru4+  Ru167  1  0.25002180  0.63876888  0.48499011  1
  Ru4+  Ru168  1  0.25008479  0.08664453  0.25779212  1
  Ru4+  Ru169  1  0.25025204  0.36834546  0.01853106  1
  Ru4+  Ru170  1  0.74940630  0.62550918  0.01108113  1
  Ru4+  Ru171  1  0.25023214  0.38930234  0.48021830  1
  Ru4+  Ru172  1  0.25010432  0.75670229  0.75132565  1
  Ru4+  Ru173  1  0.74938721  0.27186133  0.77358428  1
  Ru4+  Ru174  1  0.24976785  0.28770602  0.77726867  1
  Ru4+  Ru175  1  0.25020123  0.08620356  0.00470845  1
  Ru4+  Ru176  1  0.25036934  0.64200575  -0.01148661  1
  Ru4+  Ru177  1  0.25045676  0.23562556  -0.00174356  1
  Ru4+  Ru178  1  0.75025708  0.39591377  0.49991710  1
  Ru4+  Ru179  1  0.25003926  0.77226347  0.00699163  1
  O2-  O180  1  0.16703373  0.07932408  -0.00207416  1
  O2-  O181  1  0.16731569  0.08236948  0.24886187  1
  O2-  O182  1  0.16678946  0.08125539  0.50428408  1
  O2-  O183  1  0.16622738  0.07475183  0.74909777  1
  O2-  O184  1  0.16777553  0.40920907  0.00206712  1
  O2-  O185  1  0.16363938  0.41374310  0.25176360  1
  O2-  O186  1  0.16612436  0.41209360  0.49955530  1
  O2-  O187  1  0.16506663  0.41387202  0.75233199  1
  O2-  O188  1  0.16746223  0.74708016  -0.00046784  1
  O2-  O189  1  0.16824237  0.74815113  0.25388185  1
  O2-  O190  1  0.17260174  0.74721715  0.49962517  1
  O2-  O191  1  0.16949570  0.74827872  0.74951959  1
  O2-  O192  1  0.66508839  0.08186500  -0.00334615  1
  O2-  O193  1  0.66516521  0.08099305  0.25126444  1
  O2-  O194  1  0.66603500  0.07791670  0.49982704  1
  O2-  O195  1  0.66382492  0.07762542  0.74572849  1
  O2-  O196  1  0.66895644  0.41066611  0.00400859  1
  O2-  O197  1  0.66135954  0.40882359  0.25026575  1
  O2-  O198  1  0.66739789  0.40852244  0.49804584  1
  O2-  O199  1  0.66143255  0.41286590  0.75063311  1
  O2-  O200  1  0.66399756  0.74710956  0.00013537  1
  O2-  O201  1  0.66661020  0.74814652  0.24888582  1
  O2-  O202  1  0.66443453  0.74680048  0.50368814  1
  O2-  O203  1  0.65921153  0.74496714  0.74768508  1
  O2-  O204  1  0.33210540  0.25259841  0.00099323  1
  O2-  O205  1  0.33293360  0.25100188  0.25129379  1
  O2-  O206  1  0.33681233  0.25241634  0.49945186  1
  O2-  O207  1  0.33214298  0.25704824  0.75205579  1
  O2-  O208  1  0.33384420  0.59008123  0.00211507  1
  O2-  O209  1  0.34362146  0.59097320  0.25202236  1
  O2-  O210  1  0.33174160  0.58920648  0.49860163  1
  O2-  O211  1  0.33300157  0.58533541  0.74473310  1
  O2-  O212  1  0.32939209  0.91574598  0.00061357  1
  O2-  O213  1  0.33316955  0.91576480  0.25212710  1
  O2-  O214  1  0.33303789  0.91822583  0.50320657  1
  O2-  O215  1  0.33171766  0.91723816  0.74935834  1
  O2-  O216  1  0.83066605  0.25363336  0.00087278  1
  O2-  O217  1  0.83247108  0.25339227  0.24795644  1
  O2-  O218  1  0.83268267  0.25004263  0.49655886  1
  O2-  O219  1  0.83040077  0.25098134  0.75124058  1
  O2-  O220  1  0.83398985  0.59016305  0.00224095  1
  O2-  O221  1  0.83252127  0.58629422  0.24297942  1
  O2-  O222  1  0.83662479  0.58860710  0.50212131  1
  O2-  O223  1  0.83879006  0.58670447  0.74884005  1
  O2-  O224  1  0.83752782  0.91811135  -0.00035515  1
  O2-  O225  1  0.83225729  0.91840716  0.24953752  1
  O2-  O226  1  0.83100625  0.92031837  0.49945690  1
  O2-  O227  1  0.83219530  0.92202093  0.74624874  1
  O2-  O228  1  0.16820190  0.25166455  -0.00177282  1
  O2-  O229  1  0.16478170  0.25318971  0.25045914  1
  O2-  O230  1  0.16553856  0.25190525  0.49837255  1
  O2-  O231  1  0.16488598  0.25643527  0.75189817  1
  O2-  O232  1  0.16399343  0.58921667  0.00091058  1
  O2-  O233  1  0.16124811  0.58925764  0.25365125  1
  O2-  O234  1  0.16790940  0.58781536  0.49805541  1
  O2-  O235  1  0.16253499  0.58435299  0.75050785  1
  O2-  O236  1  0.16329776  0.92001491  0.00097778  1
  O2-  O237  1  0.16705470  0.91740671  0.24954463  1
  O2-  O238  1  0.16909761  0.91776739  0.50353442  1
  O2-  O239  1  0.16984819  0.92008962  0.75120803  1
  O2-  O240  1  0.67053405  0.25276111  0.00009854  1
  O2-  O241  1  0.66425047  0.25330282  0.24859368  1
  O2-  O242  1  0.66289843  0.25129260  0.50043112  1
  O2-  O243  1  0.66707896  0.25379001  0.75160733  1
  O2-  O244  1  0.66535251  0.58930425  0.00050201  1
  O2-  O245  1  0.66495702  0.58658010  0.24907259  1
  O2-  O246  1  0.66186111  0.58978809  0.49990130  1
  O2-  O247  1  0.66236314  0.58720496  0.74696708  1
  O2-  O248  1  0.66701756  0.91766830  -0.00091001  1
  O2-  O249  1  0.66505386  0.91878935  0.24910267  1
  O2-  O250  1  0.66893228  0.91818572  0.49910594  1
  O2-  O251  1  0.66782029  0.92073098  0.74730555  1
  O2-  O252  1  0.33289130  0.08123650  -0.00010167  1
  O2-  O253  1  0.33433182  0.08315869  0.25411448  1
  O2-  O254  1  0.33566636  0.08080364  0.50230139  1
  O2-  O255  1  0.33514657  0.07718291  0.74607158  1
  O2-  O256  1  0.33423510  0.41090134  0.00161629  1
  O2-  O257  1  0.33162769  0.41032484  0.25063102  1
  O2-  O258  1  0.33466579  0.41201915  0.49757904  1
  O2-  O259  1  0.33450131  0.41387594  0.74979014  1
  O2-  O260  1  0.33349678  0.75064059  0.00135790  1
  O2-  O261  1  0.33300575  0.74522047  0.25235038  1
  O2-  O262  1  0.32692366  0.74581789  0.50048479  1
  O2-  O263  1  0.33209640  0.74763574  0.74610296  1
  O2-  O264  1  0.83250393  0.08336344  -0.00428784  1
  O2-  O265  1  0.83435980  0.07990815  0.25022573  1
  O2-  O266  1  0.83488867  0.07734608  0.49790739  1
  O2-  O267  1  0.83423379  0.08041416  0.74352844  1
  O2-  O268  1  0.83329436  0.41081036  0.00614942  1
  O2-  O269  1  0.84412509  0.41169604  0.24915026  1
  O2-  O270  1  0.83357478  0.41242076  0.49790149  1
  O2-  O271  1  0.83743187  0.41572157  0.75405612  1
  O2-  O272  1  0.83079546  0.75026022  0.00184017  1
  O2-  O273  1  0.83704335  0.74801333  0.24425299  1
  O2-  O274  1  0.83620542  0.74738505  0.50424188  1
  O2-  O275  1  0.83728226  0.74449016  0.74834984  1
  O2-  O276  1  0.03771701  0.79764469  0.74740350  1
  O2-  O277  1  0.96234118  0.23092920  0.46692149  1
  O2-  O278  1  0.05183076  0.09877895  0.74512516  1
  O2-  O279  1  0.04560705  0.43020290  0.26329389  1
  O2-  O280  1  0.45284365  0.24050413  0.50802071  1
  O2-  O281  1  0.96072314  0.55095291  0.20743396  1
  O2-  O282  1  0.45292904  0.43132549  0.51157311  1
  O2-  O283  1  0.05177245  0.57380057  0.49205517  1
  O2-  O284  1  0.45542184  0.43336038  0.73505024  1
  O2-  O285  1  0.47659564  0.85870540  0.97896010  1
  O2-  O286  1  0.94647694  0.57399332  0.48300176  1
  O2-  O287  1  0.94835600  0.09045086  0.76881146  1
  O2-  O288  1  0.54535033  0.22964799  0.76083381  1
  O2-  O289  1  0.45736584  0.90986778  0.48304255  1
  O2-  O290  1  0.94660179  0.75458213  0.01363234  1
  O2-  O291  1  0.54432089  0.11122649  0.54019333  1
  O2-  O292  1  0.95300147  0.42864921  0.98095843  1
  O2-  O293  1  0.46673881  0.77563188  0.71106849  1
  O2-  O294  1  0.44687324  0.90001614  0.51715846  1
  O2-  O295  1  0.95569085  0.76422408  0.23511101  1
  O2-  O296  1  0.94393928  0.08113603  0.52590245  1
  O2-  O297  1  0.04615308  0.23608313  0.26706564  1
  O2-  O298  1  0.94657382  0.90244725  0.77142344  1
  O2-  O299  1  0.95698854  0.57462885  0.98649051  1
  O2-  O300  1  0.96569219  0.23027439  0.71231868  1
  O2-  O301  1  0.94498567  0.75973453  0.77448318  1
  O2-  O302  1  0.45011504  0.56448608  0.01020155  1
  O2-  O303  1  0.96634637  0.22678879  0.48495976  1
  O2-  O304  1  0.05137773  0.57368471  0.50130538  1
  O2-  O305  1  0.54462854  0.75993876  0.47852565  1
  O2-  O306  1  0.04865349  0.41918012  0.51426296  1
  O2-  O307  1  0.04622829  0.10007041  0.00725393  1
  O2-  O308  1  0.45250501  0.76481339  0.23975600  1
  O2-  O309  1  0.44936754  0.90033998  0.25952757  1
  O2-  O310  1  0.04851269  0.43076880  0.73564738  1
  O2-  O311  1  0.95591794  0.76807850  0.99429895  1
  O2-  O312  1  0.44539887  0.08717401  0.51504338  1
  O2-  O313  1  0.95354092  0.90654366  0.01735471  1
  O2-  O314  1  0.94743595  0.75984300  0.73557780  1
  O2-  O315  1  0.54596815  0.57147164  0.74112182  1
  O2-  O316  1  0.54310959  0.10094137  0.00888967  1
  O2-  O317  1  0.55561663  0.90075166  0.01784182  1
  O2-  O318  1  0.45256225  0.24097892  0.49838731  1
  O2-  O319  1  0.96056450  0.90359142  0.73891418  1
  O2-  O320  1  0.55085058  0.76349108  0.51657045  1
  O2-  O321  1  0.54945755  0.57411605  0.01517061  1
  O2-  O322  1  0.54725541  0.89874812  0.26114007  1
  O2-  O323  1  0.95349640  0.09684536  0.23605986  1
  O2-  O324  1  0.06299719  0.58971544  0.17389002  1
  O2-  O325  1  0.43847474  0.59304723  0.53641468  1
  O2-  O326  1  0.56320778  0.25418300  0.02606074  1
  O2-  O327  1  0.42245664  0.73221657  0.80196877  1
  O2-  O328  1  0.06700785  0.93099998  0.72585363  1
  O2-  O329  1  0.93401968  0.58821586  0.97897258  1
  O2-  O330  1  0.43503181  0.92426485  0.72245241  1
  O2-  O331  1  0.56142714  0.92245128  0.46817957  1
  O2-  O332  1  0.92083881  0.28284308  0.57206521  1
  O2-  O333  1  0.43143645  0.73641101  0.97815543  1
  O2-  O334  1  0.42168040  0.91580010  0.08258274  1
  O2-  O335  1  0.06434862  0.26496393  0.53427508  1
  O2-  O336  1  0.06263659  0.91625092  0.27324218  1
  O2-  O337  1  0.93730037  0.26319490  0.03465717  1
  O2-  O338  1  0.56144385  0.40924627  0.23187077  1
  O2-  O339  1  0.43835190  0.26107153  0.21511015  1
  O2-  O340  1  0.56311709  0.92818508  0.71241711  1
  O2-  O341  1  0.57255467  0.06137929  0.43239451  1
  O2-  O342  1  0.93679811  0.92100676  0.27550151  1
  O2-  O343  1  0.06407404  0.07964432  0.47953863  1
  O2-  O344  1  0.94002862  0.07925655  0.77066626  1
  O2-  O345  1  0.41871123  0.93939062  0.93734250  1
  O2-  O346  1  0.43569618  0.58846619  0.77492254  1
  O2-  O347  1  0.93715863  0.26624632  0.28266206  1
  O2-  O348  1  0.43613032  0.92658409  0.27649654  1
  O2-  O349  1  0.06103953  0.74128199  0.21681597  1
  O2-  O350  1  0.06336608  0.25716788  0.02484227  1
  O2-  O351  1  0.93658894  0.91931868  0.47628418  1
  O2-  O352  1  0.56285741  0.41355361  0.97762273  1
  O2-  O353  1  0.43777207  0.25533461  0.98262029  1
  O2-  O354  1  0.06270382  0.91843419  0.46988292  1
  O2-  O355  1  0.06305189  0.40813647  0.96119663  1
  O2-  O356  1  0.43500862  0.26362124  0.71484477  1
  O2-  O357  1  0.93657129  0.07177517  0.03893229  1
  O2-  O358  1  0.08253465  0.71418891  0.72362997  1
  O2-  O359  1  0.06403054  0.73937015  0.96603609  1
  O2-  O360  1  0.56232736  0.73656515  0.21255025  1
  O2-  O361  1  0.56474953  0.40937667  0.52191535  1
  O2-  O362  1  0.43705801  0.41338006  0.27294859  1
  O2-  O363  1  0.06085718  0.59774503  0.31822083  1
  O2-  O364  1  0.93045208  0.73664814  0.96050157  1
  O2-  O365  1  0.93204670  0.28514073  0.81881978  1
  O2-  O366  1  0.93999554  0.07580668  0.53146514  1
  O2-  O367  1  0.93730921  0.41204523  0.52673588  1
  O2-  O368  1  0.92905759  0.61650821  0.31163798  1
  O2-  O369  1  0.43493109  0.74238796  0.47175835  1
  O2-  O370  1  0.06307415  0.74181460  0.52095065  1
  O2-  O371  1  0.05980372  0.39948088  0.72668581  1
  O2-  O372  1  0.25036272  -0.00386103  0.32864596  1
  O2-  O373  1  0.74987107  -0.00684740  0.60130042  1
  O2-  O374  1  0.74994183  0.32813978  0.89130405  1
  O2-  O375  1  0.75034187  0.33699700  0.29684874  1
  O2-  O376  1  0.74994587  -0.00850943  0.17112758  1
  O2-  O377  1  0.25005050  -0.00062598  0.41944313  1
  O2-  O378  1  0.25039134  0.66416526  0.13282803  1
  O2-  O379  1  0.24958724  0.32449635  0.37828784  1
  O2-  O380  1  0.24929794  0.32573736  0.89536423  1
  O2-  O381  1  0.24912336  0.01132112  0.15288120  1
  O2-  O382  1  0.25010845  0.31059313  0.55880194  1
  O2-  O383  1  0.75028499  0.34967417  0.68885036  1
  O2-  O384  1  0.74974903  0.32166829  0.41103606  1
  O2-  O385  1  0.74926689  0.67946331  0.42838695  1
  O2-  O386  1  0.74959491  0.31686523  0.59079836  1
  O2-  O387  1  0.75001867  0.67697762  0.30736031  1
  O2-  O388  1  0.75005036  0.01214137  0.84806683  1
  O2-  O389  1  0.25011097  0.32902151  0.14504807  1
  O2-  O390  1  0.75057316  0.67685862  0.12033170  1
  O2-  O391  1  0.24955466  0.66824533  0.85049610  1
  O2-  O392  1  0.74860739  0.66487786  0.82091704  1
  O2-  O393  1  0.24985705  0.34337814  0.67339625  1
  O2-  O394  1  0.75040947  0.68847713  0.90847324  1
  O2-  O395  1  0.75043962  0.00256869  0.08097205  1
  O2-  O396  1  0.74997666  0.50323690  0.64490697  1
  O2-  O397  1  0.74987812  0.49941785  0.84836091  1
  O2-  O398  1  0.25002651  0.50697449  0.68255670  1
  O2-  O399  1  0.24963238  0.16743393  0.62794420  1
  O2-  O400  1  0.25021622  0.50230422  0.42191628  1
  O2-  O401  1  0.74969294  0.84958021  0.85369575  1
  O2-  O402  1  0.24996152  0.52166264  0.81418575  1
  O2-  O403  1  0.24982042  0.83837829  0.91632346  1
  O2-  O404  1  0.75015545  0.16461358  0.15233353  1
  O2-  O405  1  0.74949152  0.16561303  0.40926438  1
  O2-  O406  1  0.25038860  0.49429575  0.89501696  1
  O2-  O407  1  0.25006004  0.83539079  0.82649712  1
  O2-  O408  1  0.74980360  0.17016858  0.31852907  1
  O2-  O409  1  0.74988144  0.50930340  0.37334306  1
  O2-  O410  1  0.24943213  0.47267626  0.33582781  1
  O2-  O411  1  0.24975824  0.16592458  0.09613153  1
  O2-  O412  1  0.74929430  0.52172901  0.12212970  1
  O2-  O413  1  0.24956827  0.15715865  0.35520108  1
  O2-  O414  1  0.24967589  0.83005993  0.09662983  1
  O2-  O415  1  0.24954077  0.46853658  0.15433288  1
  O2-  O416  1  0.24975180  0.82593266  0.65405010  1
  O2-  O417  1  0.75001257  0.83555330  0.58280283  1
  O2-  O418  1  0.25003923  0.16717896  0.90000270  1
  O2-  O419  1  0.75006942  0.84836637  0.36898227  1
  O2-  O420  1  0.45960736  0.02394738  0.13857383  1
  O2-  O421  1  0.52614514  0.32765174  0.63099924  1
  O2-  O422  1  0.51823124  0.33533763  0.12210912  1
  O2-  O423  1  0.03105699  0.65743386  0.62960799  1
  O2-  O424  1  0.97984058  0.65642301  0.86306936  1
  O2-  O425  1  0.47511383  0.66517147  0.12530463  1
  O2-  O426  1  0.04662619  -0.00196323  0.87781923  1
  O2-  O427  1  0.47926544  0.00367410  0.62380083  1
  O2-  O428  1  0.54941339  -0.00027871  0.13540674  1
  O2-  O429  1  0.95758142  0.66213948  0.62446497  1
  O2-  O430  1  0.45591059  0.34374098  0.86980809  1
  O2-  O431  1  0.47895394  0.33588060  0.37395796  1
  O2-  O432  1  0.45837669  0.02703059  0.85760015  1
  O2-  O433  1  0.47709123  0.00722178  0.37303019  1
  O2-  O434  1  0.54801727  0.00257499  0.87368015  1
  O2-  O435  1  0.47535124  0.65437836  0.36801734  1
  O2-  O436  1  0.02525331  0.34038502  0.12982600  1
  O2-  O437  1  0.48830358  0.65467042  0.88010784  1
  O2-  O438  1  0.03966848  0.00875837  0.36256947  1
  O2-  O439  1  0.02872147  -0.00226894  0.12664236  1
  O2-  O440  1  0.95746845  0.01455544  0.37664609  1
  O2-  O441  1  0.54431991  0.32601938  0.86712906  1
  O2-  O442  1  0.02494439  0.00656988  0.61890206  1
  O2-  O443  1  0.95667995  -0.01077648  0.89169182  1
