# generated using pymatgen
data_La7(Ru4O11)2
_symmetry_space_group_name_H-M   'P 1'
_cell_length_a   23.99586591
_cell_length_b   16.83728788
_cell_length_c   15.43337108
_cell_angle_alpha   90.00292980
_cell_angle_beta   90.00304722
_cell_angle_gamma   89.99822468
_symmetry_Int_Tables_number   1
_chemical_formula_structural   La7(Ru4O11)2
_chemical_formula_sum   'La84 Ru96 O264'
_cell_volume   6235.47239450
_cell_formula_units_Z   12
loop_
 _symmetry_equiv_pos_site_id
 _symmetry_equiv_pos_as_xyz
  1  'x, y, z'
loop_
 _atom_type_symbol
 _atom_type_oxidation_number
  La3+  3.0
  Ru4+  4.0
  O2-  -2.0
loop_
 _atom_site_type_symbol
 _atom_site_label
 _atom_site_symmetry_multiplicity
 _atom_site_fract_x
 _atom_site_fract_y
 _atom_site_fract_z
 _atom_site_occupancy
  La3+  La0  1  0.13987767  -0.00140690  0.12150907  1
  La3+  La1  1  0.13565135  -0.00148247  0.37096493  1
  La3+  La2  1  0.13688803  -0.00259738  0.62548808  1
  La3+  La3  1  0.12510113  -0.00690953  0.87489718  1
  La3+  La4  1  0.12949800  0.33455826  0.12565510  1
  La3+  La5  1  0.13121444  0.33606752  0.37809502  1
  La3+  La6  1  0.13378618  0.33801481  0.62226545  1
  La3+  La7  1  0.13678798  0.34041918  0.87345785  1
  La3+  La8  1  0.13986993  0.66425609  0.13078454  1
  La3+  La9  1  0.13075086  0.66142039  0.36453909  1
  La3+  La10  1  0.14746995  0.66037038  0.62466104  1
  La3+  La11  1  0.12654441  0.66139593  0.87193921  1
  La3+  La12  1  0.64845047  -0.00849250  0.12364050  1
  La3+  La13  1  0.64164573  -0.00714840  0.37911348  1
  La3+  La14  1  0.63886217  0.00122390  0.63096623  1
  La3+  La15  1  0.64406544  -0.00108849  0.87315264  1
  La3+  La16  1  0.62905118  0.32668907  0.12895164  1
  La3+  La17  1  0.62952050  0.31911275  0.35353225  1
  La3+  La18  1  0.64114128  0.33693876  0.62970064  1
  La3+  La19  1  0.64849219  0.33380723  0.86725919  1
  La3+  La20  1  0.65078587  0.67855631  0.11865093  1
  La3+  La21  1  0.63928185  0.66506022  0.37254717  1
  La3+  La22  1  0.65169235  0.66816733  0.62996767  1
  La3+  La23  1  0.63956178  0.67327421  0.86846958  1
  La3+  La24  1  0.35434872  -0.00393293  0.12058886  1
  La3+  La25  1  0.36994367  -0.00453084  0.37008897  1
  La3+  La26  1  0.36277597  -0.00192780  0.62660366  1
  La3+  La27  1  0.36396790  -0.00581458  0.87598124  1
  La3+  La28  1  0.37017107  0.33476115  0.12773813  1
  La3+  La29  1  0.36430985  0.32978969  0.37071945  1
  La3+  La30  1  0.37046061  0.33573017  0.62803245  1
  La3+  La31  1  0.35582503  0.33529072  0.87683999  1
  La3+  La32  1  0.35783540  0.66820618  0.13010883  1
  La3+  La33  1  0.36554250  0.66343804  0.36696064  1
  La3+  La34  1  0.35423185  0.66133957  0.62473321  1
  La3+  La35  1  0.36701923  0.65849056  0.87444480  1
  La3+  La36  1  0.85396559  -0.00841155  0.12581837  1
  La3+  La37  1  0.85712769  -0.00554434  0.37845803  1
  La3+  La38  1  0.86152539  0.00027746  0.62473096  1
  La3+  La39  1  0.85561928  -0.00259352  0.87445285  1
  La3+  La40  1  0.86860783  0.33422640  0.12177276  1
  La3+  La41  1  0.86051669  0.33298729  0.37808170  1
  La3+  La42  1  0.85641421  0.33990169  0.63024134  1
  La3+  La43  1  0.85890463  0.32959064  0.87449513  1
  La3+  La44  1  0.85221709  0.67691340  0.12604432  1
  La3+  La45  1  0.86571765  0.65867718  0.37670272  1
  La3+  La46  1  0.84953242  0.66192984  0.62577773  1
  La3+  La47  1  0.86768719  0.66960150  0.87329810  1
  La3+  La48  1  -0.00008636  0.82355795  0.63386480  1
  La3+  La49  1  0.00444758  0.49068405  0.37623395  1
  La3+  La50  1  0.00164668  0.83721295  0.36469813  1
  La3+  La51  1  0.50104801  0.50357165  0.13703760  1
  La3+  La52  1  -0.00291099  0.51030156  0.62042410  1
  La3+  La53  1  0.50143782  0.18347212  0.37599243  1
  La3+  La54  1  0.00836123  0.52012664  0.10626686  1
  La3+  La55  1  0.49772736  0.83003940  0.14158676  1
  La3+  La56  1  0.49950438  0.83154858  0.87405594  1
  La3+  La57  1  0.49989139  0.17401053  0.14020397  1
  La3+  La58  1  0.50019472  0.18555121  0.37599299  1
  La3+  La59  1  0.49383943  0.82014680  0.12250250  1
  La3+  La60  1  0.49819412  0.16995198  0.61987853  1
  La3+  La61  1  0.50140689  0.17478623  0.88051196  1
  La3+  La62  1  0.00726386  0.51605234  0.12228350  1
  La3+  La63  1  0.00263492  0.16651059  0.61526532  1
  La3+  La64  1  0.50392315  0.52481974  0.62425510  1
  La3+  La65  1  -0.00367097  0.16760127  0.36569353  1
  La3+  La66  1  0.49265095  0.51069987  0.12007590  1
  La3+  La67  1  0.50218289  0.52379849  0.64058798  1
  La3+  La68  1  -0.00082594  0.50004121  0.63934296  1
  La3+  La69  1  0.49713341  0.16588359  0.86133587  1
  La3+  La70  1  -0.00053140  0.83146187  0.11181059  1
  La3+  La71  1  -0.00218569  0.16756032  0.87957451  1
  La3+  La72  1  0.74997796  0.53926272  -0.03565882  1
  La3+  La73  1  0.24985126  0.75271733  0.46350794  1
  La3+  La74  1  0.24784914  0.11656884  -0.03311110  1
  La3+  La75  1  0.24860549  0.24489425  0.23643533  1
  La3+  La76  1  0.75023758  0.22782689  0.54046176  1
  La3+  La77  1  0.74820199  0.21252706  0.01470662  1
  La3+  La78  1  0.74942898  0.83685847  0.25988780  1
  La3+  La79  1  0.25551583  0.78739320  0.79368848  1
  La3+  La80  1  0.25341530  0.17430386  0.54805486  1
  La3+  La81  1  0.75580267  0.21124077  0.20455523  1
  La3+  La82  1  0.24866130  0.20148035  0.79644128  1
  La3+  La83  1  0.74909440  0.46419281  0.25507637  1
  Ru4+  Ru84  1  -0.00037519  0.00094495  0.00102040  1
  Ru4+  Ru85  1  0.00319409  -0.00077893  0.26516531  1
  Ru4+  Ru86  1  -0.00327793  -0.00117221  0.49395267  1
  Ru4+  Ru87  1  -0.00267842  0.00990722  0.74616883  1
  Ru4+  Ru88  1  0.00480276  0.34083088  0.00306088  1
  Ru4+  Ru89  1  0.00217011  0.33342019  0.24067621  1
  Ru4+  Ru90  1  0.00514534  0.32512493  0.50302337  1
  Ru4+  Ru91  1  -0.00362371  0.33106431  0.74970665  1
  Ru4+  Ru92  1  -0.00219006  0.67045115  -0.00997623  1
  Ru4+  Ru93  1  -0.00695456  0.66619275  0.26076320  1
  Ru4+  Ru94  1  -0.00014187  0.67865288  0.49566543  1
  Ru4+  Ru95  1  0.00132887  0.68297935  0.75473899  1
  Ru4+  Ru96  1  0.48829092  0.00469150  0.00401363  1
  Ru4+  Ru97  1  0.49142141  -0.00306493  0.25481928  1
  Ru4+  Ru98  1  0.49993047  -0.00761893  0.49700271  1
  Ru4+  Ru99  1  0.50626704  -0.01527021  0.73070149  1
  Ru4+  Ru100  1  0.49898819  0.33130457  -0.00177133  1
  Ru4+  Ru101  1  0.50988168  0.34071127  0.24813581  1
  Ru4+  Ru102  1  0.51398281  0.34927262  0.49795322  1
  Ru4+  Ru103  1  0.50329922  0.34300806  0.74520050  1
  Ru4+  Ru104  1  0.50017702  0.66580478  -0.01941055  1
  Ru4+  Ru105  1  0.50216040  0.65786642  0.27278113  1
  Ru4+  Ru106  1  0.50069191  0.66855294  0.48678707  1
  Ru4+  Ru107  1  0.50479307  0.67613574  0.75837887  1
  Ru4+  Ru108  1  0.10672231  0.17049301  -0.00298041  1
  Ru4+  Ru109  1  0.10662616  0.16444563  0.24833449  1
  Ru4+  Ru110  1  0.11577897  0.16009980  0.50501588  1
  Ru4+  Ru111  1  0.10584027  0.16171270  0.75392263  1
  Ru4+  Ru112  1  0.11257984  0.49842664  0.00092496  1
  Ru4+  Ru113  1  0.12154525  0.49712537  0.24706614  1
  Ru4+  Ru114  1  0.11884069  0.50773729  0.49694844  1
  Ru4+  Ru115  1  0.11501836  0.49788638  0.75570499  1
  Ru4+  Ru116  1  0.11017161  0.83287959  0.00371401  1
  Ru4+  Ru117  1  0.11409234  0.83008831  0.24817361  1
  Ru4+  Ru118  1  0.10842438  0.83680828  0.49722690  1
  Ru4+  Ru119  1  0.10812409  0.82091208  0.75311856  1
  Ru4+  Ru120  1  0.60631969  0.17243511  0.00949164  1
  Ru4+  Ru121  1  0.61364017  0.16473529  0.24239298  1
  Ru4+  Ru122  1  0.61400260  0.16573467  0.50428328  1
  Ru4+  Ru123  1  0.61875602  0.16249892  0.75034931  1
  Ru4+  Ru124  1  0.61052333  0.50025792  -0.00374414  1
  Ru4+  Ru125  1  0.61203079  0.50092825  0.25025663  1
  Ru4+  Ru126  1  0.61669728  0.49581242  0.48909296  1
  Ru4+  Ru127  1  0.61532518  0.50070476  0.75370674  1
  Ru4+  Ru128  1  0.61533654  0.83043632  -0.00041840  1
  Ru4+  Ru129  1  0.60910115  0.83393849  0.25487446  1
  Ru4+  Ru130  1  0.61422419  0.83773396  0.50267826  1
  Ru4+  Ru131  1  0.60731234  0.83362310  0.74842024  1
  Ru4+  Ru132  1  0.39233612  0.16419635  0.00224132  1
  Ru4+  Ru133  1  0.38596345  0.15537363  0.24389822  1
  Ru4+  Ru134  1  0.38434303  0.16290312  0.49794690  1
  Ru4+  Ru135  1  0.38426195  0.16161814  0.74529197  1
  Ru4+  Ru136  1  0.38596788  0.49959634  -0.00687534  1
  Ru4+  Ru137  1  0.38423680  0.50268062  0.25755165  1
  Ru4+  Ru138  1  0.38761355  0.49803170  0.49382253  1
  Ru4+  Ru139  1  0.38553217  0.49365160  0.75940333  1
  Ru4+  Ru140  1  0.39259644  0.83123365  0.00450693  1
  Ru4+  Ru141  1  0.38621558  0.82876828  0.25158594  1
  Ru4+  Ru142  1  0.39131268  0.83552028  0.49854328  1
  Ru4+  Ru143  1  0.39727736  0.84421182  0.74746817  1
  Ru4+  Ru144  1  0.88887116  0.16075955  -0.00404601  1
  Ru4+  Ru145  1  0.89146605  0.16714111  0.25234720  1
  Ru4+  Ru146  1  0.88856389  0.15997658  0.50023675  1
  Ru4+  Ru147  1  0.88539497  0.16376247  0.74832733  1
  Ru4+  Ru148  1  0.89206612  0.50520504  -0.00989611  1
  Ru4+  Ru149  1  0.89378209  0.50026941  0.25316090  1
  Ru4+  Ru150  1  0.87945932  0.50208379  0.49578120  1
  Ru4+  Ru151  1  0.88460129  0.49523023  0.75828557  1
  Ru4+  Ru152  1  0.88652985  0.83052356  0.00147612  1
  Ru4+  Ru153  1  0.88924920  0.83284191  0.24882212  1
  Ru4+  Ru154  1  0.88532819  0.83585962  0.49896020  1
  Ru4+  Ru155  1  0.88451783  0.83131879  0.75088481  1
  Ru4+  Ru156  1  0.25038889  0.91178134  0.00947139  1
  Ru4+  Ru157  1  0.75014348  0.61773903  0.25173969  1
  Ru4+  Ru158  1  0.74929670  0.06603197  0.50592688  1
  Ru4+  Ru159  1  0.24975526  0.30416907  0.47310182  1
  Ru4+  Ru160  1  0.74914971  0.42424630  0.50706564  1
  Ru4+  Ru161  1  0.24893587  0.43654727  0.01438941  1
  Ru4+  Ru162  1  0.75015205  0.06531004  -0.01940742  1
  Ru4+  Ru163  1  0.24978532  0.32648311  0.71600147  1
  Ru4+  Ru164  1  0.24751570  0.05511404  0.25205878  1
  Ru4+  Ru165  1  0.74968473  0.91683859  0.75718871  1
  Ru4+  Ru166  1  0.25029445  0.27542957  0.01605522  1
  Ru4+  Ru167  1  0.24802665  0.05486568  0.79520982  1
  Ru4+  Ru168  1  0.24990552  0.74462585  0.00661035  1
  Ru4+  Ru169  1  0.75071886  0.06828765  0.26270867  1
  Ru4+  Ru170  1  0.75020235  0.75608966  0.49909288  1
  Ru4+  Ru171  1  0.25022614  0.91739740  0.47044494  1
  Ru4+  Ru172  1  0.25020184  0.89225842  0.25300601  1
  Ru4+  Ru173  1  0.24966511  0.06498297  0.45018897  1
  Ru4+  Ru174  1  0.24991227  0.64135271  0.77814451  1
  Ru4+  Ru175  1  0.24771218  0.92097478  0.74489200  1
  Ru4+  Ru176  1  0.74971477  0.40345996  0.01522062  1
  Ru4+  Ru177  1  0.25169470  0.42297778  0.25352880  1
  Ru4+  Ru178  1  0.25123961  0.43787672  0.50563704  1
  Ru4+  Ru179  1  0.24935623  0.58029539  0.00002317  1
  O2-  O180  1  0.15726898  0.07736101  -0.00405559  1
  O2-  O181  1  0.16339373  0.07756300  0.24718294  1
  O2-  O182  1  0.16915607  0.07823044  0.49679104  1
  O2-  O183  1  0.16063367  0.07830558  0.75667044  1
  O2-  O184  1  0.16489146  0.41369250  0.00378928  1
  O2-  O185  1  0.17097231  0.41132973  0.24560880  1
  O2-  O186  1  0.16720465  0.41599002  0.50102308  1
  O2-  O187  1  0.16181915  0.41188285  0.74915390  1
  O2-  O188  1  0.16482932  0.74588447  -0.00490655  1
  O2-  O189  1  0.16959449  0.74808096  0.24751867  1
  O2-  O190  1  0.15590485  0.74399177  0.49707381  1
  O2-  O191  1  0.16723244  0.74393742  0.76035033  1
  O2-  O192  1  0.66552406  0.08159324  0.00080627  1
  O2-  O193  1  0.66560498  0.07835939  0.25149819  1
  O2-  O194  1  0.66440792  0.07803750  0.49985603  1
  O2-  O195  1  0.66942367  0.07875583  0.75237710  1
  O2-  O196  1  0.66545349  0.41447361  0.00114918  1
  O2-  O197  1  0.66197521  0.40722666  0.24271997  1
  O2-  O198  1  0.67293388  0.41430461  0.50648206  1
  O2-  O199  1  0.66932585  0.42009914  0.75226865  1
  O2-  O200  1  0.67083854  0.74993536  -0.01124652  1
  O2-  O201  1  0.66408270  0.74967443  0.25471412  1
  O2-  O202  1  0.66320274  0.75037422  0.49765705  1
  O2-  O203  1  0.67010905  0.76021722  0.75515948  1
  O2-  O204  1  0.33815420  0.25457000  0.00642942  1
  O2-  O205  1  0.34277187  0.25294208  0.24282514  1
  O2-  O206  1  0.33529629  0.25744073  0.50436477  1
  O2-  O207  1  0.33480804  0.25416014  0.74789925  1
  O2-  O208  1  0.33124973  0.58580587  0.00353866  1
  O2-  O209  1  0.33051199  0.58563624  0.24685157  1
  O2-  O210  1  0.33737647  0.58425253  0.49635575  1
  O2-  O211  1  0.33137343  0.58289994  0.75497851  1
  O2-  O212  1  0.33449869  0.91582253  -0.00375459  1
  O2-  O213  1  0.33425340  0.91490023  0.25340350  1
  O2-  O214  1  0.33824924  0.91926694  0.49329144  1
  O2-  O215  1  0.33278072  0.91839798  0.74923738  1
  O2-  O216  1  0.84007743  0.25430594  0.00408548  1
  O2-  O217  1  0.83883328  0.25608641  0.25081674  1
  O2-  O218  1  0.84049380  0.25686533  0.50222039  1
  O2-  O219  1  0.84075287  0.25290124  0.74841033  1
  O2-  O220  1  0.83152572  0.59310330  -0.00452407  1
  O2-  O221  1  0.82947312  0.58291395  0.25540172  1
  O2-  O222  1  0.83319589  0.58715227  0.49945416  1
  O2-  O223  1  0.83744025  0.58632408  0.75499602  1
  O2-  O224  1  0.84064125  0.91833082  -0.00196747  1
  O2-  O225  1  0.83840520  0.91942348  0.25359206  1
  O2-  O226  1  0.83154806  0.91947493  0.50791946  1
  O2-  O227  1  0.83065253  0.91925079  0.74861612  1
  O2-  O228  1  0.16291621  0.25455916  -0.00000653  1
  O2-  O229  1  0.15435811  0.25893826  0.24645445  1
  O2-  O230  1  0.16830131  0.25959764  0.50285684  1
  O2-  O231  1  0.16179460  0.25616134  0.75092382  1
  O2-  O232  1  0.16864667  0.58804682  -0.00294863  1
  O2-  O233  1  0.16934753  0.58685402  0.24794123  1
  O2-  O234  1  0.17157047  0.58809060  0.49294664  1
  O2-  O235  1  0.16767315  0.58685233  0.76127408  1
  O2-  O236  1  0.16628219  0.91799148  -0.00432100  1
  O2-  O237  1  0.16556180  0.91643839  0.24970072  1
  O2-  O238  1  0.16302862  0.91954555  0.49647506  1
  O2-  O239  1  0.16115653  0.91657088  0.75343901  1
  O2-  O240  1  0.65827398  0.25766667  -0.00012661  1
  O2-  O241  1  0.67142918  0.24889949  0.24263947  1
  O2-  O242  1  0.66482216  0.25953721  0.49195173  1
  O2-  O243  1  0.66340349  0.25342668  0.74761405  1
  O2-  O244  1  0.66442635  0.58846599  -0.00474558  1
  O2-  O245  1  0.67048960  0.58237010  0.25328138  1
  O2-  O246  1  0.66130310  0.58399919  0.49785373  1
  O2-  O247  1  0.66510576  0.58608589  0.75517795  1
  O2-  O248  1  0.66154971  0.91719132  -0.00223741  1
  O2-  O249  1  0.66186225  0.91826074  0.25345319  1
  O2-  O250  1  0.67018484  0.91597235  0.50016986  1
  O2-  O251  1  0.67045154  0.91508313  0.75133692  1
  O2-  O252  1  0.33641921  0.08063092  -0.00287164  1
  O2-  O253  1  0.33126071  0.07361845  0.25452935  1
  O2-  O254  1  0.33317644  0.07596604  0.49326704  1
  O2-  O255  1  0.33337493  0.07795004  0.75765496  1
  O2-  O256  1  0.33095851  0.41653960  0.01170011  1
  O2-  O257  1  0.33452971  0.41149982  0.24422107  1
  O2-  O258  1  0.33178287  0.41632880  0.50343768  1
  O2-  O259  1  0.33122822  0.41426445  0.73662627  1
  O2-  O260  1  0.33387890  0.74533384  -0.00051690  1
  O2-  O261  1  0.32830280  0.74646114  0.24797514  1
  O2-  O262  1  0.34572591  0.74318950  0.49974931  1
  O2-  O263  1  0.34488392  0.74770310  0.74854425  1
  O2-  O264  1  0.83562465  0.08119680  0.00090886  1
  O2-  O265  1  0.83582822  0.08128505  0.24860163  1
  O2-  O266  1  0.83357571  0.07766681  0.50243436  1
  O2-  O267  1  0.83822774  0.07688888  0.74941337  1
  O2-  O268  1  0.83681314  0.41400666  0.00053563  1
  O2-  O269  1  0.83255012  0.41077152  0.23630286  1
  O2-  O270  1  0.83177639  0.41365979  0.50335995  1
  O2-  O271  1  0.83168150  0.41724793  0.74989097  1
  O2-  O272  1  0.83616715  0.74874563  -0.00768004  1
  O2-  O273  1  0.83234476  0.75044576  0.25877760  1
  O2-  O274  1  0.83510381  0.74769481  0.50166371  1
  O2-  O275  1  0.83292818  0.74950433  0.75215801  1
  O2-  O276  1  0.94750985  0.24509263  0.99362399  1
  O2-  O277  1  0.45674865  0.24898509  0.49060709  1
  O2-  O278  1  0.45706015  0.09854921  0.48735654  1
  O2-  O279  1  0.45062474  0.42012615  0.25764457  1
  O2-  O280  1  0.95764317  0.10557818  0.74497974  1
  O2-  O281  1  0.53880011  0.55211076  0.28014881  1
  O2-  O282  1  0.56082873  0.24715885  0.27089657  1
  O2-  O283  1  0.51862014  0.79216058  0.74228468  1
  O2-  O284  1  0.04502758  0.91916985  0.76795531  1
  O2-  O285  1  0.54409474  0.09767449  0.01844946  1
  O2-  O286  1  0.54500402  0.90383579  0.00955767  1
  O2-  O287  1  0.94897792  0.57767804  0.30432627  1
  O2-  O288  1  0.54083197  0.54341653  0.27902721  1
  O2-  O289  1  0.54990158  0.23446116  0.25336110  1
  O2-  O290  1  0.54838139  0.23886461  0.75934020  1
  O2-  O291  1  0.53260633  0.88215256  0.50528095  1
  O2-  O292  1  0.44904734  0.57953192  0.52240721  1
  O2-  O293  1  0.04482361  0.09686416  0.98705229  1
  O2-  O294  1  0.95151648  0.56834803  0.49063840  1
  O2-  O295  1  0.04291311  0.23509900  0.76394804  1
  O2-  O296  1  0.95657405  0.90602747  0.23503430  1
  O2-  O297  1  0.54349949  0.76312544  0.25666556  1
  O2-  O298  1  0.04131391  0.55691123  0.75769347  1
  O2-  O299  1  0.95079585  0.42759891  0.52984404  1
  O2-  O300  1  0.95021950  0.23161148  0.50485770  1
  O2-  O301  1  0.05270956  0.23209982  0.48340659  1
  O2-  O302  1  0.55254666  0.08664274  0.22874833  1
  O2-  O303  1  0.55431452  0.44819907  0.54873961  1
  O2-  O304  1  0.54888723  0.42745107  0.00031626  1
  O2-  O305  1  0.94986615  0.42867352  0.49067502  1
  O2-  O306  1  0.45365719  0.10299568  0.29611357  1
  O2-  O307  1  0.46958494  0.45125944  0.49334329  1
  O2-  O308  1  0.04747668  0.58300807  0.73237608  1
  O2-  O309  1  0.04307538  0.23480628  0.25245667  1
  O2-  O310  1  0.05558658  0.91023363  0.73348999  1
  O2-  O311  1  0.04756305  0.76398662  -0.00184986  1
  O2-  O312  1  0.04005854  0.77595141  0.49596598  1
  O2-  O313  1  0.45690880  0.43792222  0.71045287  1
  O2-  O314  1  0.04577014  0.77736786  0.80877889  1
  O2-  O315  1  0.45255968  0.09103863  0.73838627  1
  O2-  O316  1  0.54454022  0.91257461  0.26360662  1
  O2-  O317  1  0.94887608  0.76915431  0.74774614  1
  O2-  O318  1  0.44781064  0.23560701  0.73418502  1
  O2-  O319  1  0.44191249  0.57725271  0.25654511  1
  O2-  O320  1  0.44592760  0.24142450  0.26091066  1
  O2-  O321  1  0.04467879  0.57396500  0.24382502  1
  O2-  O322  1  0.54836774  0.57658656  0.01461487  1
  O2-  O323  1  0.96539170  0.43293236  0.20403207  1
  O2-  O324  1  0.94193834  0.58922413  0.31475294  1
  O2-  O325  1  0.56186895  0.07719619  0.73046979  1
  O2-  O326  1  0.41728652  0.40336106  0.81911737  1
  O2-  O327  1  0.42057321  0.04996926  0.19817413  1
  O2-  O328  1  0.57228160  0.63050846  0.17105693  1
  O2-  O329  1  0.43575467  0.58814978  0.97710749  1
  O2-  O330  1  0.94033212  0.40229088  0.78108774  1
  O2-  O331  1  0.06943735  0.40851865  0.26382042  1
  O2-  O332  1  0.06543531  0.59288898  0.01111508  1
  O2-  O333  1  0.43822933  0.25953684  0.29275952  1
  O2-  O334  1  0.58455226  0.71114193  0.72317779  1
  O2-  O335  1  0.44034078  0.92547437  0.82579593  1
  O2-  O336  1  0.41737474  0.38457064  0.45853365  1
  O2-  O337  1  0.56417762  0.92738872  0.82994778  1
  O2-  O338  1  0.56606697  0.40850891  0.73514171  1
  O2-  O339  1  0.06001302  0.06859744  0.53829434  1
  O2-  O340  1  0.06097893  0.24384944  0.47300906  1
  O2-  O341  1  0.93835892  0.26608194  0.96472398  1
  O2-  O342  1  0.07208778  0.57466279  0.42581039  1
  O2-  O343  1  0.91956648  0.40823006  0.31660197  1
  O2-  O344  1  0.93326089  0.56961734  0.91435763  1
  O2-  O345  1  0.93349731  0.58459200  0.05029513  1
  O2-  O346  1  0.05906582  0.74946681  0.26523255  1
  O2-  O347  1  0.07682345  0.73175165  0.68640047  1
  O2-  O348  1  0.44094961  0.59061582  0.76277282  1
  O2-  O349  1  0.56706664  0.91281438  0.67912169  1
  O2-  O350  1  0.94126921  0.91677243  0.47374781  1
  O2-  O351  1  0.55994118  0.74234439  0.03433515  1
  O2-  O352  1  0.43479854  0.40637180  0.98817674  1
  O2-  O353  1  0.57660137  0.94910718  0.51456921  1
  O2-  O354  1  0.06205637  0.93077087  0.03643608  1
  O2-  O355  1  0.91606951  0.57527566  0.16950822  1
  O2-  O356  1  0.44183966  0.06530423  0.91460387  1
  O2-  O357  1  0.57110460  0.26846686  0.21472934  1
  O2-  O358  1  0.57192157  0.24289514  0.57577976  1
  O2-  O359  1  0.07429866  0.57604542  0.57962201  1
  O2-  O360  1  0.43769811  0.08802320  0.05976362  1
  O2-  O361  1  0.43921565  0.26857961  0.72523995  1
  O2-  O362  1  0.43733702  0.74452269  0.26660149  1
  O2-  O363  1  0.93898498  0.59802618  0.47999741  1
  O2-  O364  1  0.57570085  0.24217386  0.43189337  1
  O2-  O365  1  0.06505613  0.41008038  0.48358935  1
  O2-  O366  1  0.06540674  0.58151410  0.22284468  1
  O2-  O367  1  0.06077260  0.07420636  0.26926529  1
  O2-  O368  1  0.43750605  0.92191501  0.67330190  1
  O2-  O369  1  0.93882190  0.74768958  0.23579739  1
  O2-  O370  1  0.43842709  0.24920760  0.46328666  1
  O2-  O371  1  0.58411942  0.39993018  0.43438526  1
  O2-  O372  1  0.25008308  0.00102067  0.55422019  1
  O2-  O373  1  0.75139040  0.32298735  0.11652913  1
  O2-  O374  1  0.75030418  0.66884685  0.35721665  1
  O2-  O375  1  0.75222289  -0.01585678  0.88173149  1
  O2-  O376  1  0.25099976  0.67441006  0.57164034  1
  O2-  O377  1  0.75159598  0.34573047  0.62042814  1
  O2-  O378  1  0.24923153  0.34990172  0.93391993  1
  O2-  O379  1  0.25118827  0.34547989  0.59618529  1
  O2-  O380  1  0.24867536  0.01377531  0.04225889  1
  O2-  O381  1  0.74990269  -0.01471498  0.18898168  1
  O2-  O382  1  0.24842727  0.01399457  0.68040014  1
  O2-  O383  1  0.75053045  0.34052728  0.83499591  1
  O2-  O384  1  0.75172243  0.66344104  0.14184620  1
  O2-  O385  1  0.24893572  0.66194293  0.09667576  1
  O2-  O386  1  0.24902188  0.37119999  0.81815301  1
  O2-  O387  1  0.25147879  -0.01769393  0.35505144  1
  O2-  O388  1  0.75090586  0.67082269  0.66500885  1
  O2-  O389  1  0.74833818  -0.00338061  0.36740602  1
  O2-  O390  1  0.25119511  0.64374579  0.66013435  1
  O2-  O391  1  0.75062957  -0.01208610  0.05987976  1
  O2-  O392  1  0.25124200  0.33704497  0.35029100  1
  O2-  O393  1  0.24946997  -0.03086351  0.16941600  1
  O2-  O394  1  0.74957972  0.66497985  0.57232801  1
  O2-  O395  1  0.75045415  0.32085946  0.92444516  1
  O2-  O396  1  0.24929289  0.83302184  0.09576713  1
  O2-  O397  1  0.24896485  0.21079579  0.41001875  1
  O2-  O398  1  0.75077890  0.48783390  0.40941650  1
  O2-  O399  1  0.25007031  0.50498058  0.90869753  1
  O2-  O400  1  0.24975312  0.50879892  0.41471139  1
  O2-  O401  1  0.74959870  0.49219456  0.10356344  1
  O2-  O402  1  0.75019846  0.82962715  0.13335898  1
  O2-  O403  1  0.24901478  0.83207460  0.66139731  1
  O2-  O404  1  0.75100552  0.14795697  0.42309432  1
  O2-  O405  1  0.25031305  0.85079528  0.56340010  1
  O2-  O406  1  0.24970565  0.84657912  0.36309246  1
  O2-  O407  1  0.74803156  0.16479955  0.33304503  1
  O2-  O408  1  0.24768067  0.15226452  0.67608654  1
  O2-  O409  1  0.25098201  0.11905394  0.16255898  1
  O2-  O410  1  0.24927489  0.19297145  0.08419510  1
  O2-  O411  1  0.75017729  0.12104588  0.62040433  1
  O2-  O412  1  0.75047017  0.16708714  0.80902513  1
  O2-  O413  1  0.25076868  0.50547537  0.32531081  1
  O2-  O414  1  0.24955578  0.51423355  0.58911856  1
  O2-  O415  1  0.75068756  0.82806706  0.41873280  1
  O2-  O416  1  0.75068493  0.15194143  0.89144160  1
  O2-  O417  1  0.24870809  0.83584888  0.92262133  1
  O2-  O418  1  0.24970096  0.13319330  0.33152090  1
  O2-  O419  1  0.24909440  0.49172356  0.66997101  1
  O2-  O420  1  0.02346888  0.34041307  0.36182255  1
  O2-  O421  1  0.96919626  0.30932731  0.39037935  1
  O2-  O422  1  0.03764394  0.67176889  0.12401452  1
  O2-  O423  1  0.02907039  0.33401573  0.62804155  1
  O2-  O424  1  0.95255164  0.02520104  0.36204733  1
  O2-  O425  1  0.54703277  0.66375054  0.87229953  1
  O2-  O426  1  0.51152029  0.33768129  0.62572054  1
  O2-  O427  1  0.52073416  0.66019019  0.61555227  1
  O2-  O428  1  0.01886079  0.68127542  0.37782755  1
  O2-  O429  1  0.45683608  0.69977722  0.87425199  1
  O2-  O430  1  0.50927112  0.33748761  0.36888202  1
  O2-  O431  1  0.51902968  0.34192908  0.12110628  1
  O2-  O432  1  0.96979495  -0.00381316  0.61759577  1
  O2-  O433  1  0.46959077  0.67037238  0.11968611  1
  O2-  O434  1  0.47443071  -0.01335904  0.37897261  1
  O2-  O435  1  -0.00032769  0.67121737  0.62268948  1
  O2-  O436  1  0.04366974  -0.02700515  0.38928669  1
  O2-  O437  1  0.48396887  0.30923551  0.87397349  1
  O2-  O438  1  0.97186450  0.69196492  0.11220746  1
  O2-  O439  1  0.49034963  -0.02844872  0.12598367  1
  O2-  O440  1  0.98006067  0.67973791  0.87060723  1
  O2-  O441  1  0.45614773  0.66491735  0.38687578  1
  O2-  O442  1  0.54879912  0.67314809  0.39150122  1
  O2-  O443  1  0.51259658  0.02371396  0.61441068  1
