# generated using pymatgen
data_La7(Ru4O11)2
_symmetry_space_group_name_H-M   'P 1'
_cell_length_a   23.98945022
_cell_length_b   16.82929638
_cell_length_c   15.42594682
_cell_angle_alpha   89.99895057
_cell_angle_beta   90.00004693
_cell_angle_gamma   90.00015333
_symmetry_Int_Tables_number   1
_chemical_formula_structural   La7(Ru4O11)2
_chemical_formula_sum   'La84 Ru96 O264'
_cell_volume   6227.84913362
_cell_formula_units_Z   12
loop_
 _symmetry_equiv_pos_site_id
 _symmetry_equiv_pos_as_xyz
  1  'x, y, z'
loop_
 _atom_type_symbol
 _atom_type_oxidation_number
  La3+  3.0
  Ru4+  4.0
  O2-  -2.0
loop_
 _atom_site_type_symbol
 _atom_site_label
 _atom_site_symmetry_multiplicity
 _atom_site_fract_x
 _atom_site_fract_y
 _atom_site_fract_z
 _atom_site_occupancy
  La3+  La0  1  0.14105471  -0.00015940  0.12491437  1
  La3+  La1  1  0.13771104  0.00117380  0.37429827  1
  La3+  La2  1  0.13652122  0.00068400  0.62456381  1
  La3+  La3  1  0.13698684  -0.00077171  0.87609939  1
  La3+  La4  1  0.13800572  0.33272670  0.12384960  1
  La3+  La5  1  0.13643495  0.33429632  0.37499655  1
  La3+  La6  1  0.13757109  0.33439695  0.62530173  1
  La3+  La7  1  0.14047357  0.33281703  0.87464331  1
  La3+  La8  1  0.13746627  0.66702636  0.12491093  1
  La3+  La9  1  0.13881303  0.66612236  0.37596687  1
  La3+  La10  1  0.13878819  0.66599827  0.62513183  1
  La3+  La11  1  0.14032896  0.66689415  0.87404180  1
  La3+  La12  1  0.63800388  0.00048475  0.12649596  1
  La3+  La13  1  0.63811144  0.00013908  0.37376574  1
  La3+  La14  1  0.63840962  0.00110008  0.62535250  1
  La3+  La15  1  0.63829580  0.00106598  0.87512977  1
  La3+  La16  1  0.63858300  0.33452168  0.12420105  1
  La3+  La17  1  0.63912118  0.33299453  0.37495687  1
  La3+  La18  1  0.63969438  0.33230539  0.62305918  1
  La3+  La19  1  0.63803407  0.33333045  0.87697247  1
  La3+  La20  1  0.63779335  0.66591434  0.12693583  1
  La3+  La21  1  0.63923086  0.66598778  0.37416433  1
  La3+  La22  1  0.63877518  0.66558473  0.62527392  1
  La3+  La23  1  0.63826819  0.66609252  0.87393448  1
  La3+  La24  1  0.35919282  0.00030238  0.12583741  1
  La3+  La25  1  0.36314421  -0.00025448  0.37375103  1
  La3+  La26  1  0.36268865  -0.00073223  0.62359466  1
  La3+  La27  1  0.36250246  0.00038259  0.87749365  1
  La3+  La28  1  0.36187798  0.33245429  0.12259476  1
  La3+  La29  1  0.36246072  0.33334374  0.37547526  1
  La3+  La30  1  0.36158680  0.33421535  0.62622442  1
  La3+  La31  1  0.36009026  0.33307806  0.87530284  1
  La3+  La32  1  0.36210742  0.66726627  0.12520939  1
  La3+  La33  1  0.36157956  0.66602390  0.37501128  1
  La3+  La34  1  0.36121023  0.66523107  0.62562070  1
  La3+  La35  1  0.36051026  0.66631984  0.87343344  1
  La3+  La36  1  0.86140096  0.00055919  0.12582228  1
  La3+  La37  1  0.86071234  0.00146002  0.37480473  1
  La3+  La38  1  0.86058556  0.00175079  0.62571572  1
  La3+  La39  1  0.86097968  0.00079597  0.87424760  1
  La3+  La40  1  0.86021416  0.33326301  0.12368313  1
  La3+  La41  1  0.86094698  0.33289496  0.37471321  1
  La3+  La42  1  0.86077923  0.33215775  0.62367670  1
  La3+  La43  1  0.86176134  0.33289199  0.87661903  1
  La3+  La44  1  0.86206961  0.66630258  0.12613125  1
  La3+  La45  1  0.86028893  0.66620322  0.37444683  1
  La3+  La46  1  0.86073127  0.66598928  0.62545608  1
  La3+  La47  1  0.86184193  0.66614949  0.87421981  1
  La3+  La48  1  0.49921242  0.16726558  0.11464745  1
  La3+  La49  1  0.49941166  0.83318013  0.63652106  1
  La3+  La50  1  0.00003717  0.49768461  0.36989004  1
  La3+  La51  1  0.49856375  0.49820350  0.38485824  1
  La3+  La52  1  0.49884662  0.16739408  0.86735321  1
  La3+  La53  1  0.50039807  0.16757598  0.38317796  1
  La3+  La54  1  -0.00267785  0.17088167  0.13535098  1
  La3+  La55  1  0.49910524  0.50254214  0.86590550  1
  La3+  La56  1  0.50231246  0.83827641  0.11584731  1
  La3+  La57  1  0.49995139  0.82912449  0.87853426  1
  La3+  La58  1  0.50152238  0.83377886  0.36576017  1
  La3+  La59  1  0.50015042  0.82762875  0.13508575  1
  La3+  La60  1  0.50073440  0.16811343  0.63535355  1
  La3+  La61  1  0.50224004  0.50167409  0.36624225  1
  La3+  La62  1  -0.00033470  0.83272026  0.86441607  1
  La3+  La63  1  -0.00144993  0.83612234  0.36930957  1
  La3+  La64  1  0.00001848  0.16717903  0.36726817  1
  La3+  La65  1  -0.00121106  0.49855166  0.86791555  1
  La3+  La66  1  0.00288406  0.16351285  0.11603782  1
  La3+  La67  1  0.00060250  0.50007764  0.89018525  1
  La3+  La68  1  0.00098795  0.83480304  0.88512112  1
  La3+  La69  1  0.00127225  0.16807909  0.88180193  1
  La3+  La70  1  0.00058385  0.49966309  0.61491255  1
  La3+  La71  1  0.50067698  0.16709196  0.61413869  1
  La3+  La72  1  0.24979607  0.47240505  -0.00178444  1
  La3+  La73  1  0.75002298  0.52823503  0.74836371  1
  La3+  La74  1  0.25000692  0.50419647  0.22067223  1
  La3+  La75  1  0.74996345  0.83231411  0.03480045  1
  La3+  La76  1  0.25001705  0.19884799  0.75408377  1
  La3+  La77  1  0.25014300  0.12813425  0.50898685  1
  La3+  La78  1  0.24992047  0.49924498  0.73092332  1
  La3+  La79  1  0.24975929  0.83487095  0.53284986  1
  La3+  La80  1  0.75018108  0.83496325  0.44908259  1
  La3+  La81  1  0.24989941  0.79228178  0.74447378  1
  La3+  La82  1  0.74997598  0.83346067  0.77836349  1
  La3+  La83  1  0.25012994  0.83568830  0.21492736  1
  Ru4+  Ru84  1  0.00160515  -0.00387040  0.00010702  1
  Ru4+  Ru85  1  0.00036159  0.00027094  0.24914185  1
  Ru4+  Ru86  1  -0.00137420  -0.00148101  0.50164836  1
  Ru4+  Ru87  1  -0.00141684  0.00244062  0.75097808  1
  Ru4+  Ru88  1  0.00271896  0.33937167  0.00017246  1
  Ru4+  Ru89  1  -0.00193254  0.33029141  0.25415812  1
  Ru4+  Ru90  1  -0.00149227  0.33152529  0.49760223  1
  Ru4+  Ru91  1  -0.00095143  0.33159253  0.74663183  1
  Ru4+  Ru92  1  0.00065724  0.66667626  0.00444654  1
  Ru4+  Ru93  1  -0.00076769  0.66545696  0.24634026  1
  Ru4+  Ru94  1  0.00169749  0.66823509  0.50240314  1
  Ru4+  Ru95  1  -0.00116634  0.67068828  0.74607869  1
  Ru4+  Ru96  1  0.49814450  0.00668499  -0.00100068  1
  Ru4+  Ru97  1  0.49856039  0.00641431  0.25129536  1
  Ru4+  Ru98  1  0.50318527  0.00631928  0.49944314  1
  Ru4+  Ru99  1  0.49996132  -0.00128930  0.75096853  1
  Ru4+  Ru100  1  0.50037852  0.33525505  -0.00324761  1
  Ru4+  Ru101  1  0.50354635  0.32895027  0.25072146  1
  Ru4+  Ru102  1  0.50010481  0.33373462  0.49970184  1
  Ru4+  Ru103  1  0.49752589  0.32948525  0.74922278  1
  Ru4+  Ru104  1  0.50040965  0.66507181  -0.00157661  1
  Ru4+  Ru105  1  0.50083584  0.66563934  0.25290602  1
  Ru4+  Ru106  1  0.49983299  0.66712249  0.49892836  1
  Ru4+  Ru107  1  0.49973863  0.66593319  0.75170297  1
  Ru4+  Ru108  1  0.11474876  0.16748781  -0.00032175  1
  Ru4+  Ru109  1  0.11406077  0.16635332  0.25060945  1
  Ru4+  Ru110  1  0.11292783  0.16899845  0.49987271  1
  Ru4+  Ru111  1  0.11182709  0.16874955  0.75087862  1
  Ru4+  Ru112  1  0.11171135  0.49959874  -0.00001111  1
  Ru4+  Ru113  1  0.11338643  0.50275846  0.24995570  1
  Ru4+  Ru114  1  0.11458829  0.50306134  0.49984263  1
  Ru4+  Ru115  1  0.11421903  0.49954681  0.74955310  1
  Ru4+  Ru116  1  0.11332238  0.83461947  -0.00003948  1
  Ru4+  Ru117  1  0.11296880  0.83510939  0.24974828  1
  Ru4+  Ru118  1  0.11065828  0.83387325  0.50021484  1
  Ru4+  Ru119  1  0.11367172  0.83006689  0.74973784  1
  Ru4+  Ru120  1  0.61501868  0.16353376  0.00056426  1
  Ru4+  Ru121  1  0.61377584  0.16832761  0.25046276  1
  Ru4+  Ru122  1  0.61412858  0.16740283  0.49972169  1
  Ru4+  Ru123  1  0.61269473  0.16769600  0.74989683  1
  Ru4+  Ru124  1  0.61255594  0.49761423  0.00040935  1
  Ru4+  Ru125  1  0.61319058  0.49858252  0.24930493  1
  Ru4+  Ru126  1  0.61369073  0.50074432  0.50012936  1
  Ru4+  Ru127  1  0.61402749  0.50410167  0.74940442  1
  Ru4+  Ru128  1  0.61459813  0.82839815  0.00061383  1
  Ru4+  Ru129  1  0.61612987  0.83125052  0.25077414  1
  Ru4+  Ru130  1  0.61243587  0.83253250  0.50052575  1
  Ru4+  Ru131  1  0.61192847  0.83364808  0.74973411  1
  Ru4+  Ru132  1  0.38595846  0.16640315  -0.00030713  1
  Ru4+  Ru133  1  0.38688921  0.16547281  0.25020546  1
  Ru4+  Ru134  1  0.38722935  0.16790822  0.49925215  1
  Ru4+  Ru135  1  0.38749007  0.16849094  0.75025026  1
  Ru4+  Ru136  1  0.38673944  0.50262712  0.00046930  1
  Ru4+  Ru137  1  0.38651840  0.50251034  0.24982405  1
  Ru4+  Ru138  1  0.38710733  0.50072289  0.50063805  1
  Ru4+  Ru139  1  0.38730677  0.49977738  0.74982183  1
  Ru4+  Ru140  1  0.38485670  0.83370936  -0.00008507  1
  Ru4+  Ru141  1  0.38519600  0.83167719  0.25067012  1
  Ru4+  Ru142  1  0.38375441  0.82938977  0.50097812  1
  Ru4+  Ru143  1  0.38828042  0.83223382  0.74994251  1
  Ru4+  Ru144  1  0.88268030  0.16482442  -0.00075685  1
  Ru4+  Ru145  1  0.88713304  0.16699174  0.25063862  1
  Ru4+  Ru146  1  0.88599298  0.16622087  0.50008688  1
  Ru4+  Ru147  1  0.88633510  0.16872536  0.74894615  1
  Ru4+  Ru148  1  0.88632561  0.49882144  0.00008470  1
  Ru4+  Ru149  1  0.88568726  0.49932530  0.24944610  1
  Ru4+  Ru150  1  0.88553409  0.49932959  0.50024825  1
  Ru4+  Ru151  1  0.88802795  0.49891756  0.74972054  1
  Ru4+  Ru152  1  0.88912740  0.83361895  0.00042833  1
  Ru4+  Ru153  1  0.88599787  0.83172060  0.25019702  1
  Ru4+  Ru154  1  0.88833451  0.83334719  0.49992133  1
  Ru4+  Ru155  1  0.88825781  0.83322645  0.75033570  1
  Ru4+  Ru156  1  0.24990271  0.60835617  -0.00178513  1
  Ru4+  Ru157  1  0.25006315  0.06566516  0.75526118  1
  Ru4+  Ru158  1  0.74997407  0.95991547  0.50647707  1
  Ru4+  Ru159  1  0.74990595  0.24922661  0.00221508  1
  Ru4+  Ru160  1  0.24975148  0.75049385  0.00173203  1
  Ru4+  Ru161  1  0.75002309  0.94828123  -0.00267093  1
  Ru4+  Ru162  1  0.25002253  0.93328636  0.75564667  1
  Ru4+  Ru163  1  0.25013395  0.37945598  0.25344606  1
  Ru4+  Ru164  1  0.24985811  0.63164204  0.25407652  1
  Ru4+  Ru165  1  0.74984320  0.58041108  0.25193040  1
  Ru4+  Ru166  1  0.24991800  0.71144388  0.49534023  1
  Ru4+  Ru167  1  0.74991372  0.39438945  0.74519470  1
  Ru4+  Ru168  1  0.24976867  0.95976891  0.49235151  1
  Ru4+  Ru169  1  0.25002677  0.42089195  0.49863513  1
  Ru4+  Ru170  1  0.74984665  0.08847346  0.74674190  1
  Ru4+  Ru171  1  0.75000378  0.42006820  0.50375267  1
  Ru4+  Ru172  1  0.74999035  0.24537984  0.74662013  1
  Ru4+  Ru173  1  0.75015960  0.71624858  -0.01054530  1
  Ru4+  Ru174  1  0.74995656  0.08811331  0.25407341  1
  Ru4+  Ru175  1  0.24999750  0.26835659  0.49086856  1
  Ru4+  Ru176  1  0.74995702  0.71185344  0.50464809  1
  Ru4+  Ru177  1  0.24995836  0.24615940  0.24618891  1
  Ru4+  Ru178  1  0.75003572  0.57567360  -0.00156450  1
  Ru4+  Ru179  1  0.75017681  0.24642649  0.25269582  1
  O2-  O180  1  0.16718187  0.08093155  -0.00062022  1
  O2-  O181  1  0.16668810  0.08103969  0.25082636  1
  O2-  O182  1  0.16667003  0.07842903  0.49946953  1
  O2-  O183  1  0.16640910  0.07972256  0.74973971  1
  O2-  O184  1  0.16741852  0.41307028  0.00061146  1
  O2-  O185  1  0.16568250  0.41331912  0.24975530  1
  O2-  O186  1  0.16865034  0.41420858  0.49978218  1
  O2-  O187  1  0.16641094  0.41448761  0.74932666  1
  O2-  O188  1  0.16782740  0.74680749  0.00030074  1
  O2-  O189  1  0.16900384  0.74670587  0.25023225  1
  O2-  O190  1  0.16631202  0.74709570  0.49979544  1
  O2-  O191  1  0.16588757  0.74702987  0.74928206  1
  O2-  O192  1  0.66757172  0.08155170  -0.00079863  1
  O2-  O193  1  0.66807547  0.08108337  0.25041267  1
  O2-  O194  1  0.66673924  0.08034632  0.50023718  1
  O2-  O195  1  0.66785035  0.08009222  0.74978317  1
  O2-  O196  1  0.66769975  0.41525321  -0.00132757  1
  O2-  O197  1  0.66760776  0.41504401  0.25012582  1
  O2-  O198  1  0.66708782  0.41431370  0.50002600  1
  O2-  O199  1  0.66735001  0.41281903  0.75026262  1
  O2-  O200  1  0.66566477  0.74574849  0.00007247  1
  O2-  O201  1  0.66710622  0.74803178  0.25049599  1
  O2-  O202  1  0.66600541  0.74656100  0.50002433  1
  O2-  O203  1  0.66818067  0.74648483  0.75039682  1
  O2-  O204  1  0.33216042  0.25176345  0.00052749  1
  O2-  O205  1  0.33265764  0.25269744  0.24992656  1
  O2-  O206  1  0.33270708  0.25363478  0.49980801  1
  O2-  O207  1  0.33321417  0.25220343  0.74965163  1
  O2-  O208  1  0.33331718  0.58593378  0.00027751  1
  O2-  O209  1  0.33333431  0.58718774  0.24946970  1
  O2-  O210  1  0.33345225  0.58515826  0.49982440  1
  O2-  O211  1  0.33306488  0.58651854  0.74910343  1
  O2-  O212  1  0.33236932  0.91864070  -0.00108478  1
  O2-  O213  1  0.33240626  0.91876277  0.25092078  1
  O2-  O214  1  0.33209860  0.92075874  0.49933654  1
  O2-  O215  1  0.33292852  0.92032822  0.75022882  1
  O2-  O216  1  0.83230233  0.25220369  -0.00081836  1
  O2-  O217  1  0.83165836  0.25247318  0.24990581  1
  O2-  O218  1  0.83409956  0.25144322  0.50000204  1
  O2-  O219  1  0.83247359  0.25166800  0.74980811  1
  O2-  O220  1  0.83233157  0.58612142  0.00030712  1
  O2-  O221  1  0.83346042  0.58565946  0.25014902  1
  O2-  O222  1  0.83270108  0.58556578  0.50010571  1
  O2-  O223  1  0.83212551  0.58762262  0.75002987  1
  O2-  O224  1  0.83406501  0.92019297  -0.00025972  1
  O2-  O225  1  0.83169330  0.91899452  0.25012517  1
  O2-  O226  1  0.83230831  0.92008596  0.49968369  1
  O2-  O227  1  0.83198251  0.91999678  0.74980272  1
  O2-  O228  1  0.16795368  0.25188443  0.00027724  1
  O2-  O229  1  0.16785846  0.25269008  0.24993877  1
  O2-  O230  1  0.16646366  0.25263957  0.49954023  1
  O2-  O231  1  0.16687101  0.25224164  0.74926252  1
  O2-  O232  1  0.16744436  0.58720251  0.00019881  1
  O2-  O233  1  0.16694684  0.58634750  0.24919050  1
  O2-  O234  1  0.16657312  0.58476351  0.50001760  1
  O2-  O235  1  0.16780064  0.58588210  0.74896379  1
  O2-  O236  1  0.16665250  0.91900460  -0.00054517  1
  O2-  O237  1  0.16704246  0.91886529  0.25126688  1
  O2-  O238  1  0.16683904  0.92090695  0.49974389  1
  O2-  O239  1  0.16729583  0.92035363  0.75002022  1
  O2-  O240  1  0.66774488  0.25228105  -0.00140341  1
  O2-  O241  1  0.66722804  0.25158808  0.25004777  1
  O2-  O242  1  0.66705733  0.25171727  0.50027090  1
  O2-  O243  1  0.66775806  0.25262396  0.74972458  1
  O2-  O244  1  0.66709703  0.58612459  -0.00057591  1
  O2-  O245  1  0.66763058  0.58609415  0.25062896  1
  O2-  O246  1  0.66637299  0.58559264  0.49999223  1
  O2-  O247  1  0.66721590  0.58660122  0.74987236  1
  O2-  O248  1  0.66640018  0.92100237  -0.00045716  1
  O2-  O249  1  0.66778918  0.91852498  0.25066549  1
  O2-  O250  1  0.66724478  0.92007582  0.49978091  1
  O2-  O251  1  0.66787511  0.91959065  0.75002798  1
  O2-  O252  1  0.33218377  0.08163268  -0.00015989  1
  O2-  O253  1  0.33326658  0.08172640  0.25114211  1
  O2-  O254  1  0.33309995  0.07843601  0.49985418  1
  O2-  O255  1  0.33333380  0.07965856  0.75005138  1
  O2-  O256  1  0.33228686  0.41298314  0.00053188  1
  O2-  O257  1  0.33388068  0.41270563  0.24985757  1
  O2-  O258  1  0.33106270  0.41387079  0.49951635  1
  O2-  O259  1  0.33360294  0.41450509  0.74928922  1
  O2-  O260  1  0.33249146  0.74710487  0.00003106  1
  O2-  O261  1  0.33190873  0.74662634  0.24993489  1
  O2-  O262  1  0.33429553  0.74677998  0.49972708  1
  O2-  O263  1  0.33415781  0.74662983  0.74935263  1
  O2-  O264  1  0.83241930  0.08128494  -0.00019500  1
  O2-  O265  1  0.83248989  0.08079225  0.25002931  1
  O2-  O266  1  0.83295092  0.08105692  0.50000706  1
  O2-  O267  1  0.83207965  0.08087446  0.75043043  1
  O2-  O268  1  0.83231874  0.41503259  -0.00062445  1
  O2-  O269  1  0.83194754  0.41500740  0.25024934  1
  O2-  O270  1  0.83338595  0.41451154  0.49993385  1
  O2-  O271  1  0.83312057  0.41347601  0.74980471  1
  O2-  O272  1  0.83425787  0.74580763  0.00042451  1
  O2-  O273  1  0.83313826  0.74839447  0.24968849  1
  O2-  O274  1  0.83405432  0.74672937  0.50017881  1
  O2-  O275  1  0.83178060  0.74627893  0.75014309  1
  O2-  O276  1  0.45455456  0.76382219  0.01388740  1
  O2-  O277  1  0.54670877  0.23470251  0.26462091  1
  O2-  O278  1  0.96277565  0.44977412  0.24173461  1
  O2-  O279  1  0.95405507  0.23405751  0.98030511  1
  O2-  O280  1  0.95467582  0.76586390  0.01513661  1
  O2-  O281  1  0.95417425  0.56825273  0.76154276  1
  O2-  O282  1  0.54564770  0.23587485  0.01901609  1
  O2-  O283  1  0.54631367  0.09811561  0.76455071  1
  O2-  O284  1  0.45682142  0.89427831  0.97365479  1
  O2-  O285  1  0.45331630  0.90050837  0.76395222  1
  O2-  O286  1  0.04849126  0.90129702  0.51388877  1
  O2-  O287  1  0.45299792  0.90414843  0.23063328  1
  O2-  O288  1  0.95380575  0.09926619  0.51364203  1
  O2-  O289  1  0.04947602  0.09746864  0.51599487  1
  O2-  O290  1  0.54531965  0.76392604  0.73694811  1
  O2-  O291  1  0.45382049  0.09664690  0.26612799  1
  O2-  O292  1  0.05149809  0.42909426  0.26567623  1
  O2-  O293  1  0.54973973  0.90255048  0.23452353  1
  O2-  O294  1  0.45238207  0.76297560  0.26519325  1
  O2-  O295  1  0.04582456  0.43096779  0.76187212  1
  O2-  O296  1  0.44724598  0.42156921  0.29728678  1
  O2-  O297  1  0.04535546  0.09679413  0.23713028  1
  O2-  O298  1  0.54142375  0.10394326  0.22264069  1
  O2-  O299  1  0.96909535  0.87407920  0.51593827  1
  O2-  O300  1  0.54403480  0.23508604  0.97969746  1
  O2-  O301  1  0.54494092  0.76509556  0.51427520  1
  O2-  O302  1  0.45368791  0.90394705  0.26978236  1
  O2-  O303  1  0.04704996  0.90332376  0.76522146  1
  O2-  O304  1  0.54970038  0.42390450  0.78657139  1
  O2-  O305  1  0.45360033  0.09810896  0.73530925  1
  O2-  O306  1  0.03268672  0.55423445  0.25147653  1
  O2-  O307  1  0.95970828  0.89231186  0.22443857  1
  O2-  O308  1  0.54752593  0.76366275  0.26470569  1
  O2-  O309  1  0.95334810  0.23462079  0.01947766  1
  O2-  O310  1  0.54415264  0.89481206  0.47288531  1
  O2-  O311  1  0.54484275  0.56845538  0.98415589  1
  O2-  O312  1  0.04569229  0.09899213  0.98611082  1
  O2-  O313  1  0.45776495  0.89384927  0.49595575  1
  O2-  O314  1  0.04111092  0.77261440  0.27363998  1
  O2-  O315  1  0.45576817  0.42951355  0.98062023  1
  O2-  O316  1  0.54544357  0.56852490  0.48591982  1
  O2-  O317  1  0.45760818  0.89409195  0.49617866  1
  O2-  O318  1  0.04724399  0.42950822  0.51556258  1
  O2-  O319  1  0.45322145  0.23555844  0.23590888  1
  O2-  O320  1  0.54669799  0.90264294  0.73643169  1
  O2-  O321  1  0.95959349  0.10496305  0.77499515  1
  O2-  O322  1  0.55468425  0.91470324  0.96519557  1
  O2-  O323  1  0.45456045  0.43277288  0.01970326  1
  O2-  O324  1  0.93214320  0.93905316  0.43730463  1
  O2-  O325  1  0.43598014  0.07072713  0.55360048  1
  O2-  O326  1  0.43548462  0.07215332  0.97042434  1
  O2-  O327  1  0.44782257  0.42182156  0.28523989  1
  O2-  O328  1  0.93545041  0.26112702  0.27977089  1
  O2-  O329  1  0.93509266  0.40400884  0.96980365  1
  O2-  O330  1  0.42639071  0.94256541  0.54060586  1
  O2-  O331  1  0.43633253  0.26450591  0.96758007  1
  O2-  O332  1  0.93545387  0.06864285  0.94844020  1
  O2-  O333  1  0.06504157  0.26168739  0.77930873  1
  O2-  O334  1  0.07765610  0.61221508  0.28881118  1
  O2-  O335  1  0.56522634  0.40316989  0.02907469  1
  O2-  O336  1  0.43603288  0.06891942  0.44575441  1
  O2-  O337  1  0.43663985  0.26491032  0.78186725  1
  O2-  O338  1  0.43028798  0.93950547  0.04645252  1
  O2-  O339  1  0.55450527  0.91503185  0.96546313  1
  O2-  O340  1  0.93440585  0.59581755  0.97026006  1
  O2-  O341  1  0.57000157  0.06421057  0.29059817  1
  O2-  O342  1  0.06671088  0.59450192  0.79706059  1
  O2-  O343  1  0.93204534  0.06172667  0.70657079  1
  O2-  O344  1  0.93579990  0.59787567  0.55087408  1
  O2-  O345  1  0.56448364  0.26237458  0.47119437  1
  O2-  O346  1  0.06506546  0.26329055  0.03026136  1
  O2-  O347  1  0.93227488  0.93849986  0.29338862  1
  O2-  O348  1  0.93629183  0.26484694  0.71807686  1
  O2-  O349  1  0.92447210  0.38939892  0.21300655  1
  O2-  O350  1  0.56847494  0.39525355  0.69244579  1
  O2-  O351  1  0.06274945  0.40148294  0.28369090  1
  O2-  O352  1  0.06547322  0.59457896  0.70149983  1
  O2-  O353  1  0.92559679  0.95008089  0.56086969  1
  O2-  O354  1  0.06382445  0.92648525  0.77973280  1
  O2-  O355  1  0.93431854  0.59425212  0.45357331  1
  O2-  O356  1  0.43623764  0.40242788  0.53240238  1
  O2-  O357  1  0.06994448  0.73171809  0.20847281  1
  O2-  O358  1  0.43565815  0.59749159  0.28268170  1
  O2-  O359  1  0.42732590  0.39679723  0.18619539  1
  O2-  O360  1  0.93368640  0.07061385  0.04761787  1
  O2-  O361  1  0.43577196  0.26333679  0.46698937  1
  O2-  O362  1  0.57015069  0.93661474  0.54126857  1
  O2-  O363  1  0.56809384  0.93566907  0.05431343  1
  O2-  O364  1  0.55572774  0.41522135  0.78594733  1
  O2-  O365  1  0.56136533  0.92969643  0.21608612  1
  O2-  O366  1  0.06383844  0.26321648  0.28314290  1
  O2-  O367  1  0.56368254  0.07073754  0.03220138  1
  O2-  O368  1  0.56470592  0.40444554  0.22102337  1
  O2-  O369  1  0.06125627  0.06826383  0.53032398  1
  O2-  O370  1  0.06211495  0.40461671  0.53219325  1
  O2-  O371  1  0.56480449  0.59595006  0.22078020  1
  O2-  O372  1  0.74994468  0.66465287  0.40183263  1
  O2-  O373  1  0.74998642  0.66369148  0.60042251  1
  O2-  O374  1  0.24995867  0.33205455  0.84374481  1
  O2-  O375  1  0.74998744  0.01243588  0.08737487  1
  O2-  O376  1  0.74996832  0.33085955  0.84704210  1
  O2-  O377  1  0.75007662  0.33135065  0.09176888  1
  O2-  O378  1  0.74994983  0.33469320  0.59340934  1
  O2-  O379  1  0.74995932  0.66020608  0.89727734  1
  O2-  O380  1  0.75003836  0.66915319  0.17682567  1
  O2-  O381  1  0.75002605  0.33249245  0.42023148  1
  O2-  O382  1  0.25015841  0.66458501  0.59845361  1
  O2-  O383  1  0.25003912  -0.00124581  0.15701438  1
  O2-  O384  1  0.25005134  0.66329037  0.39936880  1
  O2-  O385  1  0.75000337  0.65672404  0.08698453  1
  O2-  O386  1  0.25004335  0.32802396  0.35130722  1
  O2-  O387  1  0.24995161  -0.00035671  0.64913282  1
  O2-  O388  1  0.24996739  0.33899731  0.58345547  1
  O2-  O389  1  0.75000602  0.01325175  0.91154117  1
  O2-  O390  1  0.25005790  0.32927656  0.14881870  1
  O2-  O391  1  0.75008357  0.33451187  0.32965978  1
  O2-  O392  1  0.75000693  -0.00228055  0.82431570  1
  O2-  O393  1  0.25003509  0.66790511  0.84679578  1
  O2-  O394  1  0.75006866  -0.00214571  0.17484704  1
  O2-  O395  1  0.24994961  0.33345986  0.67437738  1
  O2-  O396  1  0.74999846  0.16737892  0.16901815  1
  O2-  O397  1  0.25006022  0.17172924  0.62410800  1
  O2-  O398  1  0.75006910  0.50147714  0.41836297  1
  O2-  O399  1  0.75002554  0.49889184  0.16862693  1
  O2-  O400  1  0.25002250  0.83903695  0.64134937  1
  O2-  O401  1  0.74989528  0.83320966  0.66374978  1
  O2-  O402  1  0.75002460  0.49825492  0.59062117  1
  O2-  O403  1  0.74998887  0.16598291  0.40443507  1
  O2-  O404  1  0.75000214  0.16702919  0.84067130  1
  O2-  O405  1  0.74997751  0.83354458  0.89536913  1
  O2-  O406  1  0.25006732  0.83669378  0.93586252  1
  O2-  O407  1  0.25007833  0.84037366  0.85480184  1
  O2-  O408  1  0.24998539  0.83274390  0.41264507  1
  O2-  O409  1  0.75004783  0.49962479  0.08091267  1
  O2-  O410  1  0.24998693  0.50018940  0.86008917  1
  O2-  O411  1  0.25003835  0.83090144  0.08745155  1
  O2-  O412  1  0.25003502  0.17410376  0.39528289  1
  O2-  O413  1  0.24998368  0.83306656  0.33500046  1
  O2-  O414  1  0.74999628  0.16608754  0.59617791  1
  O2-  O415  1  0.25005795  0.49863005  0.36200049  1
  O2-  O416  1  0.24999897  0.16233465  0.31386203  1
  O2-  O417  1  0.75005492  0.49808281  0.33191040  1
  O2-  O418  1  0.75003346  0.16486431  0.07848780  1
  O2-  O419  1  0.74993129  0.83298652  0.58497514  1
  O2-  O420  1  0.02620764  0.66910822  0.62070996  1
  O2-  O421  1  0.46915465  0.66715024  0.62529112  1
  O2-  O422  1  0.47303899  -0.00091790  0.87188887  1
  O2-  O423  1  0.96821637  0.33166283  0.87262044  1
  O2-  O424  1  0.03161061  0.33482915  0.88026460  1
  O2-  O425  1  0.97023046  0.33109555  0.11973285  1
  O2-  O426  1  0.47237340  0.66655296  0.87421953  1
  O2-  O427  1  0.47133074  0.32846394  0.12085438  1
  O2-  O428  1  0.53060914  0.66515257  0.62574823  1
  O2-  O429  1  0.03064790  0.33543696  0.12756326  1
  O2-  O430  1  0.97383287  -0.00123303  0.12702906  1
  O2-  O431  1  0.02614597  0.66422977  0.12074554  1
  O2-  O432  1  0.52696926  -0.00164338  0.37843867  1
  O2-  O433  1  0.46922705  0.66576194  0.12398634  1
  O2-  O434  1  0.52630915  0.00367759  0.62749778  1
  O2-  O435  1  0.97297097  0.33506809  0.37835645  1
  O2-  O436  1  0.97021372  0.67003826  0.37012323  1
  O2-  O437  1  0.02677038  0.00204787  0.87848039  1
  O2-  O438  1  0.96721106  0.67005271  0.87190306  1
  O2-  O439  1  0.03219579  0.67074146  0.88004281  1
  O2-  O440  1  0.52642860  0.33627368  0.37288561  1
  O2-  O441  1  0.02952955  0.66956369  0.38095294  1
  O2-  O442  1  0.52873605  0.33002224  0.12621765  1
  O2-  O443  1  0.52952467  0.66931068  0.12082273  1
