# generated using pymatgen
data_La7(Ru4O11)2
_symmetry_space_group_name_H-M   'P 1'
_cell_length_a   23.98988074
_cell_length_b   16.83024989
_cell_length_c   15.42658939
_cell_angle_alpha   90.00042434
_cell_angle_beta   89.99932653
_cell_angle_gamma   90.00014984
_symmetry_Int_Tables_number   1
_chemical_formula_structural   La7(Ru4O11)2
_chemical_formula_sum   'La84 Ru96 O264'
_cell_volume   6228.57320678
_cell_formula_units_Z   12
loop_
 _symmetry_equiv_pos_site_id
 _symmetry_equiv_pos_as_xyz
  1  'x, y, z'
loop_
 _atom_type_symbol
 _atom_type_oxidation_number
  La3+  3.0
  Ru4+  4.0
  O2-  -2.0
loop_
 _atom_site_type_symbol
 _atom_site_label
 _atom_site_symmetry_multiplicity
 _atom_site_fract_x
 _atom_site_fract_y
 _atom_site_fract_z
 _atom_site_occupancy
  La3+  La0  1  0.13925857  0.00316645  0.12595405  1
  La3+  La1  1  0.13777972  0.00138625  0.37466414  1
  La3+  La2  1  0.13614486  -0.00233948  0.62390449  1
  La3+  La3  1  0.13647236  0.00000801  0.87553922  1
  La3+  La4  1  0.14217117  0.33464436  0.12407114  1
  La3+  La5  1  0.13845323  0.33402190  0.37381747  1
  La3+  La6  1  0.13540832  0.33561304  0.62494121  1
  La3+  La7  1  0.13851581  0.33489979  0.87771174  1
  La3+  La8  1  0.13967602  0.66486487  0.12423402  1
  La3+  La9  1  0.14079131  0.66726532  0.37601180  1
  La3+  La10  1  0.14168203  0.66698003  0.62459017  1
  La3+  La11  1  0.13660738  0.66574137  0.87454538  1
  La3+  La12  1  0.63759047  0.00045807  0.12587043  1
  La3+  La13  1  0.63720033  -0.00180891  0.37512552  1
  La3+  La14  1  0.64012637  -0.00033885  0.62669275  1
  La3+  La15  1  0.63884998  0.00104685  0.87303024  1
  La3+  La16  1  0.63848473  0.33224143  0.12313381  1
  La3+  La17  1  0.63742412  0.33502754  0.37671914  1
  La3+  La18  1  0.64102459  0.33066441  0.62480408  1
  La3+  La19  1  0.63803959  0.33279491  0.87575719  1
  La3+  La20  1  0.63462822  0.66750711  0.12821716  1
  La3+  La21  1  0.63833934  0.66701264  0.37233673  1
  La3+  La22  1  0.63902367  0.66490959  0.62675558  1
  La3+  La23  1  0.63641558  0.66528480  0.87302650  1
  La3+  La24  1  0.36226087  0.00369918  0.12594572  1
  La3+  La25  1  0.36299107  0.00128348  0.37461658  1
  La3+  La26  1  0.36215171  -0.00069233  0.62262474  1
  La3+  La27  1  0.36338488  0.00017865  0.87686774  1
  La3+  La28  1  0.35907761  0.33323043  0.12324752  1
  La3+  La29  1  0.36191817  0.33398319  0.37408996  1
  La3+  La30  1  0.36191189  0.33458480  0.62480042  1
  La3+  La31  1  0.35936453  0.33512839  0.87814862  1
  La3+  La32  1  0.36180255  0.66487152  0.12547126  1
  La3+  La33  1  0.35872929  0.66783308  0.37655410  1
  La3+  La34  1  0.35746936  0.66659964  0.62317884  1
  La3+  La35  1  0.36325797  0.66439112  0.87505108  1
  La3+  La36  1  0.86230046  -0.00061044  0.12487587  1
  La3+  La37  1  0.86341822  -0.00137578  0.37582783  1
  La3+  La38  1  0.86037092  -0.00062864  0.62495340  1
  La3+  La39  1  0.86086727  0.00012211  0.87269307  1
  La3+  La40  1  0.86372182  0.33360814  0.12527202  1
  La3+  La41  1  0.86256440  0.33317110  0.37503744  1
  La3+  La42  1  0.85952267  0.33284318  0.62292428  1
  La3+  La43  1  0.86055362  0.33335373  0.87576510  1
  La3+  La44  1  0.86544451  0.66396953  0.12293793  1
  La3+  La45  1  0.86118378  0.66666904  0.37672803  1
  La3+  La46  1  0.86352382  0.66654672  0.62529677  1
  La3+  La47  1  0.86697885  0.66303606  0.87625636  1
  La3+  La48  1  0.49972004  0.49859631  0.61206535  1
  La3+  La49  1  0.00011078  0.16608508  0.88429361  1
  La3+  La50  1  -0.00643775  0.83230833  0.38666860  1
  La3+  La51  1  0.00000801  0.49968443  0.36390251  1
  La3+  La52  1  0.00039338  0.83658776  0.36721327  1
  La3+  La53  1  -0.00157854  0.83411836  0.63409149  1
  La3+  La54  1  0.50297588  0.50075407  0.63386923  1
  La3+  La55  1  0.50033982  0.83401450  0.36319478  1
  La3+  La56  1  0.49598402  0.50319640  0.37957191  1
  La3+  La57  1  0.50173520  0.49970644  0.87000152  1
  La3+  La58  1  0.00004404  0.49764252  0.38644612  1
  La3+  La59  1  -0.00147464  0.49839629  0.11524499  1
  La3+  La60  1  0.00241784  0.16174282  0.61816649  1
  La3+  La61  1  0.49985802  0.16539717  0.36635031  1
  La3+  La62  1  -0.00091612  0.50093264  0.88788186  1
  La3+  La63  1  0.00525521  0.16777457  0.37483419  1
  La3+  La64  1  -0.00398639  0.16464812  0.63769590  1
  La3+  La65  1  -0.00033342  0.50052847  0.61868483  1
  La3+  La66  1  0.50092635  0.83566697  0.61589452  1
  La3+  La67  1  -0.00043253  0.83348760  0.12757981  1
  La3+  La68  1  0.49912879  0.83172274  0.11411540  1
  La3+  La69  1  0.00141354  0.16972819  0.12159537  1
  La3+  La70  1  0.50454335  0.16537473  0.88343032  1
  La3+  La71  1  0.50208344  0.50255029  0.11614361  1
  La3+  La72  1  0.74980210  0.86263603  0.49790567  1
  La3+  La73  1  0.74997546  0.12750167  0.74975006  1
  La3+  La74  1  0.25032001  0.87425439  0.72752997  1
  La3+  La75  1  0.24978638  0.16441190  0.75343739  1
  La3+  La76  1  0.74950079  0.16821069  0.26404141  1
  La3+  La77  1  0.25038487  0.53324246  0.50354466  1
  La3+  La78  1  0.75006359  0.46242765  0.23214958  1
  La3+  La79  1  0.24989023  0.82677900  0.04265025  1
  La3+  La80  1  0.75022112  0.83735876  0.00688356  1
  La3+  La81  1  0.75014560  0.83328291  0.72976291  1
  La3+  La82  1  0.25037983  0.79908706  0.28504683  1
  La3+  La83  1  0.74966290  0.44408813  0.00562648  1
  Ru4+  Ru84  1  0.00116651  -0.00258275  -0.00026812  1
  Ru4+  Ru85  1  -0.00086667  0.00064299  0.24946714  1
  Ru4+  Ru86  1  -0.00321146  0.00597556  0.49878003  1
  Ru4+  Ru87  1  0.00078159  -0.00244046  0.75016095  1
  Ru4+  Ru88  1  0.00028619  0.33471440  0.00058511  1
  Ru4+  Ru89  1  0.00401598  0.33952535  0.24872566  1
  Ru4+  Ru90  1  -0.00371050  0.32921979  0.50235895  1
  Ru4+  Ru91  1  -0.00194363  0.34066029  0.75159502  1
  Ru4+  Ru92  1  -0.00099334  0.66937417  -0.00240513  1
  Ru4+  Ru93  1  0.00020135  0.66173905  0.24657995  1
  Ru4+  Ru94  1  0.00165309  0.66190499  0.50095343  1
  Ru4+  Ru95  1  -0.00390650  0.66422898  0.75128129  1
  Ru4+  Ru96  1  0.49842866  0.00273691  -0.00027622  1
  Ru4+  Ru97  1  0.49833599  0.00088599  0.25240368  1
  Ru4+  Ru98  1  0.49643852  -0.00061887  0.49358451  1
  Ru4+  Ru99  1  0.50283482  -0.00499158  0.75130471  1
  Ru4+  Ru100  1  0.50351794  0.33531289  -0.00232849  1
  Ru4+  Ru101  1  0.49902822  0.33164451  0.25231126  1
  Ru4+  Ru102  1  0.49645981  0.32594598  0.49330962  1
  Ru4+  Ru103  1  0.50217956  0.33076917  0.75187662  1
  Ru4+  Ru104  1  0.49558536  0.67156448  -0.00334549  1
  Ru4+  Ru105  1  0.49366374  0.66673816  0.25182068  1
  Ru4+  Ru106  1  0.50013803  0.66578560  0.50141163  1
  Ru4+  Ru107  1  0.50112247  0.66815660  0.75162361  1
  Ru4+  Ru108  1  0.11498353  0.16794158  0.00000660  1
  Ru4+  Ru109  1  0.11432706  0.16516825  0.25070220  1
  Ru4+  Ru110  1  0.11329867  0.16495633  0.49923065  1
  Ru4+  Ru111  1  0.11408913  0.16173702  0.75086015  1
  Ru4+  Ru112  1  0.11504732  0.49840785  -0.00004086  1
  Ru4+  Ru113  1  0.11316447  0.49803459  0.24983036  1
  Ru4+  Ru114  1  0.11551429  0.50525916  0.50008707  1
  Ru4+  Ru115  1  0.11484917  0.50034883  0.75010574  1
  Ru4+  Ru116  1  0.11087198  0.83207836  -0.00014440  1
  Ru4+  Ru117  1  0.11342356  0.83226678  0.24900184  1
  Ru4+  Ru118  1  0.11702206  0.82902616  0.50028506  1
  Ru4+  Ru119  1  0.11325506  0.83851701  0.74941880  1
  Ru4+  Ru120  1  0.61204480  0.16586549  0.00122505  1
  Ru4+  Ru121  1  0.61061802  0.16638914  0.25056049  1
  Ru4+  Ru122  1  0.61290514  0.16996439  0.50119789  1
  Ru4+  Ru123  1  0.61083740  0.16805007  0.74897584  1
  Ru4+  Ru124  1  0.61312896  0.49639329  -0.00053695  1
  Ru4+  Ru125  1  0.61330985  0.49469557  0.24998124  1
  Ru4+  Ru126  1  0.61418855  0.50193632  0.50051405  1
  Ru4+  Ru127  1  0.61264501  0.50168529  0.74913061  1
  Ru4+  Ru128  1  0.60989919  0.83428265  0.00039993  1
  Ru4+  Ru129  1  0.61640543  0.83683710  0.25093375  1
  Ru4+  Ru130  1  0.61117151  0.83287354  0.49961073  1
  Ru4+  Ru131  1  0.61172538  0.83311579  0.75039553  1
  Ru4+  Ru132  1  0.38457365  0.16409473  0.00078223  1
  Ru4+  Ru133  1  0.38668335  0.16372977  0.24886248  1
  Ru4+  Ru134  1  0.38966518  0.16691362  0.50061093  1
  Ru4+  Ru135  1  0.38674306  0.16975490  0.74858320  1
  Ru4+  Ru136  1  0.38475598  0.49948930  0.00005178  1
  Ru4+  Ru137  1  0.38547341  0.49872480  0.24975668  1
  Ru4+  Ru138  1  0.38905284  0.50052278  0.50003984  1
  Ru4+  Ru139  1  0.38419920  0.49998723  0.75009615  1
  Ru4+  Ru140  1  0.38928504  0.83385046  -0.00097399  1
  Ru4+  Ru141  1  0.38898558  0.83324541  0.25082523  1
  Ru4+  Ru142  1  0.38675599  0.83251456  0.50065016  1
  Ru4+  Ru143  1  0.38885323  0.83406611  0.74927071  1
  Ru4+  Ru144  1  0.88564088  0.16632881  -0.00028759  1
  Ru4+  Ru145  1  0.88371956  0.16392387  0.24826585  1
  Ru4+  Ru146  1  0.88517123  0.16699599  0.49861619  1
  Ru4+  Ru147  1  0.88900725  0.16595741  0.75032663  1
  Ru4+  Ru148  1  0.88834474  0.49916402  0.00161318  1
  Ru4+  Ru149  1  0.88904418  0.50005190  0.24903388  1
  Ru4+  Ru150  1  0.88526811  0.50152694  0.50011491  1
  Ru4+  Ru151  1  0.88700685  0.50220225  0.75107191  1
  Ru4+  Ru152  1  0.89059581  0.83277168  -0.00020802  1
  Ru4+  Ru153  1  0.88426274  0.83416948  0.24861695  1
  Ru4+  Ru154  1  0.88505929  0.83875903  0.50189689  1
  Ru4+  Ru155  1  0.88772549  0.83347641  0.75103526  1
  Ru4+  Ru156  1  0.25000949  0.24524114  0.23919168  1
  Ru4+  Ru157  1  0.25023687  0.39399688  0.50808847  1
  Ru4+  Ru158  1  0.25044599  0.91359063  0.50163799  1
  Ru4+  Ru159  1  0.25026674  0.94164573  0.25247499  1
  Ru4+  Ru160  1  0.25024430  0.72321128  0.74379375  1
  Ru4+  Ru161  1  0.75001548  0.27569187  0.75064210  1
  Ru4+  Ru162  1  0.75000548  0.24924102  -0.00849608  1
  Ru4+  Ru163  1  0.74989750  0.71252697  -0.00225269  1
  Ru4+  Ru164  1  0.74993129  0.72349500  0.50067875  1
  Ru4+  Ru165  1  0.74950011  0.04048104  0.26986313  1
  Ru4+  Ru166  1  0.24988723  0.24970406  0.50081024  1
  Ru4+  Ru167  1  0.25030721  0.08148139  0.49838930  1
  Ru4+  Ru168  1  0.74991550  0.41953082  0.50990583  1
  Ru4+  Ru169  1  0.25005633  0.03688843  0.72628821  1
  Ru4+  Ru170  1  0.74986537  0.41626053  0.74284200  1
  Ru4+  Ru171  1  0.75032182  0.60607699  0.25004618  1
  Ru4+  Ru172  1  0.74914355  0.29404590  0.24890290  1
  Ru4+  Ru173  1  0.74940375  0.58380162  -0.00122653  1
  Ru4+  Ru174  1  0.25018221  0.95780830  0.01606224  1
  Ru4+  Ru175  1  0.75000658  0.96144271  -0.01121952  1
  Ru4+  Ru176  1  0.24999422  0.70940663  -0.02284876  1
  Ru4+  Ru177  1  0.74961660  0.08728357  0.50386429  1
  Ru4+  Ru178  1  0.25004041  0.29283188  0.74416789  1
  Ru4+  Ru179  1  0.24995659  0.57539055  0.25295132  1
  O2-  O180  1  0.16617546  0.08104270  0.00005523  1
  O2-  O181  1  0.16667060  0.08135749  0.24996785  1
  O2-  O182  1  0.16688503  0.08035605  0.49913156  1
  O2-  O183  1  0.16633642  0.07804609  0.75004824  1
  O2-  O184  1  0.16721132  0.41567106  0.00064396  1
  O2-  O185  1  0.16545666  0.41468202  0.25062215  1
  O2-  O186  1  0.16645314  0.41333458  0.50057261  1
  O2-  O187  1  0.16548125  0.41437887  0.74967685  1
  O2-  O188  1  0.16755819  0.74521085  -0.00031947  1
  O2-  O189  1  0.16551160  0.74678361  0.24896529  1
  O2-  O190  1  0.16657048  0.74891786  0.49869358  1
  O2-  O191  1  0.16759173  0.74630106  0.75130123  1
  O2-  O192  1  0.66527418  0.08122209  0.00026563  1
  O2-  O193  1  0.66564223  0.07802064  0.25004988  1
  O2-  O194  1  0.66928811  0.08220829  0.49841230  1
  O2-  O195  1  0.66374528  0.07781845  0.75125071  1
  O2-  O196  1  0.66303503  0.41226907  0.00047155  1
  O2-  O197  1  0.66631400  0.41276990  0.25136541  1
  O2-  O198  1  0.66816441  0.41337279  0.49797173  1
  O2-  O199  1  0.66785514  0.41337467  0.74993295  1
  O2-  O200  1  0.66485504  0.74542079  0.00031882  1
  O2-  O201  1  0.66693081  0.74821023  0.24917510  1
  O2-  O202  1  0.66771906  0.74667746  0.50017069  1
  O2-  O203  1  0.66835429  0.74699487  0.74862465  1
  O2-  O204  1  0.33230790  0.25069518  0.00078589  1
  O2-  O205  1  0.33366891  0.25274707  0.25086345  1
  O2-  O206  1  0.33293349  0.25260236  0.50042785  1
  O2-  O207  1  0.33431170  0.25427890  0.75041130  1
  O2-  O208  1  0.33393687  0.58583533  -0.00152960  1
  O2-  O209  1  0.33180689  0.58547846  0.24946784  1
  O2-  O210  1  0.33531822  0.58675151  0.49969358  1
  O2-  O211  1  0.33410581  0.58628071  0.75103660  1
  O2-  O212  1  0.33299806  0.92058403  -0.00028278  1
  O2-  O213  1  0.33173702  0.92018303  0.25032641  1
  O2-  O214  1  0.33080889  0.91800909  0.49959060  1
  O2-  O215  1  0.33599716  0.92167483  0.75095298  1
  O2-  O216  1  0.83345952  0.25266108  -0.00018046  1
  O2-  O217  1  0.83334064  0.25412495  0.25067899  1
  O2-  O218  1  0.83409167  0.25194079  0.50004847  1
  O2-  O219  1  0.83275069  0.25513798  0.74997549  1
  O2-  O220  1  0.83327328  0.58660880  -0.00090999  1
  O2-  O221  1  0.83324341  0.58740283  0.24866708  1
  O2-  O222  1  0.83279265  0.58576972  0.50044175  1
  O2-  O223  1  0.83408313  0.58574507  0.75010883  1
  O2-  O224  1  0.83476511  0.92015674  0.00079833  1
  O2-  O225  1  0.83154853  0.91841005  0.25028502  1
  O2-  O226  1  0.83221832  0.92012765  0.49822023  1
  O2-  O227  1  0.83165754  0.91923515  0.74844560  1
  O2-  O228  1  0.16770018  0.25096958  0.00024522  1
  O2-  O229  1  0.16758988  0.25254190  0.25037048  1
  O2-  O230  1  0.16754245  0.25324335  0.50039090  1
  O2-  O231  1  0.16580360  0.25480629  0.74971359  1
  O2-  O232  1  0.16602593  0.58616618  -0.00089372  1
  O2-  O233  1  0.16696326  0.58680051  0.24911132  1
  O2-  O234  1  0.16668760  0.58732779  0.49850207  1
  O2-  O235  1  0.16531573  0.58557474  0.75120641  1
  O2-  O236  1  0.16586689  0.92116445  0.00072744  1
  O2-  O237  1  0.16684872  0.92041526  0.25028647  1
  O2-  O238  1  0.16806570  0.91861383  0.49991325  1
  O2-  O239  1  0.16515946  0.92078424  0.75150789  1
  O2-  O240  1  0.66828115  0.25193496  -0.00035730  1
  O2-  O241  1  0.66506277  0.25455989  0.25013021  1
  O2-  O242  1  0.66600216  0.25070170  0.49826147  1
  O2-  O243  1  0.66867652  0.25359574  0.75117784  1
  O2-  O244  1  0.66592204  0.58604046  0.00016797  1
  O2-  O245  1  0.66665498  0.58634373  0.24894238  1
  O2-  O246  1  0.66547261  0.58605833  0.50038094  1
  O2-  O247  1  0.66622259  0.58637919  0.74929634  1
  O2-  O248  1  0.66504227  0.92086544  0.00031087  1
  O2-  O249  1  0.66786762  0.91848041  0.25026915  1
  O2-  O250  1  0.66664238  0.92013981  0.49870919  1
  O2-  O251  1  0.66855601  0.91931663  0.75039992  1
  O2-  O252  1  0.33211704  0.08158269  -0.00065772  1
  O2-  O253  1  0.33316236  0.08224744  0.25068874  1
  O2-  O254  1  0.33190312  0.08119172  0.49998343  1
  O2-  O255  1  0.33227194  0.07834199  0.75080156  1
  O2-  O256  1  0.33399366  0.41521893  0.00020247  1
  O2-  O257  1  0.33517560  0.41559191  0.25053503  1
  O2-  O258  1  0.33206635  0.41240424  0.50079530  1
  O2-  O259  1  0.33423892  0.41439611  0.74980264  1
  O2-  O260  1  0.33273336  0.74559300  -0.00098800  1
  O2-  O261  1  0.33489324  0.74705585  0.24877058  1
  O2-  O262  1  0.33446781  0.74942089  0.49958209  1
  O2-  O263  1  0.33246244  0.74586520  0.75036041  1
  O2-  O264  1  0.83279290  0.08197741  0.00117651  1
  O2-  O265  1  0.83294250  0.07798768  0.25125403  1
  O2-  O266  1  0.83086674  0.08140582  0.49972622  1
  O2-  O267  1  0.83598676  0.07732704  0.74979542  1
  O2-  O268  1  0.83643212  0.41236076  -0.00123768  1
  O2-  O269  1  0.83419790  0.41205781  0.25002184  1
  O2-  O270  1  0.83265416  0.41361821  0.49985101  1
  O2-  O271  1  0.83270967  0.41300776  0.74969675  1
  O2-  O272  1  0.83536456  0.74505389  0.00019631  1
  O2-  O273  1  0.83350046  0.74788315  0.24870590  1
  O2-  O274  1  0.83230456  0.74697748  0.49938650  1
  O2-  O275  1  0.83133638  0.74691558  0.74964712  1
  O2-  O276  1  0.54934852  0.42628496  0.45917362  1
  O2-  O277  1  0.95090632  0.76642939  0.51718874  1
  O2-  O278  1  0.04790959  0.56939611  0.01487732  1
  O2-  O279  1  0.45477406  0.57002588  0.76153267  1
  O2-  O280  1  0.44837021  0.56961092  0.21129020  1
  O2-  O281  1  0.54580834  0.09709688  0.01393574  1
  O2-  O282  1  0.04899651  0.09810874  0.01383877  1
  O2-  O283  1  0.04616461  0.90418942  0.23454376  1
  O2-  O284  1  0.04895640  0.76078615  0.26246979  1
  O2-  O285  1  0.04740280  0.90437602  0.48142966  1
  O2-  O286  1  0.04431726  0.43689429  0.73720774  1
  O2-  O287  1  0.95521538  0.76635412  0.98790459  1
  O2-  O288  1  0.53433522  0.10973806  0.50731194  1
  O2-  O289  1  0.95723278  0.11283741  0.03021446  1
  O2-  O290  1  0.45142887  0.23327925  0.51395060  1
  O2-  O291  1  0.04479082  0.23017905  0.77092573  1
  O2-  O292  1  0.95900663  0.22960201  0.25683495  1
  O2-  O293  1  0.46178929  0.22313383  1.00226593  1
  O2-  O294  1  0.46523131  0.11073899  0.76294928  1
  O2-  O295  1  0.04843104  0.76334932  0.73025021  1
  O2-  O296  1  0.54906245  0.56908970  0.98381539  1
  O2-  O297  1  0.54882095  0.43006945  0.01156996  1
  O2-  O298  1  0.04871265  0.76148817  0.48847524  1
  O2-  O299  1  0.04858058  0.23514579  0.51021107  1
  O2-  O300  1  0.95255482  0.57443426  0.98538935  1
  O2-  O301  1  0.45442315  0.23404108  0.26207030  1
  O2-  O302  1  0.54793013  0.76250352  0.48419252  1
  O2-  O303  1  0.04738694  0.23498539  0.73212821  1
  O2-  O304  1  0.54937703  0.23858609  0.51209871  1
  O2-  O305  1  0.45492427  0.42985390  0.73810961  1
  O2-  O306  1  0.45130604  0.43213151  0.01103762  1
  O2-  O307  1  0.45887382  0.22601133  0.02110464  1
  O2-  O308  1  0.54824971  0.42569117  0.29223246  1
  O2-  O309  1  0.95203101  0.76493865  0.23353693  1
  O2-  O310  1  0.95907772  0.22966641  0.25651144  1
  O2-  O311  1  0.46107029  0.10583073  0.75495804  1
  O2-  O312  1  0.04686625  0.43095602  0.51225376  1
  O2-  O313  1  0.04382933  0.76461377  0.76893840  1
  O2-  O314  1  0.54643505  0.76762399  0.01277381  1
  O2-  O315  1  0.95159618  0.23549157  0.51209602  1
  O2-  O316  1  0.04563077  0.90156198  0.52039105  1
  O2-  O317  1  0.54523130  0.90292465  0.48518383  1
  O2-  O318  1  0.45164161  0.76442924  0.51516980  1
  O2-  O319  1  0.95485124  0.56121061  0.01001776  1
  O2-  O320  1  0.95967979  0.10296586  0.27780714  1
  O2-  O321  1  0.55015378  0.56432450  0.23218497  1
  O2-  O322  1  0.54419974  0.57182132  0.26933263  1
  O2-  O323  1  0.54589279  0.76353508  0.23472181  1
  O2-  O324  1  0.06404278  0.59625524  0.56444872  1
  O2-  O325  1  0.06395110  0.40865745  0.97228035  1
  O2-  O326  1  0.56347371  0.93074978  0.28264635  1
  O2-  O327  1  0.92214536  0.27405189  0.20453864  1
  O2-  O328  1  0.57512112  0.40157189  0.17977046  1
  O2-  O329  1  0.56326445  0.73943898  0.22415344  1
  O2-  O330  1  0.93522527  0.40630076  0.02581161  1
  O2-  O331  1  0.56181231  0.59722101  0.96889276  1
  O2-  O332  1  0.93665287  0.93140234  0.78120583  1
  O2-  O333  1  0.06421596  0.73399594  0.96840605  1
  O2-  O334  1  0.56570194  0.25972323  0.72491535  1
  O2-  O335  1  0.93521150  0.07438650  0.47245079  1
  O2-  O336  1  0.06427103  0.40840736  0.52667764  1
  O2-  O337  1  0.43380366  0.07418320  0.47133899  1
  O2-  O338  1  0.06589660  0.26102358  0.27632781  1
  O2-  O339  1  0.44482114  0.58008410  0.20538000  1
  O2-  O340  1  0.43068280  0.61177612  0.32754228  1
  O2-  O341  1  0.92945951  0.05486444  0.94583602  1
  O2-  O342  1  0.06372504  0.06915253  0.28254727  1
  O2-  O343  1  0.93429864  0.74014550  0.72219694  1
  O2-  O344  1  0.43467844  0.92667832  0.47169090  1
  O2-  O345  1  0.57640902  0.05810846  0.53310569  1
  O2-  O346  1  0.93419656  0.92722919  0.27759343  1
  O2-  O347  1  0.93579350  0.59225983  0.47155173  1
  O2-  O348  1  0.93559266  0.40761653  0.27834073  1
  O2-  O349  1  0.56493116  0.92683781  0.72406064  1
  O2-  O350  1  0.93599456  0.92875100  0.53519531  1
  O2-  O351  1  0.41981305  0.05270359  0.70580174  1
  O2-  O352  1  0.42321909  0.28591620  0.94594740  1
  O2-  O353  1  0.93660395  0.73785786  0.52615279  1
  O2-  O354  1  0.57679334  0.40265123  0.57150543  1
  O2-  O355  1  0.06541005  0.92766007  0.72178166  1
  O2-  O356  1  0.55458886  0.41772160  0.29783557  1
  O2-  O357  1  0.43554124  0.06818087  0.03218421  1
  O2-  O358  1  0.43706226  0.92848418  0.96766610  1
  O2-  O359  1  0.93261905  0.60114393  0.03497290  1
  O2-  O360  1  0.93449575  0.40711881  0.47283911  1
  O2-  O361  1  0.43440417  0.40645908  0.47291512  1
  O2-  O362  1  0.43722382  0.06946839  0.21760548  1
  O2-  O363  1  0.92721950  0.06530960  0.20504364  1
  O2-  O364  1  0.06399933  0.26444401  0.06006380  1
  O2-  O365  1  0.06552751  0.25731521  0.94502333  1
  O2-  O366  1  0.43481521  0.92438596  0.27671740  1
  O2-  O367  1  0.55488949  0.41848933  0.45407112  1
  O2-  O368  1  0.06322179  0.59794177  0.43497064  1
  O2-  O369  1  0.56319609  0.73542070  0.78053553  1
  O2-  O370  1  0.56713665  0.26120149  0.97001165  1
  O2-  O371  1  0.43387993  0.74077693  0.02787684  1
  O2-  O372  1  0.24994418  0.66965371  0.17561941  1
  O2-  O373  1  0.25001361  0.66637016  0.60082824  1
  O2-  O374  1  0.75007334  0.02003909  0.08905006  1
  O2-  O375  1  0.25009199  -0.00054286  0.59510830  1
  O2-  O376  1  0.25006503  0.33056295  0.15991239  1
  O2-  O377  1  0.75015359  -0.00015388  0.59244515  1
  O2-  O378  1  0.74974610  0.00932268  0.88731842  1
  O2-  O379  1  0.25004974  0.65772471  0.08407515  1
  O2-  O380  1  0.75028677  0.33500870  0.59570935  1
  O2-  O381  1  0.25021830  -0.01687702  0.83469414  1
  O2-  O382  1  0.25004058  0.34100194  0.63944013  1
  O2-  O383  1  0.75007696  0.66496230  0.11011994  1
  O2-  O384  1  0.24982740  0.33065303  0.40125570  1
  O2-  O385  1  0.75026471  0.33373431  0.90541970  1
  O2-  O386  1  0.74976582  0.66941005  0.34786267  1
  O2-  O387  1  0.75004146  0.66410515  0.88949031  1
  O2-  O388  1  0.75004075  -0.01728484  0.16807495  1
  O2-  O389  1  0.24970670  0.00130212  0.15118659  1
  O2-  O390  1  0.24983097  0.66537049  0.34243659  1
  O2-  O391  1  0.24988176  0.01890145  0.91525572  1
  O2-  O392  1  0.25017121  0.33103506  0.92686612  1
  O2-  O393  1  0.75003521  0.33950712  0.14228347  1
  O2-  O394  1  0.74998062  0.33857768  0.35466116  1
  O2-  O395  1  0.25022014  0.34903246  0.84229185  1
  O2-  O396  1  0.24991357  0.83901456  0.16388677  1
  O2-  O397  1  0.75007675  0.50530655  0.80778053  1
  O2-  O398  1  0.24995327  0.17102514  0.16422142  1
  O2-  O399  1  0.75000271  0.50514018  0.43380505  1
  O2-  O400  1  0.24997956  0.16713485  0.59240620  1
  O2-  O401  1  0.74999882  0.49577222  0.58935329  1
  O2-  O402  1  0.24988380  0.16666277  0.42002316  1
  O2-  O403  1  0.75004828  0.17631986  0.87824988  1
  O2-  O404  1  0.24998639  0.81865691  0.83961860  1
  O2-  O405  1  0.24998908  0.82766356  0.60911019  1
  O2-  O406  1  0.24988527  0.16500593  0.33139323  1
  O2-  O407  1  0.75009553  0.51808395  0.11488526  1
  O2-  O408  1  0.74994399  0.83359974  0.86215058  1
  O2-  O409  1  0.25003258  0.83449421  0.91898123  1
  O2-  O410  1  0.75015501  0.16275436  0.39203953  1
  O2-  O411  1  0.75029540  0.16670738  0.13891737  1
  O2-  O412  1  0.74992283  0.51037312  0.89570260  1
  O2-  O413  1  0.25002015  0.50077671  0.84012448  1
  O2-  O414  1  0.24999779  0.49810374  0.65182855  1
  O2-  O415  1  0.75001780  0.17075581  0.62166111  1
  O2-  O416  1  0.25004681  0.50259856  0.33877119  1
  O2-  O417  1  0.74996029  0.50542039  0.34831326  1
  O2-  O418  1  0.25004636  0.50181308  0.09606519  1
  O2-  O419  1  0.74990132  0.16166749  0.05641887  1
  O2-  O420  1  0.52656178  0.32449676  0.12010545  1
  O2-  O421  1  0.97683234  -0.00134098  0.37614580  1
  O2-  O422  1  0.52477752  0.33718233  0.87091234  1
  O2-  O423  1  0.97720779  0.33469458  0.12443794  1
  O2-  O424  1  0.97216421  0.66418731  0.87048491  1
  O2-  O425  1  0.47152188  0.66717823  0.87794420  1
  O2-  O426  1  0.47871989  0.00508715  0.37288162  1
  O2-  O427  1  0.96582333  0.32704815  0.37796477  1
  O2-  O428  1  0.03695008  0.33845825  0.37784581  1
  O2-  O429  1  0.47194293  0.67013224  0.12086872  1
  O2-  O430  1  0.97327404  0.66979528  0.37170718  1
  O2-  O431  1  0.53164403  0.66281279  0.11822532  1
  O2-  O432  1  0.46893854  0.33591855  0.12978251  1
  O2-  O433  1  0.47357402  0.33017148  0.37110814  1
  O2-  O434  1  0.02104897  0.33690680  0.86748226  1
  O2-  O435  1  0.46598808  0.33450210  0.62667119  1
  O2-  O436  1  0.97552889  -0.00769679  0.12006765  1
  O2-  O437  1  0.02808259  0.00108203  0.87527682  1
  O2-  O438  1  0.52554242  0.33144883  0.63075460  1
  O2-  O439  1  0.02492660  0.00701393  0.62211697  1
  O2-  O440  1  0.47002214  -0.00520965  0.61756079  1
  O2-  O441  1  0.52750491  -0.00054319  0.62617100  1
  O2-  O442  1  0.02388003  0.33044756  0.62757812  1
  O2-  O443  1  0.97601882  0.65798986  0.62713951  1
