# generated using pymatgen
data_La7(Ru4O11)2
_symmetry_space_group_name_H-M   'P 1'
_cell_length_a   23.99012484
_cell_length_b   16.82990469
_cell_length_c   15.42670664
_cell_angle_alpha   90.00000816
_cell_angle_beta   89.99920214
_cell_angle_gamma   90.00035407
_symmetry_Int_Tables_number   1
_chemical_formula_structural   La7(Ru4O11)2
_chemical_formula_sum   'La84 Ru96 O264'
_cell_volume   6228.55617157
_cell_formula_units_Z   12
loop_
 _symmetry_equiv_pos_site_id
 _symmetry_equiv_pos_as_xyz
  1  'x, y, z'
loop_
 _atom_type_symbol
 _atom_type_oxidation_number
  La3+  3.0
  Ru4+  4.0
  O2-  -2.0
loop_
 _atom_site_type_symbol
 _atom_site_label
 _atom_site_symmetry_multiplicity
 _atom_site_fract_x
 _atom_site_fract_y
 _atom_site_fract_z
 _atom_site_occupancy
  La3+  La0  1  0.14264573  0.00139400  0.12430872  1
  La3+  La1  1  0.14242926  -0.00057769  0.37091946  1
  La3+  La2  1  0.13947829  -0.00115645  0.62403720  1
  La3+  La3  1  0.14213909  0.00044645  0.87868754  1
  La3+  La4  1  0.14160361  0.33187990  0.12513620  1
  La3+  La5  1  0.13814009  0.33429334  0.37565091  1
  La3+  La6  1  0.14212085  0.33572713  0.62728520  1
  La3+  La7  1  0.13756927  0.33364027  0.87500175  1
  La3+  La8  1  0.14075467  0.66710694  0.12818812  1
  La3+  La9  1  0.14297358  0.66518442  0.37533789  1
  La3+  La10  1  0.13915272  0.66675291  0.62306569  1
  La3+  La11  1  0.13670919  0.66644066  0.87574824  1
  La3+  La12  1  0.64254675  0.00152700  0.12800927  1
  La3+  La13  1  0.63782793  -0.00249391  0.37612925  1
  La3+  La14  1  0.63657446  -0.00401558  0.62525786  1
  La3+  La15  1  0.63803933  -0.00147426  0.87386081  1
  La3+  La16  1  0.64144739  0.33569450  0.12590029  1
  La3+  La17  1  0.63968526  0.33565012  0.37128945  1
  La3+  La18  1  0.63594881  0.33382674  0.62790915  1
  La3+  La19  1  0.63638222  0.33481636  0.87334118  1
  La3+  La20  1  0.63982581  0.66882578  0.12223594  1
  La3+  La21  1  0.63900956  0.66977325  0.37636028  1
  La3+  La22  1  0.63990712  0.66973487  0.62306783  1
  La3+  La23  1  0.63695032  0.66799845  0.87930244  1
  La3+  La24  1  0.35684210  0.00071396  0.12501069  1
  La3+  La25  1  0.35649615  -0.00010238  0.36999197  1
  La3+  La26  1  0.36020182  -0.00289296  0.62367703  1
  La3+  La27  1  0.35971503  0.00053895  0.87828566  1
  La3+  La28  1  0.36070217  0.33139644  0.12307609  1
  La3+  La29  1  0.36094395  0.33554725  0.37447711  1
  La3+  La30  1  0.35593672  0.33491099  0.62785604  1
  La3+  La31  1  0.36122159  0.33458467  0.87621084  1
  La3+  La32  1  0.35821228  0.66511640  0.12737296  1
  La3+  La33  1  0.35840831  0.66518656  0.37536041  1
  La3+  La34  1  0.36209891  0.66538381  0.62419533  1
  La3+  La35  1  0.36438101  0.66603333  0.87683192  1
  La3+  La36  1  0.86207946  -0.00151268  0.12762962  1
  La3+  La37  1  0.86490136  -0.00226578  0.37650711  1
  La3+  La38  1  0.86549052  -0.00195272  0.62328798  1
  La3+  La39  1  0.86231615  -0.00128302  0.87353489  1
  La3+  La40  1  0.85784392  0.33358969  0.12613385  1
  La3+  La41  1  0.86103277  0.33455472  0.36989202  1
  La3+  La42  1  0.86208019  0.33426239  0.62809880  1
  La3+  La43  1  0.85953744  0.33588328  0.87337700  1
  La3+  La44  1  0.85938442  0.66869253  0.12348721  1
  La3+  La45  1  0.86024297  0.66971888  0.37626442  1
  La3+  La46  1  0.86304586  0.67051799  0.62555485  1
  La3+  La47  1  0.86243200  0.66747364  0.87613241  1
  La3+  La48  1  0.49983673  0.50051026  0.63797876  1
  La3+  La49  1  0.50091587  0.16622759  0.38540845  1
  La3+  La50  1  0.00077545  0.83112963  0.61799567  1
  La3+  La51  1  0.50161501  0.50014628  0.37045146  1
  La3+  La52  1  0.00176489  0.50407629  0.11574996  1
  La3+  La53  1  -0.00384844  0.16299472  0.88413155  1
  La3+  La54  1  0.49839749  0.17074272  0.11627762  1
  La3+  La55  1  0.50190214  0.16672304  0.62028138  1
  La3+  La56  1  0.00054405  0.16513815  0.63397342  1
  La3+  La57  1  0.00047694  0.50377787  0.38639819  1
  La3+  La58  1  0.50346073  0.82985799  0.62702010  1
  La3+  La59  1  0.00046383  0.49975837  0.61751996  1
  La3+  La60  1  0.49986347  0.16933386  0.88313214  1
  La3+  La61  1  -0.00404469  0.83738675  0.12795536  1
  La3+  La62  1  -0.00000395  0.83176947  0.86427369  1
  La3+  La63  1  -0.00277355  0.50444960  0.86547597  1
  La3+  La64  1  0.00007682  0.82764866  0.38487799  1
  La3+  La65  1  0.49997619  0.83076856  0.13743048  1
  La3+  La66  1  0.50022512  0.83254126  0.37034393  1
  La3+  La67  1  0.49520229  0.49708166  0.12424250  1
  La3+  La68  1  0.00180031  0.16883346  0.13287391  1
  La3+  La69  1  -0.00004253  0.16590507  0.38331634  1
  La3+  La70  1  0.00162468  0.49859458  0.13761855  1
  La3+  La71  1  0.49830142  0.16946240  0.36436116  1
  La3+  La72  1  0.25012603  0.86890278  0.77416594  1
  La3+  La73  1  0.75014872  0.17498865  0.03654149  1
  La3+  La74  1  0.24986411  0.50141116  0.23096052  1
  La3+  La75  1  0.74982828  0.22934590  0.74239612  1
  La3+  La76  1  0.25011612  0.50082156  0.50261989  1
  La3+  La77  1  0.75018219  0.46812581  0.53620187  1
  La3+  La78  1  0.25013556  0.19995072  0.49664741  1
  La3+  La79  1  0.25026445  0.83505223  0.22971332  1
  La3+  La80  1  0.74971778  0.79984699  0.72233088  1
  La3+  La81  1  0.75002589  0.15081990  0.52123045  1
  La3+  La82  1  0.74971588  0.46310919  0.75831596  1
  La3+  La83  1  0.24953265  0.21058377  0.75101271  1
  Ru4+  Ru84  1  0.00150555  -0.00029198  0.00193415  1
  Ru4+  Ru85  1  0.00012759  0.00044306  0.25243126  1
  Ru4+  Ru86  1  0.00380142  0.00505401  0.49588031  1
  Ru4+  Ru87  1  -0.00094977  -0.00210078  0.75170744  1
  Ru4+  Ru88  1  -0.00393653  0.33607280  -0.00666930  1
  Ru4+  Ru89  1  0.00032518  0.33391527  0.25196306  1
  Ru4+  Ru90  1  -0.00066651  0.33285425  0.49987529  1
  Ru4+  Ru91  1  -0.00426154  0.32973886  0.74358629  1
  Ru4+  Ru92  1  -0.00016277  0.66771431  0.00018086  1
  Ru4+  Ru93  1  -0.00100078  0.66913484  0.25114072  1
  Ru4+  Ru94  1  -0.00017474  0.66468762  0.50198157  1
  Ru4+  Ru95  1  0.00123918  0.66510777  0.74862023  1
  Ru4+  Ru96  1  0.50486479  -0.01140353  -0.00516925  1
  Ru4+  Ru97  1  0.49955001  -0.00201588  0.25055639  1
  Ru4+  Ru98  1  0.49953514  -0.00186807  0.50123604  1
  Ru4+  Ru99  1  0.49573341  0.00306666  0.75277234  1
  Ru4+  Ru100  1  0.49880407  0.33619561  -0.00380891  1
  Ru4+  Ru101  1  0.49982300  0.33365104  0.24683813  1
  Ru4+  Ru102  1  0.49907689  0.33159643  0.50054447  1
  Ru4+  Ru103  1  0.49951221  0.34144259  0.75611576  1
  Ru4+  Ru104  1  0.50091623  0.66466579  -0.00298111  1
  Ru4+  Ru105  1  0.50208097  0.66757444  0.25396788  1
  Ru4+  Ru106  1  0.50019974  0.66717201  0.49757607  1
  Ru4+  Ru107  1  0.49785119  0.66344968  0.75072542  1
  Ru4+  Ru108  1  0.11596559  0.16667623  0.00029731  1
  Ru4+  Ru109  1  0.11356865  0.16500257  0.25025003  1
  Ru4+  Ru110  1  0.11123490  0.16742783  0.49978930  1
  Ru4+  Ru111  1  0.11208573  0.16705993  0.74880340  1
  Ru4+  Ru112  1  0.11426178  0.49962960  -0.00069478  1
  Ru4+  Ru113  1  0.11135780  0.50056753  0.25009267  1
  Ru4+  Ru114  1  0.11279942  0.50031258  0.49949351  1
  Ru4+  Ru115  1  0.11646946  0.50139240  0.75008334  1
  Ru4+  Ru116  1  0.11367088  0.83532465  0.00016075  1
  Ru4+  Ru117  1  0.11128753  0.83295093  0.25045314  1
  Ru4+  Ru118  1  0.11296561  0.83305822  0.50094067  1
  Ru4+  Ru119  1  0.11092711  0.83596233  0.74980968  1
  Ru4+  Ru120  1  0.61120908  0.16702482  0.00076095  1
  Ru4+  Ru121  1  0.61386800  0.17115304  0.25001497  1
  Ru4+  Ru122  1  0.61028033  0.16909362  0.49965841  1
  Ru4+  Ru123  1  0.61448983  0.16104118  0.74941286  1
  Ru4+  Ru124  1  0.61241849  0.49743202  -0.00128790  1
  Ru4+  Ru125  1  0.61459973  0.49777464  0.25164760  1
  Ru4+  Ru126  1  0.61069017  0.49748589  0.49870093  1
  Ru4+  Ru127  1  0.60870636  0.50005872  0.75126562  1
  Ru4+  Ru128  1  0.61027088  0.83391170  -0.00055536  1
  Ru4+  Ru129  1  0.61181279  0.83270975  0.25000829  1
  Ru4+  Ru130  1  0.61514059  0.83089148  0.49904726  1
  Ru4+  Ru131  1  0.61311403  0.82866260  0.74918773  1
  Ru4+  Ru132  1  0.38475447  0.16676890  -0.00003698  1
  Ru4+  Ru133  1  0.38578248  0.16632086  0.24921854  1
  Ru4+  Ru134  1  0.38882803  0.17015620  0.49968791  1
  Ru4+  Ru135  1  0.38942055  0.16686834  0.75069312  1
  Ru4+  Ru136  1  0.38824359  0.49940762  -0.00078036  1
  Ru4+  Ru137  1  0.38815510  0.49871808  0.25024430  1
  Ru4+  Ru138  1  0.38862198  0.50157209  0.49930575  1
  Ru4+  Ru139  1  0.38796835  0.49810315  0.75096117  1
  Ru4+  Ru140  1  0.38804447  0.83675351  0.00033210  1
  Ru4+  Ru141  1  0.38778922  0.83380505  0.24897545  1
  Ru4+  Ru142  1  0.38817365  0.83443259  0.49896915  1
  Ru4+  Ru143  1  0.39006591  0.83509591  0.75084432  1
  Ru4+  Ru144  1  0.88952796  0.16503399  -0.00010335  1
  Ru4+  Ru145  1  0.88670488  0.16740302  0.24970936  1
  Ru4+  Ru146  1  0.88950981  0.16440846  0.50035116  1
  Ru4+  Ru147  1  0.88740698  0.16861595  0.75023472  1
  Ru4+  Ru148  1  0.88510789  0.50048645  -0.00155692  1
  Ru4+  Ru149  1  0.88518574  0.49987933  0.25110750  1
  Ru4+  Ru150  1  0.88861019  0.49751254  0.50014655  1
  Ru4+  Ru151  1  0.88842667  0.49953235  0.75110515  1
  Ru4+  Ru152  1  0.88703665  0.83129677  -0.00024040  1
  Ru4+  Ru153  1  0.88780413  0.83248216  0.24855868  1
  Ru4+  Ru154  1  0.88251583  0.82856112  0.49876464  1
  Ru4+  Ru155  1  0.88527442  0.83635703  0.75232273  1
  Ru4+  Ru156  1  0.74981200  0.06543452  0.74557288  1
  Ru4+  Ru157  1  0.75008576  0.30167693  -0.01921525  1
  Ru4+  Ru158  1  0.24980142  0.75523295  0.49482796  1
  Ru4+  Ru159  1  0.24954021  0.24627658  0.24690415  1
  Ru4+  Ru160  1  0.75021568  0.59828710  0.48860570  1
  Ru4+  Ru161  1  0.25019627  0.05428520  0.48712993  1
  Ru4+  Ru162  1  0.25035729  0.42124099  -0.00208133  1
  Ru4+  Ru163  1  0.75006277  0.04055263  0.00894165  1
  Ru4+  Ru164  1  0.74986177  0.02192521  0.48861927  1
  Ru4+  Ru165  1  0.74969991  0.93293957  0.75201998  1
  Ru4+  Ru166  1  0.24988580  0.72595131  0.75249533  1
  Ru4+  Ru167  1  0.75004557  0.08245264  0.24739618  1
  Ru4+  Ru168  1  0.25056551  0.57936202  -0.00529324  1
  Ru4+  Ru169  1  0.74963734  0.58581468  0.24684138  1
  Ru4+  Ru170  1  0.25028030  0.57154430  0.75063237  1
  Ru4+  Ru171  1  0.74965896  0.57921879  -0.00131596  1
  Ru4+  Ru172  1  0.74973880  0.75000580  0.24923929  1
  Ru4+  Ru173  1  0.75001063  0.91507201  0.25140076  1
  Ru4+  Ru174  1  0.24995305  0.75402569  -0.00308053  1
  Ru4+  Ru175  1  0.24988834  0.06028400  0.76369545  1
  Ru4+  Ru176  1  0.24999680  0.90820455  0.49601698  1
  Ru4+  Ru177  1  0.75009034  0.60396626  0.76359643  1
  Ru4+  Ru178  1  0.74982632  0.27862180  0.48938132  1
  Ru4+  Ru179  1  0.74981209  0.90452538  -0.00522525  1
  O2-  O180  1  0.16447485  0.08224260  0.00003973  1
  O2-  O181  1  0.16455895  0.08295662  0.25116696  1
  O2-  O182  1  0.16755191  0.08005243  0.49883135  1
  O2-  O183  1  0.16961142  0.07921997  0.75041972  1
  O2-  O184  1  0.16700710  0.41485037  -0.00202172  1
  O2-  O185  1  0.16657922  0.41222981  0.25166795  1
  O2-  O186  1  0.16747281  0.41328958  0.49932633  1
  O2-  O187  1  0.16479475  0.41526053  0.75189232  1
  O2-  O188  1  0.16671539  0.74639614  -0.00052000  1
  O2-  O189  1  0.16760409  0.74977690  0.24911344  1
  O2-  O190  1  0.16929311  0.74797300  0.50129285  1
  O2-  O191  1  0.16672470  0.74501370  0.75113475  1
  O2-  O192  1  0.66598459  0.07898663  0.00022330  1
  O2-  O193  1  0.66716387  0.07966739  0.25176885  1
  O2-  O194  1  0.66650882  0.07612412  0.49991802  1
  O2-  O195  1  0.66659174  0.08035596  0.74747474  1
  O2-  O196  1  0.66663215  0.41597629  0.00131412  1
  O2-  O197  1  0.66669939  0.41613654  0.24785616  1
  O2-  O198  1  0.66614741  0.41324455  0.50067927  1
  O2-  O199  1  0.66394648  0.41311104  0.74861467  1
  O2-  O200  1  0.66637341  0.75067699  -0.00206202  1
  O2-  O201  1  0.66868840  0.74642921  0.24997802  1
  O2-  O202  1  0.66631800  0.74929127  0.50136843  1
  O2-  O203  1  0.66355097  0.74473198  0.75153036  1
  O2-  O204  1  0.33222865  0.25216699  -0.00155692  1
  O2-  O205  1  0.33196590  0.25288387  0.25269774  1
  O2-  O206  1  0.33497989  0.25578163  0.49858727  1
  O2-  O207  1  0.33662125  0.25408661  0.74847749  1
  O2-  O208  1  0.33214939  0.58545098  -0.00162342  1
  O2-  O209  1  0.33356679  0.58635928  0.25142516  1
  O2-  O210  1  0.33204078  0.58499671  0.50189446  1
  O2-  O211  1  0.33221956  0.58601005  0.75092958  1
  O2-  O212  1  0.33509488  0.91634869  0.00072898  1
  O2-  O213  1  0.33280880  0.91798540  0.24930843  1
  O2-  O214  1  0.33146632  0.91669016  0.49969341  1
  O2-  O215  1  0.33503422  0.92135962  0.74917417  1
  O2-  O216  1  0.83374093  0.25517563  -0.00181118  1
  O2-  O217  1  0.83496096  0.25114544  0.24953609  1
  O2-  O218  1  0.83467112  0.25561356  0.49983082  1
  O2-  O219  1  0.83791658  0.25516596  0.75147022  1
  O2-  O220  1  0.83116608  0.58572072  -0.00086243  1
  O2-  O221  1  0.83216414  0.58573126  0.24932055  1
  O2-  O222  1  0.83407433  0.58752838  0.50056793  1
  O2-  O223  1  0.83229675  0.58642381  0.74986741  1
  O2-  O224  1  0.83288101  0.91875984  0.00039226  1
  O2-  O225  1  0.83252539  0.91971651  0.25117330  1
  O2-  O226  1  0.83349851  0.92055299  0.49949101  1
  O2-  O227  1  0.83202346  0.92161907  0.75120453  1
  O2-  O228  1  0.16804225  0.25265733  -0.00320688  1
  O2-  O229  1  0.16849489  0.25269625  0.25254687  1
  O2-  O230  1  0.16597570  0.25484225  0.49918672  1
  O2-  O231  1  0.16091766  0.25512844  0.75176374  1
  O2-  O232  1  0.16689953  0.58624478  -0.00082645  1
  O2-  O233  1  0.16582501  0.58653435  0.25038684  1
  O2-  O234  1  0.16698362  0.58553684  0.50273452  1
  O2-  O235  1  0.16683480  0.58622449  0.75058202  1
  O2-  O236  1  0.16438706  0.91703975  0.00027613  1
  O2-  O237  1  0.16738282  0.91679402  0.25049683  1
  O2-  O238  1  0.16659489  0.91803816  0.49840751  1
  O2-  O239  1  0.16432406  0.92087552  0.75004190  1
  O2-  O240  1  0.66578431  0.25489812  -0.00085248  1
  O2-  O241  1  0.66494171  0.25144158  0.24805469  1
  O2-  O242  1  0.66585833  0.25519951  0.50044854  1
  O2-  O243  1  0.66125825  0.25417866  0.74936141  1
  O2-  O244  1  0.66784168  0.58489022  -0.00042913  1
  O2-  O245  1  0.66866086  0.58636521  0.24778216  1
  O2-  O246  1  0.66518752  0.58683316  0.50150640  1
  O2-  O247  1  0.66673664  0.58658662  0.75051028  1
  O2-  O248  1  0.66901655  0.91665738  -0.00023508  1
  O2-  O249  1  0.66602986  0.91929245  0.25220103  1
  O2-  O250  1  0.66529792  0.92099313  0.49934843  1
  O2-  O251  1  0.66660645  0.92102749  0.74875623  1
  O2-  O252  1  0.33638039  0.08238893  0.00030761  1
  O2-  O253  1  0.33484632  0.08280571  0.24971391  1
  O2-  O254  1  0.33266253  0.07910669  0.49932300  1
  O2-  O255  1  0.33173868  0.08068734  0.75026804  1
  O2-  O256  1  0.33240449  0.41554364  -0.00075797  1
  O2-  O257  1  0.33376875  0.41292376  0.25122592  1
  O2-  O258  1  0.33309800  0.41313833  0.49927142  1
  O2-  O259  1  0.33592922  0.41566609  0.75052436  1
  O2-  O260  1  0.33144769  0.74792036  -0.00111135  1
  O2-  O261  1  0.33432595  0.74771082  0.25151107  1
  O2-  O262  1  0.33324862  0.74919884  0.50112287  1
  O2-  O263  1  0.33417795  0.74612244  0.75078987  1
  O2-  O264  1  0.83454055  0.07771882  0.00011559  1
  O2-  O265  1  0.83222061  0.08036089  0.24977695  1
  O2-  O266  1  0.83209207  0.07777596  0.49916986  1
  O2-  O267  1  0.83193252  0.07860902  0.75150359  1
  O2-  O268  1  0.83476401  0.41491755  -0.00050387  1
  O2-  O269  1  0.83223111  0.41669063  0.25072868  1
  O2-  O270  1  0.83510829  0.41228223  0.49958106  1
  O2-  O271  1  0.83505953  0.41355784  0.74810552  1
  O2-  O272  1  0.83480108  0.74937583  -0.00143569  1
  O2-  O273  1  0.83184260  0.74741065  0.25059991  1
  O2-  O274  1  0.83329005  0.74864149  0.50101157  1
  O2-  O275  1  0.83415049  0.74491800  0.75207482  1
  O2-  O276  1  0.96390446  0.44703783  0.28450339  1
  O2-  O277  1  0.45119893  0.09341278  0.79647019  1
  O2-  O278  1  0.04937112  0.76516237  0.73527675  1
  O2-  O279  1  0.04568270  0.56912323  0.98667389  1
  O2-  O280  1  0.55161104  0.23125990  0.76545560  1
  O2-  O281  1  0.45171340  0.89651437  0.76162363  1
  O2-  O282  1  0.04483714  0.42745644  0.73225669  1
  O2-  O283  1  0.44603693  0.90739359  0.98696248  1
  O2-  O284  1  0.95361608  0.23208434  0.23876586  1
  O2-  O285  1  0.55215806  0.90214811  0.73384167  1
  O2-  O286  1  0.94364234  0.75165387  0.72610921  1
  O2-  O287  1  0.03669927  0.89348140  0.28934908  1
  O2-  O288  1  0.54868121  0.09436474  0.51237583  1
  O2-  O289  1  0.54524097  0.56721572  0.51507877  1
  O2-  O290  1  0.04454229  0.09825133  0.01153421  1
  O2-  O291  1  0.46395379  0.89003574  0.53070776  1
  O2-  O292  1  0.54853860  0.09751480  0.26211929  1
  O2-  O293  1  0.95433385  0.23321746  0.48998008  1
  O2-  O294  1  0.95208246  0.90000097  0.51994091  1
  O2-  O295  1  0.95028112  0.43077625  0.01102771  1
  O2-  O296  1  0.53011650  0.86603129  0.01503390  1
  O2-  O297  1  0.95085928  0.56755982  0.51018343  1
  O2-  O298  1  0.45253848  0.09857884  0.23437323  1
  O2-  O299  1  0.04984660  0.57399016  0.48787889  1
  O2-  O300  1  0.45152845  0.09995456  0.51002349  1
  O2-  O301  1  0.54742116  0.23847896  0.99205545  1
  O2-  O302  1  0.95124423  0.23563214  0.98886314  1
  O2-  O303  1  0.45402535  0.43282531  0.51438146  1
  O2-  O304  1  0.94233659  0.08933224  0.72585668  1
  O2-  O305  1  0.45163940  0.56950666  0.26584143  1
  O2-  O306  1  0.04929380  0.42894727  0.77107598  1
  O2-  O307  1  0.46027117  0.22681216  0.71148807  1
  O2-  O308  1  0.04601860  0.42763553  0.48798462  1
  O2-  O309  1  0.54386091  0.09434573  0.01366944  1
  O2-  O310  1  0.04059038  0.11337188  0.78442978  1
  O2-  O311  1  0.45128669  0.43014451  0.76188981  1
  O2-  O312  1  0.03911473  0.77478363  0.21692810  1
  O2-  O313  1  0.46592052  0.77633340  0.00460023  1
  O2-  O314  1  0.54138632  0.55161459  0.21556064  1
  O2-  O315  1  0.95456775  0.90617375  0.01160925  1
  O2-  O316  1  0.04678952  0.56985811  0.73356095  1
  O2-  O317  1  0.95579610  0.76517985  0.98247854  1
  O2-  O318  1  0.54914349  0.42953551  0.76095133  1
  O2-  O319  1  0.95278420  0.90260931  0.48068819  1
  O2-  O320  1  0.05572174  0.24905232  0.96256870  1
  O2-  O321  1  0.54618620  0.57328983  0.76391371  1
  O2-  O322  1  0.45338778  0.76107247  0.50725966  1
  O2-  O323  1  0.04773303  0.42882387  0.98287146  1
  O2-  O324  1  0.56998035  0.94047475  0.92597442  1
  O2-  O325  1  0.43593261  0.25808521  0.02803888  1
  O2-  O326  1  0.06319461  0.73747436  0.53177236  1
  O2-  O327  1  0.93261925  0.58644175  0.19074656  1
  O2-  O328  1  0.93587369  0.07457917  0.27619612  1
  O2-  O329  1  0.07538088  0.93928411  0.20189384  1
  O2-  O330  1  0.56190304  0.40178741  0.28193771  1
  O2-  O331  1  0.43614985  0.40547230  0.96868657  1
  O2-  O332  1  0.93686122  0.40443057  0.78555511  1
  O2-  O333  1  0.05586118  0.24905456  0.96145986  1
  O2-  O334  1  0.07200368  0.25897737  0.05191488  1
  O2-  O335  1  0.93322820  0.74368563  0.22336411  1
  O2-  O336  1  0.56430302  0.40227179  0.46683594  1
  O2-  O337  1  0.44501300  0.08995003  0.79054239  1
  O2-  O338  1  0.56393268  0.74261170  0.22319277  1
  O2-  O339  1  0.93737974  0.73680746  0.46636058  1
  O2-  O340  1  0.42315341  0.72700347  0.03354979  1
  O2-  O341  1  0.56665909  0.73925239  0.02652376  1
  O2-  O342  1  0.06413144  0.07508827  0.52451397  1
  O2-  O343  1  0.57721803  0.60296202  0.30048121  1
  O2-  O344  1  0.43497484  0.26093563  0.22496837  1
  O2-  O345  1  0.42688544  0.94743620  0.43970607  1
  O2-  O346  1  0.93547122  0.92756187  0.21507407  1
  O2-  O347  1  0.43602957  0.58780805  0.02716446  1
  O2-  O348  1  0.43813941  0.93083346  0.21737237  1
  O2-  O349  1  0.56510981  0.40728455  0.97629197  1
  O2-  O350  1  0.06513415  0.25942552  0.22516063  1
  O2-  O351  1  0.07144708  0.71923680  0.31085145  1
  O2-  O352  1  0.06460370  0.26213992  0.46505225  1
  O2-  O353  1  0.42864330  0.27738177  0.80874032  1
  O2-  O354  1  0.56480839  0.74075302  0.47531863  1
  O2-  O355  1  0.56273385  0.59627169  0.96779318  1
  O2-  O356  1  0.93586930  0.59404089  0.78359296  1
  O2-  O357  1  0.92260047  0.39422189  0.20086153  1
  O2-  O358  1  0.07610452  0.06245628  0.70258038  1
  O2-  O359  1  0.93502807  0.59652264  0.96543175  1
  O2-  O360  1  0.93420588  0.07460778  0.52725647  1
  O2-  O361  1  0.93671372  0.59837964  0.32044670  1
  O2-  O362  1  0.93557538  0.92470349  0.72536547  1
  O2-  O363  1  0.43588119  0.59756715  0.46710165  1
  O2-  O364  1  0.93749694  0.26129039  0.71608933  1
  O2-  O365  1  0.56178953  0.26321470  0.77403391  1
  O2-  O366  1  0.56070222  0.93312263  0.71878633  1
  O2-  O367  1  0.94537331  0.08254082  0.73033294  1
  O2-  O368  1  0.43261158  0.59294516  0.72260732  1
  O2-  O369  1  0.94517114  0.75317690  0.72644843  1
  O2-  O370  1  0.57213058  0.95469339  0.07231207  1
  O2-  O371  1  0.42402738  0.06698304  0.67761157  1
  O2-  O372  1  0.74999239  0.33940773  0.67777983  1
  O2-  O373  1  0.24971946  -0.00516901  0.59854813  1
  O2-  O374  1  0.74951895  0.67172725  0.67111258  1
  O2-  O375  1  0.24990940  0.00074381  0.88992501  1
  O2-  O376  1  0.24980467  0.33783581  0.17043094  1
  O2-  O377  1  0.74959751  0.33365473  0.09893823  1
  O2-  O378  1  0.25022305  0.67151823  0.41118236  1
  O2-  O379  1  0.74985494  0.67200392  0.39683220  1
  O2-  O380  1  0.74986616  0.33102376  0.32190474  1
  O2-  O381  1  0.75022853  0.35817414  0.40607707  1
  O2-  O382  1  0.74978802  0.66082027  0.09585439  1
  O2-  O383  1  0.24940156  0.00306321  0.35814607  1
  O2-  O384  1  0.24961216  0.66674092  0.07734529  1
  O2-  O385  1  0.24982679  0.33048059  0.08046010  1
  O2-  O386  1  0.74962339  0.67597990  0.57761938  1
  O2-  O387  1  0.25012784  0.66647206  0.17093509  1
  O2-  O388  1  0.75048108  -0.00505416  0.89521630  1
  O2-  O389  1  0.24980643  0.66192069  0.64954208  1
  O2-  O390  1  0.25008999  -0.00197686  0.16953869  1
  O2-  O391  1  0.75033680  0.00047302  0.15320200  1
  O2-  O392  1  0.25003865  -0.00069286  0.08100887  1
  O2-  O393  1  0.75004379  0.34765887  0.58710657  1
  O2-  O394  1  0.25045055  0.32921820  0.65112258  1
  O2-  O395  1  0.75022243  0.33269159  0.85013637  1
  O2-  O396  1  0.24995259  0.16888678  0.08459597  1
  O2-  O397  1  0.74989914  0.17662069  0.90812315  1
  O2-  O398  1  0.24988796  0.82893874  0.62980150  1
  O2-  O399  1  0.24992932  0.50531934  0.84362648  1
  O2-  O400  1  0.25012677  0.16340174  0.16838820  1
  O2-  O401  1  0.24987890  0.50016464  0.08775667  1
  O2-  O402  1  0.24993013  0.83271556  0.37165152  1
  O2-  O403  1  0.74988379  0.83850717  0.59688692  1
  O2-  O404  1  0.74997843  0.16144784  0.16045009  1
  O2-  O405  1  0.74987533  0.50640139  0.40369867  1
  O2-  O406  1  0.74991614  0.14031607  0.83147297  1
  O2-  O407  1  0.75002452  0.50704657  0.90987527  1
  O2-  O408  1  0.25004027  0.49787131  0.36500944  1
  O2-  O409  1  0.24981312  0.82856888  0.91309396  1
  O2-  O410  1  0.25001154  0.15679988  0.87282246  1
  O2-  O411  1  0.74986430  0.17295605  0.31231917  1
  O2-  O412  1  0.75006137  0.83289754  0.15890620  1
  O2-  O413  1  0.74998058  0.49778542  0.31442878  1
  O2-  O414  1  0.75032061  0.14492346  0.64791414  1
  O2-  O415  1  0.74993224  0.83352953  0.33957530  1
  O2-  O416  1  0.74998630  0.16999692  0.39661767  1
  O2-  O417  1  0.24996570  0.15387528  0.62470610  1
  O2-  O418  1  0.24992685  0.50506486  0.66107200  1
  O2-  O419  1  0.75009653  0.84170977  0.86656349  1
  O2-  O420  1  0.52856741  0.65963697  0.12241565  1
  O2-  O421  1  0.47605566  -0.00150340  0.88401423  1
  O2-  O422  1  0.47839930  0.34440374  0.12455413  1
  O2-  O423  1  0.47676767  0.67053343  0.62408103  1
  O2-  O424  1  0.52782837  0.33361737  0.62650991  1
  O2-  O425  1  0.02223851  0.00494602  0.12016383  1
  O2-  O426  1  0.51977242  0.67078782  0.37541537  1
  O2-  O427  1  0.97280699  0.66646828  0.62521782  1
  O2-  O428  1  0.02892282  0.67020996  0.87416716  1
  O2-  O429  1  0.02806127  0.33030780  0.62442656  1
  O2-  O430  1  0.02991748  -0.01258604  0.62048363  1
  O2-  O431  1  0.04507886  0.66451526  0.12214288  1
  O2-  O432  1  0.97578410  -0.00127346  0.37913552  1
  O2-  O433  1  0.46979462  0.66704167  0.13721397  1
  O2-  O434  1  0.47866642  -0.00544088  0.62019887  1
  O2-  O435  1  0.52116122  0.33207841  0.87625565  1
  O2-  O436  1  0.96325115  0.66940754  0.10860653  1
  O2-  O437  1  0.03432356  0.34982382  0.13300143  1
  O2-  O438  1  0.47273757  0.66789319  0.87441545  1
  O2-  O439  1  0.52861399  -0.00168391  0.37609384  1
  O2-  O440  1  0.97234057  0.33204707  0.37554495  1
  O2-  O441  1  0.97205125  -0.00338661  0.62426834  1
  O2-  O442  1  0.02573130  -0.00382261  0.87549476  1
  O2-  O443  1  0.96483490  0.32315959  0.11377080  1
