# generated using pymatgen
data_La7(Ru4O11)2
_symmetry_space_group_name_H-M   'P 1'
_cell_length_a   23.98906215
_cell_length_b   16.82856880
_cell_length_c   15.42569334
_cell_angle_alpha   90.00023227
_cell_angle_beta   90.00039447
_cell_angle_gamma   89.99914907
_symmetry_Int_Tables_number   1
_chemical_formula_structural   La7(Ru4O11)2
_chemical_formula_sum   'La84 Ru96 O264'
_cell_volume   6227.37681532
_cell_formula_units_Z   12
loop_
 _symmetry_equiv_pos_site_id
 _symmetry_equiv_pos_as_xyz
  1  'x, y, z'
loop_
 _atom_type_symbol
 _atom_type_oxidation_number
  La3+  3.0
  Ru4+  4.0
  O2-  -2.0
loop_
 _atom_site_type_symbol
 _atom_site_label
 _atom_site_symmetry_multiplicity
 _atom_site_fract_x
 _atom_site_fract_y
 _atom_site_fract_z
 _atom_site_occupancy
  La3+  La0  1  0.14053038  0.00070981  0.12553079  1
  La3+  La1  1  0.13836210  0.00054464  0.37396040  1
  La3+  La2  1  0.13779101  -0.00003419  0.62513607  1
  La3+  La3  1  0.13798004  0.00134625  0.87540246  1
  La3+  La4  1  0.13860006  0.33386717  0.12528606  1
  La3+  La5  1  0.14020259  0.33292525  0.37407384  1
  La3+  La6  1  0.13984364  0.33301337  0.62500372  1
  La3+  La7  1  0.13860041  0.33338259  0.87486035  1
  La3+  La8  1  0.13953122  0.66643785  0.12351765  1
  La3+  La9  1  0.13877699  0.66723557  0.37564165  1
  La3+  La10  1  0.13676771  0.66691496  0.62451208  1
  La3+  La11  1  0.13808081  0.66553006  0.87721613  1
  La3+  La12  1  0.63951094  0.00024889  0.12640683  1
  La3+  La13  1  0.63946489  -0.00035236  0.37457026  1
  La3+  La14  1  0.63965335  -0.00018999  0.62400639  1
  La3+  La15  1  0.63871787  0.00050323  0.87530248  1
  La3+  La16  1  0.63867703  0.33204940  0.12459501  1
  La3+  La17  1  0.63912559  0.33237278  0.37579901  1
  La3+  La18  1  0.63863423  0.33244883  0.62518219  1
  La3+  La19  1  0.63937467  0.33183940  0.87439458  1
  La3+  La20  1  0.63842267  0.66745107  0.12511304  1
  La3+  La21  1  0.63745852  0.66769394  0.37583815  1
  La3+  La22  1  0.63813131  0.66668114  0.62331016  1
  La3+  La23  1  0.63810525  0.66708067  0.87573585  1
  La3+  La24  1  0.35970258  0.00034971  0.12715102  1
  La3+  La25  1  0.36189175  0.00053765  0.37402884  1
  La3+  La26  1  0.36211281  0.00050041  0.62423769  1
  La3+  La27  1  0.36175238  0.00084135  0.87482416  1
  La3+  La28  1  0.36141806  0.33223141  0.12679501  1
  La3+  La29  1  0.35955222  0.33176675  0.37248078  1
  La3+  La30  1  0.35917707  0.33284234  0.62534000  1
  La3+  La31  1  0.36079982  0.33272126  0.87444495  1
  La3+  La32  1  0.36060703  0.66653505  0.12390734  1
  La3+  La33  1  0.36210954  0.66688003  0.37495016  1
  La3+  La34  1  0.36338279  0.66628392  0.62497003  1
  La3+  La35  1  0.36209031  0.66549060  0.87640557  1
  La3+  La36  1  0.85969785  0.00086470  0.12646242  1
  La3+  La37  1  0.86058223  -0.00012327  0.37518762  1
  La3+  La38  1  0.86121757  0.00002653  0.62414930  1
  La3+  La39  1  0.86192539  0.00122818  0.87518140  1
  La3+  La40  1  0.86216427  0.33289772  0.12461374  1
  La3+  La41  1  0.86053944  0.33222862  0.37547284  1
  La3+  La42  1  0.86071677  0.33202212  0.62465967  1
  La3+  La43  1  0.86085503  0.33177569  0.87531647  1
  La3+  La44  1  0.86230579  0.66745302  0.12551798  1
  La3+  La45  1  0.86169158  0.66829151  0.37541325  1
  La3+  La46  1  0.86147424  0.66739090  0.62385721  1
  La3+  La47  1  0.86186895  0.66708645  0.87610937  1
  La3+  La48  1  0.00043809  0.83388381  0.86520285  1
  La3+  La49  1  0.50011211  0.16729042  0.61705724  1
  La3+  La50  1  -0.00178412  0.83174235  0.36762552  1
  La3+  La51  1  0.50002469  0.16710478  0.13645272  1
  La3+  La52  1  0.00067563  0.83258827  0.61554496  1
  La3+  La53  1  0.50009225  0.50209409  0.11641096  1
  La3+  La54  1  0.49921285  0.50097402  0.88626435  1
  La3+  La55  1  0.50039603  0.50009803  0.13779523  1
  La3+  La56  1  -0.00132512  0.49967042  0.11474358  1
  La3+  La57  1  0.00013414  0.50021813  0.63507974  1
  La3+  La58  1  0.49906799  0.83212422  0.86763075  1
  La3+  La59  1  0.50166629  0.83575491  0.13189005  1
  La3+  La60  1  -0.00030473  0.83409448  0.88189112  1
  La3+  La61  1  0.00009476  0.16671118  0.61553888  1
  La3+  La62  1  -0.00023474  0.16766938  0.11611377  1
  La3+  La63  1  -0.00025836  0.16718847  0.13328606  1
  La3+  La64  1  0.49843181  0.83004878  0.61297186  1
  La3+  La65  1  0.49978820  0.16785866  0.86728035  1
  La3+  La66  1  0.50040699  0.83387528  0.63469431  1
  La3+  La67  1  0.50193686  0.83616081  0.88838238  1
  La3+  La68  1  0.00019384  0.50048237  0.86533028  1
  La3+  La69  1  0.49979904  0.16683631  0.63437670  1
  La3+  La70  1  0.00022838  0.16539474  0.38528863  1
  La3+  La71  1  -0.00026713  0.49918735  0.38561773  1
  La3+  La72  1  0.24996331  0.47133335  0.22847482  1
  La3+  La73  1  0.74977482  0.49818431  0.24905303  1
  La3+  La74  1  0.24997777  0.83418740  0.26891933  1
  La3+  La75  1  0.24991027  0.80196355  0.03221593  1
  La3+  La76  1  0.25003477  0.46575188  0.78225399  1
  La3+  La77  1  0.24993677  0.46615583  0.47181414  1
  La3+  La78  1  0.75002470  0.16538747  0.23463464  1
  La3+  La79  1  0.74995536  0.80577371  0.01956555  1
  La3+  La80  1  0.74984751  0.49605960  0.75091375  1
  La3+  La81  1  0.24983761  0.83913015  0.74414898  1
  La3+  La82  1  0.24985953  0.19622819  0.50047401  1
  La3+  La83  1  0.74981923  0.49963225  0.50008275  1
  Ru4+  Ru84  1  0.00195591  0.00379068  0.00210120  1
  Ru4+  Ru85  1  -0.00307192  -0.00185801  0.24988846  1
  Ru4+  Ru86  1  0.00172882  0.00268692  0.49785517  1
  Ru4+  Ru87  1  -0.00067546  0.00104365  0.75055996  1
  Ru4+  Ru88  1  -0.00158854  0.33040659  -0.00050851  1
  Ru4+  Ru89  1  -0.00207825  0.33584595  0.24887390  1
  Ru4+  Ru90  1  0.00068548  0.33315083  0.50043150  1
  Ru4+  Ru91  1  0.00004011  0.33359383  0.75057151  1
  Ru4+  Ru92  1  -0.00292861  0.66150523  0.00255901  1
  Ru4+  Ru93  1  -0.00688251  0.66308731  0.24903544  1
  Ru4+  Ru94  1  -0.00001362  0.66697875  0.50037279  1
  Ru4+  Ru95  1  0.00095029  0.66544416  0.74824744  1
  Ru4+  Ru96  1  0.50181051  -0.00130795  0.00111482  1
  Ru4+  Ru97  1  0.50109072  -0.00071474  0.25167226  1
  Ru4+  Ru98  1  0.49930756  -0.00454122  0.49316953  1
  Ru4+  Ru99  1  0.49998451  0.00155041  0.75266567  1
  Ru4+  Ru100  1  0.49862054  0.32984083  0.00182715  1
  Ru4+  Ru101  1  0.50161029  0.33547241  0.24730992  1
  Ru4+  Ru102  1  0.50230288  0.33314872  0.50137920  1
  Ru4+  Ru103  1  0.49781275  0.32699270  0.74779331  1
  Ru4+  Ru104  1  0.50018004  0.66625739  0.00055067  1
  Ru4+  Ru105  1  0.50201666  0.66509088  0.25313663  1
  Ru4+  Ru106  1  0.50050072  0.66474734  0.49709723  1
  Ru4+  Ru107  1  0.50117759  0.66743802  0.75046490  1
  Ru4+  Ru108  1  0.11247946  0.16576978  -0.00034606  1
  Ru4+  Ru109  1  0.11730336  0.16749732  0.25014644  1
  Ru4+  Ru110  1  0.11191347  0.16726047  0.50002477  1
  Ru4+  Ru111  1  0.11274892  0.16786287  0.74960610  1
  Ru4+  Ru112  1  0.11507884  0.50364276  -0.00063057  1
  Ru4+  Ru113  1  0.11310188  0.49727994  0.25001897  1
  Ru4+  Ru114  1  0.11201092  0.49903373  0.50014363  1
  Ru4+  Ru115  1  0.11144511  0.49918021  0.74990053  1
  Ru4+  Ru116  1  0.11522314  0.83762772  0.00133925  1
  Ru4+  Ru117  1  0.11650087  0.83620912  0.25079578  1
  Ru4+  Ru118  1  0.11187937  0.83323266  0.50014970  1
  Ru4+  Ru119  1  0.11163088  0.83388566  0.74916999  1
  Ru4+  Ru120  1  0.61366913  0.16630783  0.00011576  1
  Ru4+  Ru121  1  0.61296072  0.16623139  0.24990532  1
  Ru4+  Ru122  1  0.61517599  0.16712091  0.49940321  1
  Ru4+  Ru123  1  0.61379744  0.16829271  0.74983416  1
  Ru4+  Ru124  1  0.61393104  0.50161258  0.00018583  1
  Ru4+  Ru125  1  0.61150051  0.50059402  0.25033715  1
  Ru4+  Ru126  1  0.61011428  0.49954482  0.49999564  1
  Ru4+  Ru127  1  0.61579240  0.50422041  0.74855207  1
  Ru4+  Ru128  1  0.61202006  0.83294345  0.00014675  1
  Ru4+  Ru129  1  0.61364047  0.83452578  0.24985045  1
  Ru4+  Ru130  1  0.61483125  0.83020703  0.49915551  1
  Ru4+  Ru131  1  0.61390416  0.83423976  0.75032506  1
  Ru4+  Ru132  1  0.38649165  0.16837911  -0.00027828  1
  Ru4+  Ru133  1  0.38450672  0.16470490  0.24987865  1
  Ru4+  Ru134  1  0.38576074  0.16959817  0.50001936  1
  Ru4+  Ru135  1  0.38696687  0.16824290  0.74956547  1
  Ru4+  Ru136  1  0.38645914  0.50186688  0.00006512  1
  Ru4+  Ru137  1  0.38795342  0.49912985  0.25003990  1
  Ru4+  Ru138  1  0.38773932  0.50128628  0.49971986  1
  Ru4+  Ru139  1  0.38641340  0.49678102  0.75005427  1
  Ru4+  Ru140  1  0.38797168  0.83393947  0.00019875  1
  Ru4+  Ru141  1  0.38685107  0.83486754  0.25041466  1
  Ru4+  Ru142  1  0.38761487  0.83350810  0.49946845  1
  Ru4+  Ru143  1  0.38752586  0.83212609  0.74997805  1
  Ru4+  Ru144  1  0.88683507  0.16592075  -0.00067211  1
  Ru4+  Ru145  1  0.88666644  0.16590751  0.24990792  1
  Ru4+  Ru146  1  0.88558788  0.16613624  0.50025562  1
  Ru4+  Ru147  1  0.88707165  0.16684345  0.75016096  1
  Ru4+  Ru148  1  0.88777450  0.50005690  -0.00021268  1
  Ru4+  Ru149  1  0.88843318  0.50008180  0.24932652  1
  Ru4+  Ru150  1  0.88843055  0.50030374  0.50019169  1
  Ru4+  Ru151  1  0.88844928  0.50010350  0.74963238  1
  Ru4+  Ru152  1  0.88626333  0.83057370  0.00046188  1
  Ru4+  Ru153  1  0.88617056  0.83295651  0.25009813  1
  Ru4+  Ru154  1  0.88524525  0.83079276  0.50003976  1
  Ru4+  Ru155  1  0.88715597  0.83458151  0.74959684  1
  Ru4+  Ru156  1  0.24986753  0.08834065  0.00307781  1
  Ru4+  Ru157  1  0.75008075  0.38782303  0.24838850  1
  Ru4+  Ru158  1  0.25011310  0.08892708  0.75254845  1
  Ru4+  Ru159  1  0.75009180  0.91359737  0.74989336  1
  Ru4+  Ru160  1  0.75017234  0.08692289  0.74764935  1
  Ru4+  Ru161  1  0.25007030  0.60123416  0.25711830  1
  Ru4+  Ru162  1  0.75001792  0.75654795  0.75054848  1
  Ru4+  Ru163  1  0.24973072  0.75072687  0.49303408  1
  Ru4+  Ru164  1  0.24981399  0.59328861  0.75400346  1
  Ru4+  Ru165  1  0.24993016  0.59955568  0.49141285  1
  Ru4+  Ru166  1  0.25001842  0.93759000  0.00586083  1
  Ru4+  Ru167  1  0.75028086  0.60458995  0.74419592  1
  Ru4+  Ru168  1  0.75011413  0.91738639  0.49698625  1
  Ru4+  Ru169  1  0.75010283  0.42054102  -0.00056375  1
  Ru4+  Ru170  1  0.25000686  0.24593782  0.00164530  1
  Ru4+  Ru171  1  0.25007320  0.42211144  0.00026095  1
  Ru4+  Ru172  1  0.75031024  0.38721557  0.74971208  1
  Ru4+  Ru173  1  0.75023241  0.57744722  0.00037629  1
  Ru4+  Ru174  1  0.24992051  0.73309431  0.75633573  1
  Ru4+  Ru175  1  0.74986235  0.93694098  0.00774256  1
  Ru4+  Ru176  1  0.24971977  0.91743212  0.49518572  1
  Ru4+  Ru177  1  0.24989936  0.94687264  0.75011704  1
  Ru4+  Ru178  1  0.74997280  0.60820753  0.25731619  1
  Ru4+  Ru179  1  0.24980885  0.06312871  0.49602389  1
  O2-  O180  1  0.16852290  0.08126657  -0.00029635  1
  O2-  O181  1  0.16730342  0.08169079  0.25115148  1
  O2-  O182  1  0.16746792  0.07980281  0.49985631  1
  O2-  O183  1  0.16789334  0.08065181  0.74963438  1
  O2-  O184  1  0.16751016  0.41387686  0.00006383  1
  O2-  O185  1  0.16695939  0.41447629  0.24989504  1
  O2-  O186  1  0.16648238  0.41404592  0.49999533  1
  O2-  O187  1  0.16701673  0.41298048  0.74989494  1
  O2-  O188  1  0.16778108  0.74697472  -0.00090663  1
  O2-  O189  1  0.16834767  0.74722184  0.25055983  1
  O2-  O190  1  0.16843903  0.74670020  0.50028107  1
  O2-  O191  1  0.16610852  0.74601023  0.74963970  1
  O2-  O192  1  0.66703199  0.08150746  0.00005833  1
  O2-  O193  1  0.66682786  0.08099064  0.25009110  1
  O2-  O194  1  0.66715553  0.08200808  0.49998814  1
  O2-  O195  1  0.66763435  0.08049798  0.75007987  1
  O2-  O196  1  0.66870316  0.41396243  -0.00004589  1
  O2-  O197  1  0.66614246  0.41253369  0.24942790  1
  O2-  O198  1  0.66854048  0.41436738  0.49956964  1
  O2-  O199  1  0.66650967  0.41361419  0.75066457  1
  O2-  O200  1  0.66691058  0.74603627  -0.00020149  1
  O2-  O201  1  0.66707648  0.74770692  0.24998718  1
  O2-  O202  1  0.66696961  0.74829294  0.49970600  1
  O2-  O203  1  0.66732814  0.74704789  0.75033527  1
  O2-  O204  1  0.33188299  0.25212201  0.00050452  1
  O2-  O205  1  0.33269123  0.25162343  0.24889591  1
  O2-  O206  1  0.33283909  0.25237501  0.49981320  1
  O2-  O207  1  0.33285247  0.25212516  0.74985200  1
  O2-  O208  1  0.33332725  0.58579880  -0.00071705  1
  O2-  O209  1  0.33294334  0.58705576  0.25019371  1
  O2-  O210  1  0.33283225  0.58714931  0.50031033  1
  O2-  O211  1  0.33280332  0.58756185  0.74972172  1
  O2-  O212  1  0.33276860  0.91994391  -0.00005078  1
  O2-  O213  1  0.33280799  0.91891495  0.25092129  1
  O2-  O214  1  0.33160439  0.91908702  0.49962453  1
  O2-  O215  1  0.33319619  0.92085677  0.75004159  1
  O2-  O216  1  0.83272798  0.25270854  0.00025658  1
  O2-  O217  1  0.83277499  0.25312766  0.24941451  1
  O2-  O218  1  0.83291759  0.25262169  0.49985373  1
  O2-  O219  1  0.83375791  0.25147457  0.75002389  1
  O2-  O220  1  0.83184727  0.58587041  -0.00017865  1
  O2-  O221  1  0.83323559  0.58723452  0.25098853  1
  O2-  O222  1  0.83132845  0.58603332  0.49967664  1
  O2-  O223  1  0.83320652  0.58740897  0.75001877  1
  O2-  O224  1  0.83273249  0.91961744  0.00042111  1
  O2-  O225  1  0.83356378  0.91794913  0.25024365  1
  O2-  O226  1  0.83215550  0.91902837  0.49987303  1
  O2-  O227  1  0.83180638  0.91879112  0.74992027  1
  O2-  O228  1  0.16787850  0.25250251  0.00005117  1
  O2-  O229  1  0.16741370  0.25176506  0.24976080  1
  O2-  O230  1  0.16708739  0.25252048  0.49978805  1
  O2-  O231  1  0.16706319  0.25222315  0.75001602  1
  O2-  O232  1  0.16723111  0.58519773  -0.00013703  1
  O2-  O233  1  0.16730165  0.58666757  0.25039799  1
  O2-  O234  1  0.16729987  0.58696664  0.50027254  1
  O2-  O235  1  0.16716595  0.58737863  0.74947716  1
  O2-  O236  1  0.16718810  0.91976820  -0.00022072  1
  O2-  O237  1  0.16815542  0.91914780  0.25113262  1
  O2-  O238  1  0.16825199  0.91973444  0.49992756  1
  O2-  O239  1  0.16723470  0.92064005  0.75004774  1
  O2-  O240  1  0.66748242  0.25266172  0.00059723  1
  O2-  O241  1  0.66718026  0.25324038  0.24922263  1
  O2-  O242  1  0.66679538  0.25207088  0.49949595  1
  O2-  O243  1  0.66734294  0.25147461  0.75019027  1
  O2-  O244  1  0.66785183  0.58572302  -0.00022613  1
  O2-  O245  1  0.66712929  0.58745882  0.25012795  1
  O2-  O246  1  0.66931698  0.58548876  0.49968351  1
  O2-  O247  1  0.66641791  0.58714466  0.75065992  1
  O2-  O248  1  0.66717815  0.92016302  0.00013695  1
  O2-  O249  1  0.66715700  0.91761192  0.25015903  1
  O2-  O250  1  0.66762913  0.91866556  0.50007343  1
  O2-  O251  1  0.66810727  0.91914550  0.75007118  1
  O2-  O252  1  0.33217850  0.08069532  0.00009093  1
  O2-  O253  1  0.33367112  0.08152957  0.25112379  1
  O2-  O254  1  0.33210073  0.07957381  0.49963453  1
  O2-  O255  1  0.33172803  0.08000721  0.74968700  1
  O2-  O256  1  0.33223989  0.41329248  0.00035304  1
  O2-  O257  1  0.33344304  0.41388209  0.24906839  1
  O2-  O258  1  0.33288606  0.41475038  0.50030222  1
  O2-  O259  1  0.33326607  0.41408406  0.74967819  1
  O2-  O260  1  0.33283698  0.74619842  -0.00094391  1
  O2-  O261  1  0.33184346  0.74706696  0.25020046  1
  O2-  O262  1  0.33209673  0.74708202  0.50004578  1
  O2-  O263  1  0.33376275  0.74600610  0.74952184  1
  O2-  O264  1  0.83207160  0.08154256  0.00043096  1
  O2-  O265  1  0.83249609  0.08127967  0.25051602  1
  O2-  O266  1  0.83361520  0.08184315  0.49984094  1
  O2-  O267  1  0.83159122  0.08081983  0.74959127  1
  O2-  O268  1  0.83124513  0.41391422  0.00001900  1
  O2-  O269  1  0.83333528  0.41284966  0.25005057  1
  O2-  O270  1  0.83123087  0.41360215  0.49993136  1
  O2-  O271  1  0.83411564  0.41308418  0.75029921  1
  O2-  O272  1  0.83264995  0.74705643  0.00017717  1
  O2-  O273  1  0.83200509  0.74775862  0.25063937  1
  O2-  O274  1  0.83291680  0.74723822  0.49944197  1
  O2-  O275  1  0.83270177  0.74715748  0.75028665  1
  O2-  O276  1  0.54570455  0.76262506  0.76312773  1
  O2-  O277  1  0.54662937  0.76480518  0.48611449  1
  O2-  O278  1  0.05356604  0.75194112  0.96944821  1
  O2-  O279  1  0.46795244  0.45282430  0.48406845  1
  O2-  O280  1  0.54708369  0.76487604  0.23481786  1
  O2-  O281  1  0.04072199  0.56072445  0.22419110  1
  O2-  O282  1  0.45466320  0.43138804  0.01342968  1
  O2-  O283  1  0.94709221  0.91186994  0.96712618  1
  O2-  O284  1  0.04558345  0.43084733  0.01890345  1
  O2-  O285  1  0.45532177  0.56759015  0.73033544  1
  O2-  O286  1  0.54895345  0.43318273  0.48531719  1
  O2-  O287  1  0.54510361  0.23543073  0.98601840  1
  O2-  O288  1  0.04499513  0.56939688  0.48506888  1
  O2-  O289  1  0.95413273  0.23374360  0.26401319  1
  O2-  O290  1  0.04617287  0.43209668  0.51495296  1
  O2-  O291  1  0.95407107  0.90125488  0.51919885  1
  O2-  O292  1  0.95471692  0.76581239  0.76372452  1
  O2-  O293  1  0.45418181  0.57150293  0.48508480  1
  O2-  O294  1  0.45295001  0.23588445  0.26675353  1
  O2-  O295  1  0.54646043  0.90442194  0.51938233  1
  O2-  O296  1  0.04507358  0.23332916  0.73501980  1
  O2-  O297  1  0.05315891  0.75407461  0.21543519  1
  O2-  O298  1  0.04636648  0.23418412  0.01599324  1
  O2-  O299  1  0.04993332  0.23897570  0.28331958  1
  O2-  O300  1  0.53999935  0.44025526  0.74734180  1
  O2-  O301  1  0.45965394  0.10705885  0.48466640  1
  O2-  O302  1  0.45493164  0.56786065  0.26505914  1
  O2-  O303  1  0.95327046  0.43352232  0.51477703  1
  O2-  O304  1  0.95430747  0.23471198  0.98547433  1
  O2-  O305  1  0.45436962  0.90314453  0.23533579  1
  O2-  O306  1  0.54466857  0.09887983  0.01440690  1
  O2-  O307  1  0.95472433  0.23433671  0.48688141  1
  O2-  O308  1  0.04451144  0.43213238  0.97981557  1
  O2-  O309  1  0.45319094  0.09922018  0.76315078  1
  O2-  O310  1  0.54504523  0.23391019  0.51400309  1
  O2-  O311  1  0.04109933  0.89600287  0.27468909  1
  O2-  O312  1  0.54629794  0.09907040  0.76415348  1
  O2-  O313  1  0.54110079  0.43872496  0.76124439  1
  O2-  O314  1  0.54403822  0.90306885  0.48026346  1
  O2-  O315  1  0.45518208  0.56795588  0.76981069  1
  O2-  O316  1  0.04496546  0.90212455  0.01560250  1
  O2-  O317  1  0.95520793  0.90052176  0.48009290  1
  O2-  O318  1  0.45286073  0.76476020  0.48450721  1
  O2-  O319  1  0.45925972  0.10521653  0.51259904  1
  O2-  O320  1  0.45405850  0.76358966  0.98723686  1
  O2-  O321  1  0.45698154  0.76911475  0.22596586  1
  O2-  O322  1  0.04867942  0.09117531  0.28423426  1
  O2-  O323  1  0.45341363  0.90217569  0.76247006  1
  O2-  O324  1  0.93482432  0.59439662  0.22059640  1
  O2-  O325  1  0.42375219  0.38847265  0.44739436  1
  O2-  O326  1  0.56466635  0.93136260  0.78282164  1
  O2-  O327  1  0.93498744  0.73778499  0.96944031  1
  O2-  O328  1  0.43464870  0.26297476  0.97036480  1
  O2-  O329  1  0.57260239  0.39330747  0.71036730  1
  O2-  O330  1  0.56638313  0.07196312  0.54634445  1
  O2-  O331  1  0.05366572  0.75179559  0.96971362  1
  O2-  O332  1  0.43705478  0.26172616  0.27875528  1
  O2-  O333  1  0.56579867  0.40534527  0.95217090  1
  O2-  O334  1  0.43434196  0.92770934  0.53070460  1
  O2-  O335  1  0.42984963  0.06398244  0.54673055  1
  O2-  O336  1  0.56402394  0.59788167  0.03240641  1
  O2-  O337  1  0.93483719  0.40490839  0.21979545  1
  O2-  O338  1  0.93478362  0.07149976  0.77945126  1
  O2-  O339  1  0.56496555  0.40122502  0.05162160  1
  O2-  O340  1  0.56456780  0.26094227  0.71924544  1
  O2-  O341  1  0.93542503  0.73769368  0.22104152  1
  O2-  O342  1  0.93100454  0.93978319  0.06424901  1
  O2-  O343  1  0.06862517  0.06470583  0.19085702  1
  O2-  O344  1  0.56539724  0.07076865  0.45359945  1
  O2-  O345  1  0.06762270  0.73228041  0.30186507  1
  O2-  O346  1  0.05688937  0.25079248  0.28898608  1
  O2-  O347  1  0.43269340  0.06310372  0.45241094  1
  O2-  O348  1  0.05311071  0.75297647  0.21411573  1
  O2-  O349  1  0.06489337  0.07008977  0.97055267  1
  O2-  O350  1  0.06835758  0.93634293  0.20650820  1
  O2-  O351  1  0.94626844  0.90932598  0.95606595  1
  O2-  O352  1  0.06387084  0.40368188  0.21753487  1
  O2-  O353  1  0.56470507  0.59832599  0.71827766  1
  O2-  O354  1  0.56473495  0.59667409  0.27888251  1
  O2-  O355  1  0.43142998  0.72847568  0.29327966  1
  O2-  O356  1  0.06465107  0.59575631  0.97015761  1
  O2-  O357  1  0.43537154  0.06942746  0.04886982  1
  O2-  O358  1  0.06513670  0.92887582  0.71978567  1
  O2-  O359  1  0.93570930  0.59774398  0.71723334  1
  O2-  O360  1  0.06850586  0.26993566  0.18914661  1
  O2-  O361  1  0.06373178  0.06835437  0.46804439  1
  O2-  O362  1  0.43437808  0.07160828  0.95427044  1
  O2-  O363  1  0.43167562  0.39598907  0.55787124  1
  O2-  O364  1  0.56515609  0.92941427  0.21983357  1
  O2-  O365  1  0.56427956  0.59874959  0.53223462  1
  O2-  O366  1  0.05549858  0.08093365  0.28886863  1
  O2-  O367  1  0.93498760  0.92833266  0.71895185  1
  O2-  O368  1  0.93637264  0.06890960  0.21723673  1
  O2-  O369  1  0.06835428  0.60303221  0.29410681  1
  O2-  O370  1  0.06705051  0.73169785  0.04770454  1
  O2-  O371  1  0.93564996  0.07041569  0.97071964  1
  O2-  O372  1  0.24996649  -0.00082581  0.15315998  1
  O2-  O373  1  0.75004982  0.33362177  0.65512587  1
  O2-  O374  1  0.75002066  -0.00170004  0.59273372  1
  O2-  O375  1  0.74999477  0.33343283  0.34394093  1
  O2-  O376  1  0.74998354  0.00519527  0.91832982  1
  O2-  O377  1  0.25001584  0.67115272  0.16788838  1
  O2-  O378  1  0.25010109  0.66705044  0.84978884  1
  O2-  O379  1  0.25005803  0.33275776  0.59264964  1
  O2-  O380  1  0.75008083  -0.00265599  0.40900072  1
  O2-  O381  1  0.75007221  0.66897286  0.65353751  1
  O2-  O382  1  0.25000765  -0.00250617  0.59639410  1
  O2-  O383  1  0.74998605  0.67226719  0.16788168  1
  O2-  O384  1  0.24984709  0.33390899  0.34424597  1
  O2-  O385  1  0.25002213  0.66679703  0.07806671  1
  O2-  O386  1  0.74998525  0.00005932  0.82722166  1
  O2-  O387  1  0.74994372  0.66699090  0.07653989  1
  O2-  O388  1  0.75002986  0.67198847  0.83404688  1
  O2-  O389  1  0.25006149  0.67207922  0.57831089  1
  O2-  O390  1  0.75005058  -0.00030672  0.15402838  1
  O2-  O391  1  0.24999588  0.00234987  0.90427783  1
  O2-  O392  1  0.24996545  0.33297573  0.90769158  1
  O2-  O393  1  0.25003555  0.66598875  0.66421006  1
  O2-  O394  1  0.74996785  0.66741944  0.92548723  1
  O2-  O395  1  0.74998818  0.33346320  0.84581979  1
  O2-  O396  1  0.75001579  0.16556518  0.91626776  1
  O2-  O397  1  0.24997888  0.50433868  0.66500014  1
  O2-  O398  1  0.75001740  0.83423225  0.34239474  1
  O2-  O399  1  0.75002678  0.50189139  0.36545102  1
  O2-  O400  1  0.75001706  0.83397991  0.66852174  1
  O2-  O401  1  0.24999028  0.16702877  0.15506465  1
  O2-  O402  1  0.75005575  0.49927255  0.13340365  1
  O2-  O403  1  0.24998915  0.50456511  0.58691351  1
  O2-  O404  1  0.24988957  0.83848643  0.92374536  1
  O2-  O405  1  0.25005604  0.49796072  0.08814280  1
  O2-  O406  1  0.75001258  0.83468143  0.89002546  1
  O2-  O407  1  0.25005925  0.83294722  0.56407311  1
  O2-  O408  1  0.74999953  0.16792493  0.83287572  1
  O2-  O409  1  0.25001807  0.49908207  0.91243526  1
  O2-  O410  1  0.74998960  0.50069995  0.63524075  1
  O2-  O411  1  0.75002939  0.16552536  0.59220671  1
  O2-  O412  1  0.25000522  0.50533345  0.35415594  1
  O2-  O413  1  0.25010840  0.83214281  0.63720254  1
  O2-  O414  1  0.25000093  0.83099343  0.85175671  1
  O2-  O415  1  0.74999775  0.83236661  0.57939484  1
  O2-  O416  1  0.24998247  0.16398446  0.83882464  1
  O2-  O417  1  0.24999065  0.83456584  0.14702041  1
  O2-  O418  1  0.75000179  0.50074097  0.86576827  1
  O2-  O419  1  0.75000445  0.16657557  0.35523992  1
  O2-  O420  1  0.52642838  -0.00160808  0.36953990  1
  O2-  O421  1  0.03085872  0.66697088  0.87063461  1
  O2-  O422  1  0.53218056  -0.00218573  0.62981215  1
  O2-  O423  1  0.96789144  0.33281034  0.62522023  1
  O2-  O424  1  0.96867287  0.66399906  0.87334526  1
  O2-  O425  1  0.97184869  0.00036711  0.37534445  1
  O2-  O426  1  0.03026146  -0.00160500  0.87165630  1
  O2-  O427  1  0.52507195  0.33217561  0.62126295  1
  O2-  O428  1  0.53077565  0.33248932  0.37450752  1
  O2-  O429  1  0.97297684  0.33092183  0.12332617  1
  O2-  O430  1  0.52627805  0.00120261  0.12337616  1
  O2-  O431  1  0.47366008  -0.00263789  0.87312968  1
  O2-  O432  1  0.46959967  0.33554036  0.87094356  1
  O2-  O433  1  0.46883013  -0.00059402  0.63069750  1
  O2-  O434  1  0.96913058  0.33457177  0.37552710  1
  O2-  O435  1  0.97014533  0.00264471  0.62371117  1
  O2-  O436  1  0.03011188  0.33625119  0.37794833  1
  O2-  O437  1  0.03188167  0.33315553  0.62431096  1
  O2-  O438  1  0.02991384  0.00222761  0.62267581  1
  O2-  O439  1  0.52929318  0.33004311  0.87059563  1
  O2-  O440  1  0.97386538  0.66590946  0.11938819  1
  O2-  O441  1  0.97218731  -0.00142766  0.87134227  1
  O2-  O442  1  0.52690225  0.66758790  0.37683860  1
  O2-  O443  1  0.47235854  0.33193831  0.37420995  1
