# generated using pymatgen
data_La7(Ru4O11)2
_symmetry_space_group_name_H-M   'P 1'
_cell_length_a   23.99339351
_cell_length_b   16.83546130
_cell_length_c   15.43068789
_cell_angle_alpha   89.99962478
_cell_angle_beta   89.99968802
_cell_angle_gamma   89.99802033
_symmetry_Int_Tables_number   1
_chemical_formula_structural   La7(Ru4O11)2
_chemical_formula_sum   'La84 Ru96 O264'
_cell_volume   6233.06971506
_cell_formula_units_Z   12
loop_
 _symmetry_equiv_pos_site_id
 _symmetry_equiv_pos_as_xyz
  1  'x, y, z'
loop_
 _atom_type_symbol
 _atom_type_oxidation_number
  La3+  3.0
  Ru4+  4.0
  O2-  -2.0
loop_
 _atom_site_type_symbol
 _atom_site_label
 _atom_site_symmetry_multiplicity
 _atom_site_fract_x
 _atom_site_fract_y
 _atom_site_fract_z
 _atom_site_occupancy
  La3+  La0  1  0.13777840  -0.00123722  0.12774644  1
  La3+  La1  1  0.13812776  -0.00100094  0.37649567  1
  La3+  La2  1  0.13830415  -0.00091864  0.62194611  1
  La3+  La3  1  0.14207656  0.00504007  0.87434757  1
  La3+  La4  1  0.15506315  0.33238074  0.12239709  1
  La3+  La5  1  0.14580597  0.33679668  0.37564955  1
  La3+  La6  1  0.14216720  0.33234370  0.61890425  1
  La3+  La7  1  0.14772137  0.32505445  0.87461754  1
  La3+  La8  1  0.13738579  0.66158337  0.13133032  1
  La3+  La9  1  0.13680943  0.66225173  0.36985986  1
  La3+  La10  1  0.14174955  0.66726337  0.62771137  1
  La3+  La11  1  0.14218561  0.66568213  0.87616808  1
  La3+  La12  1  0.64136060  0.00353100  0.12200827  1
  La3+  La13  1  0.65218363  -0.00027034  0.37923367  1
  La3+  La14  1  0.64444263  0.00062576  0.61995128  1
  La3+  La15  1  0.63392455  0.00334271  0.88192599  1
  La3+  La16  1  0.64110196  0.33807796  0.13272900  1
  La3+  La17  1  0.64495153  0.33504984  0.36956426  1
  La3+  La18  1  0.63109349  0.33761453  0.62806210  1
  La3+  La19  1  0.63544946  0.33337072  0.87230029  1
  La3+  La20  1  0.64184359  0.66911219  0.12298688  1
  La3+  La21  1  0.63887165  0.66823158  0.37432423  1
  La3+  La22  1  0.63642873  0.66836382  0.62355515  1
  La3+  La23  1  0.63748936  0.66781402  0.88077081  1
  La3+  La24  1  0.37292850  -0.01615747  0.11283154  1
  La3+  La25  1  0.35972630  0.00763964  0.37251633  1
  La3+  La26  1  0.35523652  0.00305046  0.62722641  1
  La3+  La27  1  0.36333694  -0.01678204  0.88122843  1
  La3+  La28  1  0.35169626  0.33151826  0.12081060  1
  La3+  La29  1  0.34265719  0.33900954  0.38387660  1
  La3+  La30  1  0.36240727  0.32859628  0.62424170  1
  La3+  La31  1  0.35870958  0.33418380  0.88250358  1
  La3+  La32  1  0.36173372  0.66383407  0.12769611  1
  La3+  La33  1  0.36349348  0.66564715  0.37180272  1
  La3+  La34  1  0.35619534  0.67025873  0.62764870  1
  La3+  La35  1  0.36145905  0.66701586  0.87363511  1
  La3+  La36  1  0.85963409  -0.00194098  0.12969054  1
  La3+  La37  1  0.84610990  0.00097153  0.37714280  1
  La3+  La38  1  0.85778444  0.00040009  0.61779188  1
  La3+  La39  1  0.86437054  0.00130597  0.87857151  1
  La3+  La40  1  0.85545557  0.33434687  0.13430753  1
  La3+  La41  1  0.85574376  0.33117200  0.37132170  1
  La3+  La42  1  0.86604408  0.33391197  0.62068501  1
  La3+  La43  1  0.86072981  0.33079549  0.87722199  1
  La3+  La44  1  0.86610265  0.66764161  0.12607459  1
  La3+  La45  1  0.86550267  0.66554983  0.37246669  1
  La3+  La46  1  0.86263259  0.66725048  0.62076318  1
  La3+  La47  1  0.85909741  0.66928117  0.87976677  1
  La3+  La48  1  0.50031281  0.48811073  0.35453399  1
  La3+  La49  1  0.49761728  0.16870782  0.38125558  1
  La3+  La50  1  0.49679611  0.83739493  0.88733097  1
  La3+  La51  1  0.50288054  0.49595277  0.11370712  1
  La3+  La52  1  0.49806073  0.83426982  0.63311218  1
  La3+  La53  1  0.50158006  0.49764664  0.64544046  1
  La3+  La54  1  0.50534485  0.16163934  0.36358326  1
  La3+  La55  1  0.50330590  0.83561670  0.11114011  1
  La3+  La56  1  -0.00061038  0.17496598  0.11120477  1
  La3+  La57  1  0.00387871  0.84019481  0.89754465  1
  La3+  La58  1  0.50932211  0.15097256  0.62545940  1
  La3+  La59  1  -0.00031239  0.49852155  0.36484012  1
  La3+  La60  1  0.49576936  0.83573187  0.13021019  1
  La3+  La61  1  0.00117555  0.83252548  0.36072513  1
  La3+  La62  1  0.50394797  0.82970960  0.61330196  1
  La3+  La63  1  0.00052111  0.84050793  0.62606588  1
  La3+  La64  1  0.50564491  0.49666576  0.62424047  1
  La3+  La65  1  0.00241362  0.83155505  0.60626119  1
  La3+  La66  1  0.00080479  0.83474265  0.87677711  1
  La3+  La67  1  -0.00026283  0.49406663  0.62178087  1
  La3+  La68  1  -0.00020124  0.15947393  0.61967165  1
  La3+  La69  1  0.50934692  0.15728461  0.11240152  1
  La3+  La70  1  0.50144738  0.49790619  0.37404307  1
  La3+  La71  1  -0.00300950  0.49529747  0.87130072  1
  La3+  La72  1  0.75234055  0.87943980  0.73279145  1
  La3+  La73  1  0.25101810  0.12465474  0.21592340  1
  La3+  La74  1  0.25112870  0.88422369  0.48504489  1
  La3+  La75  1  0.25084104  0.15877944  0.74600532  1
  La3+  La76  1  0.74787804  0.88031207  0.24988486  1
  La3+  La77  1  0.75059169  0.16695445  0.22082846  1
  La3+  La78  1  0.75123335  0.14765573  0.48658468  1
  La3+  La79  1  0.24948756  0.47565020  0.75556688  1
  La3+  La80  1  0.74973871  0.84149292  -0.01004247  1
  La3+  La81  1  0.24839906  0.82500445  -0.05870380  1
  La3+  La82  1  0.74773425  0.15659794  0.75029767  1
  La3+  La83  1  0.75040993  0.49006945  0.80971829  1
  Ru4+  Ru84  1  -0.00323856  -0.00037079  0.00155357  1
  Ru4+  Ru85  1  -0.00720144  0.00726540  0.24948111  1
  Ru4+  Ru86  1  -0.00292707  0.00920098  0.49920651  1
  Ru4+  Ru87  1  0.00053378  0.00507747  0.75242754  1
  Ru4+  Ru88  1  0.01504824  0.34811859  0.00451420  1
  Ru4+  Ru89  1  -0.00404716  0.32975113  0.25283766  1
  Ru4+  Ru90  1  -0.00291269  0.32688711  0.49234341  1
  Ru4+  Ru91  1  0.00185618  0.31341632  0.73773766  1
  Ru4+  Ru92  1  0.00124928  0.66096044  0.00966001  1
  Ru4+  Ru93  1  -0.00135212  0.66419711  0.24322552  1
  Ru4+  Ru94  1  -0.00041597  0.66550723  0.49097535  1
  Ru4+  Ru95  1  0.01278769  0.66053397  0.74220356  1
  Ru4+  Ru96  1  0.49107651  0.00717277  0.00001932  1
  Ru4+  Ru97  1  0.50219119  -0.01552067  0.25672256  1
  Ru4+  Ru98  1  0.50534940  -0.01012116  0.48599037  1
  Ru4+  Ru99  1  0.50076662  0.00487713  0.76068973  1
  Ru4+  Ru100  1  0.49389506  0.33396651  0.00373523  1
  Ru4+  Ru101  1  0.48862551  0.33121143  0.24691293  1
  Ru4+  Ru102  1  0.50353536  0.32598500  0.50405394  1
  Ru4+  Ru103  1  0.49789278  0.31807524  0.76804762  1
  Ru4+  Ru104  1  0.50248649  0.65318320  -0.00056420  1
  Ru4+  Ru105  1  0.49701199  0.66786100  0.24186497  1
  Ru4+  Ru106  1  0.49787879  0.66788179  0.49617094  1
  Ru4+  Ru107  1  0.49829315  0.66609988  0.75919293  1
  Ru4+  Ru108  1  0.11498662  0.17023603  -0.00108532  1
  Ru4+  Ru109  1  0.10844519  0.17060366  0.25239376  1
  Ru4+  Ru110  1  0.11561884  0.16997822  0.49936349  1
  Ru4+  Ru111  1  0.10309042  0.17748418  0.74733995  1
  Ru4+  Ru112  1  0.11064188  0.48661165  0.00149750  1
  Ru4+  Ru113  1  0.11422854  0.49810820  0.24726578  1
  Ru4+  Ru114  1  0.11248969  0.50000335  0.49646371  1
  Ru4+  Ru115  1  0.10638768  0.50394488  0.75379760  1
  Ru4+  Ru116  1  0.10846526  0.83383645  -0.00007024  1
  Ru4+  Ru117  1  0.11399082  0.83123589  0.25550105  1
  Ru4+  Ru118  1  0.11623842  0.82606714  0.50006829  1
  Ru4+  Ru119  1  0.11725796  0.82853439  0.75611642  1
  Ru4+  Ru120  1  0.61805844  0.17089033  0.00428053  1
  Ru4+  Ru121  1  0.61353987  0.16728483  0.25013096  1
  Ru4+  Ru122  1  0.61244573  0.17375945  0.50136378  1
  Ru4+  Ru123  1  0.60379264  0.17266790  0.75460134  1
  Ru4+  Ru124  1  0.60920565  0.50347104  -0.00343526  1
  Ru4+  Ru125  1  0.62017885  0.50229110  0.24707807  1
  Ru4+  Ru126  1  0.61403198  0.49620536  0.49785768  1
  Ru4+  Ru127  1  0.61148800  0.50709892  0.75422415  1
  Ru4+  Ru128  1  0.61052116  0.83368084  -0.00416815  1
  Ru4+  Ru129  1  0.60804957  0.83328768  0.25038884  1
  Ru4+  Ru130  1  0.61198198  0.84309838  0.49478436  1
  Ru4+  Ru131  1  0.61166048  0.83760180  0.75221793  1
  Ru4+  Ru132  1  0.39485804  0.15489579  -0.00409379  1
  Ru4+  Ru133  1  0.38799363  0.17766770  0.24935527  1
  Ru4+  Ru134  1  0.38163515  0.16669208  0.50446512  1
  Ru4+  Ru135  1  0.39371784  0.17255421  0.75195860  1
  Ru4+  Ru136  1  0.38695523  0.49604051  -0.00199427  1
  Ru4+  Ru137  1  0.38035769  0.49860091  0.24734202  1
  Ru4+  Ru138  1  0.38502136  0.50298507  0.49937894  1
  Ru4+  Ru139  1  0.39065656  0.49514392  0.75190157  1
  Ru4+  Ru140  1  0.38850057  0.83467191  -0.00020049  1
  Ru4+  Ru141  1  0.38650017  0.83447275  0.25075765  1
  Ru4+  Ru142  1  0.38838109  0.82989872  0.49853381  1
  Ru4+  Ru143  1  0.38558612  0.82712086  0.75411350  1
  Ru4+  Ru144  1  0.88611014  0.16903012  0.00049661  1
  Ru4+  Ru145  1  0.89607748  0.16048185  0.25783168  1
  Ru4+  Ru146  1  0.89282200  0.16963643  0.49620804  1
  Ru4+  Ru147  1  0.89313628  0.17572929  0.75222275  1
  Ru4+  Ru148  1  0.88846467  0.50085530  -0.00142614  1
  Ru4+  Ru149  1  0.88854836  0.49439007  0.24560585  1
  Ru4+  Ru150  1  0.88709865  0.49805448  0.50194475  1
  Ru4+  Ru151  1  0.89135348  0.49803624  0.74812389  1
  Ru4+  Ru152  1  0.88901960  0.83567689  0.00158187  1
  Ru4+  Ru153  1  0.89162095  0.83523096  0.24699015  1
  Ru4+  Ru154  1  0.88351453  0.83106204  0.49761757  1
  Ru4+  Ru155  1  0.89092270  0.82653482  0.75226090  1
  Ru4+  Ru156  1  0.25060143  0.01049047  0.76331951  1
  Ru4+  Ru157  1  0.24847074  0.27626016  0.26420017  1
  Ru4+  Ru158  1  0.24968161  0.71606136  0.50305848  1
  Ru4+  Ru159  1  0.75031387  0.02478627  0.76197347  1
  Ru4+  Ru160  1  0.25104011  0.62393429  0.75771832  1
  Ru4+  Ru161  1  0.74973529  0.59007918  0.49912066  1
  Ru4+  Ru162  1  0.24911602  0.70367887  0.03318348  1
  Ru4+  Ru163  1  0.24795297  0.95903676  0.01284571  1
  Ru4+  Ru164  1  0.74998007  0.42336187  0.00436212  1
  Ru4+  Ru165  1  0.75063668  0.72654837  0.25937678  1
  Ru4+  Ru166  1  0.74884821  0.75508243  0.49633347  1
  Ru4+  Ru167  1  0.75002896  0.41664634  0.49863948  1
  Ru4+  Ru168  1  0.25036703  0.29998879  0.74829130  1
  Ru4+  Ru169  1  0.24997808  0.57394042  0.47388303  1
  Ru4+  Ru170  1  0.24942960  0.74554270  0.25478778  1
  Ru4+  Ru171  1  0.24967958  0.91870765  0.26678835  1
  Ru4+  Ru172  1  0.74939927  0.74565047  0.74121359  1
  Ru4+  Ru173  1  0.24879342  0.56251095  -0.00200452  1
  Ru4+  Ru174  1  0.75146600  0.58470566  0.25444568  1
  Ru4+  Ru175  1  0.75125319  0.60564601  0.71641755  1
  Ru4+  Ru176  1  0.75000643  0.29113038  0.73418299  1
  Ru4+  Ru177  1  0.75072961  0.09691229  -0.00466906  1
  Ru4+  Ru178  1  0.75118117  0.57615093  0.00177875  1
  Ru4+  Ru179  1  0.75009771  0.41238927  0.66779791  1
  O2-  O180  1  0.15822079  0.07919783  0.00192138  1
  O2-  O181  1  0.15759603  0.07762571  0.25029693  1
  O2-  O182  1  0.16074440  0.07918593  0.50018928  1
  O2-  O183  1  0.16307480  0.08044371  0.75147285  1
  O2-  O184  1  0.17324423  0.41843558  -0.00300348  1
  O2-  O185  1  0.16903497  0.41857134  0.25201526  1
  O2-  O186  1  0.16400043  0.41728262  0.50213437  1
  O2-  O187  1  0.16212901  0.41716942  0.74813143  1
  O2-  O188  1  0.16618473  0.74250155  0.00465505  1
  O2-  O189  1  0.16769825  0.74919302  0.24890266  1
  O2-  O190  1  0.16879851  0.74253761  0.49592232  1
  O2-  O191  1  0.16744914  0.74430681  0.75230947  1
  O2-  O192  1  0.66773825  0.08332501  -0.00007234  1
  O2-  O193  1  0.66331133  0.08095869  0.24800113  1
  O2-  O194  1  0.66101461  0.08229194  0.50036655  1
  O2-  O195  1  0.66161606  0.08187728  0.74956800  1
  O2-  O196  1  0.66386258  0.41699865  -0.00009248  1
  O2-  O197  1  0.66690679  0.41658784  0.25328416  1
  O2-  O198  1  0.66735177  0.41499432  0.50120247  1
  O2-  O199  1  0.66599725  0.41915576  0.74983216  1
  O2-  O200  1  0.66459560  0.74925161  0.00325818  1
  O2-  O201  1  0.66651668  0.74591790  0.25369843  1
  O2-  O202  1  0.66364363  0.74767938  0.49765907  1
  O2-  O203  1  0.66357540  0.74684391  0.74933169  1
  O2-  O204  1  0.34492385  0.24374836  -0.00423740  1
  O2-  O205  1  0.32617396  0.24863645  0.24177265  1
  O2-  O206  1  0.33617315  0.25504283  0.50726561  1
  O2-  O207  1  0.32956187  0.25784416  0.74657972  1
  O2-  O208  1  0.33232792  0.58405971  -0.00145104  1
  O2-  O209  1  0.33484949  0.58920281  0.25303565  1
  O2-  O210  1  0.33085561  0.58598912  0.49829060  1
  O2-  O211  1  0.33177645  0.58574301  0.75200742  1
  O2-  O212  1  0.32741338  0.91875242  0.00024551  1
  O2-  O213  1  0.33303551  0.92007708  0.25406362  1
  O2-  O214  1  0.34182079  0.92431924  0.50121502  1
  O2-  O215  1  0.33879051  0.91813144  0.74747930  1
  O2-  O216  1  0.83778846  0.25086109  0.00205548  1
  O2-  O217  1  0.83426394  0.24544224  0.25160126  1
  O2-  O218  1  0.83495220  0.25273660  0.50002730  1
  O2-  O219  1  0.83160410  0.25595096  0.74726426  1
  O2-  O220  1  0.83601403  0.58608626  0.00071587  1
  O2-  O221  1  0.83452037  0.58792491  0.25147850  1
  O2-  O222  1  0.83353228  0.58803190  0.49950940  1
  O2-  O223  1  0.83569122  0.58868918  0.75001301  1
  O2-  O224  1  0.83298931  0.91976178  -0.00078992  1
  O2-  O225  1  0.83643882  0.92106513  0.25101465  1
  O2-  O226  1  0.83601707  0.91471144  0.50131147  1
  O2-  O227  1  0.84355957  0.92747638  0.75159560  1
  O2-  O228  1  0.16485373  0.24977873  -0.00368733  1
  O2-  O229  1  0.16609663  0.25244070  0.25197960  1
  O2-  O230  1  0.16607418  0.25237196  0.50061982  1
  O2-  O231  1  0.17273600  0.25303299  0.74689241  1
  O2-  O232  1  0.16309345  0.57941896  0.00262406  1
  O2-  O233  1  0.16718228  0.58388722  0.25256608  1
  O2-  O234  1  0.17120606  0.58401165  0.50016228  1
  O2-  O235  1  0.17159598  0.58666103  0.75162627  1
  O2-  O236  1  0.16724813  0.92356095  0.00007101  1
  O2-  O237  1  0.16510191  0.91970537  0.25011659  1
  O2-  O238  1  0.16099169  0.92277470  0.50060597  1
  O2-  O239  1  0.15965391  0.92115077  0.75106197  1
  O2-  O240  1  0.66312607  0.25534319  -0.00039072  1
  O2-  O241  1  0.66460689  0.25466854  0.25183096  1
  O2-  O242  1  0.66354957  0.25614530  0.50124593  1
  O2-  O243  1  0.66626015  0.25748605  0.74821498  1
  O2-  O244  1  0.66860913  0.58371973  -0.00288975  1
  O2-  O245  1  0.66780276  0.58862154  0.25352957  1
  O2-  O246  1  0.66719228  0.58994679  0.50115532  1
  O2-  O247  1  0.66886855  0.58976917  0.74758397  1
  O2-  O248  1  0.66485502  0.91927768  0.00329441  1
  O2-  O249  1  0.65607387  0.92323037  0.24763591  1
  O2-  O250  1  0.66840156  0.91407004  0.50391188  1
  O2-  O251  1  0.66138071  0.92527179  0.75530080  1
  O2-  O252  1  0.33589960  0.08087121  0.00271682  1
  O2-  O253  1  0.34169444  0.08312438  0.24737628  1
  O2-  O254  1  0.33510854  0.08096408  0.50137616  1
  O2-  O255  1  0.33781831  0.08056800  0.75304153  1
  O2-  O256  1  0.33160470  0.41612486  -0.00152486  1
  O2-  O257  1  0.33341986  0.41578008  0.24649441  1
  O2-  O258  1  0.33314158  0.41568290  0.51390270  1
  O2-  O259  1  0.33539568  0.41266269  0.74721487  1
  O2-  O260  1  0.33500775  0.74388823  0.00189612  1
  O2-  O261  1  0.33147923  0.74739522  0.25356225  1
  O2-  O262  1  0.32958419  0.74609150  0.49574278  1
  O2-  O263  1  0.33205931  0.74461060  0.75007411  1
  O2-  O264  1  0.83502140  0.08216882  0.00045475  1
  O2-  O265  1  0.83386166  0.08570477  0.24528315  1
  O2-  O266  1  0.84053770  0.08387034  0.50152052  1
  O2-  O267  1  0.83417331  0.08024371  0.75506658  1
  O2-  O268  1  0.83619929  0.41559633  0.00030159  1
  O2-  O269  1  0.83282381  0.41900157  0.25385884  1
  O2-  O270  1  0.83088464  0.41841394  0.49959021  1
  O2-  O271  1  0.83153071  0.41807718  0.75040828  1
  O2-  O272  1  0.83879921  0.74582319  0.00199521  1
  O2-  O273  1  0.83462057  0.74557808  0.25111638  1
  O2-  O274  1  0.82906736  0.74482534  0.49702250  1
  O2-  O275  1  0.83504668  0.74575613  0.74701390  1
  O2-  O276  1  0.05320554  0.90667342  0.50725053  1
  O2-  O277  1  0.55151444  0.09258365  0.49336955  1
  O2-  O278  1  0.04680177  0.23209736  -0.00174351  1
  O2-  O279  1  0.54544310  0.76512588  0.75012851  1
  O2-  O280  1  0.05185456  0.23041492  0.51073703  1
  O2-  O281  1  0.47199512  0.22235040  0.23133066  1
  O2-  O282  1  0.95406571  0.75866613  0.98598192  1
  O2-  O283  1  0.05009409  0.58202275  0.98801305  1
  O2-  O284  1  0.45323033  0.43157038  0.49918222  1
  O2-  O285  1  0.95215744  0.76197110  0.24236304  1
  O2-  O286  1  0.45364469  0.07918012  0.23446722  1
  O2-  O287  1  0.95101340  0.56842581  0.24061598  1
  O2-  O288  1  0.44963745  0.09604027  0.50532966  1
  O2-  O289  1  0.95215915  0.56565370  0.51344991  1
  O2-  O290  1  0.44964015  0.56446875  0.25829497  1
  O2-  O291  1  0.44951735  0.08508214  0.73441900  1
  O2-  O292  1  0.55946425  0.08901774  0.00901640  1
  O2-  O293  1  0.55106997  0.42510032  0.73943700  1
  O2-  O294  1  0.95241771  0.57720851  0.75504802  1
  O2-  O295  1  0.45278961  0.89799927  0.26128637  1
  O2-  O296  1  0.96387260  0.11061235  0.21532295  1
  O2-  O297  1  0.05789878  0.08028804  0.73001247  1
  O2-  O298  1  0.45258638  0.56703510  0.75906755  1
  O2-  O299  1  0.54931755  0.57407912  0.48807369  1
  O2-  O300  1  0.46080868  0.23111702  0.69798981  1
  O2-  O301  1  0.95146452  0.90203225  0.49769791  1
  O2-  O302  1  0.04697417  0.23210124  0.26087949  1
  O2-  O303  1  0.45145368  0.90278183  0.51345702  1
  O2-  O304  1  -0.00099415  0.45774937  1.00602360  1
  O2-  O305  1  0.95302979  0.90410178  0.76267134  1
  O2-  O306  1  0.45052144  0.24627372  0.02055736  1
  O2-  O307  1  0.44496021  0.56909548  0.01141432  1
  O2-  O308  1  0.46649169  0.21902420  0.23009859  1
  O2-  O309  1  0.44216520  0.91656244  0.02294070  1
  O2-  O310  1  0.95297320  0.09328021  0.48236493  1
  O2-  O311  1  0.95456966  0.10757695  0.78448158  1
  O2-  O312  1  0.44322166  0.08882937  0.26854195  1
  O2-  O313  1  0.05337792  0.90835417  0.26151094  1
  O2-  O314  1  0.94759702  0.24422579  0.51292732  1
  O2-  O315  1  0.02370621  0.20551024  0.76178851  1
  O2-  O316  1  0.54108873  0.54528368  0.94690551  1
  O2-  O317  1  0.54768593  0.43200148  0.23590691  1
  O2-  O318  1  0.94910067  0.57076352  0.26084233  1
  O2-  O319  1  0.45367362  0.90180268  1.00817559  1
  O2-  O320  1  0.45263048  0.75570625  0.00949040  1
  O2-  O321  1  0.55292060  0.57620904  0.26533401  1
  O2-  O322  1  0.45349836  0.90576980  0.76644705  1
  O2-  O323  1  0.47798067  0.13341463  0.96694063  1
  O2-  O324  1  0.56118505  0.92984668  0.96072584  1
  O2-  O325  1  0.56058927  0.93950805  0.57437691  1
  O2-  O326  1  0.55984968  0.73932891  0.96273991  1
  O2-  O327  1  0.06211002  0.74229074  0.28933924  1
  O2-  O328  1  0.93641642  0.25221934  0.67120200  1
  O2-  O329  1  0.06408489  0.58787083  0.82662809  1
  O2-  O330  1  0.93578816  0.92350688  0.02095726  1
  O2-  O331  1  0.06469815  0.41615148  0.31076895  1
  O2-  O332  1  0.56253286  0.90964435  0.43159567  1
  O2-  O333  1  0.56017814  0.06433494  0.03733723  1
  O2-  O334  1  0.43496856  0.74463166  0.22828098  1
  O2-  O335  1  0.08331945  0.29408346  0.72334322  1
  O2-  O336  1  0.55817807  0.40672229  0.70739013  1
  O2-  O337  1  0.56564699  0.25218655  0.67120538  1
  O2-  O338  1  0.92759482  0.05334453  0.32087326  1
  O2-  O339  1  0.06177486  0.74169250  0.83348538  1
  O2-  O340  1  0.43363104  0.93077153  0.96378004  1
  O2-  O341  1  0.43623705  0.06699883  0.08043188  1
  O2-  O342  1  0.55946510  0.92796095  0.72621301  1
  O2-  O343  1  0.57459715  0.59557447  0.06010599  1
  O2-  O344  1  0.93897574  0.40874383  0.22589941  1
  O2-  O345  1  0.07871228  0.40860705  0.07429767  1
  O2-  O346  1  0.92829161  0.25272422  0.81788266  1
  O2-  O347  1  0.93342265  0.73789472  0.53436572  1
  O2-  O348  1  0.92691020  0.07202541  0.70919603  1
  O2-  O349  1  0.43680667  0.73404202  0.68014044  1
  O2-  O350  1  0.93613604  0.25687277  0.22302900  1
  O2-  O351  1  0.43657609  0.73475031  0.52238383  1
  O2-  O352  1  0.06976735  0.57746340  0.67813193  1
  O2-  O353  1  0.93771830  0.40440331  0.52999418  1
  O2-  O354  1  0.06103777  0.93615292  0.28340764  1
  O2-  O355  1  0.56347120  0.40433180  0.23487476  1
  O2-  O356  1  0.42078787  0.26880347  0.81156241  1
  O2-  O357  1  0.42439862  0.06578774  0.91483980  1
  O2-  O358  1  0.56168429  0.07716049  0.78365156  1
  O2-  O359  1  0.56433002  0.60015143  0.78028269  1
  O2-  O360  1  0.06429819  0.59273761  0.46047514  1
  O2-  O361  1  0.06406863  0.59336477  0.21929636  1
  O2-  O362  1  0.07950602  0.40261733  0.92576495  1
  O2-  O363  1  0.93710552  0.92366831  0.22379787  1
  O2-  O364  1  0.43656633  0.41183359  0.02129035  1
  O2-  O365  1  0.06706026  0.41544811  0.19210161  1
  O2-  O366  1  0.56234965  0.25405071  0.82498917  1
  O2-  O367  1  0.94280051  0.40908427  0.72275820  1
  O2-  O368  1  0.42970218  0.75771022  0.82583946  1
  O2-  O369  1  0.06078654  0.92466459  0.53920191  1
  O2-  O370  1  0.07021963  0.75123295  0.68513853  1
  O2-  O371  1  0.41064675  0.30498733  0.29827714  1
  O2-  O372  1  0.75077765  0.66010582  0.82755572  1
  O2-  O373  1  0.74837194  0.33820964  0.40772506  1
  O2-  O374  1  0.75148908  0.32500108  0.93496390  1
  O2-  O375  1  0.25003627  0.66256489  0.64070796  1
  O2-  O376  1  0.75013727  0.00384948  0.08260276  1
  O2-  O377  1  0.75013697  -0.00248432  0.94621728  1
  O2-  O378  1  0.74995161  0.32613130  0.07864222  1
  O2-  O379  1  0.24757174  0.00295900  0.12473028  1
  O2-  O380  1  0.75053194  0.01539887  0.55837415  1
  O2-  O381  1  0.74939557  0.00329775  0.38793752  1
  O2-  O382  1  0.25162269  0.32244424  0.13544315  1
  O2-  O383  1  0.75123941  -0.01749263  0.64132791  1
  O2-  O384  1  0.24771805  -0.01095296  0.38018419  1
  O2-  O385  1  0.24909910  0.67379895  0.15279471  1
  O2-  O386  1  0.24704341  0.33034325  0.37503842  1
  O2-  O387  1  0.75034979  0.67470142  0.96146823  1
  O2-  O388  1  0.75027308  0.32852235  0.16941127  1
  O2-  O389  1  0.74926295  0.34759138  0.84591987  1
  O2-  O390  1  0.75116595  -0.04364140  0.86350569  1
  O2-  O391  1  0.24965129  -0.00269413  0.64146556  1
  O2-  O392  1  0.75051536  0.66652338  0.60547373  1
  O2-  O393  1  0.24866319  0.00040637  0.89178387  1
  O2-  O394  1  0.74871674  0.01116156  0.17393685  1
  O2-  O395  1  0.25031693  0.66494702  0.89925322  1
  O2-  O396  1  0.74809661  0.17584750  0.35261420  1
  O2-  O397  1  0.74991818  0.50200178  0.08932280  1
  O2-  O398  1  0.24979869  0.18911380  0.34635884  1
  O2-  O399  1  0.25037557  0.83302574  0.09254754  1
  O2-  O400  1  0.75004180  0.80451730  0.85399156  1
  O2-  O401  1  0.75019384  0.19635985  0.61848563  1
  O2-  O402  1  0.25039864  0.51003972  0.09256430  1
  O2-  O403  1  0.74874523  0.49396277  0.33452260  1
  O2-  O404  1  0.24797953  0.17491283  0.87659110  1
  O2-  O405  1  0.24947233  0.83370991  0.68673120  1
  O2-  O406  1  0.25029306  0.50263010  0.89741370  1
  O2-  O407  1  0.74944848  0.50602446  0.42173576  1
  O2-  O408  1  0.25077729  0.17767959  0.61635356  1
  O2-  O409  1  0.25045124  0.83847536  0.18604262  1
  O2-  O410  1  0.75016673  0.81205837  0.12934029  1
  O2-  O411  1  0.74903549  0.49299387  0.18017846  1
  O2-  O412  1  0.25058481  0.52390315  0.37601045  1
  O2-  O413  1  0.75056084  0.15767218  0.89823641  1
  O2-  O414  1  0.24802585  0.17677150  0.10030253  1
  O2-  O415  1  0.74942652  0.80298502  0.38165753  1
  O2-  O416  1  0.25008576  0.82019110  0.35194357  1
  O2-  O417  1  0.25023284  0.83620188  0.81889206  1
  O2-  O418  1  0.74978926  0.80932423  0.60937241  1
  O2-  O419  1  0.24944839  0.81722507  0.60527614  1
  O2-  O420  1  0.45690072  0.35143703  0.14216015  1
  O2-  O421  1  0.98619694  0.01315732  0.11753614  1
  O2-  O422  1  0.48799818  0.34003830  0.37973350  1
  O2-  O423  1  0.45957362  0.65204213  0.12416174  1
  O2-  O424  1  0.54711984  0.31761267  0.10083397  1
  O2-  O425  1  0.45555426  0.00094741  0.38637477  1
  O2-  O426  1  0.96938748  0.34897767  0.89661134  1
  O2-  O427  1  0.95853722  0.33109460  0.08989829  1
  O2-  O428  1  0.98089684  -0.00737246  0.62397150  1
  O2-  O429  1  0.48065632  0.35342891  0.88419601  1
  O2-  O430  1  0.02505720  0.34824269  0.61489463  1
  O2-  O431  1  0.02101494  0.32588886  0.85687106  1
  O2-  O432  1  0.47212841  0.66448207  0.37316257  1
  O2-  O433  1  0.54717081  0.69771532  0.14607060  1
  O2-  O434  1  0.95245439  0.33597306  0.37074110  1
  O2-  O435  1  0.02911254  0.30930692  0.13914931  1
  O2-  O436  1  0.04394353  0.32926460  0.40540243  1
  O2-  O437  1  0.97889384  -0.00390328  0.87858519  1
  O2-  O438  1  0.47716794  0.65876377  0.88446715  1
  O2-  O439  1  0.97378607  0.66797433  0.12008749  1
  O2-  O440  1  0.55090047  0.02288842  0.33988471  1
  O2-  O441  1  0.01229567  0.66745306  0.61166328  1
  O2-  O442  1  0.52869494  0.65845899  0.62496775  1
  O2-  O443  1  0.97328281  0.67552106  0.37386926  1
