# generated using pymatgen
data_La7(Ru4O11)2
_symmetry_space_group_name_H-M   'P 1'
_cell_length_a   23.99164079
_cell_length_b   16.83171124
_cell_length_c   15.42829558
_cell_angle_alpha   90.00086058
_cell_angle_beta   90.00010708
_cell_angle_gamma   90.00097199
_symmetry_Int_Tables_number   1
_chemical_formula_structural   La7(Ru4O11)2
_chemical_formula_sum   'La84 Ru96 O264'
_cell_volume   6230.26002650
_cell_formula_units_Z   12
loop_
 _symmetry_equiv_pos_site_id
 _symmetry_equiv_pos_as_xyz
  1  'x, y, z'
loop_
 _atom_type_symbol
 _atom_type_oxidation_number
  La3+  3.0
  Ru4+  4.0
  O2-  -2.0
loop_
 _atom_site_type_symbol
 _atom_site_label
 _atom_site_symmetry_multiplicity
 _atom_site_fract_x
 _atom_site_fract_y
 _atom_site_fract_z
 _atom_site_occupancy
  La3+  La0  1  0.13458762  -0.02079822  0.11802709  1
  La3+  La1  1  0.13339223  0.00122737  0.38143776  1
  La3+  La2  1  0.13585753  -0.00204589  0.62476316  1
  La3+  La3  1  0.13730626  -0.01252797  0.87326227  1
  La3+  La4  1  0.13238772  0.33171192  0.12294455  1
  La3+  La5  1  0.13678332  0.33365909  0.37654387  1
  La3+  La6  1  0.13231917  0.33338565  0.62823869  1
  La3+  La7  1  0.13272048  0.33010207  0.87303479  1
  La3+  La8  1  0.13640147  0.66393332  0.12750506  1
  La3+  La9  1  0.14016608  0.65986239  0.37061181  1
  La3+  La10  1  0.13993605  0.66610469  0.62280932  1
  La3+  La11  1  0.13731184  0.66609168  0.87618560  1
  La3+  La12  1  0.64107522  0.00048263  0.12289515  1
  La3+  La13  1  0.63862539  -0.00021375  0.37123571  1
  La3+  La14  1  0.64376721  -0.00058418  0.62596514  1
  La3+  La15  1  0.64585014  0.00527791  0.87187378  1
  La3+  La16  1  0.64902921  0.32972047  0.12383769  1
  La3+  La17  1  0.64253910  0.33095924  0.37795272  1
  La3+  La18  1  0.64207646  0.33595349  0.62398726  1
  La3+  La19  1  0.64231059  0.33210006  0.87610040  1
  La3+  La20  1  0.64282575  0.66624175  0.12167860  1
  La3+  La21  1  0.64084042  0.66416467  0.37792815  1
  La3+  La22  1  0.64621625  0.66694927  0.62470190  1
  La3+  La23  1  0.64308465  0.66906576  0.88154739  1
  La3+  La24  1  0.36589191  0.00044380  0.12565389  1
  La3+  La25  1  0.36370304  0.00419930  0.38256321  1
  La3+  La26  1  0.36235906  0.00297790  0.62181164  1
  La3+  La27  1  0.35995730  0.00487986  0.87163329  1
  La3+  La28  1  0.36680990  0.33450096  0.12603655  1
  La3+  La29  1  0.35912584  0.33575565  0.37277937  1
  La3+  La30  1  0.35927617  0.33600584  0.62786213  1
  La3+  La31  1  0.36167177  0.33304942  0.87421523  1
  La3+  La32  1  0.36402814  0.66445330  0.13103541  1
  La3+  La33  1  0.36587145  0.66319677  0.37178870  1
  La3+  La34  1  0.36441768  0.66814581  0.62315488  1
  La3+  La35  1  0.36236447  0.66439101  0.87436800  1
  La3+  La36  1  0.85685953  0.00232052  0.12315523  1
  La3+  La37  1  0.86386885  -0.00222421  0.37801603  1
  La3+  La38  1  0.85651986  -0.00123648  0.62315033  1
  La3+  La39  1  0.85792831  0.00233589  0.87713241  1
  La3+  La40  1  0.85167727  0.32969664  0.12544610  1
  La3+  La41  1  0.85799460  0.32655739  0.37540016  1
  La3+  La42  1  0.86057549  0.32994906  0.62283758  1
  La3+  La43  1  0.85861065  0.33315837  0.87751673  1
  La3+  La44  1  0.85806911  0.66693497  0.12074216  1
  La3+  La45  1  0.85773726  0.66753634  0.37745137  1
  La3+  La46  1  0.85872122  0.66643515  0.62182297  1
  La3+  La47  1  0.85577186  0.66822432  0.87874189  1
  La3+  La48  1  0.50201446  0.50188710  0.86590213  1
  La3+  La49  1  -0.00408737  0.50372896  0.86313346  1
  La3+  La50  1  0.00141592  0.50028485  0.88363108  1
  La3+  La51  1  -0.00109867  0.17046490  0.87008665  1
  La3+  La52  1  0.49725484  0.16471465  0.37013866  1
  La3+  La53  1  0.00124306  0.49962393  0.61403973  1
  La3+  La54  1  0.49924983  0.83082764  0.37916557  1
  La3+  La55  1  0.50092666  0.49963769  0.62453399  1
  La3+  La56  1  -0.00022184  0.16069737  0.36750716  1
  La3+  La57  1  0.50079718  0.83565475  0.87893863  1
  La3+  La58  1  0.00243502  0.83258739  0.86950852  1
  La3+  La59  1  0.00348356  0.50041378  0.36579293  1
  La3+  La60  1  0.49750550  0.84240172  0.86482442  1
  La3+  La61  1  0.49760489  0.49974084  0.12472443  1
  La3+  La62  1  0.00302390  0.49861010  0.38269932  1
  La3+  La63  1  -0.00206939  0.82619665  0.62482151  1
  La3+  La64  1  0.49948897  0.83408665  0.62853156  1
  La3+  La65  1  0.50128623  0.49679881  0.60733732  1
  La3+  La66  1  -0.00188250  0.17147116  0.13087990  1
  La3+  La67  1  0.00026962  0.83278581  0.89177597  1
  La3+  La68  1  0.00015497  0.50365401  0.12953173  1
  La3+  La69  1  0.50036253  0.50007973  0.88741293  1
  La3+  La70  1  -0.00280147  0.16412003  0.63364224  1
  La3+  La71  1  -0.00442472  0.17465212  0.11471116  1
  La3+  La72  1  0.25077221  0.11908025  0.70878293  1
  La3+  La73  1  0.74959629  0.12197945  0.77728194  1
  La3+  La74  1  0.25002325  0.42578595  0.00594792  1
  La3+  La75  1  0.25087354  0.54199899  0.50009456  1
  La3+  La76  1  0.75056172  0.46477304  0.25105432  1
  La3+  La77  1  0.74967244  0.49849300  -0.02101010  1
  La3+  La78  1  0.24977722  0.89723390  0.72333983  1
  La3+  La79  1  0.24802837  0.83717635  0.00001605  1
  La3+  La80  1  0.25012986  0.13232517  0.05289361  1
  La3+  La81  1  0.24964010  0.20576402  0.25824560  1
  La3+  La82  1  0.24940861  0.84051497  0.49315814  1
  La3+  La83  1  0.24925715  0.77757899  0.31126411  1
  Ru4+  Ru84  1  0.00694545  0.00226925  0.01196748  1
  Ru4+  Ru85  1  -0.00140268  -0.01308336  0.24888740  1
  Ru4+  Ru86  1  -0.00682742  0.00031402  0.49004667  1
  Ru4+  Ru87  1  -0.01008760  -0.00157365  0.75180273  1
  Ru4+  Ru88  1  -0.00379085  0.34006269  -0.00265241  1
  Ru4+  Ru89  1  0.00145395  0.33954114  0.24911817  1
  Ru4+  Ru90  1  0.00043968  0.32791185  0.49826730  1
  Ru4+  Ru91  1  -0.01247502  0.33526443  0.74477610  1
  Ru4+  Ru92  1  -0.00259911  0.66919689  0.01181812  1
  Ru4+  Ru93  1  0.00013570  0.66522735  0.24962841  1
  Ru4+  Ru94  1  -0.00261622  0.67799296  0.49597407  1
  Ru4+  Ru95  1  -0.00049880  0.66253970  0.74654828  1
  Ru4+  Ru96  1  0.50184639  0.00550001  0.00225174  1
  Ru4+  Ru97  1  0.50433070  0.00006586  0.23072716  1
  Ru4+  Ru98  1  0.50237511  -0.00724514  0.50674574  1
  Ru4+  Ru99  1  0.50167037  0.00884697  0.75022281  1
  Ru4+  Ru100  1  0.49732000  0.33422293  0.00131488  1
  Ru4+  Ru101  1  0.50014347  0.33240823  0.24202988  1
  Ru4+  Ru102  1  0.49367769  0.32401924  0.49721897  1
  Ru4+  Ru103  1  0.50191034  0.32669535  0.75706475  1
  Ru4+  Ru104  1  0.50317073  0.66923541  0.00004124  1
  Ru4+  Ru105  1  0.49437336  0.66795615  0.25593316  1
  Ru4+  Ru106  1  0.50423220  0.65978009  0.49032455  1
  Ru4+  Ru107  1  0.49817078  0.66408764  0.74884013  1
  Ru4+  Ru108  1  0.11102083  0.15897750  -0.00253653  1
  Ru4+  Ru109  1  0.10952385  0.16632040  0.25234904  1
  Ru4+  Ru110  1  0.11397190  0.16210164  0.49738672  1
  Ru4+  Ru111  1  0.11666076  0.16536143  0.75039172  1
  Ru4+  Ru112  1  0.10813863  0.49851823  0.00089196  1
  Ru4+  Ru113  1  0.11589579  0.50379528  0.24992118  1
  Ru4+  Ru114  1  0.11597992  0.50400220  0.50072976  1
  Ru4+  Ru115  1  0.11581773  0.50607097  0.74985592  1
  Ru4+  Ru116  1  0.11123187  0.83331224  0.00305955  1
  Ru4+  Ru117  1  0.10845658  0.83445078  0.24764193  1
  Ru4+  Ru118  1  0.11138723  0.82193221  0.49675643  1
  Ru4+  Ru119  1  0.11451961  0.82562423  0.75167512  1
  Ru4+  Ru120  1  0.61232404  0.16189332  -0.00077342  1
  Ru4+  Ru121  1  0.61443440  0.16711071  0.24990642  1
  Ru4+  Ru122  1  0.61743927  0.16989775  0.50264105  1
  Ru4+  Ru123  1  0.60541826  0.16297503  0.74670475  1
  Ru4+  Ru124  1  0.61000531  0.49765881  -0.00249660  1
  Ru4+  Ru125  1  0.60924787  0.50060229  0.24888160  1
  Ru4+  Ru126  1  0.61241922  0.50766930  0.49975825  1
  Ru4+  Ru127  1  0.61403391  0.49852784  0.75194376  1
  Ru4+  Ru128  1  0.61019756  0.83143748  0.00396808  1
  Ru4+  Ru129  1  0.61292942  0.83488531  0.25168082  1
  Ru4+  Ru130  1  0.61537423  0.83363891  0.50009082  1
  Ru4+  Ru131  1  0.61045275  0.83418428  0.75044032  1
  Ru4+  Ru132  1  0.39455390  0.16701168  -0.00281135  1
  Ru4+  Ru133  1  0.39227181  0.16673240  0.24970746  1
  Ru4+  Ru134  1  0.38634630  0.17020374  0.50243525  1
  Ru4+  Ru135  1  0.39495248  0.16790023  0.75433747  1
  Ru4+  Ru136  1  0.39662910  0.49902409  -0.00330564  1
  Ru4+  Ru137  1  0.38698846  0.50381906  0.25143238  1
  Ru4+  Ru138  1  0.38857493  0.50035728  0.49950509  1
  Ru4+  Ru139  1  0.39461314  0.50126089  0.75224580  1
  Ru4+  Ru140  1  0.38992795  0.83580384  0.00059503  1
  Ru4+  Ru141  1  0.39076349  0.83213337  0.25010179  1
  Ru4+  Ru142  1  0.38713037  0.82877050  0.49833001  1
  Ru4+  Ru143  1  0.39167260  0.83638613  0.74996750  1
  Ru4+  Ru144  1  0.88221130  0.16712727  -0.00162389  1
  Ru4+  Ru145  1  0.88175002  0.16433669  0.25057333  1
  Ru4+  Ru146  1  0.88326951  0.16248480  0.49881605  1
  Ru4+  Ru147  1  0.88660746  0.16510919  0.75060892  1
  Ru4+  Ru148  1  0.88877547  0.50096508  -0.00019937  1
  Ru4+  Ru149  1  0.89401704  0.49936249  0.25122513  1
  Ru4+  Ru150  1  0.88477239  0.50001125  0.50018651  1
  Ru4+  Ru151  1  0.88767073  0.49640458  0.74996707  1
  Ru4+  Ru152  1  0.88686969  0.82618308  0.00836288  1
  Ru4+  Ru153  1  0.89006714  0.83562991  0.24837102  1
  Ru4+  Ru154  1  0.88708847  0.83796948  0.49825412  1
  Ru4+  Ru155  1  0.88682014  0.83801590  0.74626032  1
  Ru4+  Ru156  1  0.75000055  0.42329978  0.50250052  1
  Ru4+  Ru157  1  0.25059160  0.72268457  0.73442184  1
  Ru4+  Ru158  1  0.75011353  0.91601612  0.24562621  1
  Ru4+  Ru159  1  0.25073093  0.57743495  0.00336924  1
  Ru4+  Ru160  1  0.25072756  0.27290482  0.75942606  1
  Ru4+  Ru161  1  0.75040390  0.57462910  0.75003205  1
  Ru4+  Ru162  1  0.24960711  0.40646904  0.51228219  1
  Ru4+  Ru163  1  0.74944427  0.76489146  0.75051408  1
  Ru4+  Ru164  1  0.74909200  0.90610522  0.75457808  1
  Ru4+  Ru165  1  0.25000671  0.42074915  0.25074503  1
  Ru4+  Ru166  1  0.74988223  0.91375471  -0.00566000  1
  Ru4+  Ru167  1  0.24973641  0.06915110  0.25596804  1
  Ru4+  Ru168  1  0.25153653  0.70610367  -0.00098377  1
  Ru4+  Ru169  1  0.25052448  0.26862725  0.00003923  1
  Ru4+  Ru170  1  0.75020238  0.76144925  0.49856922  1
  Ru4+  Ru171  1  0.75005028  0.75483185  0.26119588  1
  Ru4+  Ru172  1  0.25022208  0.41015780  0.73686977  1
  Ru4+  Ru173  1  0.25293231  0.97058775  0.00481134  1
  Ru4+  Ru174  1  0.74902127  0.09162753  0.51444227  1
  Ru4+  Ru175  1  0.75024194  0.61314878  0.24860239  1
  Ru4+  Ru176  1  0.74946735  0.26465262  0.75316032  1
  Ru4+  Ru177  1  0.24896352  0.23475621  0.49760774  1
  Ru4+  Ru178  1  0.25119530  0.58807388  0.73545551  1
  Ru4+  Ru179  1  0.25057972  0.93966948  0.26296230  1
  O2-  O180  1  0.16702267  0.08018660  0.00308517  1
  O2-  O181  1  0.16781191  0.07937428  0.25027553  1
  O2-  O182  1  0.16570071  0.07987904  0.50123510  1
  O2-  O183  1  0.16244619  0.07876802  0.74825877  1
  O2-  O184  1  0.15649774  0.40834760  -0.00083422  1
  O2-  O185  1  0.16502828  0.41210478  0.24859282  1
  O2-  O186  1  0.16558594  0.41271803  0.50237530  1
  O2-  O187  1  0.16608151  0.41183446  0.74889885  1
  O2-  O188  1  0.16476885  0.74533412  0.00249672  1
  O2-  O189  1  0.16554942  0.74787450  0.24918386  1
  O2-  O190  1  0.17538618  0.74924688  0.49711723  1
  O2-  O191  1  0.16651882  0.74412908  0.74913838  1
  O2-  O192  1  0.66378528  0.08326209  0.00260162  1
  O2-  O193  1  0.66722332  0.08189258  0.25067515  1
  O2-  O194  1  0.66701808  0.08154790  0.49789232  1
  O2-  O195  1  0.66364031  0.07950657  0.74660546  1
  O2-  O196  1  0.66431771  0.41446366  -0.00280105  1
  O2-  O197  1  0.66333288  0.41073868  0.25139694  1
  O2-  O198  1  0.66547355  0.41718247  0.49742863  1
  O2-  O199  1  0.66719089  0.41698364  0.75229692  1
  O2-  O200  1  0.66617307  0.75107119  -0.00036147  1
  O2-  O201  1  0.66589835  0.74947884  0.25050460  1
  O2-  O202  1  0.66547711  0.74850553  0.49872489  1
  O2-  O203  1  0.66747599  0.74861710  0.75145598  1
  O2-  O204  1  0.33281752  0.25311499  0.00232916  1
  O2-  O205  1  0.33718902  0.25468336  0.24675238  1
  O2-  O206  1  0.33071476  0.25073871  0.49898255  1
  O2-  O207  1  0.33242550  0.25206850  0.74935925  1
  O2-  O208  1  0.33620825  0.58744188  -0.00028947  1
  O2-  O209  1  0.33233959  0.58618867  0.25157511  1
  O2-  O210  1  0.33575712  0.59106828  0.49956925  1
  O2-  O211  1  0.33405586  0.58787594  0.74875097  1
  O2-  O212  1  0.33558010  0.92192895  0.00134525  1
  O2-  O213  1  0.33610689  0.92137795  0.25378391  1
  O2-  O214  1  0.33128338  0.92198226  0.49673211  1
  O2-  O215  1  0.33914248  0.92192076  0.75274999  1
  O2-  O216  1  0.83627631  0.25303930  -0.00121384  1
  O2-  O217  1  0.83255236  0.25151133  0.25234158  1
  O2-  O218  1  0.83577549  0.25100649  0.50028408  1
  O2-  O219  1  0.83236271  0.25383043  0.75000182  1
  O2-  O220  1  0.83429198  0.58504323  0.00090730  1
  O2-  O221  1  0.83189533  0.58759071  0.25199782  1
  O2-  O222  1  0.83593313  0.58455553  0.49802457  1
  O2-  O223  1  0.83251412  0.58516143  0.75058810  1
  O2-  O224  1  0.83562764  0.91797738  0.00012618  1
  O2-  O225  1  0.83324975  0.91746922  0.25149406  1
  O2-  O226  1  0.83266022  0.91865641  0.49966597  1
  O2-  O227  1  0.83024574  0.91873726  0.75115212  1
  O2-  O228  1  0.16566166  0.25225886  0.00299460  1
  O2-  O229  1  0.16044503  0.25527225  0.24684034  1
  O2-  O230  1  0.16406598  0.25338295  0.50173016  1
  O2-  O231  1  0.16630439  0.25586143  0.74756572  1
  O2-  O232  1  0.16660028  0.58727540  0.00013764  1
  O2-  O233  1  0.16835441  0.58509134  0.24753414  1
  O2-  O234  1  0.16675282  0.59076128  0.50053251  1
  O2-  O235  1  0.16807887  0.58689972  0.75077040  1
  O2-  O236  1  0.16796362  0.92022088  0.00089262  1
  O2-  O237  1  0.16631745  0.92007803  0.25573934  1
  O2-  O238  1  0.16696615  0.91755467  0.49982369  1
  O2-  O239  1  0.15762328  0.92037417  0.74623300  1
  O2-  O240  1  0.65993805  0.25121141  -0.00148657  1
  O2-  O241  1  0.66661460  0.24963553  0.25252241  1
  O2-  O242  1  0.66858330  0.24893342  0.49648550  1
  O2-  O243  1  0.66389521  0.25215128  0.75113899  1
  O2-  O244  1  0.66830224  0.58535425  0.00115832  1
  O2-  O245  1  0.66741898  0.58524510  0.25229445  1
  O2-  O246  1  0.66562490  0.58299913  0.49519889  1
  O2-  O247  1  0.66716559  0.58583825  0.75265001  1
  O2-  O248  1  0.66946052  0.91469849  0.00455089  1
  O2-  O249  1  0.66962099  0.91998358  0.25065714  1
  O2-  O250  1  0.66611022  0.92075317  0.49767348  1
  O2-  O251  1  0.66828144  0.91746411  0.74975602  1
  O2-  O252  1  0.33654660  0.08164699  0.00292728  1
  O2-  O253  1  0.33496590  0.08055355  0.25081598  1
  O2-  O254  1  0.33649140  0.08175760  0.49675906  1
  O2-  O255  1  0.33975708  0.08068021  0.74915668  1
  O2-  O256  1  0.34235297  0.40987973  0.00132371  1
  O2-  O257  1  0.33288083  0.41617774  0.24868613  1
  O2-  O258  1  0.33227158  0.41495141  0.50012902  1
  O2-  O259  1  0.33261825  0.41424236  0.75047679  1
  O2-  O260  1  0.33605013  0.74315711  -0.00011677  1
  O2-  O261  1  0.33004874  0.74473296  0.25189192  1
  O2-  O262  1  0.33194104  0.74599821  0.49792054  1
  O2-  O263  1  0.33659480  0.74501785  0.74828838  1
  O2-  O264  1  0.83478840  0.08105027  0.00134362  1
  O2-  O265  1  0.83343859  0.07781141  0.25158518  1
  O2-  O266  1  0.82955594  0.08261802  0.49770026  1
  O2-  O267  1  0.83657872  0.07634117  0.74940735  1
  O2-  O268  1  0.83212447  0.41484795  -0.00270342  1
  O2-  O269  1  0.83707151  0.40979087  0.25165741  1
  O2-  O270  1  0.83403437  0.41364308  0.49926843  1
  O2-  O271  1  0.83666791  0.41507493  0.74988286  1
  O2-  O272  1  0.83185973  0.74916950  0.00204554  1
  O2-  O273  1  0.83141877  0.74956611  0.25229790  1
  O2-  O274  1  0.83274364  0.74894631  0.49844028  1
  O2-  O275  1  0.83456933  0.74967984  0.74997558  1
  O2-  O276  1  0.02904511  0.11646282  0.99096994  1
  O2-  O277  1  0.54550079  0.43322384  0.23298509  1
  O2-  O278  1  0.04609481  0.43533063  0.24170446  1
  O2-  O279  1  0.95164328  0.56843551  0.48581371  1
  O2-  O280  1  0.44919511  0.09503446  0.51503821  1
  O2-  O281  1  0.05505152  0.90483403  0.48661177  1
  O2-  O282  1  0.04629509  0.42896468  0.48488133  1
  O2-  O283  1  0.04463987  0.90189358  0.99115138  1
  O2-  O284  1  0.44688274  0.89760688  0.50878173  1
  O2-  O285  1  0.54365562  0.41944110  0.51375284  1
  O2-  O286  1  0.04697949  0.91559240  0.52177224  1
  O2-  O287  1  0.54787544  0.76331209  0.95528804  1
  O2-  O288  1  0.54818030  0.90259934  0.51093209  1
  O2-  O289  1  0.53161990  0.89262337  0.02961955  1
  O2-  O290  1  0.05082873  0.90141636  0.26246692  1
  O2-  O291  1  0.54884250  0.23244827  0.73968259  1
  O2-  O292  1  0.05265000  0.24935212  0.98786707  1
  O2-  O293  1  0.95487416  0.23625254  0.51877199  1
  O2-  O294  1  0.03320758  0.11936983  0.00740084  1
  O2-  O295  1  0.54792642  0.22665717  0.45544434  1
  O2-  O296  1  0.54290286  0.54575993  0.45899721  1
  O2-  O297  1  0.54796755  0.90298637  0.49019681  1
  O2-  O298  1  0.04999447  0.91039441  0.76836741  1
  O2-  O299  1  0.04673806  0.43432113  0.73139916  1
  O2-  O300  1  0.05039005  0.24012264  0.73159652  1
  O2-  O301  1  0.95121607  0.23605173  0.99320201  1
  O2-  O302  1  0.05639558  0.90833385  0.01200558  1
  O2-  O303  1  0.01309588  0.78496311  0.47877030  1
  O2-  O304  1  0.04924743  0.57227948  0.48794799  1
  O2-  O305  1  0.44901301  0.76104661  0.98382862  1
  O2-  O306  1  0.45116700  0.09918342  0.76455287  1
  O2-  O307  1  0.47159002  0.21944142  0.53532167  1
  O2-  O308  1  0.04985333  0.24252025  0.77091677  1
  O2-  O309  1  0.45354161  0.08280758  0.47895550  1
  O2-  O310  1  0.04837159  0.90185416  0.73040397  1
  O2-  O311  1  0.94993994  0.90424952  0.01281029  1
  O2-  O312  1  0.44963008  0.56808634  0.49192533  1
  O2-  O313  1  0.95469400  0.23331288  0.23886118  1
  O2-  O314  1  0.94539036  0.90689153  0.26071687  1
  O2-  O315  1  0.04762754  0.42777971  0.76999694  1
  O2-  O316  1  0.53221270  0.89257163  1.00975844  1
  O2-  O317  1  0.05132063  0.09657628  0.76232027  1
  O2-  O318  1  0.96832453  0.77443809  0.24272702  1
  O2-  O319  1  0.55048427  0.10371848  0.98946243  1
  O2-  O320  1  0.45423774  0.23473647  0.26044161  1
  O2-  O321  1  0.95257506  0.23262957  0.47947851  1
  O2-  O322  1  0.45087808  0.09508191  0.98558211  1
  O2-  O323  1  0.93976544  0.08688838  0.01768406  1
  O2-  O324  1  0.43546728  0.27752855  0.41494052  1
  O2-  O325  1  0.93611685  0.92626832  0.82397256  1
  O2-  O326  1  0.56296148  0.26497428  0.22078606  1
  O2-  O327  1  0.93694752  0.93090833  0.67627905  1
  O2-  O328  1  0.43624102  0.58633770  0.27380746  1
  O2-  O329  1  0.05712966  0.06324971  0.77382780  1
  O2-  O330  1  0.06513957  0.74315434  0.97539665  1
  O2-  O331  1  0.93720151  0.07883370  0.47534088  1
  O2-  O332  1  0.56091352  0.07616966  0.28795192  1
  O2-  O333  1  0.92799027  0.72008212  0.21688286  1
  O2-  O334  1  0.07074124  0.05060426  0.09527970  1
  O2-  O335  1  0.05941790  0.07336210  0.46845303  1
  O2-  O336  1  0.93475294  0.92412851  0.47766738  1
  O2-  O337  1  0.43372267  0.40816652  0.22708380  1
  O2-  O338  1  0.07604918  0.06218581  0.91233474  1
  O2-  O339  1  0.43253790  0.91459021  0.68270976  1
  O2-  O340  1  0.56378847  0.06915842  0.68240465  1
  O2-  O341  1  0.06019156  0.40761235  0.46165354  1
  O2-  O342  1  0.06215932  0.58952555  0.02565490  1
  O2-  O343  1  0.55993564  0.58602549  0.97291920  1
  O2-  O344  1  0.43656932  0.26325586  0.93543470  1
  O2-  O345  1  0.43797889  0.41068124  0.52766996  1
  O2-  O346  1  0.57257880  0.71999150  0.06977925  1
  O2-  O347  1  0.93790461  0.07755189  0.78342103  1
  O2-  O348  1  0.06171007  0.07229143  0.28015395  1
  O2-  O349  1  0.56896045  0.61668647  0.56685081  1
  O2-  O350  1  0.43521452  0.26650772  0.78348982  1
  O2-  O351  1  0.43139766  0.25239287  0.05640992  1
  O2-  O352  1  0.94361017  0.25191119  0.20969307  1
  O2-  O353  1  0.56310363  0.41074375  0.72637724  1
  O2-  O354  1  0.93193658  0.74978098  0.93614416  1
  O2-  O355  1  0.93044940  0.74282891  0.52358596  1
  O2-  O356  1  0.43446027  0.93131589  0.82512159  1
  O2-  O357  1  0.06848034  0.93111615  0.95582936  1
  O2-  O358  1  0.57754329  0.27145479  0.54965529  1
  O2-  O359  1  0.08378329  0.73267988  0.43282176  1
  O2-  O360  1  0.56608111  0.41212335  0.52953847  1
  O2-  O361  1  0.58989776  0.94720611  0.94467972  1
  O2-  O362  1  0.41958567  0.26051173  0.56350729  1
  O2-  O363  1  0.56496207  0.07709833  0.80511326  1
  O2-  O364  1  0.06688556  0.26801026  0.96252452  1
  O2-  O365  1  0.56081013  0.92339909  0.28849988  1
  O2-  O366  1  0.06167639  0.59052615  0.27597063  1
  O2-  O367  1  0.93496024  0.25306210  0.72158482  1
  O2-  O368  1  0.43570755  0.74523818  0.22368352  1
  O2-  O369  1  0.93764796  0.73677077  0.06978471  1
  O2-  O370  1  0.93649340  0.41027011  0.97723739  1
  O2-  O371  1  0.07871823  0.75009509  0.57752386  1
  O2-  O372  1  0.75060192  0.33608605  0.10413366  1
  O2-  O373  1  0.24890562  0.00298336  0.64054053  1
  O2-  O374  1  0.24992150  0.01013848  0.12386028  1
  O2-  O375  1  0.75043424  -0.00922767  0.09728478  1
  O2-  O376  1  0.74982748  0.00088802  0.67207825  1
  O2-  O377  1  0.24937732  0.32675567  0.30244496  1
  O2-  O378  1  0.24904366  0.33640601  0.88935886  1
  O2-  O379  1  0.75033443  0.66853470  0.68494347  1
  O2-  O380  1  0.24895990  0.32472993  0.60633421  1
  O2-  O381  1  0.25001651  0.66528687  0.11532414  1
  O2-  O382  1  0.74954927  0.32889329  0.57759958  1
  O2-  O383  1  0.25120878  0.00068220  0.81786191  1
  O2-  O384  1  0.75052022  -0.00358581  0.90050062  1
  O2-  O385  1  0.74953199  0.66719945  0.55867389  1
  O2-  O386  1  0.75097453  0.67029893  0.39445038  1
  O2-  O387  1  0.74969963  0.65913191  0.91734256  1
  O2-  O388  1  0.75009418  0.33762972  0.84913555  1
  O2-  O389  1  0.74935407  -0.00227207  0.58028948  1
  O2-  O390  1  0.74981166  0.34753196  0.66598633  1
  O2-  O391  1  0.75015807  0.66904606  0.82778693  1
  O2-  O392  1  0.24911396  0.32640637  0.42930263  1
  O2-  O393  1  0.25078796  0.66515435  0.88002032  1
  O2-  O394  1  0.24944218  0.03059153  0.90338072  1
  O2-  O395  1  0.74974438  0.34460330  0.40212474  1
  O2-  O396  1  0.75007407  0.49430605  0.58606726  1
  O2-  O397  1  0.25019373  0.51755839  0.10709137  1
  O2-  O398  1  0.24999192  0.17763431  0.92199223  1
  O2-  O399  1  0.75011463  0.83274413  0.17373710  1
  O2-  O400  1  0.24975655  0.17961568  0.83369631  1
  O2-  O401  1  0.24985750  0.16758470  0.58311320  1
  O2-  O402  1  0.24976834  0.49810435  0.81024888  1
  O2-  O403  1  0.24965847  0.16671516  0.40162722  1
  O2-  O404  1  0.25183421  0.81085567  0.12576660  1
  O2-  O405  1  0.24972229  0.79489088  0.82068784  1
  O2-  O406  1  0.74977357  0.16942793  0.63567108  1
  O2-  O407  1  0.75032244  0.84204274  0.90508185  1
  O2-  O408  1  0.74992565  0.50844327  0.11726715  1
  O2-  O409  1  0.25011338  0.51655431  0.90120358  1
  O2-  O410  1  0.25138309  0.86384226  0.87335570  1
  O2-  O411  1  0.24960610  0.51417329  0.19824135  1
  O2-  O412  1  0.74973905  0.82831404  0.40544086  1
  O2-  O413  1  0.24948236  0.84769300  0.20138573  1
  O2-  O414  1  0.75044023  0.16850854  0.09062457  1
  O2-  O415  1  0.24997276  0.50101426  0.65002619  1
  O2-  O416  1  0.75026541  0.82661691  0.07780787  1
  O2-  O417  1  0.74972260  0.82584891  0.59291189  1
  O2-  O418  1  0.25076644  0.80331553  0.62148407  1
  O2-  O419  1  0.75005121  0.17541716  0.89706925  1
  O2-  O420  1  0.02686708  0.66918203  0.13161368  1
  O2-  O421  1  0.52629505  0.33329740  0.63054805  1
  O2-  O422  1  0.48266678  0.33945955  0.12023345  1
  O2-  O423  1  0.46691524  0.34490560  0.64545841  1
  O2-  O424  1  0.51403395  -0.00672435  0.87681801  1
  O2-  O425  1  0.52289341  0.66417362  0.86626802  1
  O2-  O426  1  0.04555449  0.65547296  0.85964359  1
  O2-  O427  1  0.47072034  0.66854083  0.62323512  1
  O2-  O428  1  0.95513735  0.64572273  0.85772486  1
  O2-  O429  1  0.54605435  0.67274206  0.36705212  1
  O2-  O430  1  0.54366957  0.00793286  0.13318236  1
  O2-  O431  1  0.45471704  -0.00068605  0.12796991  1
  O2-  O432  1  0.02837423  0.33152421  0.11755240  1
  O2-  O433  1  0.47606593  0.65355600  0.12154108  1
  O2-  O434  1  0.97404847  0.34508428  0.62061865  1
  O2-  O435  1  0.52849001  0.34167317  0.87872158  1
  O2-  O436  1  0.47872772  0.00806184  0.62178285  1
  O2-  O437  1  0.45738625  0.68351970  0.38504551  1
  O2-  O438  1  0.01070011  0.66068824  0.37257515  1
  O2-  O439  1  0.95381912  0.65881632  0.63677384  1
  O2-  O440  1  0.04425517  0.64708950  0.64846422  1
  O2-  O441  1  0.97166142  0.00675190  0.13371161  1
  O2-  O442  1  0.97646676  0.00856669  0.36272366  1
  O2-  O443  1  0.97394398  0.33330649  0.86800843  1
