# generated using pymatgen
data_La7(Ru4O11)2
_symmetry_space_group_name_H-M   'P 1'
_cell_length_a   23.99674502
_cell_length_b   16.83737593
_cell_length_c   15.43371432
_cell_angle_alpha   89.99585320
_cell_angle_beta   89.99944563
_cell_angle_gamma   90.00265800
_symmetry_Int_Tables_number   1
_chemical_formula_structural   La7(Ru4O11)2
_chemical_formula_sum   'La84 Ru96 O264'
_cell_volume   6235.87212747
_cell_formula_units_Z   12
loop_
 _symmetry_equiv_pos_site_id
 _symmetry_equiv_pos_as_xyz
  1  'x, y, z'
loop_
 _atom_type_symbol
 _atom_type_oxidation_number
  La3+  3.0
  Ru4+  4.0
  O2-  -2.0
loop_
 _atom_site_type_symbol
 _atom_site_label
 _atom_site_symmetry_multiplicity
 _atom_site_fract_x
 _atom_site_fract_y
 _atom_site_fract_z
 _atom_site_occupancy
  La3+  La0  1  0.14505984  0.00416067  0.12752425  1
  La3+  La1  1  0.12801912  -0.00182370  0.37652471  1
  La3+  La2  1  0.13989287  -0.00697820  0.62126969  1
  La3+  La3  1  0.14313941  -0.00878500  0.86621140  1
  La3+  La4  1  0.13515764  0.34103436  0.12149341  1
  La3+  La5  1  0.14544007  0.33936526  0.38129353  1
  La3+  La6  1  0.14887901  0.34096087  0.62320420  1
  La3+  La7  1  0.13682070  0.33855948  0.87321314  1
  La3+  La8  1  0.15074758  0.66094655  0.13329013  1
  La3+  La9  1  0.14391648  0.66003258  0.37641133  1
  La3+  La10  1  0.14557545  0.66241547  0.61941747  1
  La3+  La11  1  0.14213121  0.66358526  0.87771012  1
  La3+  La12  1  0.64778462  -0.00121403  0.12693267  1
  La3+  La13  1  0.63612218  -0.00521538  0.36401250  1
  La3+  La14  1  0.63951013  -0.00194549  0.62162673  1
  La3+  La15  1  0.63760364  -0.00529893  0.87935305  1
  La3+  La16  1  0.64024308  0.33034789  0.12552759  1
  La3+  La17  1  0.64695686  0.33236116  0.37939219  1
  La3+  La18  1  0.63739498  0.33709034  0.61603868  1
  La3+  La19  1  0.63777116  0.33071566  0.87555264  1
  La3+  La20  1  0.64901234  0.65971804  0.12571737  1
  La3+  La21  1  0.65001002  0.66334428  0.37147076  1
  La3+  La22  1  0.63863432  0.66200156  0.61964426  1
  La3+  La23  1  0.63425282  0.67411889  0.87193145  1
  La3+  La24  1  0.35683414  0.00115420  0.12452490  1
  La3+  La25  1  0.36249522  -0.00011439  0.37427264  1
  La3+  La26  1  0.35938765  -0.00233577  0.62443679  1
  La3+  La27  1  0.36576552  -0.00290954  0.87302816  1
  La3+  La28  1  0.35997951  0.34280912  0.12596085  1
  La3+  La29  1  0.35677694  0.34031985  0.38064557  1
  La3+  La30  1  0.34624129  0.33682475  0.61921246  1
  La3+  La31  1  0.36548181  0.33686638  0.87660318  1
  La3+  La32  1  0.36093350  0.66176135  0.12707239  1
  La3+  La33  1  0.34334078  0.67263731  0.37103646  1
  La3+  La34  1  0.35452222  0.66348519  0.61768320  1
  La3+  La35  1  0.35668159  0.66654565  0.87128438  1
  La3+  La36  1  0.84699739  0.00035446  0.12398317  1
  La3+  La37  1  0.85582462  0.00028274  0.37083371  1
  La3+  La38  1  0.86978951  0.00157482  0.62055900  1
  La3+  La39  1  0.86494952  0.00020230  0.87868488  1
  La3+  La40  1  0.86565687  0.33101562  0.12442445  1
  La3+  La41  1  0.84313694  0.33862760  0.37981051  1
  La3+  La42  1  0.85288985  0.33537715  0.61706732  1
  La3+  La43  1  0.86131634  0.33094011  0.87221661  1
  La3+  La44  1  0.85516809  0.66184989  0.12804458  1
  La3+  La45  1  0.85415002  0.66600670  0.36933395  1
  La3+  La46  1  0.86217290  0.65979690  0.61909965  1
  La3+  La47  1  0.86643696  0.67481014  0.86991668  1
  La3+  La48  1  -0.01304308  0.82399480  0.86503810  1
  La3+  La49  1  -0.00095591  0.82982983  0.62569890  1
  La3+  La50  1  0.00171974  0.83140227  0.13306670  1
  La3+  La51  1  0.49794839  0.49756464  0.38666319  1
  La3+  La52  1  -0.00066898  0.16767727  0.61843221  1
  La3+  La53  1  0.50245771  0.84980825  0.37771946  1
  La3+  La54  1  0.50193761  0.82498439  0.63389071  1
  La3+  La55  1  0.50533099  0.16826435  0.37587761  1
  La3+  La56  1  -0.00256359  0.48042616  0.88080795  1
  La3+  La57  1  0.50683354  0.16441541  0.88462573  1
  La3+  La58  1  0.50279251  0.49751636  0.12135021  1
  La3+  La59  1  0.00169727  0.16444135  0.37007061  1
  La3+  La60  1  0.00573517  0.84267013  0.37703796  1
  La3+  La61  1  0.49501842  0.16442817  0.63354579  1
  La3+  La62  1  0.50260858  0.82795030  0.11999466  1
  La3+  La63  1  0.50022217  0.49098934  0.87336110  1
  La3+  La64  1  0.49959369  0.51088437  0.65499152  1
  La3+  La65  1  0.49923148  0.17051996  0.61318682  1
  La3+  La66  1  -0.00292671  0.16739414  0.13649607  1
  La3+  La67  1  0.00008581  0.49931455  0.61740937  1
  La3+  La68  1  0.50802982  0.83544383  0.13934856  1
  La3+  La69  1  -0.00322967  0.49055333  0.86111667  1
  La3+  La70  1  0.49872076  0.16883877  0.12733755  1
  La3+  La71  1  0.50006029  0.85258064  0.39375166  1
  La3+  La72  1  0.76367412  0.13209662  0.75548001  1
  La3+  La73  1  0.24980967  0.78548862  0.03376652  1
  La3+  La74  1  0.24769599  0.20163335  0.73460038  1
  La3+  La75  1  0.25052123  0.21441363  0.26085867  1
  La3+  La76  1  0.74944835  0.51867158  0.02883027  1
  La3+  La77  1  0.75133018  0.83810248  0.23096496  1
  La3+  La78  1  0.74852586  0.52172776  0.80861515  1
  La3+  La79  1  0.25130054  0.49933861  0.72451711  1
  La3+  La80  1  0.24720265  0.19587030  0.01567207  1
  La3+  La81  1  0.74554699  0.17795345  0.48530485  1
  La3+  La82  1  0.74765848  0.15819264  0.01637629  1
  La3+  La83  1  0.74918664  0.85011278  0.50531375  1
  Ru4+  Ru84  1  0.01101304  0.00375708  -0.00311819  1
  Ru4+  Ru85  1  0.00401213  0.00065968  0.25496730  1
  Ru4+  Ru86  1  -0.00205828  0.00159738  0.50678792  1
  Ru4+  Ru87  1  -0.00139158  0.00801378  0.75314479  1
  Ru4+  Ru88  1  0.00675879  0.32421211  0.00184159  1
  Ru4+  Ru89  1  0.00258092  0.33857470  0.24425317  1
  Ru4+  Ru90  1  0.00996729  0.33912979  0.49165577  1
  Ru4+  Ru91  1  -0.00074430  0.32247128  0.76362029  1
  Ru4+  Ru92  1  0.00578379  0.65387795  0.01252996  1
  Ru4+  Ru93  1  -0.00258366  0.66763992  0.24866793  1
  Ru4+  Ru94  1  0.00232249  0.66121309  0.50877178  1
  Ru4+  Ru95  1  0.00070713  0.67106524  0.75434476  1
  Ru4+  Ru96  1  0.49407792  -0.01658494  -0.00334436  1
  Ru4+  Ru97  1  0.49037598  0.01497214  0.25110643  1
  Ru4+  Ru98  1  0.50180774  0.00320707  0.50959618  1
  Ru4+  Ru99  1  0.50905366  0.00193338  0.75640611  1
  Ru4+  Ru100  1  0.49699817  0.32715518  0.00866530  1
  Ru4+  Ru101  1  0.50137583  0.33904284  0.24306182  1
  Ru4+  Ru102  1  0.50745477  0.34655048  0.48875438  1
  Ru4+  Ru103  1  0.49865463  0.34182976  0.75963995  1
  Ru4+  Ru104  1  0.49756853  0.66262582  -0.00299418  1
  Ru4+  Ru105  1  0.50163631  0.65966977  0.25567461  1
  Ru4+  Ru106  1  0.50388712  0.65547324  0.50828698  1
  Ru4+  Ru107  1  0.49916254  0.67542541  0.74643974  1
  Ru4+  Ru108  1  0.09974529  0.15906178  -0.00770785  1
  Ru4+  Ru109  1  0.11251272  0.16719735  0.24918197  1
  Ru4+  Ru110  1  0.11841705  0.16900997  0.50014561  1
  Ru4+  Ru111  1  0.10665978  0.16685547  0.75123615  1
  Ru4+  Ru112  1  0.11697052  0.49317673  0.00513232  1
  Ru4+  Ru113  1  0.11230008  0.50878135  0.25418532  1
  Ru4+  Ru114  1  0.11570253  0.50096033  0.49825440  1
  Ru4+  Ru115  1  0.11664530  0.50573540  0.74494006  1
  Ru4+  Ru116  1  0.10292479  0.84058808  0.00650066  1
  Ru4+  Ru117  1  0.11136754  0.83645137  0.24901423  1
  Ru4+  Ru118  1  0.11645311  0.82235746  0.49990569  1
  Ru4+  Ru119  1  0.11359744  0.83716282  0.75074392  1
  Ru4+  Ru120  1  0.61103511  0.16342044  0.00284402  1
  Ru4+  Ru121  1  0.61229025  0.16634380  0.25064505  1
  Ru4+  Ru122  1  0.60542370  0.16645717  0.49373278  1
  Ru4+  Ru123  1  0.61320006  0.15971511  0.74588859  1
  Ru4+  Ru124  1  0.60767176  0.49442789  -0.00445041  1
  Ru4+  Ru125  1  0.61002087  0.50281921  0.24880540  1
  Ru4+  Ru126  1  0.61213500  0.49287776  0.50175921  1
  Ru4+  Ru127  1  0.60510577  0.49953161  0.75401687  1
  Ru4+  Ru128  1  0.61302017  0.82945503  -0.01071212  1
  Ru4+  Ru129  1  0.61438598  0.82272453  0.25053578  1
  Ru4+  Ru130  1  0.60849249  0.83618092  0.50348143  1
  Ru4+  Ru131  1  0.60950440  0.83014209  0.74799479  1
  Ru4+  Ru132  1  0.39281322  0.17601555  -0.00849385  1
  Ru4+  Ru133  1  0.39384460  0.16092397  0.25208667  1
  Ru4+  Ru134  1  0.38414519  0.17090277  0.50112605  1
  Ru4+  Ru135  1  0.38754553  0.17102702  0.74741548  1
  Ru4+  Ru136  1  0.38676844  0.50159387  -0.00075758  1
  Ru4+  Ru137  1  0.38764106  0.50171470  0.25111314  1
  Ru4+  Ru138  1  0.38599505  0.51061553  0.49376982  1
  Ru4+  Ru139  1  0.39186172  0.49787903  0.75393369  1
  Ru4+  Ru140  1  0.39203129  0.83817482  -0.00572386  1
  Ru4+  Ru141  1  0.38458092  0.83125063  0.25201606  1
  Ru4+  Ru142  1  0.38393104  0.82524831  0.50268828  1
  Ru4+  Ru143  1  0.39019481  0.83478902  0.75354590  1
  Ru4+  Ru144  1  0.88851323  0.16145895  -0.00668903  1
  Ru4+  Ru145  1  0.88503393  0.16651176  0.24856206  1
  Ru4+  Ru146  1  0.88907359  0.17291218  0.49826687  1
  Ru4+  Ru147  1  0.89577677  0.16452952  0.75547220  1
  Ru4+  Ru148  1  0.88724609  0.49583323  0.00692417  1
  Ru4+  Ru149  1  0.88937559  0.50106487  0.24726687  1
  Ru4+  Ru150  1  0.89464787  0.49085526  0.49360655  1
  Ru4+  Ru151  1  0.88404401  0.49980566  0.74245747  1
  Ru4+  Ru152  1  0.88940968  0.83563966  -0.00094393  1
  Ru4+  Ru153  1  0.89310000  0.82327318  0.25132276  1
  Ru4+  Ru154  1  0.88942498  0.82911532  0.50379461  1
  Ru4+  Ru155  1  0.88277547  0.83223424  0.75123390  1
  Ru4+  Ru156  1  0.75234995  0.78572365  0.00238487  1
  Ru4+  Ru157  1  0.24896150  0.43887815  0.26911072  1
  Ru4+  Ru158  1  0.75041524  0.65388269  -0.02350716  1
  Ru4+  Ru159  1  0.25014454  0.05167265  0.74489338  1
  Ru4+  Ru160  1  0.24830058  0.75509589  0.25734072  1
  Ru4+  Ru161  1  0.75068634  0.65713458  0.73097164  1
  Ru4+  Ru162  1  0.24958629  0.09562983  0.50333955  1
  Ru4+  Ru163  1  0.25111029  0.57767162  0.00879744  1
  Ru4+  Ru164  1  0.24888299  0.89405537  0.27954959  1
  Ru4+  Ru165  1  0.25203577  0.05970052  -0.02919706  1
  Ru4+  Ru166  1  0.74287396  -0.00598213  0.73962774  1
  Ru4+  Ru167  1  0.24916208  0.91474172  -0.03160175  1
  Ru4+  Ru168  1  0.75070943  0.70050747  0.49987791  1
  Ru4+  Ru169  1  0.74418592  0.27289178  0.73928045  1
  Ru4+  Ru170  1  0.74597602  0.41407460  0.70921228  1
  Ru4+  Ru171  1  0.74941241  1.00196714  0.49281075  1
  Ru4+  Ru172  1  0.74924022  0.27629417  0.25137708  1
  Ru4+  Ru173  1  0.24970744  0.74505673  0.75621265  1
  Ru4+  Ru174  1  0.74862968  0.41830055  0.25247412  1
  Ru4+  Ru175  1  0.24975204  0.90200092  0.50490420  1
  Ru4+  Ru176  1  0.74971023  0.37795142  0.02430965  1
  Ru4+  Ru177  1  0.24985637  0.34717242  0.00028663  1
  Ru4+  Ru178  1  0.75084277  0.86678902  0.76429060  1
  Ru4+  Ru179  1  0.25036517  0.06763039  0.28990033  1
  O2-  O180  1  0.17012465  0.08273543  0.00109226  1
  O2-  O181  1  0.17115680  0.08267170  0.25859630  1
  O2-  O182  1  0.16623773  0.07421482  0.49636842  1
  O2-  O183  1  0.16887153  0.07966717  0.74575155  1
  O2-  O184  1  0.17261321  0.40947407  0.00204587  1
  O2-  O185  1  0.16400939  0.41845004  0.25246612  1
  O2-  O186  1  0.16965434  0.41799474  0.49966272  1
  O2-  O187  1  0.16777405  0.41508367  0.75368315  1
  O2-  O188  1  0.15686975  0.75178106  -0.00390994  1
  O2-  O189  1  0.16692298  0.74947113  0.25254802  1
  O2-  O190  1  0.16697177  0.74338879  0.49930306  1
  O2-  O191  1  0.16737028  0.74932088  0.75130302  1
  O2-  O192  1  0.66262232  0.07731548  -0.00388773  1
  O2-  O193  1  0.66118789  0.08193257  0.25040823  1
  O2-  O194  1  0.66796030  0.07467860  0.49855020  1
  O2-  O195  1  0.66988114  0.07171823  0.74882463  1
  O2-  O196  1  0.66597074  0.41279604  0.00042329  1
  O2-  O197  1  0.66305961  0.41389527  0.24947839  1
  O2-  O198  1  0.66962767  0.41644025  0.50991740  1
  O2-  O199  1  0.66289413  0.41579926  0.74663802  1
  O2-  O200  1  0.67161662  0.74953597  -0.00101831  1
  O2-  O201  1  0.67392490  0.74773869  0.24798047  1
  O2-  O202  1  0.66921908  0.74378776  0.49990815  1
  O2-  O203  1  0.66368924  0.74537887  0.74752784  1
  O2-  O204  1  0.32769533  0.26059562  -0.00448093  1
  O2-  O205  1  0.34463937  0.25099535  0.24835953  1
  O2-  O206  1  0.33322436  0.25224384  0.49439331  1
  O2-  O207  1  0.33400364  0.25349898  0.75741443  1
  O2-  O208  1  0.33409905  0.58570757  -0.00120316  1
  O2-  O209  1  0.33401845  0.58316614  0.24286905  1
  O2-  O210  1  0.32574140  0.57900972  0.50981706  1
  O2-  O211  1  0.33924551  0.58607806  0.75186720  1
  O2-  O212  1  0.33236756  0.91697529  -0.00600424  1
  O2-  O213  1  0.33058192  0.91405456  0.25683472  1
  O2-  O214  1  0.33468160  0.91820591  0.50090658  1
  O2-  O215  1  0.33890394  0.91754255  0.74723401  1
  O2-  O216  1  0.83226977  0.24292287  0.01076072  1
  O2-  O217  1  0.83387309  0.25702215  0.24360694  1
  O2-  O218  1  0.82382951  0.24955106  0.50452061  1
  O2-  O219  1  0.83463981  0.25152233  0.75051203  1
  O2-  O220  1  0.83180163  0.59115008  -0.01042769  1
  O2-  O221  1  0.83906316  0.58029303  0.25071706  1
  O2-  O222  1  0.84092951  0.58058136  0.49726134  1
  O2-  O223  1  0.83190154  0.59117433  0.75254058  1
  O2-  O224  1  0.83839836  0.91911179  -0.00117535  1
  O2-  O225  1  0.83974400  0.91426028  0.24881396  1
  O2-  O226  1  0.83195536  0.92617798  0.50203586  1
  O2-  O227  1  0.82760839  0.91584840  0.74562520  1
  O2-  O228  1  0.16672558  0.25235214  -0.00492924  1
  O2-  O229  1  0.16181452  0.25930736  0.24426938  1
  O2-  O230  1  0.16907889  0.25194509  0.49673008  1
  O2-  O231  1  0.15957387  0.25292283  0.75340654  1
  O2-  O232  1  0.16939966  0.58462296  -0.00372559  1
  O2-  O233  1  0.16844847  0.58219660  0.25402682  1
  O2-  O234  1  0.16793873  0.58624487  0.49665384  1
  O2-  O235  1  0.16641286  0.59044398  0.75007667  1
  O2-  O236  1  0.16628119  0.91506796  -0.00329170  1
  O2-  O237  1  0.16664140  0.91656332  0.25677328  1
  O2-  O238  1  0.16623958  0.91500174  0.49848899  1
  O2-  O239  1  0.16603891  0.91776505  0.74046967  1
  O2-  O240  1  0.66169917  0.25049164  -0.00021116  1
  O2-  O241  1  0.66522479  0.25455572  0.25015737  1
  O2-  O242  1  0.66125257  0.25245622  0.50353543  1
  O2-  O243  1  0.65864479  0.25631221  0.74631668  1
  O2-  O244  1  0.66425775  0.58761664  -0.00997292  1
  O2-  O245  1  0.66100091  0.58307174  0.24956226  1
  O2-  O246  1  0.66424330  0.58015864  0.49958728  1
  O2-  O247  1  0.66630896  0.58811306  0.75337261  1
  O2-  O248  1  0.66207987  0.91694876  0.00170196  1
  O2-  O249  1  0.66479026  0.91359224  0.24890729  1
  O2-  O250  1  0.66464139  0.92231842  0.49658367  1
  O2-  O251  1  0.66849055  0.91223206  0.75117458  1
  O2-  O252  1  0.33631937  0.08348922  -0.00238670  1
  O2-  O253  1  0.33016628  0.08107584  0.25546035  1
  O2-  O254  1  0.33095740  0.08020682  0.49656226  1
  O2-  O255  1  0.33169247  0.07790452  0.74979306  1
  O2-  O256  1  0.33400058  0.41159106  -0.00113216  1
  O2-  O257  1  0.33058800  0.41732007  0.25451997  1
  O2-  O258  1  0.33708937  0.42023482  0.49921566  1
  O2-  O259  1  0.33833977  0.41417212  0.75227957  1
  O2-  O260  1  0.33902810  0.74855281  -0.00368249  1
  O2-  O261  1  0.32910759  0.74966036  0.23697135  1
  O2-  O262  1  0.32750577  0.74823069  0.50125160  1
  O2-  O263  1  0.33297087  0.75063935  0.75069362  1
  O2-  O264  1  0.83522640  0.08238374  0.00115307  1
  O2-  O265  1  0.83787287  0.08351243  0.25098558  1
  O2-  O266  1  0.83537139  0.08140481  0.49573305  1
  O2-  O267  1  0.84545611  0.06857791  0.74465303  1
  O2-  O268  1  0.83325292  0.40909883  0.00100082  1
  O2-  O269  1  0.82996006  0.41553147  0.23963018  1
  O2-  O270  1  0.82720454  0.42537769  0.50447381  1
  O2-  O271  1  0.82676089  0.41870697  0.74853108  1
  O2-  O272  1  0.83460025  0.74945558  -0.00115056  1
  O2-  O273  1  0.83010193  0.74768175  0.24644641  1
  O2-  O274  1  0.83341854  0.74403890  0.50220115  1
  O2-  O275  1  0.82706514  0.74728427  0.74373181  1
  O2-  O276  1  0.45794522  0.43589100  -0.00221848  1
  O2-  O277  1  0.95209124  0.09168694  0.49104142  1
  O2-  O278  1  0.04911952  0.55455360  0.98242070  1
  O2-  O279  1  0.04531965  0.56004781  -0.02298844  1
  O2-  O280  1  0.04659693  0.75983803  0.48936229  1
  O2-  O281  1  0.94925020  0.09349459  0.26157375  1
  O2-  O282  1  0.05253224  0.22880660  0.94348236  1
  O2-  O283  1  0.53870297  0.42807041  0.56400908  1
  O2-  O284  1  0.96182129  0.44659859  0.21935038  1
  O2-  O285  1  0.95093023  0.57420282  0.74231478  1
  O2-  O286  1  0.94847671  0.09419320  0.49958839  1
  O2-  O287  1  0.54396002  0.56609242  0.97980931  1
  O2-  O288  1  0.04613401  0.44131596  0.73108127  1
  O2-  O289  1  0.04968103  0.76485311  0.25285873  1
  O2-  O290  1  0.45853441  0.54751256  0.53488541  1
  O2-  O291  1  0.54102572  0.91219963  0.26262327  1
  O2-  O292  1  0.98018686  0.23522835  0.49041157  1
  O2-  O293  1  0.46432393  0.54943925  0.51733736  1
  O2-  O294  1  0.06046246  0.08036979  0.25346549  1
  O2-  O295  1  0.44409407  0.25921686  0.94113790  1
  O2-  O296  1  0.53971431  0.76739997  0.29037948  1
  O2-  O297  1  0.05068643  0.91153434  0.52634050  1
  O2-  O298  1  0.04259248  0.24092333  0.24392070  1
  O2-  O299  1  0.05975475  0.90775761  0.48994229  1
  O2-  O300  1  0.45289262  0.09787745  0.76685791  1
  O2-  O301  1  0.54685300  0.09545620  0.24507568  1
  O2-  O302  1  0.54419778  0.23849463  0.25567004  1
  O2-  O303  1  0.54669959  0.23251813  0.01133299  1
  O2-  O304  1  0.45508859  0.77032031  0.77012024  1
  O2-  O305  1  0.94870669  0.90234358  0.48721005  1
  O2-  O306  1  0.94165235  0.57259039  0.01451491  1
  O2-  O307  1  0.98448149  0.46934946  0.48007192  1
  O2-  O308  1  0.04953107  0.42169700  0.76348490  1
  O2-  O309  1  0.03391262  0.88999514  0.95916587  1
  O2-  O310  1  0.02416668  0.11295399  1.02119425  1
  O2-  O311  1  0.06367214  0.24243181  0.51573714  1
  O2-  O312  1  0.94292802  0.74728216  0.30959371  1
  O2-  O313  1  0.95508636  0.90645113  0.24978475  1
  O2-  O314  1  0.04751704  0.76989720  0.76135948  1
  O2-  O315  1  0.95676598  0.23105155  0.74921749  1
  O2-  O316  1  0.45460439  0.09247942  0.98801346  1
  O2-  O317  1  0.54647468  0.89321219  0.00468335  1
  O2-  O318  1  0.45525316  0.09373639  0.00880473  1
  O2-  O319  1  0.54696312  0.23638529  0.73626100  1
  O2-  O320  1  0.56373940  0.58027014  0.49758451  1
  O2-  O321  1  0.96253998  0.21680548  0.99943444  1
  O2-  O322  1  0.45405711  0.89992647  0.51280922  1
  O2-  O323  1  0.05010448  0.09186300  0.75645680  1
  O2-  O324  1  0.44525981  0.58110811  0.26106983  1
  O2-  O325  1  0.55498504  0.75075269  0.51418696  1
  O2-  O326  1  0.05957902  0.60262586  0.27948007  1
  O2-  O327  1  0.43717161  0.92085469  0.92607765  1
  O2-  O328  1  0.92171845  0.27781832  0.99495633  1
  O2-  O329  1  0.43616161  0.40572918  0.45814965  1
  O2-  O330  1  0.93823909  0.05297125  0.97153701  1
  O2-  O331  1  0.07240605  0.66173217  0.07232601  1
  O2-  O332  1  0.07518905  0.25001065  0.07214717  1
  O2-  O333  1  0.43345031  0.07426271  0.18099494  1
  O2-  O334  1  0.57367873  0.08459073  0.81701382  1
  O2-  O335  1  0.43460104  0.92397396  0.08052538  1
  O2-  O336  1  0.06338203  0.58757998  0.52310596  1
  O2-  O337  1  0.43916187  0.26507019  0.93940216  1
  O2-  O338  1  0.06345562  0.40470732  0.01966311  1
  O2-  O339  1  0.43611787  0.74034747  0.21353087  1
  O2-  O340  1  0.58206064  0.73532559  0.17481740  1
  O2-  O341  1  0.93269781  0.74065071  0.76316613  1
  O2-  O342  1  0.91873176  0.76361072  0.14807043  1
  O2-  O343  1  0.41476048  0.23170958  0.09803143  1
  O2-  O344  1  0.91707277  0.43227987  0.59514540  1
  O2-  O345  1  0.56450030  0.07185924  0.66657398  1
  O2-  O346  1  0.43898819  0.26912684  0.71444882  1
  O2-  O347  1  0.93854148  0.59946461  0.54175670  1
  O2-  O348  1  0.56198032  0.91312962  0.28424618  1
  O2-  O349  1  0.43723763  0.08230152  0.33178808  1
  O2-  O350  1  0.92809938  0.39599011  0.27225336  1
  O2-  O351  1  0.93944419  0.91985803  0.78302077  1
  O2-  O352  1  0.07393073  0.40863152  0.47880922  1
  O2-  O353  1  0.06582220  0.94315212  0.08331151  1
  O2-  O354  1  0.57570793  0.40216850  0.43505012  1
  O2-  O355  1  0.91487500  0.23593150  0.59584469  1
  O2-  O356  1  0.94782190  0.73986441  0.30949800  1
  O2-  O357  1  0.44057598  0.74145787  0.02659933  1
  O2-  O358  1  0.56262309  0.73529325  0.96630201  1
  O2-  O359  1  0.93834811  0.07381160  0.78582930  1
  O2-  O360  1  0.42632481  0.76766901  0.41407042  1
  O2-  O361  1  0.92950834  0.41049196  0.76637194  1
  O2-  O362  1  0.43905297  0.41003953  0.28451328  1
  O2-  O363  1  0.91233024  0.40806277  0.42693343  1
  O2-  O364  1  0.90497833  0.24025466  0.41045047  1
  O2-  O365  1  0.40559287  0.60341537  0.42422421  1
  O2-  O366  1  0.07965387  0.04495016  0.94220120  1
  O2-  O367  1  0.06285533  0.07942434  0.26219125  1
  O2-  O368  1  0.44341244  0.26126675  0.53034809  1
  O2-  O369  1  0.43181289  0.75730029  0.57339832  1
  O2-  O370  1  0.43494740  0.07724758  0.52209681  1
  O2-  O371  1  0.43883246  0.92178247  0.28537823  1
  O2-  O372  1  0.74916849  0.66358304  0.85327103  1
  O2-  O373  1  0.75030695  0.63560868  0.40201739  1
  O2-  O374  1  0.24932962  0.00101737  0.59416897  1
  O2-  O375  1  0.24960789  0.33506046  0.68020368  1
  O2-  O376  1  0.25024196  -0.01498473  0.20545923  1
  O2-  O377  1  0.74594477  0.33531890  0.61978039  1
  O2-  O378  1  0.75017999  0.67447429  0.32186442  1
  O2-  O379  1  0.24927574  0.67644149  0.65955412  1
  O2-  O380  1  0.25248504  0.66225652  0.10179981  1
  O2-  O381  1  0.75117243  0.67351491  0.10636574  1
  O2-  O382  1  0.74901144  0.36706904  0.82472147  1
  O2-  O383  1  0.75151967  -0.00160496  0.37107519  1
  O2-  O384  1  0.24943803  -0.00617467  0.07204321  1
  O2-  O385  1  0.74978866  0.00773209  0.07926224  1
  O2-  O386  1  0.24996815  0.33375877  0.33656961  1
  O2-  O387  1  0.75122438  0.30100169  0.94918683  1
  O2-  O388  1  0.25113428  0.00054589  0.86100518  1
  O2-  O389  1  0.75309680  0.32481755  0.13671467  1
  O2-  O390  1  0.24533339  0.67678578  0.34381341  1
  O2-  O391  1  0.25025705  0.67238223  0.85008797  1
  O2-  O392  1  0.75008183  -0.01022833  0.17100336  1
  O2-  O393  1  0.24927281  0.32891319  0.58739706  1
  O2-  O394  1  0.74463381  0.33045216  0.37124225  1
  O2-  O395  1  0.75170486  0.65726556  0.61157326  1
  O2-  O396  1  0.25170531  0.48063828  0.95559108  1
  O2-  O397  1  0.24924023  0.48595669  0.16652297  1
  O2-  O398  1  0.24841071  0.50240170  0.59951203  1
  O2-  O399  1  0.74860254  0.49166574  0.16051684  1
  O2-  O400  1  0.75060199  0.83224574  0.36879907  1
  O2-  O401  1  0.75354717  0.12094914  0.20267801  1
  O2-  O402  1  0.74709808  0.19716890  0.16335401  1
  O2-  O403  1  0.25019523  0.49984713  0.87040050  1
  O2-  O404  1  0.76080173  0.10352995  0.60669991  1
  O2-  O405  1  0.74779195  0.11879958  0.29716727  1
  O2-  O406  1  0.73321778  0.21275970  0.63783749  1
  O2-  O407  1  0.75181372  0.19570240  0.33725233  1
  O2-  O408  1  0.74955799  0.50721197  0.64666232  1
  O2-  O409  1  0.24991858  0.83961548  0.59260578  1
  O2-  O410  1  0.24970584  0.83086613  0.88355843  1
  O2-  O411  1  0.24976342  0.48859939  0.36681008  1
  O2-  O412  1  0.74916596  0.49212318  0.41331970  1
  O2-  O413  1  0.75059541  0.50359457  0.32993670  1
  O2-  O414  1  0.24984008  0.16080776  0.59498458  1
  O2-  O415  1  0.75058683  0.83488671  0.89608987  1
  O2-  O416  1  0.75911699  0.10377369  0.89337144  1
  O2-  O417  1  0.25019536  0.84980116  0.39610221  1
  O2-  O418  1  0.73300345  0.22588313  0.84784360  1
  O2-  O419  1  0.24981913  0.15067075  0.39295148  1
  O2-  O420  1  0.97182721  -0.00852059  0.63128063  1
  O2-  O421  1  0.51200195  0.31509812  0.36900404  1
  O2-  O422  1  0.54385865  0.65783108  0.64063116  1
  O2-  O423  1  0.97678160  0.66832828  0.88582828  1
  O2-  O424  1  0.95959958  0.34083120  0.88154283  1
  O2-  O425  1  0.98242586  0.65592911  0.13158173  1
  O2-  O426  1  0.51447067  0.64263485  0.12312199  1
  O2-  O427  1  0.02385653  0.67710315  0.63515306  1
  O2-  O428  1  0.98056173  0.31963710  0.36838289  1
  O2-  O429  1  0.45542327  0.35391073  0.13976236  1
  O2-  O430  1  0.52345833  -0.01097095  0.88134661  1
  O2-  O431  1  0.49908858  0.66546026  0.37933405  1
  O2-  O432  1  0.04788019  0.32975717  0.86701018  1
  O2-  O433  1  0.54922246  0.34930978  0.12813909  1
  O2-  O434  1  0.44650842  0.64354995  0.66675483  1
  O2-  O435  1  0.03894906  0.33041161  0.36722122  1
  O2-  O436  1  0.53293696  0.34542110  0.87858358  1
  O2-  O437  1  0.47558105  -0.01242817  0.63972628  1
  O2-  O438  1  0.03707957  0.33518758  0.61615655  1
  O2-  O439  1  0.98164793  0.34186438  0.64494019  1
  O2-  O440  1  0.52820242  0.00580633  0.39011472  1
  O2-  O441  1  0.52902834  -0.00430426  0.11876866  1
  O2-  O442  1  0.02524038  -0.00589243  0.38490035  1
  O2-  O443  1  0.01022527  0.33852929  0.12725911  1
