# generated using pymatgen
data_La7(Ru4O11)2
_symmetry_space_group_name_H-M   'P 1'
_cell_length_a   23.99844614
_cell_length_b   16.84014922
_cell_length_c   15.43454000
_cell_angle_alpha   89.99864639
_cell_angle_beta   90.00084799
_cell_angle_gamma   89.99783405
_symmetry_Int_Tables_number   1
_chemical_formula_structural   La7(Ru4O11)2
_chemical_formula_sum   'La84 Ru96 O264'
_cell_volume   6237.67507534
_cell_formula_units_Z   12
loop_
 _symmetry_equiv_pos_site_id
 _symmetry_equiv_pos_as_xyz
  1  'x, y, z'
loop_
 _atom_type_symbol
 _atom_type_oxidation_number
  La3+  3.0
  Ru4+  4.0
  O2-  -2.0
loop_
 _atom_site_type_symbol
 _atom_site_label
 _atom_site_symmetry_multiplicity
 _atom_site_fract_x
 _atom_site_fract_y
 _atom_site_fract_z
 _atom_site_occupancy
  La3+  La0  1  0.13052599  -0.00704554  0.12134317  1
  La3+  La1  1  0.13888602  -0.00298015  0.37310061  1
  La3+  La2  1  0.13930765  -0.00522158  0.62680047  1
  La3+  La3  1  0.13362408  -0.00497960  0.87672785  1
  La3+  La4  1  0.13641659  0.33459671  0.12469495  1
  La3+  La5  1  0.13608412  0.33934977  0.37343476  1
  La3+  La6  1  0.12869434  0.33783309  0.62526083  1
  La3+  La7  1  0.14525967  0.34231404  0.87941411  1
  La3+  La8  1  0.13558843  0.66063104  0.11961597  1
  La3+  La9  1  0.13862942  0.65968418  0.37910339  1
  La3+  La10  1  0.13631726  0.66507349  0.62923835  1
  La3+  La11  1  0.14573231  0.66007467  0.87511824  1
  La3+  La12  1  0.65836930  0.00229522  0.12109634  1
  La3+  La13  1  0.64131536  0.00131205  0.36830432  1
  La3+  La14  1  0.64832177  -0.00332438  0.62025022  1
  La3+  La15  1  0.64166949  -0.00080922  0.87831306  1
  La3+  La16  1  0.64864243  0.34262563  0.12656202  1
  La3+  La17  1  0.64938248  0.33399571  0.37557106  1
  La3+  La18  1  0.64238242  0.34208853  0.62493540  1
  La3+  La19  1  0.63075651  0.33095157  0.88572921  1
  La3+  La20  1  0.64912465  0.66654829  0.13320179  1
  La3+  La21  1  0.63979945  0.66819777  0.37909723  1
  La3+  La22  1  0.64565792  0.67007349  0.61707955  1
  La3+  La23  1  0.63483894  0.67106420  0.87086485  1
  La3+  La24  1  0.37024646  -0.00294827  0.12213767  1
  La3+  La25  1  0.35956782  0.00277666  0.37342182  1
  La3+  La26  1  0.34064009  -0.00503041  0.63154369  1
  La3+  La27  1  0.36798671  -0.00332813  0.87426585  1
  La3+  La28  1  0.36220515  0.32935813  0.12062655  1
  La3+  La29  1  0.36909306  0.34111022  0.37525947  1
  La3+  La30  1  0.35729004  0.33403066  0.62514515  1
  La3+  La31  1  0.36351394  0.33682403  0.88037362  1
  La3+  La32  1  0.35701337  0.66718878  0.12097637  1
  La3+  La33  1  0.36696242  0.66332509  0.37899579  1
  La3+  La34  1  0.35408410  0.66945491  0.62551840  1
  La3+  La35  1  0.35154637  0.66455990  0.87969738  1
  La3+  La36  1  0.83547229  0.00018770  0.12024493  1
  La3+  La37  1  0.85501484  -0.00191550  0.36928283  1
  La3+  La38  1  0.85364882  -0.01096077  0.62225999  1
  La3+  La39  1  0.85405375  0.00108453  0.88035956  1
  La3+  La40  1  0.85190872  0.34485398  0.13263131  1
  La3+  La41  1  0.84719847  0.33254408  0.37262116  1
  La3+  La42  1  0.85212901  0.33543229  0.62366789  1
  La3+  La43  1  0.86210083  0.32503067  0.88153398  1
  La3+  La44  1  0.85130143  0.67021882  0.13789481  1
  La3+  La45  1  0.86032410  0.66739903  0.37461971  1
  La3+  La46  1  0.85660745  0.66724077  0.61566673  1
  La3+  La47  1  0.85871173  0.67298302  0.87473235  1
  La3+  La48  1  0.50198064  0.15900975  0.61811583  1
  La3+  La49  1  0.49772882  0.17024130  0.87116596  1
  La3+  La50  1  0.48937282  0.50540892  0.11408237  1
  La3+  La51  1  0.00244896  0.50840703  0.12127765  1
  La3+  La52  1  0.51414579  0.50561147  0.38669267  1
  La3+  La53  1  0.49631771  0.50057085  0.61939416  1
  La3+  La54  1  0.50160693  0.49864743  0.87953310  1
  La3+  La55  1  0.49816656  0.82526709  0.88049313  1
  La3+  La56  1  0.00392817  0.15870348  0.86976545  1
  La3+  La57  1  0.00896966  0.17914200  0.38355060  1
  La3+  La58  1  0.00455884  0.16719719  0.84950442  1
  La3+  La59  1  0.49312266  0.16013162  0.63582243  1
  La3+  La60  1  -0.00135683  0.82762838  0.86720424  1
  La3+  La61  1  -0.00026144  0.83657447  0.88613428  1
  La3+  La62  1  0.00242966  0.82155411  0.37577261  1
  La3+  La63  1  -0.00232522  0.83520157  0.39100022  1
  La3+  La64  1  0.00165695  0.51356382  0.86493486  1
  La3+  La65  1  -0.00965042  0.16789189  0.61049502  1
  La3+  La66  1  0.00293207  0.51233941  0.88174715  1
  La3+  La67  1  0.49329728  0.15467374  0.37755301  1
  La3+  La68  1  -0.00400311  0.17255770  0.12219338  1
  La3+  La69  1  0.50548725  0.17219166  0.12966141  1
  La3+  La70  1  0.00674232  0.17656144  0.36126769  1
  La3+  La71  1  0.49916874  0.82940128  0.36874376  1
  La3+  La72  1  0.74959099  0.44860446  0.76835081  1
  La3+  La73  1  0.24860704  0.81546134  -0.01103856  1
  La3+  La74  1  0.75030573  0.50622377  -0.02662635  1
  La3+  La75  1  0.25254321  0.13815512  0.26983659  1
  La3+  La76  1  0.24871407  0.16898922  0.73368953  1
  La3+  La77  1  0.74605348  0.22941341  0.50673649  1
  La3+  La78  1  0.25148771  0.16058359  0.00245398  1
  La3+  La79  1  0.75001201  0.83116381  0.45942241  1
  La3+  La80  1  0.75170138  0.10972975  0.75379055  1
  La3+  La81  1  0.24939424  0.22461769  0.50894705  1
  La3+  La82  1  0.25304267  0.53990981  0.23723620  1
  La3+  La83  1  0.24674784  0.78860931  0.24483840  1
  Ru4+  Ru84  1  -0.00230937  -0.00400004  0.01046064  1
  Ru4+  Ru85  1  -0.01657415  -0.01425418  0.25012939  1
  Ru4+  Ru86  1  -0.00387606  -0.00020453  0.52246797  1
  Ru4+  Ru87  1  -0.00136753  -0.00580722  0.74706580  1
  Ru4+  Ru88  1  0.00529465  0.33370385  -0.00325583  1
  Ru4+  Ru89  1  0.00548345  0.34999390  0.25379642  1
  Ru4+  Ru90  1  -0.01751709  0.36315932  0.50103889  1
  Ru4+  Ru91  1  0.01376269  0.33214316  0.73806875  1
  Ru4+  Ru92  1  0.00058873  0.66976118  0.01636871  1
  Ru4+  Ru93  1  -0.00341212  0.66557933  0.25402819  1
  Ru4+  Ru94  1  0.00327944  0.66670313  0.49269742  1
  Ru4+  Ru95  1  -0.01143181  0.65352222  0.73084307  1
  Ru4+  Ru96  1  0.50789216  -0.00024977  0.00178911  1
  Ru4+  Ru97  1  0.50343945  0.00114002  0.24540306  1
  Ru4+  Ru98  1  0.49853726  -0.02369216  0.49471563  1
  Ru4+  Ru99  1  0.51168773  -0.00829099  0.75499307  1
  Ru4+  Ru100  1  0.49639522  0.32598938  -0.00938041  1
  Ru4+  Ru101  1  0.51203509  0.32656328  0.26239717  1
  Ru4+  Ru102  1  0.49090454  0.34548343  0.49668909  1
  Ru4+  Ru103  1  0.49962265  0.34137907  0.74840963  1
  Ru4+  Ru104  1  0.49587516  0.67346164  0.00873636  1
  Ru4+  Ru105  1  0.49664814  0.66980367  0.23470638  1
  Ru4+  Ru106  1  0.50271011  0.67030574  0.49002599  1
  Ru4+  Ru107  1  0.50230053  0.67089568  0.75077058  1
  Ru4+  Ru108  1  0.11533399  0.16824921  0.00479034  1
  Ru4+  Ru109  1  0.11518591  0.16328683  0.22957963  1
  Ru4+  Ru110  1  0.11340295  0.16792178  0.50770139  1
  Ru4+  Ru111  1  0.11506251  0.16581036  0.74056776  1
  Ru4+  Ru112  1  0.12053191  0.49981389  0.00010709  1
  Ru4+  Ru113  1  0.10723796  0.49907870  0.25536875  1
  Ru4+  Ru114  1  0.11626618  0.50142653  0.49911435  1
  Ru4+  Ru115  1  0.11373384  0.49604107  0.75174892  1
  Ru4+  Ru116  1  0.10624451  0.83371566  -0.00190175  1
  Ru4+  Ru117  1  0.10735654  0.83217883  0.24599525  1
  Ru4+  Ru118  1  0.11119426  0.83486398  0.52107984  1
  Ru4+  Ru119  1  0.11343074  0.83003255  0.75157087  1
  Ru4+  Ru120  1  0.61536479  0.17306030  0.00616235  1
  Ru4+  Ru121  1  0.60948534  0.17072695  0.24797845  1
  Ru4+  Ru122  1  0.60552553  0.16272975  0.50002114  1
  Ru4+  Ru123  1  0.61327153  0.17054400  0.75061400  1
  Ru4+  Ru124  1  0.61338165  0.50911566  -0.00649152  1
  Ru4+  Ru125  1  0.61163170  0.48960101  0.25537876  1
  Ru4+  Ru126  1  0.61700424  0.50375258  0.50258609  1
  Ru4+  Ru127  1  0.60618663  0.50137934  0.74692641  1
  Ru4+  Ru128  1  0.60834152  0.83387981  0.00329209  1
  Ru4+  Ru129  1  0.61674105  0.84076198  0.24889035  1
  Ru4+  Ru130  1  0.60839668  0.84159742  0.49630922  1
  Ru4+  Ru131  1  0.60216062  0.84221159  0.74526227  1
  Ru4+  Ru132  1  0.39156441  0.16357865  -0.00068965  1
  Ru4+  Ru133  1  0.39019241  0.16926637  0.24711800  1
  Ru4+  Ru134  1  0.39102192  0.16011791  0.49849251  1
  Ru4+  Ru135  1  0.38922814  0.16209361  0.74881630  1
  Ru4+  Ru136  1  0.38231129  0.50198513  -0.00088849  1
  Ru4+  Ru137  1  0.39137583  0.49272785  0.24451827  1
  Ru4+  Ru138  1  0.38577430  0.49864910  0.49965891  1
  Ru4+  Ru139  1  0.38893070  0.49721496  0.75218635  1
  Ru4+  Ru140  1  0.38989414  0.83873821  0.00249039  1
  Ru4+  Ru141  1  0.39247499  0.83177690  0.24803879  1
  Ru4+  Ru142  1  0.39342792  0.84052050  0.50837836  1
  Ru4+  Ru143  1  0.38872106  0.82734796  0.74798457  1
  Ru4+  Ru144  1  0.88382369  0.17470366  0.00379571  1
  Ru4+  Ru145  1  0.88455338  0.16194005  0.24507968  1
  Ru4+  Ru146  1  0.88922056  0.15963890  0.50922086  1
  Ru4+  Ru147  1  0.88926219  0.17121133  0.74825251  1
  Ru4+  Ru148  1  0.88820092  0.50089353  0.00095999  1
  Ru4+  Ru149  1  0.88815869  0.50162942  0.25261203  1
  Ru4+  Ru150  1  0.89682330  0.48493608  0.50389227  1
  Ru4+  Ru151  1  0.89523067  0.50826963  0.75010490  1
  Ru4+  Ru152  1  0.89348824  0.83590339  -0.00626091  1
  Ru4+  Ru153  1  0.88951818  0.84103234  0.24005234  1
  Ru4+  Ru154  1  0.88644197  0.83543473  0.50733285  1
  Ru4+  Ru155  1  0.88843427  0.82851638  0.74805738  1
  Ru4+  Ru156  1  0.75104508  0.78649564  0.00045167  1
  Ru4+  Ru157  1  0.25195283  0.37016370  0.49499982  1
  Ru4+  Ru158  1  0.74930321  0.36567494  0.00118052  1
  Ru4+  Ru159  1  0.24988590  0.58794803  0.74214770  1
  Ru4+  Ru160  1  0.24914945  0.06659730  0.49882053  1
  Ru4+  Ru161  1  0.25147653  0.30829883  0.76162374  1
  Ru4+  Ru162  1  0.25053507  0.27118440  0.22823002  1
  Ru4+  Ru163  1  0.25058809  0.32258198  0.01233253  1
  Ru4+  Ru164  1  0.25109973  0.92193051  0.23132556  1
  Ru4+  Ru165  1  0.74928526  0.26321157  0.76954855  1
  Ru4+  Ru166  1  0.74768774  0.74611447  0.75756686  1
  Ru4+  Ru167  1  0.24826970  0.03580883  0.15104742  1
  Ru4+  Ru168  1  0.24851446  0.88994637  0.50121775  1
  Ru4+  Ru169  1  0.74755251  0.65036275  -0.02073752  1
  Ru4+  Ru170  1  0.25046474  0.74936300  0.50781026  1
  Ru4+  Ru171  1  0.75095712  0.91946302  0.75552660  1
  Ru4+  Ru172  1  0.74949751  0.06855525  0.50371601  1
  Ru4+  Ru173  1  0.24898345  0.03416175  0.81136365  1
  Ru4+  Ru174  1  0.24962288  0.00815463  -0.00009994  1
  Ru4+  Ru175  1  0.25025277  0.43972106  0.74412357  1
  Ru4+  Ru176  1  0.74975167  0.24213082  0.24777182  1
  Ru4+  Ru177  1  0.25028086  0.66188810  0.29424173  1
  Ru4+  Ru178  1  0.74891356  0.60502613  0.72583393  1
  Ru4+  Ru179  1  0.24930921  0.40408245  0.24965974  1
  O2-  O180  1  0.16636095  0.07466173  -0.00306532  1
  O2-  O181  1  0.16648034  0.07446307  0.23819846  1
  O2-  O182  1  0.16511771  0.07579645  0.50095760  1
  O2-  O183  1  0.16650744  0.07868546  0.75917107  1
  O2-  O184  1  0.16625849  0.40917701  0.00596721  1
  O2-  O185  1  0.16711890  0.41411579  0.24968609  1
  O2-  O186  1  0.16496001  0.41143591  0.50409935  1
  O2-  O187  1  0.16660552  0.41512364  0.74513469  1
  O2-  O188  1  0.16340960  0.75163266  0.00257922  1
  O2-  O189  1  0.15446826  0.74210348  0.24986525  1
  O2-  O190  1  0.16667936  0.74643967  0.50092920  1
  O2-  O191  1  0.16252715  0.74671137  0.75012593  1
  O2-  O192  1  0.66492040  0.08819413  -0.00804218  1
  O2-  O193  1  0.66033012  0.08396463  0.24884306  1
  O2-  O194  1  0.66681055  0.08195426  0.49616624  1
  O2-  O195  1  0.65876196  0.07820922  0.75329000  1
  O2-  O196  1  0.66524824  0.41198459  -0.00920022  1
  O2-  O197  1  0.66893680  0.42246082  0.25261745  1
  O2-  O198  1  0.66511247  0.41494276  0.50438338  1
  O2-  O199  1  0.65742969  0.41179718  0.75588149  1
  O2-  O200  1  0.66874678  0.75216519  -0.00587211  1
  O2-  O201  1  0.65742623  0.74709094  0.25446547  1
  O2-  O202  1  0.66529625  0.75193210  0.49783518  1
  O2-  O203  1  0.66202032  0.75166961  0.75297725  1
  O2-  O204  1  0.32673834  0.25497163  -0.00338922  1
  O2-  O205  1  0.33327893  0.25461606  0.25060117  1
  O2-  O206  1  0.34287998  0.25852995  0.49536599  1
  O2-  O207  1  0.33746527  0.25511108  0.75481065  1
  O2-  O208  1  0.33271338  0.58538285  0.00338602  1
  O2-  O209  1  0.34548408  0.58848041  0.25036744  1
  O2-  O210  1  0.33737527  0.58663390  0.50220658  1
  O2-  O211  1  0.33561225  0.58777545  0.75008537  1
  O2-  O212  1  0.32881262  0.91992023  -0.00065430  1
  O2-  O213  1  0.33698788  0.91637839  0.24221083  1
  O2-  O214  1  0.32927095  0.90851667  0.49115568  1
  O2-  O215  1  0.34009234  0.91448666  0.76549874  1
  O2-  O216  1  0.82681677  0.25037637  -0.01211392  1
  O2-  O217  1  0.83410867  0.25111112  0.24487315  1
  O2-  O218  1  0.83969792  0.25079204  0.50372918  1
  O2-  O219  1  0.83316893  0.25428139  0.75520429  1
  O2-  O220  1  0.83387737  0.58955108  -0.00175678  1
  O2-  O221  1  0.83622559  0.58567080  0.25652460  1
  O2-  O222  1  0.85056541  0.57964648  0.49640339  1
  O2-  O223  1  0.83238789  0.58651644  0.74685770  1
  O2-  O224  1  0.83896792  0.91590864  -0.00591879  1
  O2-  O225  1  0.82719641  0.90866116  0.25341743  1
  O2-  O226  1  0.82976519  0.91840636  0.49413853  1
  O2-  O227  1  0.83535975  0.91614472  0.75671037  1
  O2-  O228  1  0.17397416  0.25562157  0.00024318  1
  O2-  O229  1  0.16884279  0.25152390  0.24831752  1
  O2-  O230  1  0.15772026  0.26164915  0.50258235  1
  O2-  O231  1  0.16684294  0.26063241  0.74772859  1
  O2-  O232  1  0.16969492  0.58652939  0.00210097  1
  O2-  O233  1  0.16227097  0.58822406  0.25197279  1
  O2-  O234  1  0.16245816  0.58687925  0.50554746  1
  O2-  O235  1  0.16511378  0.58509022  0.74764831  1
  O2-  O236  1  0.17812887  0.92087939  -0.00536615  1
  O2-  O237  1  0.16507290  0.91532709  0.24602585  1
  O2-  O238  1  0.16684744  0.91484796  0.50359477  1
  O2-  O239  1  0.16206774  0.91682403  0.75744864  1
  O2-  O240  1  0.66966702  0.25090124  -0.00973540  1
  O2-  O241  1  0.66669727  0.25194228  0.24998366  1
  O2-  O242  1  0.65091928  0.25763834  0.50703597  1
  O2-  O243  1  0.66668873  0.25575106  0.75274765  1
  O2-  O244  1  0.66536378  0.59277222  -0.00387314  1
  O2-  O245  1  0.65661667  0.58360157  0.25731983  1
  O2-  O246  1  0.66908580  0.58631786  0.49665869  1
  O2-  O247  1  0.66530239  0.58836805  0.74918989  1
  O2-  O248  1  0.66093458  0.91664866  -0.00498694  1
  O2-  O249  1  0.66928136  0.91790581  0.25155280  1
  O2-  O250  1  0.67153968  0.91907625  0.48970375  1
  O2-  O251  1  0.67147052  0.91187276  0.75858667  1
  O2-  O252  1  0.33643275  0.07474366  0.00127414  1
  O2-  O253  1  0.33943216  0.07824667  0.23953631  1
  O2-  O254  1  0.33437792  0.07873025  0.49681113  1
  O2-  O255  1  0.32744895  0.07770132  0.77091455  1
  O2-  O256  1  0.33683534  0.40906609  0.00105173  1
  O2-  O257  1  0.33024643  0.41412858  0.25378956  1
  O2-  O258  1  0.32911717  0.41186073  0.50083315  1
  O2-  O259  1  0.33508969  0.41821878  0.75284227  1
  O2-  O260  1  0.33210022  0.75053702  0.00210915  1
  O2-  O261  1  0.33688371  0.74270873  0.25283629  1
  O2-  O262  1  0.33585504  0.75007328  0.50207307  1
  O2-  O263  1  0.33479298  0.74894734  0.75243697  1
  O2-  O264  1  0.83657815  0.08526816  -0.00702803  1
  O2-  O265  1  0.83519583  0.08076485  0.25114169  1
  O2-  O266  1  0.83101865  0.07980564  0.50053291  1
  O2-  O267  1  0.84548343  0.07437950  0.75051770  1
  O2-  O268  1  0.83479906  0.41167190  -0.00592859  1
  O2-  O269  1  0.83093513  0.42514161  0.25210648  1
  O2-  O270  1  0.82943980  0.42203503  0.50726115  1
  O2-  O271  1  0.84383805  0.41613674  0.75574287  1
  O2-  O272  1  0.83253902  0.75086094  0.00124974  1
  O2-  O273  1  0.83849443  0.75626923  0.25333952  1
  O2-  O274  1  0.83101814  0.74671981  0.49631417  1
  O2-  O275  1  0.83112420  0.74720302  0.74981818  1
  O2-  O276  1  0.54984186  0.44784649  0.19180152  1
  O2-  O277  1  0.55104600  0.09194359  0.26032798  1
  O2-  O278  1  0.44390130  0.42986992  0.45025181  1
  O2-  O279  1  0.49015744  0.87291783  0.51345110  1
  O2-  O280  1  0.95257251  0.09222471  0.73822227  1
  O2-  O281  1  0.54705756  0.24591775  0.73411251  1
  O2-  O282  1  0.94855404  0.09546120  0.00611795  1
  O2-  O283  1  0.94838950  0.57630155  0.22381161  1
  O2-  O284  1  0.45056733  0.09198725  0.79380498  1
  O2-  O285  1  0.55214450  0.42753156  0.51721178  1
  O2-  O286  1  0.95062615  0.24507105  0.49949354  1
  O2-  O287  1  0.54545018  0.90052253  0.00691691  1
  O2-  O288  1  0.05185277  0.57319038  0.00219674  1
  O2-  O289  1  0.54920600  0.09932404  0.75753172  1
  O2-  O290  1  0.44787815  0.76976007  0.01375076  1
  O2-  O291  1  0.96223225  0.44616557  0.22144343  1
  O2-  O292  1  0.45836397  0.46782986  0.28957239  1
  O2-  O293  1  0.05281186  0.57811709  0.77120683  1
  O2-  O294  1  0.51508736  0.87886082  0.74849844  1
  O2-  O295  1  0.45584615  0.56894058  0.74126490  1
  O2-  O296  1  0.98438862  0.47878808  0.48951185  1
  O2-  O297  1  0.55682081  0.74662244  0.73883782  1
  O2-  O298  1  0.98096772  0.86613500  0.24168766  1
  O2-  O299  1  0.05371152  0.08976029  0.52129814  1
  O2-  O300  1  0.96212456  0.53953776  0.69950814  1
  O2-  O301  1  0.45406941  0.23927230  0.51312840  1
  O2-  O302  1  0.54339927  0.22605333  0.96427022  1
  O2-  O303  1  0.45170900  0.57675636  0.50730893  1
  O2-  O304  1  0.05597825  0.23387831  0.70018193  1
  O2-  O305  1  0.55378726  0.75109550  0.00161157  1
  O2-  O306  1  0.95871080  0.43107402  -0.00860756  1
  O2-  O307  1  0.45085804  0.75118349  0.54597408  1
  O2-  O308  1  0.44926598  0.24494108  0.23115058  1
  O2-  O309  1  0.44293747  0.08382016  0.25568628  1
  O2-  O310  1  0.55064309  0.23590330  0.31733340  1
  O2-  O311  1  0.94878945  0.90531424  0.76963345  1
  O2-  O312  1  0.54967801  0.09484566  0.25154646  1
  O2-  O313  1  0.04937163  0.90359462  0.77371832  1
  O2-  O314  1  0.55015194  0.43034512  0.99735282  1
  O2-  O315  1  0.96080368  0.24087228  0.95649678  1
  O2-  O316  1  0.95227663  0.09559249  0.45283617  1
  O2-  O317  1  0.95723298  0.09700757  0.25039393  1
  O2-  O318  1  0.94856904  0.57881219  0.98162266  1
  O2-  O319  1  0.45771049  0.56615785  0.76112632  1
  O2-  O320  1  0.05763170  0.07772065  0.75764792  1
  O2-  O321  1  0.94968912  0.23900768  0.24572970  1
  O2-  O322  1  0.05453435  0.08889279  0.98527112  1
  O2-  O323  1  0.44693396  0.75767052  0.73248249  1
  O2-  O324  1  0.06493637  0.26185142  0.26141734  1
  O2-  O325  1  0.55857971  0.41033062  0.96715667  1
  O2-  O326  1  0.91042450  0.95708427  0.21703379  1
  O2-  O327  1  0.58075045  0.28433183  0.05428801  1
  O2-  O328  1  0.06302610  0.42757074  0.32093539  1
  O2-  O329  1  0.06263928  0.59468220  0.80245438  1
  O2-  O330  1  0.93791814  0.74051585  0.71491060  1
  O2-  O331  1  0.56764114  0.27714972  0.18989575  1
  O2-  O332  1  0.56636373  0.92707487  0.41721956  1
  O2-  O333  1  0.94270954  0.91316941  0.52945396  1
  O2-  O334  1  0.93587602  0.60943069  0.82391752  1
  O2-  O335  1  0.56108840  0.75007023  0.45739583  1
  O2-  O336  1  0.07675716  0.89878284  0.43051945  1
  O2-  O337  1  0.56504966  0.59981363  0.47222615  1
  O2-  O338  1  0.06222005  0.92565679  0.02252643  1
  O2-  O339  1  0.43456726  0.74123956  0.45521795  1
  O2-  O340  1  0.07165938  0.42681530  0.17191515  1
  O2-  O341  1  0.57841273  0.90610398  0.57355222  1
  O2-  O342  1  0.42011336  0.90589551  0.40612390  1
  O2-  O343  1  0.91739995  0.39857133  0.43539862  1
  O2-  O344  1  0.08281363  0.10101922  0.32159825  1
  O2-  O345  1  0.06192580  0.74709019  0.52099185  1
  O2-  O346  1  0.06604937  0.08420657  0.16598649  1
  O2-  O347  1  0.42208777  0.40369522  0.18296798  1
  O2-  O348  1  0.06247561  0.59172086  0.22489675  1
  O2-  O349  1  0.92946064  0.40078074  0.58993368  1
  O2-  O350  1  0.43918556  0.74662794  0.27528328  1
  O2-  O351  1  0.93937870  0.74659275  0.49095678  1
  O2-  O352  1  0.40910308  0.07862939  0.66920934  1
  O2-  O353  1  0.06675664  0.25399640  0.01833207  1
  O2-  O354  1  0.55925143  0.91858409  0.23399378  1
  O2-  O355  1  0.43269531  0.25625103  0.97504250  1
  O2-  O356  1  0.41105577  0.93296961  0.56710553  1
  O2-  O357  1  0.56936945  0.39367411  0.32852475  1
  O2-  O358  1  0.93573067  0.73454678  0.21836614  1
  O2-  O359  1  0.92870547  0.06043727  0.58328211  1
  O2-  O360  1  0.05991686  0.58404093  0.00631430  1
  O2-  O361  1  0.94783893  0.24732775  0.49207501  1
  O2-  O362  1  0.91110521  0.25847123  0.07257021  1
  O2-  O363  1  0.91701559  0.39624815  0.29082171  1
  O2-  O364  1  0.44004262  0.42415155  0.45460559  1
  O2-  O365  1  0.58762527  0.95774922  0.73303478  1
  O2-  O366  1  0.44260841  0.58226074  0.97305746  1
  O2-  O367  1  0.05795155  0.92883471  0.57990542  1
  O2-  O368  1  0.05627556  0.28739581  0.85193256  1
  O2-  O369  1  0.56389697  0.08130834  0.02569791  1
  O2-  O370  1  0.05003179  0.23659665  0.70148806  1
  O2-  O371  1  0.44448898  0.38669140  0.61341598  1
  O2-  O372  1  0.75089528  0.30171970  0.10174126  1
  O2-  O373  1  0.75026157  0.34378652  0.18135494  1
  O2-  O374  1  0.24957457  0.67563074  0.92043997  1
  O2-  O375  1  0.24877530  0.67745457  0.82779846  1
  O2-  O376  1  0.74667866  0.00064943  0.10588752  1
  O2-  O377  1  0.74984246  0.34589995  0.87247878  1
  O2-  O378  1  0.25180802  0.01002307  0.30054219  1
  O2-  O379  1  0.75054304  -0.00444477  0.64856332  1
  O2-  O380  1  0.25111595  0.66362759  0.64770244  1
  O2-  O381  1  0.75111775  -0.00166946  0.85332971  1
  O2-  O382  1  0.74836172  0.65699575  0.84985766  1
  O2-  O383  1  0.24824841  0.67914532  0.14624785  1
  O2-  O384  1  0.25216406  0.33128208  0.88665090  1
  O2-  O385  1  0.24949378  0.33368131  0.36946469  1
  O2-  O386  1  0.24877019  -0.02291251  0.42434390  1
  O2-  O387  1  0.74981438  0.66540044  0.61767019  1
  O2-  O388  1  0.24839644  -0.01925232  0.71165631  1
  O2-  O389  1  0.75067963  0.66169097  0.18441040  1
  O2-  O390  1  0.74713560  0.33455894  0.65571068  1
  O2-  O391  1  0.75102696  0.68046018  0.09496820  1
  O2-  O392  1  0.24554853  -0.02149463  0.57789276  1
  O2-  O393  1  0.74966447  0.33671620  0.41966020  1
  O2-  O394  1  0.74830810  0.34001471  0.32630821  1
  O2-  O395  1  0.24835033  0.33511784  0.62791618  1
  O2-  O396  1  0.74784536  0.83192109  0.33360215  1
  O2-  O397  1  0.25028814  0.51139875  0.83623719  1
  O2-  O398  1  0.74983444  0.83404168  0.09674531  1
  O2-  O399  1  0.24912043  0.49380413  0.92103324  1
  O2-  O400  1  0.75025005  0.14669686  0.30884287  1
  O2-  O401  1  0.24865291  0.14267869  0.40453002  1
  O2-  O402  1  0.74900246  0.50274850  0.56402737  1
  O2-  O403  1  0.24967170  0.81933527  0.60345301  1
  O2-  O404  1  0.75047925  0.19488617  0.86352112  1
  O2-  O405  1  0.24962699  0.19032035  0.13665157  1
  O2-  O406  1  0.75090108  0.13633013  0.40081148  1
  O2-  O407  1  0.74991029  0.51370549  0.64706726  1
  O2-  O408  1  0.75029866  0.14884471  0.61640125  1
  O2-  O409  1  0.24871738  0.14409871  0.86871694  1
  O2-  O410  1  0.75041088  0.16869765  0.08213274  1
  O2-  O411  1  0.25025446  0.50253824  0.64542996  1
  O2-  O412  1  0.74948423  0.48246148  0.10274158  1
  O2-  O413  1  0.24911399  0.81567924  0.39821334  1
  O2-  O414  1  0.75049118  0.15949427  0.16467237  1
  O2-  O415  1  0.74968036  0.83599385  0.59676589  1
  O2-  O416  1  0.24829696  0.50051066  0.37412252  1
  O2-  O417  1  0.25237767  0.12569999  0.60536009  1
  O2-  O418  1  0.25002625  0.46463813  0.12373220  1
  O2-  O419  1  0.75062387  0.83171429  0.68448541  1
  O2-  O420  1  0.50336492  0.00338762  0.12261004  1
  O2-  O421  1  0.95436195  0.65849024  0.37084022  1
  O2-  O422  1  0.48105065  -0.00417341  0.63077841  1
  O2-  O423  1  0.48558094  0.64872509  0.35714106  1
  O2-  O424  1  0.47407589  0.31091099  0.36744450  1
  O2-  O425  1  0.97361919  0.32123218  0.35802036  1
  O2-  O426  1  0.02638946  0.32259954  0.11820678  1
  O2-  O427  1  0.47300663  0.34784115  0.86765711  1
  O2-  O428  1  0.97880082  -0.00188400  0.12212777  1
  O2-  O429  1  0.02318844  0.66212958  0.62182346  1
  O2-  O430  1  0.02310217  0.68884630  0.13091535  1
  O2-  O431  1  0.94412634  -0.02910261  0.36692183  1
  O2-  O432  1  0.97001428  0.34085341  0.14054315  1
  O2-  O433  1  0.04780788  0.67670809  0.37622277  1
  O2-  O434  1  0.45401891  0.65451014  0.12563534  1
  O2-  O435  1  0.04897842  0.31845253  0.43176608  1
  O2-  O436  1  0.02705119  0.35175820  0.61175484  1
  O2-  O437  1  0.48054450  0.32665721  0.10340418  1
  O2-  O438  1  0.48411566  0.01168615  0.37785778  1
  O2-  O439  1  0.48379820  0.68429458  0.87997943  1
  O2-  O440  1  0.54933753  0.65411329  0.14137538  1
  O2-  O441  1  0.52518374  -0.00411153  0.87809012  1
  O2-  O442  1  0.53967604  0.03000055  0.60882401  1
  O2-  O443  1  0.03372712  -0.00803762  0.35105620  1
