# generated using pymatgen
data_La7(Ru4O11)2
_symmetry_space_group_name_H-M   'P 1'
_cell_length_a   23.98930179
_cell_length_b   16.82909132
_cell_length_c   15.42621804
_cell_angle_alpha   89.99911062
_cell_angle_beta   90.00087059
_cell_angle_gamma   90.00039685
_symmetry_Int_Tables_number   1
_chemical_formula_structural   La7(Ru4O11)2
_chemical_formula_sum   'La84 Ru96 O264'
_cell_volume   6227.84421549
_cell_formula_units_Z   12
loop_
 _symmetry_equiv_pos_site_id
 _symmetry_equiv_pos_as_xyz
  1  'x, y, z'
loop_
 _atom_type_symbol
 _atom_type_oxidation_number
  La3+  3.0
  Ru4+  4.0
  O2-  -2.0
loop_
 _atom_site_type_symbol
 _atom_site_label
 _atom_site_symmetry_multiplicity
 _atom_site_fract_x
 _atom_site_fract_y
 _atom_site_fract_z
 _atom_site_occupancy
  La3+  La0  1  0.14032320  -0.00181485  0.12621802  1
  La3+  La1  1  0.14041544  -0.00028247  0.37389456  1
  La3+  La2  1  0.13904911  -0.00119812  0.62631429  1
  La3+  La3  1  0.13926290  -0.00188295  0.87466829  1
  La3+  La4  1  0.13953532  0.33381243  0.12695210  1
  La3+  La5  1  0.13938000  0.33404822  0.37339789  1
  La3+  La6  1  0.13905278  0.33382909  0.62364794  1
  La3+  La7  1  0.13782691  0.33447168  0.87515699  1
  La3+  La8  1  0.14105448  0.66731014  0.12555115  1
  La3+  La9  1  0.13990020  0.66790211  0.37333863  1
  La3+  La10  1  0.13795538  0.66716409  0.62625231  1
  La3+  La11  1  0.13983076  0.66624924  0.87504480  1
  La3+  La12  1  0.63580594  0.00146792  0.12826100  1
  La3+  La13  1  0.63540747  0.00256162  0.37181781  1
  La3+  La14  1  0.63949195  0.00044211  0.62595497  1
  La3+  La15  1  0.63860693  0.00037316  0.87426691  1
  La3+  La16  1  0.64035885  0.33396362  0.12238276  1
  La3+  La17  1  0.63815754  0.33333823  0.37586926  1
  La3+  La18  1  0.63683787  0.33320037  0.62486340  1
  La3+  La19  1  0.63929558  0.33331316  0.87614486  1
  La3+  La20  1  0.63870120  0.66610226  0.12399675  1
  La3+  La21  1  0.63827663  0.66542391  0.37308003  1
  La3+  La22  1  0.63539169  0.66610009  0.62438109  1
  La3+  La23  1  0.63657504  0.66628027  0.87770257  1
  La3+  La24  1  0.36029482  -0.00265453  0.12752106  1
  La3+  La25  1  0.36043355  -0.00120653  0.37220391  1
  La3+  La26  1  0.35998697  -0.00125741  0.62536046  1
  La3+  La27  1  0.36000172  -0.00092477  0.87440399  1
  La3+  La28  1  0.36128182  0.33485640  0.12755649  1
  La3+  La29  1  0.36080643  0.33362959  0.37374593  1
  La3+  La30  1  0.36046414  0.33386607  0.62403558  1
  La3+  La31  1  0.36117164  0.33397523  0.87551684  1
  La3+  La32  1  0.35913217  0.66756459  0.12545289  1
  La3+  La33  1  0.35953640  0.66782562  0.37409010  1
  La3+  La34  1  0.36153080  0.66682722  0.62492348  1
  La3+  La35  1  0.35891862  0.66626830  0.87614073  1
  La3+  La36  1  0.86155064  -0.00012045  0.12530237  1
  La3+  La37  1  0.86242651  -0.00002267  0.37380860  1
  La3+  La38  1  0.86047512  -0.00025090  0.62679523  1
  La3+  La39  1  0.86169140  -0.00100455  0.87384515  1
  La3+  La40  1  0.85987000  0.33391906  0.12257876  1
  La3+  La41  1  0.86162867  0.33399400  0.37542259  1
  La3+  La42  1  0.86165542  0.33346823  0.62445878  1
  La3+  La43  1  0.86009485  0.33376094  0.87761206  1
  La3+  La44  1  0.86089051  0.66590433  0.12594563  1
  La3+  La45  1  0.86296722  0.66581682  0.37334762  1
  La3+  La46  1  0.86438176  0.66762049  0.62524406  1
  La3+  La47  1  0.86325367  0.66762013  0.87527095  1
  La3+  La48  1  0.00048852  0.50134800  0.63631232  1
  La3+  La49  1  0.00161513  0.16489472  0.37990664  1
  La3+  La50  1  0.00019027  0.16667983  0.61883092  1
  La3+  La51  1  0.50083872  0.83310486  0.88668403  1
  La3+  La52  1  0.00019972  0.49994817  0.13602290  1
  La3+  La53  1  0.50289049  0.16606608  0.38394327  1
  La3+  La54  1  0.50016987  0.50021867  0.88327964  1
  La3+  La55  1  0.49575441  0.16604982  0.36492200  1
  La3+  La56  1  0.49990206  0.83291390  0.36422011  1
  La3+  La57  1  0.00044493  0.50027891  0.11408463  1
  La3+  La58  1  0.00210284  0.16384729  0.36281940  1
  La3+  La59  1  0.50029018  0.17073651  0.87172843  1
  La3+  La60  1  0.49984803  0.50013042  0.38489316  1
  La3+  La61  1  0.00095984  0.83510369  0.63735093  1
  La3+  La62  1  -0.00071748  0.83219698  0.11360119  1
  La3+  La63  1  0.00326329  0.16326273  0.63450152  1
  La3+  La64  1  0.50224168  0.50303394  0.63156292  1
  La3+  La65  1  -0.00069932  0.16785460  0.86649258  1
  La3+  La66  1  0.49865325  0.83303458  0.38224246  1
  La3+  La67  1  0.00027759  0.16811493  0.11614035  1
  La3+  La68  1  0.49713312  0.83514142  0.61701346  1
  La3+  La69  1  -0.00023019  0.16702437  0.88844588  1
  La3+  La70  1  0.49854572  0.50244102  0.11765315  1
  La3+  La71  1  0.50084639  0.16677596  0.61810063  1
  La3+  La72  1  0.74994359  0.46383123  0.46264627  1
  La3+  La73  1  0.75008124  0.86205420  0.22650427  1
  La3+  La74  1  0.74978617  0.16683517  0.49193988  1
  La3+  La75  1  0.75015182  0.83994974  0.50578803  1
  La3+  La76  1  0.24982631  0.16450086  -0.05459801  1
  La3+  La77  1  0.75003558  0.20445989  -0.00172837  1
  La3+  La78  1  0.24998261  0.50142575  0.28247164  1
  La3+  La79  1  0.75027684  0.13975469  0.24748500  1
  La3+  La80  1  0.24991586  0.16655881  0.25599256  1
  La3+  La81  1  0.25019057  0.47236276  0.48120532  1
  La3+  La82  1  0.25004396  0.50260712  -0.03286619  1
  La3+  La83  1  0.74960307  0.48978801  0.80502501  1
  Ru4+  Ru84  1  -0.00021439  -0.00134985  0.00142512  1
  Ru4+  Ru85  1  -0.00094271  0.00060620  0.25212866  1
  Ru4+  Ru86  1  0.00070739  -0.00400758  0.49902982  1
  Ru4+  Ru87  1  -0.00002528  -0.00294819  0.74839705  1
  Ru4+  Ru88  1  -0.00002525  0.33381032  0.00005596  1
  Ru4+  Ru89  1  0.00069563  0.33537180  0.25173214  1
  Ru4+  Ru90  1  -0.00047388  0.33851031  0.49947293  1
  Ru4+  Ru91  1  0.00135018  0.33746615  0.74807852  1
  Ru4+  Ru92  1  0.00051863  0.66690638  -0.00184287  1
  Ru4+  Ru93  1  0.00063186  0.66674174  0.25246423  1
  Ru4+  Ru94  1  -0.00310240  0.66379721  0.49558145  1
  Ru4+  Ru95  1  0.00434756  0.66301631  0.75484444  1
  Ru4+  Ru96  1  0.50400870  -0.00626939  -0.00087364  1
  Ru4+  Ru97  1  0.49827998  0.00326042  0.24846633  1
  Ru4+  Ru98  1  0.49928361  -0.00129617  0.50108826  1
  Ru4+  Ru99  1  0.50108027  -0.00036007  0.75039597  1
  Ru4+  Ru100  1  0.49968401  0.33066012  0.00328413  1
  Ru4+  Ru101  1  0.50044859  0.33359332  0.24780808  1
  Ru4+  Ru102  1  0.50049495  0.33363503  0.50128428  1
  Ru4+  Ru103  1  0.49826248  0.32737423  0.74786508  1
  Ru4+  Ru104  1  0.49852520  0.67129335  -0.00098467  1
  Ru4+  Ru105  1  0.49972462  0.67128407  0.24941171  1
  Ru4+  Ru106  1  0.50140050  0.66742862  0.50547625  1
  Ru4+  Ru107  1  0.49964339  0.66608439  0.75121662  1
  Ru4+  Ru108  1  0.11132926  0.16660766  -0.00044017  1
  Ru4+  Ru109  1  0.11220697  0.16742168  0.24909779  1
  Ru4+  Ru110  1  0.11481052  0.16530478  0.50000343  1
  Ru4+  Ru111  1  0.11299979  0.16802025  0.75007548  1
  Ru4+  Ru112  1  0.11179734  0.50041548  0.00058045  1
  Ru4+  Ru113  1  0.11213841  0.50080385  0.24927650  1
  Ru4+  Ru114  1  0.11278136  0.49701361  0.50012309  1
  Ru4+  Ru115  1  0.11229549  0.50244316  0.75087953  1
  Ru4+  Ru116  1  0.11459182  0.83278641  -0.00023774  1
  Ru4+  Ru117  1  0.11536082  0.83254269  0.25052941  1
  Ru4+  Ru118  1  0.11681933  0.83501675  0.49909509  1
  Ru4+  Ru119  1  0.11361421  0.83506113  0.74953961  1
  Ru4+  Ru120  1  0.61168579  0.16744534  -0.00021774  1
  Ru4+  Ru121  1  0.61164515  0.16483621  0.25027711  1
  Ru4+  Ru122  1  0.61191774  0.16647069  0.49933935  1
  Ru4+  Ru123  1  0.61452205  0.16655201  0.74961279  1
  Ru4+  Ru124  1  0.61706413  0.49726159  -0.00009527  1
  Ru4+  Ru125  1  0.61400504  0.49960792  0.24986538  1
  Ru4+  Ru126  1  0.61144003  0.49796861  0.50002410  1
  Ru4+  Ru127  1  0.61345529  0.50313604  0.74973952  1
  Ru4+  Ru128  1  0.61210449  0.83298066  0.00013019  1
  Ru4+  Ru129  1  0.61334222  0.83103932  0.24974846  1
  Ru4+  Ru130  1  0.61257847  0.83432521  0.49986292  1
  Ru4+  Ru131  1  0.61518249  0.83463847  0.75022214  1
  Ru4+  Ru132  1  0.38415486  0.17072034  0.00010443  1
  Ru4+  Ru133  1  0.38758850  0.16640968  0.24978779  1
  Ru4+  Ru134  1  0.38661525  0.16778427  0.49997130  1
  Ru4+  Ru135  1  0.38586368  0.16887328  0.75015656  1
  Ru4+  Ru136  1  0.38753176  0.50093655  0.00007914  1
  Ru4+  Ru137  1  0.38603935  0.50013186  0.25073616  1
  Ru4+  Ru138  1  0.38603009  0.49643329  0.50031210  1
  Ru4+  Ru139  1  0.38540683  0.50213373  0.75043101  1
  Ru4+  Ru140  1  0.38540934  0.83277945  -0.00024351  1
  Ru4+  Ru141  1  0.38515296  0.83322219  0.24954538  1
  Ru4+  Ru142  1  0.38702569  0.83216883  0.50006228  1
  Ru4+  Ru143  1  0.38532009  0.83208116  0.74992251  1
  Ru4+  Ru144  1  0.88862980  0.16772326  0.00017767  1
  Ru4+  Ru145  1  0.88802625  0.16507403  0.25016260  1
  Ru4+  Ru146  1  0.88532821  0.16665956  0.50016479  1
  Ru4+  Ru147  1  0.88567431  0.16377610  0.75046226  1
  Ru4+  Ru148  1  0.88731250  0.49838932  0.00070792  1
  Ru4+  Ru149  1  0.88752919  0.50114414  0.24928801  1
  Ru4+  Ru150  1  0.88878064  0.50010562  0.49939808  1
  Ru4+  Ru151  1  0.88973808  0.49950170  0.75011360  1
  Ru4+  Ru152  1  0.88850277  0.83420403  -0.00095384  1
  Ru4+  Ru153  1  0.88833082  0.83290240  0.25048938  1
  Ru4+  Ru154  1  0.88845616  0.83362459  0.50006808  1
  Ru4+  Ru155  1  0.88539769  0.83737238  0.75012163  1
  Ru4+  Ru156  1  0.25035284  0.91153691  0.49847941  1
  Ru4+  Ru157  1  0.75004359  0.37508737  0.74319812  1
  Ru4+  Ru158  1  0.25003668  0.60697504  0.49872067  1
  Ru4+  Ru159  1  0.75012240  0.59047333  0.49109870  1
  Ru4+  Ru160  1  0.75017871  0.24801881  0.75667850  1
  Ru4+  Ru161  1  0.24998257  0.24691213  0.74936280  1
  Ru4+  Ru162  1  0.24998317  0.25549220  0.50545054  1
  Ru4+  Ru163  1  0.75011863  0.96452358  0.49284026  1
  Ru4+  Ru164  1  0.25004384  0.07857327  0.50532812  1
  Ru4+  Ru165  1  0.74997346  0.60243629  0.74690171  1
  Ru4+  Ru166  1  0.75015836  0.58051558  0.00147968  1
  Ru4+  Ru167  1  0.24993937  0.42261828  0.74809565  1
  Ru4+  Ru168  1  0.24995791  0.28184653  0.01928730  1
  Ru4+  Ru169  1  0.74991084  0.91414493  0.00058831  1
  Ru4+  Ru170  1  0.74974875  0.75304774  0.00410453  1
  Ru4+  Ru171  1  0.75006470  0.73065599  0.25089466  1
  Ru4+  Ru172  1  0.75013395  0.71866289  0.48143969  1
  Ru4+  Ru173  1  0.24999832  0.08437647  0.75301607  1
  Ru4+  Ru174  1  0.75003977  0.27588712  0.24775330  1
  Ru4+  Ru175  1  0.75010676  0.06329584  -0.00512379  1
  Ru4+  Ru176  1  0.24963604  0.04352777  0.00814490  1
  Ru4+  Ru177  1  0.74991492  0.76165422  0.74840374  1
  Ru4+  Ru178  1  0.24995811  0.75535096  0.74831328  1
  Ru4+  Ru179  1  0.75010728  0.41681288  0.24841579  1
  O2-  O180  1  0.16790910  0.07918912  0.00046625  1
  O2-  O181  1  0.16624620  0.08119446  0.24988512  1
  O2-  O182  1  0.16716179  0.08104895  0.49939433  1
  O2-  O183  1  0.16785319  0.08052767  0.75000178  1
  O2-  O184  1  0.16755247  0.41334551  -0.00026901  1
  O2-  O185  1  0.16679456  0.41498327  0.25015147  1
  O2-  O186  1  0.16650716  0.41465227  0.49974710  1
  O2-  O187  1  0.16742657  0.41384091  0.74955825  1
  O2-  O188  1  0.16575741  0.74924271  0.00040536  1
  O2-  O189  1  0.16539436  0.74972797  0.24921205  1
  O2-  O190  1  0.16855261  0.74816987  0.50109713  1
  O2-  O191  1  0.16848639  0.74761146  0.75053356  1
  O2-  O192  1  0.66744840  0.07988147  0.00087735  1
  O2-  O193  1  0.66786410  0.07926514  0.24943175  1
  O2-  O194  1  0.66815664  0.07973699  0.49930745  1
  O2-  O195  1  0.66804323  0.08148179  0.75024492  1
  O2-  O196  1  0.66677499  0.41637327  0.00086348  1
  O2-  O197  1  0.66807347  0.41483329  0.25047316  1
  O2-  O198  1  0.66692293  0.41251273  0.49986191  1
  O2-  O199  1  0.66661534  0.41246646  0.74918168  1
  O2-  O200  1  0.66839664  0.74785824  0.00032141  1
  O2-  O201  1  0.66657333  0.74700639  0.24996061  1
  O2-  O202  1  0.66663176  0.74593441  0.50034119  1
  O2-  O203  1  0.66718084  0.74707639  0.74930172  1
  O2-  O204  1  0.33365037  0.25378573  0.00035032  1
  O2-  O205  1  0.33360675  0.25240379  0.24999347  1
  O2-  O206  1  0.33247394  0.25226057  0.49977527  1
  O2-  O207  1  0.33308017  0.25201364  0.74975846  1
  O2-  O208  1  0.33210646  0.58539002  -0.00009545  1
  O2-  O209  1  0.33210383  0.58464363  0.24978815  1
  O2-  O210  1  0.33208857  0.58696974  0.50040333  1
  O2-  O211  1  0.33358654  0.58535709  0.74930287  1
  O2-  O212  1  0.33323206  0.91905278  -0.00033158  1
  O2-  O213  1  0.33314165  0.91763563  0.25047963  1
  O2-  O214  1  0.33199426  0.91937729  0.49962100  1
  O2-  O215  1  0.33278724  0.91819416  0.74960524  1
  O2-  O216  1  0.83528383  0.25345134  0.00030106  1
  O2-  O217  1  0.83290926  0.25372358  0.25021001  1
  O2-  O218  1  0.83169330  0.25376215  0.49954099  1
  O2-  O219  1  0.83133202  0.25324526  0.74961181  1
  O2-  O220  1  0.83175127  0.58650066  0.00014742  1
  O2-  O221  1  0.83336740  0.58546670  0.24988601  1
  O2-  O222  1  0.83250419  0.58713789  0.50041890  1
  O2-  O223  1  0.83403118  0.58751698  0.75002201  1
  O2-  O224  1  0.83189378  0.91878235  0.00051035  1
  O2-  O225  1  0.83338701  0.92064775  0.24956754  1
  O2-  O226  1  0.83361430  0.92059652  0.49975710  1
  O2-  O227  1  0.83368660  0.91855673  0.74983893  1
  O2-  O228  1  0.16644863  0.25376686  0.00043335  1
  O2-  O229  1  0.16749560  0.25200511  0.25018522  1
  O2-  O230  1  0.16774939  0.25216299  0.49991991  1
  O2-  O231  1  0.16754871  0.25246737  0.75011987  1
  O2-  O232  1  0.16681373  0.58544582  0.00053383  1
  O2-  O233  1  0.16778924  0.58450990  0.24988332  1
  O2-  O234  1  0.16781597  0.58662856  0.50003536  1
  O2-  O235  1  0.16751896  0.58494715  0.74896361  1
  O2-  O236  1  0.16737254  0.91932602  -0.00010754  1
  O2-  O237  1  0.16713634  0.91765266  0.24910683  1
  O2-  O238  1  0.16741058  0.91873279  0.50016480  1
  O2-  O239  1  0.16702706  0.91791938  0.75025846  1
  O2-  O240  1  0.66512913  0.25262595  0.00096350  1
  O2-  O241  1  0.66659075  0.25329339  0.25009826  1
  O2-  O242  1  0.66735405  0.25429796  0.50032265  1
  O2-  O243  1  0.66729988  0.25229343  0.74969720  1
  O2-  O244  1  0.66812494  0.58482462  0.00062773  1
  O2-  O245  1  0.66771959  0.58462884  0.25049266  1
  O2-  O246  1  0.66749810  0.58789379  0.49996140  1
  O2-  O247  1  0.66576215  0.58692524  0.74890014  1
  O2-  O248  1  0.66720945  0.91927533  0.00070303  1
  O2-  O249  1  0.66713908  0.92148072  0.24987613  1
  O2-  O250  1  0.66628108  0.92009589  0.49936975  1
  O2-  O251  1  0.66732416  0.91818883  0.75002086  1
  O2-  O252  1  0.33155699  0.07939734  0.00015694  1
  O2-  O253  1  0.33361063  0.08110617  0.25014503  1
  O2-  O254  1  0.33291926  0.08053786  0.49982857  1
  O2-  O255  1  0.33165778  0.08083884  0.75002969  1
  O2-  O256  1  0.33281975  0.41376320  -0.00031551  1
  O2-  O257  1  0.33242625  0.41541080  0.25031939  1
  O2-  O258  1  0.33434194  0.41344277  0.50028594  1
  O2-  O259  1  0.33191635  0.41392854  0.74913393  1
  O2-  O260  1  0.33395282  0.74882903  -0.00001559  1
  O2-  O261  1  0.33355639  0.74998152  0.24953066  1
  O2-  O262  1  0.33285883  0.74775335  0.50088865  1
  O2-  O263  1  0.33183034  0.74787809  0.75031332  1
  O2-  O264  1  0.83287778  0.07917604  -0.00000405  1
  O2-  O265  1  0.83235432  0.07953132  0.24945677  1
  O2-  O266  1  0.83202870  0.08026083  0.49991994  1
  O2-  O267  1  0.83302787  0.08127904  0.74957432  1
  O2-  O268  1  0.83373644  0.41549004  0.00031902  1
  O2-  O269  1  0.83139006  0.41355442  0.25050690  1
  O2-  O270  1  0.83311773  0.41281048  0.50038814  1
  O2-  O271  1  0.83361624  0.41316319  0.74954345  1
  O2-  O272  1  0.83277753  0.74734451  0.00032462  1
  O2-  O273  1  0.83282414  0.74660993  0.24938116  1
  O2-  O274  1  0.83418148  0.74572144  0.50024832  1
  O2-  O275  1  0.83264018  0.74611740  0.74995600  1
  O2-  O276  1  0.44525077  0.41660531  0.22669704  1
  O2-  O277  1  0.45780353  0.56060068  0.22404389  1
  O2-  O278  1  0.54573453  0.90228493  0.27014218  1
  O2-  O279  1  0.54717204  0.43021690  0.23530323  1
  O2-  O280  1  0.05069823  0.24176578  0.54344055  1
  O2-  O281  1  0.03883816  0.77519153  0.50707652  1
  O2-  O282  1  0.03906865  0.77487017  0.50623069  1
  O2-  O283  1  0.45308208  0.57040994  0.48624710  1
  O2-  O284  1  0.46229193  0.11035877  1.00117934  1
  O2-  O285  1  0.54062603  0.77393076  0.72514518  1
  O2-  O286  1  0.54059317  0.43714894  0.02546128  1
  O2-  O287  1  0.54789461  0.56873314  0.98553536  1
  O2-  O288  1  0.95974225  0.22778587  0.47003452  1
  O2-  O289  1  0.95690544  0.10402835  0.52805811  1
  O2-  O290  1  0.54616152  0.23783277  0.26360036  1
  O2-  O291  1  0.54544166  0.90267822  0.51161805  1
  O2-  O292  1  0.04677107  0.43178308  0.76362890  1
  O2-  O293  1  0.04457919  0.90025997  0.99407181  1
  O2-  O294  1  0.45895990  0.43795839  0.72229866  1
  O2-  O295  1  0.45460360  0.09841908  0.51459689  1
  O2-  O296  1  0.54645870  0.09376762  0.23590319  1
  O2-  O297  1  0.95422143  0.56993718  0.76528649  1
  O2-  O298  1  0.95196875  0.43011841  0.73438904  1
  O2-  O299  1  0.54160989  0.10125097  0.26217855  1
  O2-  O300  1  0.04618443  0.09877912  0.76328059  1
  O2-  O301  1  0.04607950  0.90203148  0.00787060  1
  O2-  O302  1  0.55336167  0.58151059  0.52262695  1
  O2-  O303  1  0.45544738  0.56922813  0.76526644  1
  O2-  O304  1  0.44682692  0.91314034  0.22930986  1
  O2-  O305  1  0.54255231  0.10427624  0.77364232  1
  O2-  O306  1  0.54466082  0.90119658  0.01493983  1
  O2-  O307  1  0.53988862  0.77175914  0.52599433  1
  O2-  O308  1  0.54575494  0.89909421  0.23082187  1
  O2-  O309  1  0.03811805  0.55637130  0.49855425  1
  O2-  O310  1  0.46232196  0.11029616  0.00095277  1
  O2-  O311  1  0.04757975  0.09756607  0.51283691  1
  O2-  O312  1  0.95389294  0.23483101  0.26300806  1
  O2-  O313  1  0.54201851  0.56045290  0.27684472  1
  O2-  O314  1  0.95461078  0.76509741  0.98613684  1
  O2-  O315  1  0.95533123  0.76607270  0.77023311  1
  O2-  O316  1  0.95276010  0.76386487  0.73118547  1
  O2-  O317  1  0.95896562  0.22860758  0.72439222  1
  O2-  O318  1  0.03474245  0.88573619  0.25667492  1
  O2-  O319  1  0.54903727  0.43217769  0.76790232  1
  O2-  O320  1  0.03884039  0.55705054  0.51818546  1
  O2-  O321  1  0.45959091  0.89368813  0.72368424  1
  O2-  O322  1  0.54511527  0.23777033  0.76290924  1
  O2-  O323  1  0.45006901  0.09419040  0.78608339  1
  O2-  O324  1  0.43585433  0.59278543  0.47094315  1
  O2-  O325  1  0.55682685  0.58040130  0.52120139  1
  O2-  O326  1  0.57197743  0.72977348  0.45680320  1
  O2-  O327  1  0.07612544  0.72512157  0.45641300  1
  O2-  O328  1  0.06506724  0.59506267  0.77890667  1
  O2-  O329  1  0.05391495  0.25093503  0.53933121  1
  O2-  O330  1  0.57089482  0.73173459  0.79051682  1
  O2-  O331  1  0.43509912  0.73517460  0.71723215  1
  O2-  O332  1  0.92800077  0.27003734  0.79264680  1
  O2-  O333  1  0.56484832  0.06890573  0.46755262  1
  O2-  O334  1  0.44237794  0.08249017  0.79278722  1
  O2-  O335  1  0.93519102  0.07097754  0.27820470  1
  O2-  O336  1  0.56509125  0.73851051  0.96989189  1
  O2-  O337  1  0.07947059  0.61133243  0.45281512  1
  O2-  O338  1  0.56863273  0.39576150  0.95329541  1
  O2-  O339  1  0.06492771  0.07123541  0.97128260  1
  O2-  O340  1  0.06498399  0.73980323  0.71896091  1
  O2-  O341  1  0.56731798  0.06386997  0.28381441  1
  O2-  O342  1  0.44528013  0.92278253  0.22548875  1
  O2-  O343  1  0.56330078  0.26213553  0.96742626  1
  O2-  O344  1  0.56573935  0.92686115  0.79610703  1
  O2-  O345  1  0.56635708  0.07154374  0.97093356  1
  O2-  O346  1  0.06495898  0.92791822  0.72018538  1
  O2-  O347  1  0.56557852  0.92673789  0.70321438  1
  O2-  O348  1  0.42942529  0.05736699  0.05670586  1
  O2-  O349  1  0.56219866  0.40385993  0.78171813  1
  O2-  O350  1  0.43514192  0.59585909  0.02873740  1
  O2-  O351  1  0.56417166  0.59270096  0.97069892  1
  O2-  O352  1  0.43570488  0.74010975  0.27976977  1
  O2-  O353  1  0.92927294  0.27626171  0.55023379  1
  O2-  O354  1  0.92835230  0.06278087  0.45668954  1
  O2-  O355  1  0.43173198  0.93718167  0.79601721  1
  O2-  O356  1  0.06355878  0.40239476  0.53281150  1
  O2-  O357  1  0.06521394  0.26086877  0.22022034  1
  O2-  O358  1  0.43594245  0.26448422  0.46691147  1
  O2-  O359  1  0.93608909  0.73511448  0.28090613  1
  O2-  O360  1  0.07290984  0.26902710  0.43762697  1
  O2-  O361  1  0.93357737  0.92979504  0.97233684  1
  O2-  O362  1  0.43100084  0.06028393  0.68329925  1
  O2-  O363  1  0.44275633  0.41850052  0.22816053  1
  O2-  O364  1  0.07241821  0.94676552  0.28971933  1
  O2-  O365  1  0.42924896  0.05759502  0.94520802  1
  O2-  O366  1  0.06427008  0.59447146  0.21967201  1
  O2-  O367  1  0.57029377  0.06537081  0.70790814  1
  O2-  O368  1  0.43050324  0.39287187  0.79758880  1
  O2-  O369  1  0.57038394  0.60218263  0.20960649  1
  O2-  O370  1  0.42934871  0.59986241  0.29110168  1
  O2-  O371  1  0.93455422  0.59784899  0.46788754  1
  O2-  O372  1  0.25010110  -0.00116387  0.59347118  1
  O2-  O373  1  0.75009476  0.66539092  0.92792856  1
  O2-  O374  1  0.25006498  0.33332044  0.59415852  1
  O2-  O375  1  0.24995251  0.34220951  0.91883164  1
  O2-  O376  1  0.25002045  0.66270166  0.34823635  1
  O2-  O377  1  0.25004021  0.33330863  0.32955849  1
  O2-  O378  1  0.74986949  -0.00251421  0.09792281  1
  O2-  O379  1  0.24997399  0.33344609  0.82488821  1
  O2-  O380  1  0.25038958  0.66725320  0.90301161  1
  O2-  O381  1  0.75016323  0.00377348  0.59943747  1
  O2-  O382  1  0.24990592  0.00105360  0.32972512  1
  O2-  O383  1  0.75003441  0.66524654  0.15272002  1
  O2-  O384  1  0.24982759  0.00278240  0.15194874  1
  O2-  O385  1  0.75003160  0.33324696  0.90020115  1
  O2-  O386  1  0.24999939  0.00248583  0.84362169  1
  O2-  O387  1  0.75006325  0.66180599  0.58597738  1
  O2-  O388  1  0.74988851  0.66373344  0.34709791  1
  O2-  O389  1  0.75007129  0.68097283  0.66646611  1
  O2-  O390  1  0.75003756  0.67745864  0.83482844  1
  O2-  O391  1  0.25006950  0.33504602  0.42045085  1
  O2-  O392  1  0.25002693  0.66581468  0.15617250  1
  O2-  O393  1  0.74993587  0.33281603  0.09982484  1
  O2-  O394  1  0.25001398  -0.00070198  0.41957114  1
  O2-  O395  1  0.24993409  0.33141422  0.15281055  1
  O2-  O396  1  0.74999357  0.83195966  0.65946656  1
  O2-  O397  1  0.25000325  0.16713058  0.44041027  1
  O2-  O398  1  0.74997680  0.16195550  0.68833831  1
  O2-  O399  1  0.74993695  0.50443012  0.58175008  1
  O2-  O400  1  0.24999012  0.50000145  0.08554730  1
  O2-  O401  1  0.25011570  0.16756313  0.07073199  1
  O2-  O402  1  0.25005247  0.82906327  0.66320929  1
  O2-  O403  1  0.24987468  0.16652991  0.36606770  1
  O2-  O404  1  0.25003629  0.83318357  0.09002962  1
  O2-  O405  1  0.25000928  0.16581755  0.67082236  1
  O2-  O406  1  0.74989269  0.83593686  0.83097947  1
  O2-  O407  1  0.75005138  0.16153214  0.11837450  1
  O2-  O408  1  0.24995203  0.16687019  0.57988400  1
  O2-  O409  1  0.24998803  0.50299333  0.61094195  1
  O2-  O410  1  0.24993165  0.16687791  0.14566761  1
  O2-  O411  1  0.74998766  0.16791089  0.60868127  1
  O2-  O412  1  0.75014308  0.50107625  0.66751574  1
  O2-  O413  1  0.75000276  0.15977655  0.87925861  1
  O2-  O414  1  0.75000259  0.83098596  0.35827219  1
  O2-  O415  1  0.25008511  0.49965821  0.16483170  1
  O2-  O416  1  0.75011970  0.16761933  0.37446276  1
  O2-  O417  1  0.24998244  0.83479491  0.34359722  1
  O2-  O418  1  0.74998138  0.83298005  0.91934298  1
  O2-  O419  1  0.25001542  0.49762795  0.83525621  1
  O2-  O420  1  0.02973302  0.66467902  0.62523177  1
  O2-  O421  1  0.47005213  0.66969162  0.12668473  1
  O2-  O422  1  0.96852987  0.00349067  0.86955322  1
  O2-  O423  1  0.52899585  0.67000005  0.12110314  1
  O2-  O424  1  0.96847377  0.33656164  0.88173352  1
  O2-  O425  1  0.52606231  0.66770812  0.62875798  1
  O2-  O426  1  0.02588820  0.00183492  0.62226914  1
  O2-  O427  1  0.52843790  0.33323155  0.62456617  1
  O2-  O428  1  0.02421075  0.66658222  0.36735619  1
  O2-  O429  1  0.03377691  0.33679652  0.12059009  1
  O2-  O430  1  0.03433468  0.33190673  0.87791215  1
  O2-  O431  1  0.02600608  0.66836701  0.87879739  1
  O2-  O432  1  0.52439883  0.00179107  0.61751873  1
  O2-  O433  1  0.97566811  -0.00554402  0.37514684  1
  O2-  O434  1  0.52188319  0.66361879  0.87318896  1
  O2-  O435  1  0.96430205  0.33388246  0.12492188  1
  O2-  O436  1  0.03065724  -0.00151813  0.87104033  1
  O2-  O437  1  0.96767064  0.66598779  0.62271551  1
  O2-  O438  1  0.47327554  0.33024270  0.12004114  1
  O2-  O439  1  0.47192920  0.67106965  0.37732686  1
  O2-  O440  1  0.52527065  -0.00048507  0.87768870  1
  O2-  O441  1  0.02525650  0.33797525  0.36916679  1
  O2-  O442  1  0.53125977  0.66338835  0.37022621  1
  O2-  O443  1  0.02556606  0.66877511  0.12152979  1
