# generated using pymatgen
data_La7(Ru4O11)2
_symmetry_space_group_name_H-M   'P 1'
_cell_length_a   23.99180466
_cell_length_b   16.83146708
_cell_length_c   15.42770869
_cell_angle_alpha   89.99905966
_cell_angle_beta   90.00049701
_cell_angle_gamma   90.00094366
_symmetry_Int_Tables_number   1
_chemical_formula_structural   La7(Ru4O11)2
_chemical_formula_sum   'La84 Ru96 O264'
_cell_volume   6229.97520733
_cell_formula_units_Z   12
loop_
 _symmetry_equiv_pos_site_id
 _symmetry_equiv_pos_as_xyz
  1  'x, y, z'
loop_
 _atom_type_symbol
 _atom_type_oxidation_number
  La3+  3.0
  Ru4+  4.0
  O2-  -2.0
loop_
 _atom_site_type_symbol
 _atom_site_label
 _atom_site_symmetry_multiplicity
 _atom_site_fract_x
 _atom_site_fract_y
 _atom_site_fract_z
 _atom_site_occupancy
  La3+  La0  1  0.13562957  0.00010164  0.12041019  1
  La3+  La1  1  0.14148530  -0.00023992  0.38083918  1
  La3+  La2  1  0.14039224  -0.00309766  0.62023740  1
  La3+  La3  1  0.13759262  0.00144069  0.87987672  1
  La3+  La4  1  0.13553846  0.33340040  0.12457633  1
  La3+  La5  1  0.13890470  0.33260337  0.38028330  1
  La3+  La6  1  0.13590078  0.33377468  0.62416616  1
  La3+  La7  1  0.13973032  0.33360363  0.87694685  1
  La3+  La8  1  0.14269919  0.66056965  0.12910016  1
  La3+  La9  1  0.13882915  0.66582987  0.37420948  1
  La3+  La10  1  0.14221974  0.66847746  0.62272850  1
  La3+  La11  1  0.13381957  0.66363311  0.87592441  1
  La3+  La12  1  0.64385970  -0.00158554  0.12495247  1
  La3+  La13  1  0.64060172  -0.00012679  0.37226178  1
  La3+  La14  1  0.64155963  -0.00209387  0.62454367  1
  La3+  La15  1  0.64173542  -0.00413694  0.87573687  1
  La3+  La16  1  0.64903865  0.34063678  0.12950585  1
  La3+  La17  1  0.64180074  0.33687841  0.37225824  1
  La3+  La18  1  0.64202651  0.33540675  0.62835954  1
  La3+  La19  1  0.63802661  0.33570195  0.87779972  1
  La3+  La20  1  0.64159719  0.66749809  0.12042711  1
  La3+  La21  1  0.64063833  0.66400363  0.37276086  1
  La3+  La22  1  0.64239749  0.66636901  0.62902371  1
  La3+  La23  1  0.64621279  0.66582508  0.87825537  1
  La3+  La24  1  0.36283769  -0.00098108  0.12154054  1
  La3+  La25  1  0.35718610  -0.00154924  0.37951951  1
  La3+  La26  1  0.35694101  -0.00080275  0.62094316  1
  La3+  La27  1  0.35773028  0.00207506  0.87740274  1
  La3+  La28  1  0.36502762  0.33373671  0.12497451  1
  La3+  La29  1  0.35837671  0.33673971  0.38008816  1
  La3+  La30  1  0.36126550  0.33570723  0.62373036  1
  La3+  La31  1  0.36294081  0.33404545  0.87437257  1
  La3+  La32  1  0.36185713  0.66512282  0.12639036  1
  La3+  La33  1  0.35854436  0.66408937  0.37315157  1
  La3+  La34  1  0.36147640  0.66385727  0.62773698  1
  La3+  La35  1  0.35832766  0.66561137  0.87353118  1
  La3+  La36  1  0.85713892  -0.00189556  0.12524891  1
  La3+  La37  1  0.86252822  0.00257902  0.37321542  1
  La3+  La38  1  0.86270088  -0.00154174  0.62848892  1
  La3+  La39  1  0.86081385  -0.00347280  0.87550181  1
  La3+  La40  1  0.85775946  0.33666410  0.12515572  1
  La3+  La41  1  0.85659690  0.33934189  0.37235095  1
  La3+  La42  1  0.86134414  0.33710563  0.62513720  1
  La3+  La43  1  0.85979892  0.33633778  0.87676444  1
  La3+  La44  1  0.85738310  0.66778924  0.12182669  1
  La3+  La45  1  0.86017690  0.66617052  0.37209271  1
  La3+  La46  1  0.86420085  0.66244411  0.63121546  1
  La3+  La47  1  0.86029139  0.66359351  0.86970500  1
  La3+  La48  1  0.00070067  0.84728027  0.87943929  1
  La3+  La49  1  -0.00207756  0.50096637  0.63414190  1
  La3+  La50  1  0.50109678  0.83351617  0.36776705  1
  La3+  La51  1  0.50088894  0.16973849  0.64015794  1
  La3+  La52  1  0.49934619  0.16605290  0.61834155  1
  La3+  La53  1  0.50134322  0.83375544  0.12555171  1
  La3+  La54  1  0.49553368  0.16205624  0.88138699  1
  La3+  La55  1  0.50209043  0.49185866  0.61000170  1
  La3+  La56  1  -0.00184697  0.83517140  0.63301159  1
  La3+  La57  1  0.50086363  0.82815153  0.89086175  1
  La3+  La58  1  0.50492667  0.16430228  0.12432747  1
  La3+  La59  1  -0.00120214  0.50138927  0.37610311  1
  La3+  La60  1  -0.00521618  0.50229898  0.61771990  1
  La3+  La61  1  -0.00205767  0.50110851  0.87277527  1
  La3+  La62  1  0.50068925  0.50440122  0.86437427  1
  La3+  La63  1  0.50505239  0.83317287  0.61644862  1
  La3+  La64  1  0.49925995  0.50001188  0.13355184  1
  La3+  La65  1  -0.00503223  0.50343964  0.88890184  1
  La3+  La66  1  0.50097359  0.17057208  0.38220761  1
  La3+  La67  1  0.49661401  0.16384801  0.36225464  1
  La3+  La68  1  0.49708280  0.83607939  0.63509748  1
  La3+  La69  1  0.00151820  0.49828467  0.13350331  1
  La3+  La70  1  0.49877027  0.49617241  0.38231960  1
  La3+  La71  1  -0.00145425  0.16383724  0.12986406  1
  La3+  La72  1  0.24856042  0.82969012  0.79893881  1
  La3+  La73  1  0.24965967  0.16292608  0.49621939  1
  La3+  La74  1  0.24930871  0.16149548  0.20166053  1
  La3+  La75  1  0.74899396  0.45449548  0.50413063  1
  La3+  La76  1  0.24969664  0.13334059  0.75151302  1
  La3+  La77  1  0.25032472  0.52982943  -0.00707156  1
  La3+  La78  1  0.25055240  0.86726660  -0.01161104  1
  La3+  La79  1  0.75029479  0.88590246  0.24571843  1
  La3+  La80  1  0.74935359  0.22192845  0.78627249  1
  La3+  La81  1  0.75044435  0.12183274  0.03993486  1
  La3+  La82  1  0.74952600  0.49499232  0.74721449  1
  La3+  La83  1  0.74976193  0.17959178  0.46090340  1
  Ru4+  Ru84  1  0.00024882  -0.00105221  -0.00120263  1
  Ru4+  Ru85  1  -0.00045272  0.00123656  0.24492265  1
  Ru4+  Ru86  1  0.00126750  -0.00149625  0.50611319  1
  Ru4+  Ru87  1  -0.00029598  0.01105460  0.75323116  1
  Ru4+  Ru88  1  0.00077341  0.32972100  0.00122053  1
  Ru4+  Ru89  1  0.00149525  0.33103876  0.24790048  1
  Ru4+  Ru90  1  -0.00239786  0.31595701  0.50620141  1
  Ru4+  Ru91  1  -0.00163706  0.33383961  0.74574004  1
  Ru4+  Ru92  1  -0.00584678  0.67048712  -0.00490474  1
  Ru4+  Ru93  1  0.00185060  0.67345847  0.25479614  1
  Ru4+  Ru94  1  -0.00160864  0.67005083  0.49762010  1
  Ru4+  Ru95  1  -0.00101520  0.66347359  0.75506804  1
  Ru4+  Ru96  1  0.50193959  -0.00453469  0.00097178  1
  Ru4+  Ru97  1  0.50054203  0.00049571  0.24593726  1
  Ru4+  Ru98  1  0.50155578  0.00116965  0.49708406  1
  Ru4+  Ru99  1  0.50092938  -0.00102372  0.75738839  1
  Ru4+  Ru100  1  0.50383348  0.32946986  -0.00609640  1
  Ru4+  Ru101  1  0.50004565  0.33959017  0.24955154  1
  Ru4+  Ru102  1  0.50088250  0.33792547  0.50244054  1
  Ru4+  Ru103  1  0.49773475  0.33772191  0.75481699  1
  Ru4+  Ru104  1  0.50285379  0.66496574  0.00247705  1
  Ru4+  Ru105  1  0.49959420  0.66437230  0.24991912  1
  Ru4+  Ru106  1  0.50211688  0.66025294  0.50007831  1
  Ru4+  Ru107  1  0.49665792  0.66169501  0.74764241  1
  Ru4+  Ru108  1  0.11110700  0.16483592  -0.00034281  1
  Ru4+  Ru109  1  0.10651687  0.16009408  0.25152525  1
  Ru4+  Ru110  1  0.10957005  0.17029936  0.50123551  1
  Ru4+  Ru111  1  0.10848324  0.16198432  0.75185539  1
  Ru4+  Ru112  1  0.11456766  0.49658193  0.00210064  1
  Ru4+  Ru113  1  0.11268690  0.50423188  0.25100906  1
  Ru4+  Ru114  1  0.11312758  0.50044371  0.49874275  1
  Ru4+  Ru115  1  0.11581315  0.50375927  0.74646778  1
  Ru4+  Ru116  1  0.11284469  0.83457953  0.00204924  1
  Ru4+  Ru117  1  0.11168070  0.82961658  0.25202975  1
  Ru4+  Ru118  1  0.11115813  0.83674676  0.49926405  1
  Ru4+  Ru119  1  0.11003177  0.83350036  0.74757572  1
  Ru4+  Ru120  1  0.61136037  0.16495606  -0.00089324  1
  Ru4+  Ru121  1  0.61587728  0.16266383  0.24814844  1
  Ru4+  Ru122  1  0.61080074  0.16722805  0.49884159  1
  Ru4+  Ru123  1  0.61158424  0.16951660  0.75075868  1
  Ru4+  Ru124  1  0.61470184  0.50095909  0.00105201  1
  Ru4+  Ru125  1  0.61386365  0.50291270  0.24931462  1
  Ru4+  Ru126  1  0.60771874  0.50004172  0.49913369  1
  Ru4+  Ru127  1  0.61084557  0.50110295  0.75081626  1
  Ru4+  Ru128  1  0.61650812  0.83359424  0.00046239  1
  Ru4+  Ru129  1  0.61043246  0.83519232  0.25056972  1
  Ru4+  Ru130  1  0.61382498  0.83162883  0.49597987  1
  Ru4+  Ru131  1  0.61736476  0.83493888  0.75157960  1
  Ru4+  Ru132  1  0.38647438  0.16268829  0.00058360  1
  Ru4+  Ru133  1  0.38769404  0.16541762  0.25046963  1
  Ru4+  Ru134  1  0.38744291  0.16658707  0.49967318  1
  Ru4+  Ru135  1  0.38959158  0.17023067  0.75116242  1
  Ru4+  Ru136  1  0.39096222  0.49753655  0.00032677  1
  Ru4+  Ru137  1  0.38903540  0.50309602  0.24968115  1
  Ru4+  Ru138  1  0.38837061  0.50115016  0.49938916  1
  Ru4+  Ru139  1  0.38810934  0.50297449  0.75056146  1
  Ru4+  Ru140  1  0.38959599  0.83639944  -0.00027225  1
  Ru4+  Ru141  1  0.38765946  0.83295877  0.24995216  1
  Ru4+  Ru142  1  0.38458363  0.83486215  0.49723682  1
  Ru4+  Ru143  1  0.38692933  0.83239621  0.75178096  1
  Ru4+  Ru144  1  0.89035551  0.16199686  -0.00175155  1
  Ru4+  Ru145  1  0.88790883  0.16279856  0.25115252  1
  Ru4+  Ru146  1  0.89778462  0.17382955  0.50159252  1
  Ru4+  Ru147  1  0.88947201  0.16233953  0.74860062  1
  Ru4+  Ru148  1  0.88671508  0.50148863  -0.00229756  1
  Ru4+  Ru149  1  0.88597252  0.50076362  0.25003184  1
  Ru4+  Ru150  1  0.88656436  0.50597544  0.50048555  1
  Ru4+  Ru151  1  0.88766730  0.49912990  0.75171208  1
  Ru4+  Ru152  1  0.88451042  0.83180788  -0.00047173  1
  Ru4+  Ru153  1  0.89524254  0.83633193  0.24937646  1
  Ru4+  Ru154  1  0.88865935  0.83097235  0.50004636  1
  Ru4+  Ru155  1  0.88471451  0.83242434  0.75020887  1
  Ru4+  Ru156  1  0.74967729  0.60287776  0.48270296  1
  Ru4+  Ru157  1  0.75020612  0.75070308  0.49556244  1
  Ru4+  Ru158  1  0.24971922  0.75182831  0.49498414  1
  Ru4+  Ru159  1  0.24962049  0.95309578  0.71913500  1
  Ru4+  Ru160  1  0.75028157  0.30799998  0.51369296  1
  Ru4+  Ru161  1  0.24950699  0.28290323  0.25270903  1
  Ru4+  Ru162  1  0.75074793  0.90663381  0.49107389  1
  Ru4+  Ru163  1  0.25002136  0.24802871  -0.00376721  1
  Ru4+  Ru164  1  0.75000303  0.27184770  -0.00360974  1
  Ru4+  Ru165  1  0.74946598  0.05502495  0.74889842  1
  Ru4+  Ru166  1  0.24955553  0.69993710  0.73053465  1
  Ru4+  Ru167  1  0.25020283  0.43269790  0.25046403  1
  Ru4+  Ru168  1  0.25032394  0.38487061  -0.00298288  1
  Ru4+  Ru169  1  0.75040805  0.04627474  0.50785293  1
  Ru4+  Ru170  1  0.24939441  0.89885187  0.24571542  1
  Ru4+  Ru171  1  0.25034723  0.03256794  0.22960067  1
  Ru4+  Ru172  1  0.75031337  0.24564040  0.25331340  1
  Ru4+  Ru173  1  0.24993499  0.27706373  0.75923082  1
  Ru4+  Ru174  1  0.24983480  0.75516187  0.24751359  1
  Ru4+  Ru175  1  0.25017399  0.57767640  0.49100522  1
  Ru4+  Ru176  1  0.25019857  0.72436938  0.00158866  1
  Ru4+  Ru177  1  0.24976265  0.42506537  0.49385589  1
  Ru4+  Ru178  1  0.25030132  0.42254218  0.75539393  1
  Ru4+  Ru179  1  0.74982279  0.73191321  0.24241706  1
  O2-  O180  1  0.16752368  0.08400429  0.00122281  1
  O2-  O181  1  0.16715953  0.07753666  0.24878829  1
  O2-  O182  1  0.16802781  0.08488005  0.49945838  1
  O2-  O183  1  0.16496202  0.07901295  0.74933647  1
  O2-  O184  1  0.16780573  0.41253654  0.00083870  1
  O2-  O185  1  0.16666281  0.41427302  0.24929570  1
  O2-  O186  1  0.16766516  0.41423908  0.49971591  1
  O2-  O187  1  0.16688159  0.41329485  0.75166920  1
  O2-  O188  1  0.17082479  0.74845862  -0.00304345  1
  O2-  O189  1  0.17040005  0.74714929  0.24758975  1
  O2-  O190  1  0.16782979  0.74874610  0.49760796  1
  O2-  O191  1  0.16767252  0.74459218  0.75141768  1
  O2-  O192  1  0.66648783  0.07789271  0.00045248  1
  O2-  O193  1  0.66675879  0.08228460  0.25330197  1
  O2-  O194  1  0.66794752  0.07676347  0.49773415  1
  O2-  O195  1  0.66712182  0.07919635  0.75126558  1
  O2-  O196  1  0.66319167  0.41691168  -0.00073994  1
  O2-  O197  1  0.66394275  0.41703620  0.25242601  1
  O2-  O198  1  0.65983270  0.40970779  0.49913404  1
  O2-  O199  1  0.66363315  0.41394340  0.75154664  1
  O2-  O200  1  0.66716780  0.74872913  0.00003340  1
  O2-  O201  1  0.66655087  0.74539605  0.25068938  1
  O2-  O202  1  0.66715835  0.74739296  0.49909647  1
  O2-  O203  1  0.66517354  0.74719704  0.74882822  1
  O2-  O204  1  0.33003809  0.25324868  0.00030386  1
  O2-  O205  1  0.33069971  0.25627019  0.24510820  1
  O2-  O206  1  0.32997095  0.25194646  0.50270958  1
  O2-  O207  1  0.33343866  0.25341565  0.75096780  1
  O2-  O208  1  0.33444255  0.58878677  0.00300867  1
  O2-  O209  1  0.33544649  0.58806988  0.24735029  1
  O2-  O210  1  0.33505643  0.58656572  0.49933740  1
  O2-  O211  1  0.33182357  0.58525209  0.74603287  1
  O2-  O212  1  0.33710360  0.92213697  0.00343811  1
  O2-  O213  1  0.33410651  0.91810501  0.24709604  1
  O2-  O214  1  0.33531925  0.91726445  0.49872355  1
  O2-  O215  1  0.33327551  0.92173122  0.75142805  1
  O2-  O216  1  0.83284739  0.25198978  0.00056014  1
  O2-  O217  1  0.83390501  0.25178744  0.24879145  1
  O2-  O218  1  0.83167705  0.25426515  0.50036977  1
  O2-  O219  1  0.83527986  0.25236493  0.74874475  1
  O2-  O220  1  0.83678917  0.58548239  0.00220623  1
  O2-  O221  1  0.83757768  0.58554356  0.24947748  1
  O2-  O222  1  0.83311153  0.58823144  0.49675109  1
  O2-  O223  1  0.82978615  0.58606607  0.75071220  1
  O2-  O224  1  0.83522370  0.91894730  0.00044441  1
  O2-  O225  1  0.84118280  0.92291987  0.25332803  1
  O2-  O226  1  0.83542492  0.91841630  0.49765654  1
  O2-  O227  1  0.83405132  0.91707565  0.74777259  1
  O2-  O228  1  0.16871301  0.25153417  0.00028156  1
  O2-  O229  1  0.16347419  0.25617868  0.24973113  1
  O2-  O230  1  0.16700697  0.25122476  0.50123754  1
  O2-  O231  1  0.16804259  0.25131859  0.74968511  1
  O2-  O232  1  0.16681776  0.58631304  -0.00140425  1
  O2-  O233  1  0.16576910  0.58414700  0.25040792  1
  O2-  O234  1  0.16807134  0.58508723  0.49876787  1
  O2-  O235  1  0.16765265  0.58668573  0.75144435  1
  O2-  O236  1  0.16654328  0.91944862  0.00195612  1
  O2-  O237  1  0.16451581  0.91705871  0.24792228  1
  O2-  O238  1  0.16570444  0.91587091  0.49903982  1
  O2-  O239  1  0.16665151  0.92119687  0.75124605  1
  O2-  O240  1  0.66786219  0.24948719  -0.00185629  1
  O2-  O241  1  0.66721881  0.25274896  0.25167857  1
  O2-  O242  1  0.66525025  0.25595354  0.49993218  1
  O2-  O243  1  0.66142445  0.25525685  0.74928344  1
  O2-  O244  1  0.66751532  0.58343198  0.00345624  1
  O2-  O245  1  0.66528946  0.58387217  0.25021951  1
  O2-  O246  1  0.66600510  0.58867705  0.49941139  1
  O2-  O247  1  0.66909820  0.58715916  0.74773399  1
  O2-  O248  1  0.66715818  0.91685282  -0.00145366  1
  O2-  O249  1  0.65944870  0.92259284  0.25208693  1
  O2-  O250  1  0.66782333  0.91745500  0.49836756  1
  O2-  O251  1  0.66989042  0.91658557  0.75241060  1
  O2-  O252  1  0.33460484  0.08054909  0.00225213  1
  O2-  O253  1  0.33548236  0.07681744  0.24839492  1
  O2-  O254  1  0.33491611  0.08111433  0.49997478  1
  O2-  O255  1  0.33516594  0.07807355  0.75034362  1
  O2-  O256  1  0.33291318  0.41352918  0.00152663  1
  O2-  O257  1  0.33293848  0.41527854  0.24677009  1
  O2-  O258  1  0.33134400  0.41572779  0.50217933  1
  O2-  O259  1  0.33324205  0.41624676  0.75276778  1
  O2-  O260  1  0.33143636  0.74599114  0.00218679  1
  O2-  O261  1  0.33298392  0.74666261  0.24798114  1
  O2-  O262  1  0.33370817  0.74611739  0.49871291  1
  O2-  O263  1  0.32978033  0.74570698  0.74894721  1
  O2-  O264  1  0.83552308  0.07920383  0.00012958  1
  O2-  O265  1  0.83659984  0.08227675  0.25260430  1
  O2-  O266  1  0.83558284  0.07834690  0.49991772  1
  O2-  O267  1  0.83211534  0.08016898  0.75017162  1
  O2-  O268  1  0.83682287  0.41474308  0.00172551  1
  O2-  O269  1  0.83577534  0.41550837  0.24610706  1
  O2-  O270  1  0.83789430  0.41139070  0.49881955  1
  O2-  O271  1  0.83497913  0.41384460  0.75425044  1
  O2-  O272  1  0.83436468  0.74997721  0.00219715  1
  O2-  O273  1  0.83385610  0.74706570  0.25087324  1
  O2-  O274  1  0.83094094  0.74699731  0.49726274  1
  O2-  O275  1  0.83218129  0.74773383  0.75227081  1
  O2-  O276  1  0.46649707  0.54861479  0.71307523  1
  O2-  O277  1  0.95627405  0.22564514  0.97348548  1
  O2-  O278  1  0.94862125  0.57027386  0.76754195  1
  O2-  O279  1  0.54857522  0.09991229  0.76189251  1
  O2-  O280  1  0.05395694  0.56881462  0.79185498  1
  O2-  O281  1  0.54942436  0.76373866  0.23675544  1
  O2-  O282  1  0.44844116  0.90433878  0.76696556  1
  O2-  O283  1  0.95052332  0.75877328  0.25348193  1
  O2-  O284  1  0.44185407  0.23535223  0.01658091  1
  O2-  O285  1  0.94748913  0.75612968  0.51846199  1
  O2-  O286  1  0.95002008  0.90480889  0.98661106  1
  O2-  O287  1  0.95224669  0.75916724  0.24474945  1
  O2-  O288  1  0.95706011  0.55574978  0.74814933  1
  O2-  O289  1  0.54242795  0.22654430  0.97469459  1
  O2-  O290  1  0.55226797  0.75736162  0.02152285  1
  O2-  O291  1  0.05304287  0.23543536  0.98531341  1
  O2-  O292  1  0.02814713  0.78433086  0.00407576  1
  O2-  O293  1  0.95561877  0.43383341  0.51393997  1
  O2-  O294  1  0.95536452  0.91287489  0.24169750  1
  O2-  O295  1  0.45282978  0.76329743  0.50714839  1
  O2-  O296  1  0.95772951  0.21799777  0.75394496  1
  O2-  O297  1  0.55021198  0.23529618  0.26195127  1
  O2-  O298  1  0.04285324  0.77264995  0.53322713  1
  O2-  O299  1  0.04951457  0.09362710  0.76182779  1
  O2-  O300  1  0.05686357  0.24580995  0.47948348  1
  O2-  O301  1  0.04579428  0.23388998  0.24016905  1
  O2-  O302  1  0.95368334  0.09905050  0.26388098  1
  O2-  O303  1  0.54133355  0.88618559  0.78961748  1
  O2-  O304  1  0.45491405  0.56463332  0.98846580  1
  O2-  O305  1  0.53806873  0.22184626  -0.00771956  1
  O2-  O306  1  0.04018185  0.57322163  0.01130386  1
  O2-  O307  1  0.04289582  0.22391526  0.75404263  1
  O2-  O308  1  0.45060779  0.09466836  0.76253806  1
  O2-  O309  1  0.04432709  0.43351739  0.26425661  1
  O2-  O310  1  0.03574920  0.11153056  0.50822660  1
  O2-  O311  1  0.94441790  0.08080860  0.48180946  1
  O2-  O312  1  0.45260386  0.90650890  0.23944422  1
  O2-  O313  1  0.45721258  0.21917441  0.21592632  1
  O2-  O314  1  0.44812508  0.76162884  0.99552495  1
  O2-  O315  1  0.04209903  0.78284676  0.97192226  1
  O2-  O316  1  0.96400154  0.77814975  0.78527807  1
  O2-  O317  1  0.97175170  0.20522396  0.48089379  1
  O2-  O318  1  0.45345185  0.90461802  0.50711681  1
  O2-  O319  1  0.05154531  0.90952733  0.51872416  1
  O2-  O320  1  0.04386105  0.43175856  0.01027226  1
  O2-  O321  1  0.44961620  0.75664569  0.26784004  1
  O2-  O322  1  0.54755812  0.75665316  0.73620289  1
  O2-  O323  1  0.54017599  0.09135020  0.03312279  1
  O2-  O324  1  0.94257851  0.75086551  0.52024187  1
  O2-  O325  1  0.06256822  0.58682856  0.47428907  1
  O2-  O326  1  0.93318266  0.07022403  0.71523928  1
  O2-  O327  1  0.05489708  0.91669709  0.52130003  1
  O2-  O328  1  0.92985884  0.29005160  0.42516224  1
  O2-  O329  1  0.55885980  0.74661994  0.03066082  1
  O2-  O330  1  0.06293333  0.06728522  0.31934744  1
  O2-  O331  1  0.06111355  0.41315669  0.72337822  1
  O2-  O332  1  0.92463628  0.73399411  0.69479801  1
  O2-  O333  1  0.92857250  0.26620307  0.57954942  1
  O2-  O334  1  0.42147938  0.60027059  0.80546863  1
  O2-  O335  1  0.43378066  0.74012005  0.72131987  1
  O2-  O336  1  0.06899178  0.74099383  0.27364726  1
  O2-  O337  1  0.56272362  0.06908686  0.42404638  1
  O2-  O338  1  0.42981194  0.24657571  0.56550123  1
  O2-  O339  1  0.06812796  0.60236510  0.65564736  1
  O2-  O340  1  0.57718245  0.07044918  0.94630210  1
  O2-  O341  1  0.43531328  0.41276722  0.47783800  1
  O2-  O342  1  0.43241916  0.41080351  0.72937674  1
  O2-  O343  1  0.57130489  0.09069461  0.56379766  1
  O2-  O344  1  0.56682962  0.92318455  0.52390221  1
  O2-  O345  1  0.07301675  0.73341031  0.45508855  1
  O2-  O346  1  0.41786082  0.27126049  0.29962460  1
  O2-  O347  1  0.56389106  0.07324731  0.22830878  1
  O2-  O348  1  0.56020263  0.59467430  0.21604096  1
  O2-  O349  1  0.56270282  0.58881729  0.97475488  1
  O2-  O350  1  0.06381363  0.40734739  0.52410782  1
  O2-  O351  1  0.06274640  0.07055720  0.18439390  1
  O2-  O352  1  0.56430020  0.92275484  0.02700018  1
  O2-  O353  1  0.93390718  0.73308270  0.96637450  1
  O2-  O354  1  0.07363507  0.28176906  0.79321489  1
  O2-  O355  1  0.94274256  0.41630815  0.54186114  1
  O2-  O356  1  0.56402254  0.59136296  0.77528278  1
  O2-  O357  1  0.93217890  0.58997874  0.71407061  1
  O2-  O358  1  0.93930750  0.92685483  0.78405701  1
  O2-  O359  1  0.92483328  0.27942496  0.78156840  1
  O2-  O360  1  0.58061348  0.93559889  0.69975616  1
  O2-  O361  1  0.57660268  0.30851144  0.06747295  1
  O2-  O362  1  0.06713875  0.92644080  0.97597776  1
  O2-  O363  1  0.06236835  0.58131523  0.02783113  1
  O2-  O364  1  0.06137374  0.57717722  0.80341963  1
  O2-  O365  1  0.93219736  0.27202622  0.04678408  1
  O2-  O366  1  0.06150629  0.07369221  0.03283790  1
  O2-  O367  1  0.43212587  0.24930523  0.43567598  1
  O2-  O368  1  0.93664714  0.06745407  0.96905909  1
  O2-  O369  1  0.07878199  0.06187230  0.53278587  1
  O2-  O370  1  0.56275550  0.73702675  0.46432373  1
  O2-  O371  1  0.08188283  0.70862919  0.06610563  1
  O2-  O372  1  0.25012762  0.32328927  0.44386600  1
  O2-  O373  1  0.75028263  0.66645147  0.35233115  1
  O2-  O374  1  0.24982955  0.66981990  0.85651282  1
  O2-  O375  1  0.75090372  -0.01015261  0.61410328  1
  O2-  O376  1  0.24990278  0.34993997  0.14062755  1
  O2-  O377  1  0.25020081  0.00957223  0.83076959  1
  O2-  O378  1  0.75071237  -0.00635522  0.39119222  1
  O2-  O379  1  0.74928110  0.67131979  0.59512330  1
  O2-  O380  1  0.25080069  -0.00349667  0.92336462  1
  O2-  O381  1  0.75095586  0.33292333  0.10239247  1
  O2-  O382  1  0.25066933  0.66611379  0.40292315  1
  O2-  O383  1  0.75017235  0.66542049  0.90025072  1
  O2-  O384  1  0.24937095  0.35712222  0.33901364  1
  O2-  O385  1  0.74939155  0.33273669  0.64293158  1
  O2-  O386  1  0.25009648  0.33756443  0.64740816  1
  O2-  O387  1  0.74995717  -0.00040137  0.14911159  1
  O2-  O388  1  0.74979209  0.32748242  0.35064995  1
  O2-  O389  1  0.75032848  0.33590872  0.89619499  1
  O2-  O390  1  0.25069616  0.00535919  0.42966196  1
  O2-  O391  1  0.25042165  0.00476821  0.60743850  1
  O2-  O392  1  0.24978025  -0.01920290  0.33883375  1
  O2-  O393  1  0.75022830  0.66180374  0.15222518  1
  O2-  O394  1  0.75011302  -0.00019665  0.84945574  1
  O2-  O395  1  0.25074520  0.66971738  0.59510844  1
  O2-  O396  1  0.75047064  0.50034197  0.95379899  1
  O2-  O397  1  0.75024480  0.83286878  0.91465206  1
  O2-  O398  1  0.75007169  0.14422229  0.67712718  1
  O2-  O399  1  0.75018606  0.83342192  0.83505043  1
  O2-  O400  1  0.74995493  0.17517929  0.16683633  1
  O2-  O401  1  0.25023477  0.83528385  0.65518363  1
  O2-  O402  1  0.25016264  0.49920847  0.34269416  1
  O2-  O403  1  0.25016548  0.17289414  0.35544947  1
  O2-  O404  1  0.25046479  0.82887811  0.34594317  1
  O2-  O405  1  0.75000587  0.51712732  0.61989874  1
  O2-  O406  1  0.24996851  0.50221328  0.57418457  1
  O2-  O407  1  0.25014534  0.49361074  0.84836982  1
  O2-  O408  1  0.75037349  0.50056911  0.87314415  1
  O2-  O409  1  0.75013704  0.16495559  0.59251979  1
  O2-  O410  1  0.75003135  0.51922454  0.38717544  1
  O2-  O411  1  0.75009186  0.16814695  0.90834279  1
  O2-  O412  1  0.24964209  0.50367573  0.68925772  1
  O2-  O413  1  0.25017574  0.83879826  0.56610870  1
  O2-  O414  1  0.74972872  0.83249160  0.66729812  1
  O2-  O415  1  0.74999282  0.81392056  0.13428789  1
  O2-  O416  1  0.74985492  0.83336207  0.58169806  1
  O2-  O417  1  0.74982584  0.82483972  0.38754998  1
  O2-  O418  1  0.25019868  0.82870625  0.12614859  1
  O2-  O419  1  0.75027118  0.16612366  0.33095019  1
  O2-  O420  1  0.45470706  0.33352941  0.87766263  1
  O2-  O421  1  0.02504959  0.67490287  0.88007203  1
  O2-  O422  1  0.02514663  0.32513219  0.62683667  1
  O2-  O423  1  0.46541827  0.33841144  0.62860989  1
  O2-  O424  1  0.01694274  0.65468679  0.36961991  1
  O2-  O425  1  0.51930791  -0.00582571  0.87635011  1
  O2-  O426  1  0.02813626  0.33370028  0.12439271  1
  O2-  O427  1  0.97153971  0.00449859  0.11995258  1
  O2-  O428  1  0.54922172  0.33195446  0.62383465  1
  O2-  O429  1  0.51749657  -0.00489661  0.12772754  1
  O2-  O430  1  0.54931669  0.33514406  0.38069648  1
  O2-  O431  1  0.52709412  0.00525677  0.62923712  1
  O2-  O432  1  0.47339042  0.34217308  0.12391032  1
  O2-  O433  1  0.47037988  0.35331773  0.36621861  1
  O2-  O434  1  0.02476211  -0.00110401  0.87042924  1
  O2-  O435  1  0.02061805  -0.00413006  0.63990004  1
  O2-  O436  1  0.53011643  0.67844868  0.87211444  1
  O2-  O437  1  0.44845293  0.00408508  0.62672199  1
  O2-  O438  1  0.47677206  0.65994417  0.61983793  1
  O2-  O439  1  0.47188799  0.67848228  0.87809981  1
  O2-  O440  1  0.97622171  0.34933564  0.87880868  1
  O2-  O441  1  0.54544827  0.34108646  0.86698137  1
  O2-  O442  1  0.47098050  0.00189637  0.37298648  1
  O2-  O443  1  0.98160202  0.65560009  0.61629799  1
