# generated using pymatgen
data_La7(Ru4O11)2
_symmetry_space_group_name_H-M   'P 1'
_cell_length_a   23.98989504
_cell_length_b   16.82967028
_cell_length_c   15.42631700
_cell_angle_alpha   90.00095169
_cell_angle_beta   90.00046914
_cell_angle_gamma   89.99976018
_symmetry_Int_Tables_number   1
_chemical_formula_structural   La7(Ru4O11)2
_chemical_formula_sum   'La84 Ru96 O264'
_cell_volume   6228.25243885
_cell_formula_units_Z   12
loop_
 _symmetry_equiv_pos_site_id
 _symmetry_equiv_pos_as_xyz
  1  'x, y, z'
loop_
 _atom_type_symbol
 _atom_type_oxidation_number
  La3+  3.0
  Ru4+  4.0
  O2-  -2.0
loop_
 _atom_site_type_symbol
 _atom_site_label
 _atom_site_symmetry_multiplicity
 _atom_site_fract_x
 _atom_site_fract_y
 _atom_site_fract_z
 _atom_site_occupancy
  La3+  La0  1  0.13724905  0.00253116  0.12465315  1
  La3+  La1  1  0.13931308  0.00089055  0.37475201  1
  La3+  La2  1  0.14063883  0.00157698  0.62650783  1
  La3+  La3  1  0.13762491  0.00170286  0.87316154  1
  La3+  La4  1  0.13684527  0.33289009  0.12296409  1
  La3+  La5  1  0.13657617  0.33258917  0.37634003  1
  La3+  La6  1  0.13978189  0.33401928  0.62586190  1
  La3+  La7  1  0.14054536  0.33278213  0.87632759  1
  La3+  La8  1  0.13710531  0.66608586  0.12470647  1
  La3+  La9  1  0.13902469  0.66666757  0.37753472  1
  La3+  La10  1  0.14141957  0.66745594  0.62570941  1
  La3+  La11  1  0.13888366  0.66642188  0.87261971  1
  La3+  La12  1  0.63895273  0.00172993  0.12327698  1
  La3+  La13  1  0.63811490  0.00096565  0.37436367  1
  La3+  La14  1  0.63766612  -0.00076383  0.62478391  1
  La3+  La15  1  0.63946542  -0.00048731  0.87704352  1
  La3+  La16  1  0.63931492  0.33325108  0.12569726  1
  La3+  La17  1  0.64032982  0.33293426  0.37489034  1
  La3+  La18  1  0.64057600  0.33237378  0.62402446  1
  La3+  La19  1  0.63879906  0.33335892  0.87456369  1
  La3+  La20  1  0.64174739  0.66727568  0.12322712  1
  La3+  La21  1  0.63853259  0.66504137  0.37512090  1
  La3+  La22  1  0.64058059  0.66598631  0.62339195  1
  La3+  La23  1  0.64020476  0.66684132  0.87759455  1
  La3+  La24  1  0.36196545  0.00140000  0.12435644  1
  La3+  La25  1  0.36212734  0.00014509  0.37610889  1
  La3+  La26  1  0.35949858  -0.00028460  0.62597968  1
  La3+  La27  1  0.36035293  0.00162512  0.87451198  1
  La3+  La28  1  0.36170039  0.33215256  0.12127610  1
  La3+  La29  1  0.36158583  0.33313034  0.37703136  1
  La3+  La30  1  0.35982499  0.33290330  0.62487716  1
  La3+  La31  1  0.35842816  0.33269564  0.87757330  1
  La3+  La32  1  0.36306510  0.66693639  0.12461827  1
  La3+  La33  1  0.36132974  0.66853239  0.37787831  1
  La3+  La34  1  0.35952487  0.66652146  0.62728359  1
  La3+  La35  1  0.36241480  0.66537974  0.87073643  1
  La3+  La36  1  0.86106046  0.00149916  0.12371212  1
  La3+  La37  1  0.86167114  0.00141590  0.37372624  1
  La3+  La38  1  0.86124322  0.00096960  0.62493819  1
  La3+  La39  1  0.86217448  0.00000343  0.87654844  1
  La3+  La40  1  0.86156619  0.33293151  0.12512940  1
  La3+  La41  1  0.86008389  0.33302391  0.37489815  1
  La3+  La42  1  0.86146816  0.33318056  0.62383652  1
  La3+  La43  1  0.86219179  0.33354665  0.87473193  1
  La3+  La44  1  0.85908347  0.66620836  0.12238046  1
  La3+  La45  1  0.86131598  0.66658105  0.37490699  1
  La3+  La46  1  0.86033863  0.66534426  0.62353892  1
  La3+  La47  1  0.86149762  0.66603879  0.87681199  1
  La3+  La48  1  0.50147494  0.16670839  0.61399821  1
  La3+  La49  1  -0.00073790  0.16668945  0.11567855  1
  La3+  La50  1  0.49900924  0.16645571  0.35964740  1
  La3+  La51  1  -0.00066935  0.50365346  0.87022850  1
  La3+  La52  1  0.50190790  0.16889492  0.63106154  1
  La3+  La53  1  0.49724250  0.49997591  0.86430471  1
  La3+  La54  1  -0.00022312  0.49704232  0.61572087  1
  La3+  La55  1  0.49812402  0.50016824  0.11342985  1
  La3+  La56  1  -0.00302529  0.82804998  0.37059028  1
  La3+  La57  1  0.49953861  0.83408175  0.13270089  1
  La3+  La58  1  -0.00222611  0.83704109  0.12820649  1
  La3+  La59  1  0.49980335  0.49924702  0.36704068  1
  La3+  La60  1  -0.00058719  0.49673512  0.63282135  1
  La3+  La61  1  0.00131209  0.83183686  0.63791255  1
  La3+  La62  1  0.49819440  0.50369584  0.61394769  1
  La3+  La63  1  0.50002225  0.16672563  0.86507575  1
  La3+  La64  1  0.50296799  0.16963598  0.38067219  1
  La3+  La65  1  0.49811660  0.83180405  0.36627652  1
  La3+  La66  1  0.49940905  0.16578787  0.88754293  1
  La3+  La67  1  0.49987334  0.49713536  0.63501894  1
  La3+  La68  1  -0.00280750  0.83625844  0.61662857  1
  La3+  La69  1  -0.00236640  0.17090363  0.36588864  1
  La3+  La70  1  0.50316087  0.49404255  0.13039709  1
  La3+  La71  1  -0.00120010  0.50345258  0.36471079  1
  La3+  La72  1  0.74999990  0.53212432  0.75280032  1
  La3+  La73  1  0.25024411  0.79700189  0.25418532  1
  La3+  La74  1  0.74991280  0.80463292  0.24842514  1
  La3+  La75  1  0.75005256  0.86927097  0.72972790  1
  La3+  La76  1  0.74972333  0.20124484  0.71576394  1
  La3+  La77  1  0.25009588  0.12625754  0.28129950  1
  La3+  La78  1  0.24994601  0.50040769  0.25389807  1
  La3+  La79  1  0.24989940  0.83674149  -0.00323374  1
  La3+  La80  1  0.24992854  0.49677675  0.00955876  1
  La3+  La81  1  0.75009697  0.83268550  -0.01619798  1
  La3+  La82  1  0.24989237  0.16774008  0.48361348  1
  La3+  La83  1  0.75061449  0.80002260  0.47549352  1
  Ru4+  Ru84  1  -0.00088577  -0.00019783  -0.00367662  1
  Ru4+  Ru85  1  -0.00395574  -0.00264040  0.24780281  1
  Ru4+  Ru86  1  -0.00339213  -0.00549951  0.49988871  1
  Ru4+  Ru87  1  0.00325783  0.00865523  0.75510267  1
  Ru4+  Ru88  1  0.00081186  0.33427022  0.00058437  1
  Ru4+  Ru89  1  -0.00617607  0.33514397  0.24266614  1
  Ru4+  Ru90  1  0.00121116  0.33496966  0.50299508  1
  Ru4+  Ru91  1  -0.00019273  0.32210375  0.75369086  1
  Ru4+  Ru92  1  -0.00185170  0.66745602  0.00179976  1
  Ru4+  Ru93  1  -0.00150735  0.66189102  0.25038865  1
  Ru4+  Ru94  1  -0.00052454  0.66766746  0.50008002  1
  Ru4+  Ru95  1  -0.00177755  0.67058415  0.74909558  1
  Ru4+  Ru96  1  0.50088089  0.00043266  0.00209097  1
  Ru4+  Ru97  1  0.49986925  0.00169430  0.25229525  1
  Ru4+  Ru98  1  0.49580111  0.00390539  0.49876371  1
  Ru4+  Ru99  1  0.50166026  -0.00593482  0.74763958  1
  Ru4+  Ru100  1  0.49787235  0.33409725  0.00033261  1
  Ru4+  Ru101  1  0.50055948  0.33353497  0.24985750  1
  Ru4+  Ru102  1  0.49850084  0.33402411  0.49905023  1
  Ru4+  Ru103  1  0.49914571  0.33075876  0.74979879  1
  Ru4+  Ru104  1  0.49875280  0.67037593  -0.00312034  1
  Ru4+  Ru105  1  0.50062014  0.67020285  0.25257967  1
  Ru4+  Ru106  1  0.49834810  0.66631655  0.49738223  1
  Ru4+  Ru107  1  0.50168254  0.67684133  0.75594043  1
  Ru4+  Ru108  1  0.11432031  0.16722079  -0.00002939  1
  Ru4+  Ru109  1  0.11670361  0.16664853  0.24998610  1
  Ru4+  Ru110  1  0.11736598  0.17021618  0.50133534  1
  Ru4+  Ru111  1  0.11171245  0.16200380  0.74907963  1
  Ru4+  Ru112  1  0.11129209  0.49935149  0.00018598  1
  Ru4+  Ru113  1  0.11213758  0.50492471  0.24922501  1
  Ru4+  Ru114  1  0.11327700  0.50063094  0.49987210  1
  Ru4+  Ru115  1  0.11899196  0.50380020  0.75110270  1
  Ru4+  Ru116  1  0.11008620  0.83318843  0.00065937  1
  Ru4+  Ru117  1  0.11377760  0.83233756  0.24995677  1
  Ru4+  Ru118  1  0.11592608  0.83402850  0.49865326  1
  Ru4+  Ru119  1  0.11313623  0.83241685  0.75075498  1
  Ru4+  Ru120  1  0.61418532  0.16250709  0.00106059  1
  Ru4+  Ru121  1  0.61342977  0.16537096  0.25008852  1
  Ru4+  Ru122  1  0.61437059  0.16660601  0.50010965  1
  Ru4+  Ru123  1  0.60998201  0.16676684  0.75001445  1
  Ru4+  Ru124  1  0.61574231  0.50029614  -0.00024466  1
  Ru4+  Ru125  1  0.61284757  0.49921613  0.25040858  1
  Ru4+  Ru126  1  0.61432930  0.50271278  0.49916700  1
  Ru4+  Ru127  1  0.61362791  0.49970020  0.75081005  1
  Ru4+  Ru128  1  0.61234410  0.83156070  0.00055841  1
  Ru4+  Ru129  1  0.61223956  0.83299424  0.25030924  1
  Ru4+  Ru130  1  0.61843933  0.82926812  0.49992931  1
  Ru4+  Ru131  1  0.61013910  0.83477323  0.75045338  1
  Ru4+  Ru132  1  0.38591393  0.16670706  -0.00028377  1
  Ru4+  Ru133  1  0.38904921  0.16642924  0.25004182  1
  Ru4+  Ru134  1  0.38541376  0.16738706  0.50055487  1
  Ru4+  Ru135  1  0.38484986  0.16722400  0.75066335  1
  Ru4+  Ru136  1  0.38848718  0.49938762  -0.00010421  1
  Ru4+  Ru137  1  0.38790516  0.49774805  0.25092860  1
  Ru4+  Ru138  1  0.38620033  0.50147332  0.49899033  1
  Ru4+  Ru139  1  0.38322042  0.49764151  0.75095347  1
  Ru4+  Ru140  1  0.38914028  0.83304099  -0.00110523  1
  Ru4+  Ru141  1  0.38866000  0.83309675  0.24887693  1
  Ru4+  Ru142  1  0.38875592  0.83180899  0.50062538  1
  Ru4+  Ru143  1  0.38587844  0.83177442  0.75039009  1
  Ru4+  Ru144  1  0.88732903  0.16470351  -0.00022873  1
  Ru4+  Ru145  1  0.88621580  0.16608477  0.24953367  1
  Ru4+  Ru146  1  0.88493001  0.16633861  0.49976307  1
  Ru4+  Ru147  1  0.89072186  0.16665879  0.74985557  1
  Ru4+  Ru148  1  0.88601649  0.50329883  -0.00057722  1
  Ru4+  Ru149  1  0.88770062  0.50094851  0.24961185  1
  Ru4+  Ru150  1  0.88422892  0.49865042  0.49964316  1
  Ru4+  Ru151  1  0.88489779  0.50558988  0.75118294  1
  Ru4+  Ru152  1  0.88800242  0.83097459  -0.00035471  1
  Ru4+  Ru153  1  0.88911914  0.83262006  0.25068563  1
  Ru4+  Ru154  1  0.88946819  0.83263598  0.49970013  1
  Ru4+  Ru155  1  0.88765694  0.83126543  0.75158652  1
  Ru4+  Ru156  1  0.74988368  0.24768393  0.00489872  1
  Ru4+  Ru157  1  0.25014185  0.93850100  0.24563780  1
  Ru4+  Ru158  1  0.24982784  0.24316550  0.75602469  1
  Ru4+  Ru159  1  0.25006772  0.97314470  -0.00903987  1
  Ru4+  Ru160  1  0.75003555  0.09059343  0.49470034  1
  Ru4+  Ru161  1  0.74984085  0.24844230  0.25035964  1
  Ru4+  Ru162  1  0.75004889  0.41894224  0.25222128  1
  Ru4+  Ru163  1  0.24992213  0.58264978  0.50327104  1
  Ru4+  Ru164  1  0.24957282  0.41920202  0.49864071  1
  Ru4+  Ru165  1  0.75018853  0.94237626  0.25016519  1
  Ru4+  Ru166  1  0.25039484  0.25325971  0.25837908  1
  Ru4+  Ru167  1  0.24978259  0.91678903  0.74458987  1
  Ru4+  Ru168  1  0.75001733  0.39582845  0.73869394  1
  Ru4+  Ru169  1  0.75011892  0.42462995  -0.00122556  1
  Ru4+  Ru170  1  0.25003857  0.90869140  0.50433794  1
  Ru4+  Ru171  1  0.74973334  0.42222810  0.49658151  1
  Ru4+  Ru172  1  0.25008355  0.41166945  0.74947124  1
  Ru4+  Ru173  1  0.74987111  0.58187670  0.24759492  1
  Ru4+  Ru174  1  0.75007087  0.73453631  0.75764228  1
  Ru4+  Ru175  1  0.24997175  0.70219585  -0.02427334  1
  Ru4+  Ru176  1  0.25021741  0.62817852  0.26242716  1
  Ru4+  Ru177  1  0.74986604  0.06358951  0.74372569  1
  Ru4+  Ru178  1  0.25026331  0.37386105  0.27379261  1
  Ru4+  Ru179  1  0.75047562  0.93990977  0.49519804  1
  O2-  O180  1  0.16608472  0.08130569  -0.00111110  1
  O2-  O181  1  0.16600272  0.07994170  0.24896571  1
  O2-  O182  1  0.16911566  0.08091296  0.49882188  1
  O2-  O183  1  0.16601487  0.08174559  0.75079026  1
  O2-  O184  1  0.16565802  0.41426596  0.00049261  1
  O2-  O185  1  0.16490181  0.41245924  0.24988197  1
  O2-  O186  1  0.16820320  0.41469189  0.49958066  1
  O2-  O187  1  0.16691645  0.41484248  0.75089313  1
  O2-  O188  1  0.16577488  0.74588386  0.00016568  1
  O2-  O189  1  0.16570932  0.74606500  0.24832929  1
  O2-  O190  1  0.16782012  0.74840446  0.50012722  1
  O2-  O191  1  0.16629173  0.74900474  0.75100408  1
  O2-  O192  1  0.66688948  0.08229041  0.00021126  1
  O2-  O193  1  0.66687941  0.08073808  0.25018990  1
  O2-  O194  1  0.66717804  0.08016298  0.50047906  1
  O2-  O195  1  0.66699325  0.07878538  0.74885800  1
  O2-  O196  1  0.66654008  0.41417054  -0.00026768  1
  O2-  O197  1  0.66750868  0.41456710  0.24968482  1
  O2-  O198  1  0.66865702  0.41375117  0.50027748  1
  O2-  O199  1  0.66644401  0.41311398  0.74963294  1
  O2-  O200  1  0.66736952  0.74800226  -0.00131846  1
  O2-  O201  1  0.66669292  0.74647575  0.25095009  1
  O2-  O202  1  0.66705033  0.74607339  0.49915997  1
  O2-  O203  1  0.66623909  0.74701059  0.74984093  1
  O2-  O204  1  0.33515408  0.25126547  0.00055851  1
  O2-  O205  1  0.33372952  0.25458926  0.25022462  1
  O2-  O206  1  0.33336835  0.25330299  0.50025360  1
  O2-  O207  1  0.33290923  0.25257337  0.74952570  1
  O2-  O208  1  0.33285816  0.58826244  -0.00067541  1
  O2-  O209  1  0.33380619  0.58813679  0.24898628  1
  O2-  O210  1  0.33137055  0.58530311  0.49967441  1
  O2-  O211  1  0.33291022  0.58509675  0.75207113  1
  O2-  O212  1  0.33232431  0.92055269  0.00057346  1
  O2-  O213  1  0.33214906  0.92084346  0.24987558  1
  O2-  O214  1  0.33201173  0.91922901  0.49894055  1
  O2-  O215  1  0.33169681  0.91808540  0.75060410  1
  O2-  O216  1  0.83339559  0.25294008  -0.00080864  1
  O2-  O217  1  0.83200703  0.25229718  0.25042694  1
  O2-  O218  1  0.83261395  0.25144093  0.50064295  1
  O2-  O219  1  0.83394689  0.25294856  0.75037039  1
  O2-  O220  1  0.83317093  0.58377912  0.00050966  1
  O2-  O221  1  0.83181011  0.58601371  0.25014554  1
  O2-  O222  1  0.83263389  0.58490190  0.50040829  1
  O2-  O223  1  0.83278612  0.58604137  0.74875307  1
  O2-  O224  1  0.83384152  0.91965225  0.00119677  1
  O2-  O225  1  0.83296230  0.92037588  0.24985183  1
  O2-  O226  1  0.83305053  0.92138293  0.49906536  1
  O2-  O227  1  0.83383589  0.92091948  0.74983947  1
  O2-  O228  1  0.16538833  0.25130699  0.00038668  1
  O2-  O229  1  0.16629570  0.25325434  0.25000451  1
  O2-  O230  1  0.16824258  0.25296376  0.49902220  1
  O2-  O231  1  0.16714049  0.25216595  0.75046869  1
  O2-  O232  1  0.16689706  0.58694072  -0.00015364  1
  O2-  O233  1  0.16480355  0.58640540  0.24863491  1
  O2-  O234  1  0.16867590  0.58541361  0.49960592  1
  O2-  O235  1  0.16731556  0.58418508  0.75066827  1
  O2-  O236  1  0.16598884  0.92099612  -0.00071388  1
  O2-  O237  1  0.16730301  0.91981678  0.24953500  1
  O2-  O238  1  0.16770621  0.91968054  0.49879687  1
  O2-  O239  1  0.16952400  0.91886371  0.75101121  1
  O2-  O240  1  0.66643819  0.25325661  -0.00067556  1
  O2-  O241  1  0.66749451  0.25280391  0.24991084  1
  O2-  O242  1  0.66750088  0.25200781  0.50022180  1
  O2-  O243  1  0.66716174  0.25438635  0.75024822  1
  O2-  O244  1  0.66681823  0.58428454  -0.00140732  1
  O2-  O245  1  0.66858423  0.58620015  0.25068497  1
  O2-  O246  1  0.66594659  0.58479823  0.49955733  1
  O2-  O247  1  0.66700310  0.58645454  0.74997314  1
  O2-  O248  1  0.66634917  0.91950118  0.00043724  1
  O2-  O249  1  0.66736289  0.91999466  0.25048013  1
  O2-  O250  1  0.66719832  0.91992412  0.50019064  1
  O2-  O251  1  0.66529102  0.92127696  0.74952028  1
  O2-  O252  1  0.33204507  0.08122958  0.00004009  1
  O2-  O253  1  0.33360379  0.07868447  0.24915268  1
  O2-  O254  1  0.33151681  0.08013795  0.49852679  1
  O2-  O255  1  0.33241790  0.08172109  0.74951932  1
  O2-  O256  1  0.33440562  0.41390917  0.00052023  1
  O2-  O257  1  0.33549485  0.41237995  0.24966060  1
  O2-  O258  1  0.33292498  0.41388949  0.50018800  1
  O2-  O259  1  0.33305234  0.41372444  0.75047399  1
  O2-  O260  1  0.33465752  0.74620784  -0.00023630  1
  O2-  O261  1  0.33550092  0.74559838  0.24953936  1
  O2-  O262  1  0.33370910  0.74845276  0.49934198  1
  O2-  O263  1  0.33368013  0.74885802  0.75189620  1
  O2-  O264  1  0.83411072  0.08159816  0.00087636  1
  O2-  O265  1  0.83323517  0.08051932  0.25069726  1
  O2-  O266  1  0.83296612  0.08128474  0.49992909  1
  O2-  O267  1  0.83263708  0.07921330  0.74939492  1
  O2-  O268  1  0.83400341  0.41397504  -0.00042431  1
  O2-  O269  1  0.83275669  0.41474285  0.25007606  1
  O2-  O270  1  0.83196859  0.41494228  0.49970467  1
  O2-  O271  1  0.83346752  0.41286350  0.74950041  1
  O2-  O272  1  0.83266581  0.74807508  0.00027388  1
  O2-  O273  1  0.83212532  0.74594157  0.24970727  1
  O2-  O274  1  0.83371007  0.74596621  0.49965953  1
  O2-  O275  1  0.83273211  0.74683801  0.74873015  1
  O2-  O276  1  0.54327951  0.89198422  0.51075101  1
  O2-  O277  1  0.95046138  0.43098473  0.72999356  1
  O2-  O278  1  0.04947932  0.42999089  0.72974857  1
  O2-  O279  1  0.45418077  0.43115866  0.48491130  1
  O2-  O280  1  0.54571130  0.90285869  0.26438997  1
  O2-  O281  1  0.54529519  0.90163212  0.76270165  1
  O2-  O282  1  0.95119873  0.10195011  0.75832937  1
  O2-  O283  1  0.54035806  0.89171633  0.50985146  1
  O2-  O284  1  0.44869377  0.90216249  0.48384140  1
  O2-  O285  1  0.46687939  0.88195458  0.99477542  1
  O2-  O286  1  0.04735470  0.23790725  0.26460369  1
  O2-  O287  1  0.03999337  0.56248142  0.72226988  1
  O2-  O288  1  0.05046726  0.09896723  0.73443926  1
  O2-  O289  1  0.95198436  0.09713756  0.73948276  1
  O2-  O290  1  0.95078035  0.43122491  0.76909647  1
  O2-  O291  1  0.04441866  0.43071704  0.01353742  1
  O2-  O292  1  0.04783551  0.09947010  0.23105358  1
  O2-  O293  1  0.95512705  0.09984955  0.98839363  1
  O2-  O294  1  0.04508685  0.90016393  0.01333368  1
  O2-  O295  1  0.03945815  0.22620113  0.50407375  1
  O2-  O296  1  0.03411055  0.10945630  0.50067864  1
  O2-  O297  1  0.95065280  0.90457364  0.79079023  1
  O2-  O298  1  0.45305269  0.56871628  0.73561635  1
  O2-  O299  1  0.04404605  0.43004866  0.23001873  1
  O2-  O300  1  0.04716357  0.42854990  0.26887106  1
  O2-  O301  1  0.45391938  0.23674362  0.51457657  1
  O2-  O302  1  0.54601253  0.43238399  0.76356660  1
  O2-  O303  1  0.54830864  0.56707333  0.26459149  1
  O2-  O304  1  0.53850027  0.56013733  0.96762278  1
  O2-  O305  1  0.03413561  0.10941332  0.50055507  1
  O2-  O306  1  0.95234803  0.56812785  0.23542674  1
  O2-  O307  1  0.95124580  0.09699595  0.23623447  1
  O2-  O308  1  0.54554190  0.76398159  0.23632303  1
  O2-  O309  1  0.46037398  0.10861791  0.72318655  1
  O2-  O310  1  0.95448605  0.22501443  0.52806537  1
  O2-  O311  1  0.04778901  0.57045187  0.23546013  1
  O2-  O312  1  0.45795699  0.55873877  0.22246119  1
  O2-  O313  1  0.03881813  0.89587860  0.27942763  1
  O2-  O314  1  0.45399064  0.76537436  0.51322804  1
  O2-  O315  1  0.04904166  0.43064065  0.76875748  1
  O2-  O316  1  0.04451527  0.90115656  0.48420324  1
  O2-  O317  1  0.45184855  0.09511616  0.46059249  1
  O2-  O318  1  0.03931911  0.77182222  0.22004144  1
  O2-  O319  1  0.54663038  0.43049551  0.01205840  1
  O2-  O320  1  0.95222717  0.57141639  0.54004988  1
  O2-  O321  1  0.04617044  0.23616928  0.01320955  1
  O2-  O322  1  0.04754015  0.76115045  0.53723557  1
  O2-  O323  1  0.04832035  0.09703868  0.27029087  1
  O2-  O324  1  0.92982916  0.94042541  0.67966911  1
  O2-  O325  1  0.06473651  0.93049367  0.78166258  1
  O2-  O326  1  0.07333003  0.93762791  0.20559092  1
  O2-  O327  1  0.07292073  0.60371490  0.79369449  1
  O2-  O328  1  0.56787903  0.59256246  0.69972080  1
  O2-  O329  1  0.56729298  0.25969225  0.95057359  1
  O2-  O330  1  0.57265888  0.60163404  0.04337608  1
  O2-  O331  1  0.07249005  0.05254496  0.56244156  1
  O2-  O332  1  0.44438286  0.08636883  0.45462108  1
  O2-  O333  1  0.42511312  0.06365183  0.57209632  1
  O2-  O334  1  0.93711781  0.26510444  0.21830149  1
  O2-  O335  1  0.56569625  0.40785733  0.44832984  1
  O2-  O336  1  0.07292313  0.05291981  0.43611491  1
  O2-  O337  1  0.92601647  0.60253036  0.43184273  1
  O2-  O338  1  0.94526768  0.58188892  0.54834430  1
  O2-  O339  1  0.93627480  0.26587945  0.03186969  1
  O2-  O340  1  0.43538255  0.07650228  0.96989334  1
  O2-  O341  1  0.93499695  0.73926463  0.27732976  1
  O2-  O342  1  0.43590568  0.59086797  0.72036957  1
  O2-  O343  1  0.57374977  0.94867323  0.45189254  1
  O2-  O344  1  0.06460538  0.59326507  0.46671234  1
  O2-  O345  1  0.93547666  0.59196932  0.97201127  1
  O2-  O346  1  0.56397817  0.26245364  0.55849080  1
  O2-  O347  1  0.93509790  0.74075582  0.97351552  1
  O2-  O348  1  0.56626914  0.73978855  0.45261128  1
  O2-  O349  1  0.56466904  0.07173467  0.02778156  1
  O2-  O350  1  0.56742129  0.74085392  0.54574770  1
  O2-  O351  1  0.93419612  0.40657878  0.52912893  1
  O2-  O352  1  0.06986764  0.72914350  0.42811894  1
  O2-  O353  1  0.42656477  0.06315876  0.79411954  1
  O2-  O354  1  0.56481691  0.74107603  0.02825886  1
  O2-  O355  1  0.56402865  0.59852198  0.80753798  1
  O2-  O356  1  0.06496207  0.25941465  0.27985978  1
  O2-  O357  1  0.93513592  0.73961176  0.77590695  1
  O2-  O358  1  0.56631208  0.25957009  0.44789373  1
  O2-  O359  1  0.43620309  0.59786593  0.46739391  1
  O2-  O360  1  0.06457132  0.40891995  0.52914133  1
  O2-  O361  1  0.07029022  0.72495151  0.29971786  1
  O2-  O362  1  0.56620028  0.26010012  0.04888248  1
  O2-  O363  1  0.42275329  0.94187343  0.96430325  1
  O2-  O364  1  0.43395425  0.92683106  0.22093101  1
  O2-  O365  1  0.56476341  0.40404581  0.55668533  1
  O2-  O366  1  0.07716986  0.27567475  0.53557285  1
  O2-  O367  1  0.42939222  0.60996456  0.30146333  1
  O2-  O368  1  0.05687582  0.75143559  0.54245546  1
  O2-  O369  1  0.92893346  0.26690922  0.45845276  1
  O2-  O370  1  0.93435674  0.59245959  0.77939521  1
  O2-  O371  1  0.94461705  0.91233288  0.78755200  1
  O2-  O372  1  0.74990186  0.66744190  0.57506822  1
  O2-  O373  1  0.25016640  0.33264334  0.65685281  1
  O2-  O374  1  0.25003574  0.66431797  0.65169137  1
  O2-  O375  1  0.74978043  -0.00820803  0.83326882  1
  O2-  O376  1  0.24985087  0.33490456  0.89840076  1
  O2-  O377  1  0.74991852  0.32448505  0.82977095  1
  O2-  O378  1  0.24997568  0.33339327  0.40711558  1
  O2-  O379  1  0.74991192  0.65793138  0.66687387  1
  O2-  O380  1  0.74967649  0.66261263  0.84765315  1
  O2-  O381  1  0.24991655  0.00354716  0.34766663  1
  O2-  O382  1  0.24981323  0.33415182  0.06690298  1
  O2-  O383  1  0.25007307  0.67696352  0.36094430  1
  O2-  O384  1  0.75014150  0.66616218  0.09901289  1
  O2-  O385  1  0.24998273  0.64897917  0.08068879  1
  O2-  O386  1  0.25008761  0.00455481  0.10240122  1
  O2-  O387  1  0.24996571  0.32896539  0.15396789  1
  O2-  O388  1  0.75008176  0.33376085  0.92491873  1
  O2-  O389  1  0.74990609  0.00423818  0.59908641  1
  O2-  O390  1  0.75011510  0.33312017  0.34277032  1
  O2-  O391  1  0.75001908  0.33368424  0.09426569  1
  O2-  O392  1  0.74983777  -0.00010588  0.92407740  1
  O2-  O393  1  0.25003724  0.68759795  0.16339466  1
  O2-  O394  1  0.24990553  -0.00400737  0.65870349  1
  O2-  O395  1  0.75014905  0.33512946  0.59372677  1
  O2-  O396  1  0.74998230  0.49776807  0.90893292  1
  O2-  O397  1  0.25005978  0.16687468  0.06801252  1
  O2-  O398  1  0.24993996  0.50589679  0.80716933  1
  O2-  O399  1  0.24991755  0.84063616  0.12829142  1
  O2-  O400  1  0.25006657  0.17145039  0.83436584  1
  O2-  O401  1  0.74990025  0.16214595  0.93287677  1
  O2-  O402  1  0.24989585  0.50023575  0.88877521  1
  O2-  O403  1  0.25005271  0.50032647  0.13054339  1
  O2-  O404  1  0.25000361  0.83886702  0.58665415  1
  O2-  O405  1  0.74993636  0.83573704  0.11628304  1
  O2-  O406  1  0.24994681  0.50156066  0.67139766  1
  O2-  O407  1  0.74998013  0.49915634  0.17073056  1
  O2-  O408  1  0.74986840  0.16446222  0.08188956  1
  O2-  O409  1  0.75004350  0.16238684  0.41287140  1
  O2-  O410  1  0.74983600  0.83406495  0.60499184  1
  O2-  O411  1  0.74996429  0.49574314  0.41222543  1
  O2-  O412  1  0.74996618  0.16646709  0.17033718  1
  O2-  O413  1  0.25003739  0.49893998  0.57956851  1
  O2-  O414  1  0.25002577  0.16947270  0.15215773  1
  O2-  O415  1  0.74995126  0.16422676  0.84380950  1
  O2-  O416  1  0.25011176  0.16846151  0.61290774  1
  O2-  O417  1  0.24994485  0.84091415  0.37798396  1
  O2-  O418  1  0.74985084  0.50206826  0.07972190  1
  O2-  O419  1  0.74995529  0.82764690  0.85612761  1
  O2-  O420  1  0.02849513  0.33407963  0.63043394  1
  O2-  O421  1  0.02620667  0.66401737  0.63019118  1
  O2-  O422  1  0.53049894  0.66724691  0.13423196  1
  O2-  O423  1  0.47472522  -0.00301897  0.36634036  1
  O2-  O424  1  0.53467927  0.00128524  0.87662382  1
  O2-  O425  1  0.47664662  -0.00621523  0.63307106  1
  O2-  O426  1  0.52569199  0.66345483  0.37140715  1
  O2-  O427  1  0.03066481  0.67112912  0.88142656  1
  O2-  O428  1  0.03190128  0.33562264  0.38178697  1
  O2-  O429  1  0.52446082  0.33685693  0.13146262  1
  O2-  O430  1  0.02464271  0.00442127  0.11879326  1
  O2-  O431  1  0.96876836  0.33099879  0.62760304  1
  O2-  O432  1  0.52713676  0.66655404  0.62421681  1
  O2-  O433  1  0.97554038  0.00188419  0.88457159  1
  O2-  O434  1  0.46858131  0.66897705  0.62073024  1
  O2-  O435  1  0.52982888  -0.00341980  0.12810136  1
  O2-  O436  1  0.47450464  -0.00355452  0.87223520  1
  O2-  O437  1  0.52480470  0.33559384  0.87186921  1
  O2-  O438  1  0.97719580  0.66945421  0.37277447  1
  O2-  O439  1  0.46995400  0.00292512  0.12089875  1
  O2-  O440  1  0.96952607  0.33791907  0.37002370  1
  O2-  O441  1  0.52318878  0.33313195  0.36330318  1
  O2-  O442  1  0.97416292  0.66647880  0.87383286  1
  O2-  O443  1  0.46354666  0.66845719  0.12439083  1
