# generated using pymatgen
data_La7(Ru4O11)2
_symmetry_space_group_name_H-M   'P 1'
_cell_length_a   23.99321126
_cell_length_b   16.83360644
_cell_length_c   15.43018808
_cell_angle_alpha   90.00070787
_cell_angle_beta   90.00028783
_cell_angle_gamma   90.00109199
_symmetry_Int_Tables_number   1
_chemical_formula_structural   La7(Ru4O11)2
_chemical_formula_sum   'La84 Ru96 O264'
_cell_volume   6232.13377386
_cell_formula_units_Z   12
loop_
 _symmetry_equiv_pos_site_id
 _symmetry_equiv_pos_as_xyz
  1  'x, y, z'
loop_
 _atom_type_symbol
 _atom_type_oxidation_number
  La3+  3.0
  Ru4+  4.0
  O2-  -2.0
loop_
 _atom_site_type_symbol
 _atom_site_label
 _atom_site_symmetry_multiplicity
 _atom_site_fract_x
 _atom_site_fract_y
 _atom_site_fract_z
 _atom_site_occupancy
  La3+  La0  1  0.13483152  0.00763904  0.12676128  1
  La3+  La1  1  0.14450735  0.00008019  0.37506488  1
  La3+  La2  1  0.14274446  0.00121997  0.62877921  1
  La3+  La3  1  0.14470180  0.00490347  0.87343477  1
  La3+  La4  1  0.14249947  0.32350395  0.12738085  1
  La3+  La5  1  0.13607502  0.33308712  0.37390647  1
  La3+  La6  1  0.14781693  0.33747009  0.62700711  1
  La3+  La7  1  0.14016585  0.32447224  0.86964736  1
  La3+  La8  1  0.13414170  0.66679502  0.12344217  1
  La3+  La9  1  0.13920387  0.66826265  0.37438536  1
  La3+  La10  1  0.14120878  0.66289294  0.63255380  1
  La3+  La11  1  0.13114616  0.65756684  0.87340669  1
  La3+  La12  1  0.63668753  -0.00099043  0.12713991  1
  La3+  La13  1  0.64591381  -0.00578322  0.37359006  1
  La3+  La14  1  0.64957077  -0.00658658  0.62216589  1
  La3+  La15  1  0.64716681  -0.00736102  0.87560163  1
  La3+  La16  1  0.63111665  0.33458842  0.11691191  1
  La3+  La17  1  0.63906049  0.33464011  0.37724707  1
  La3+  La18  1  0.64255178  0.33240986  0.62886197  1
  La3+  La19  1  0.64445952  0.33980496  0.87673003  1
  La3+  La20  1  0.63026257  0.66445971  0.12492993  1
  La3+  La21  1  0.65217051  0.66398422  0.38283865  1
  La3+  La22  1  0.64452224  0.66475922  0.62083625  1
  La3+  La23  1  0.63761063  0.66575066  0.86773672  1
  La3+  La24  1  0.35770475  0.00564065  0.12697250  1
  La3+  La25  1  0.35851234  0.00149958  0.37089535  1
  La3+  La26  1  0.36179856  -0.00304079  0.63326129  1
  La3+  La27  1  0.34989902  0.01419115  0.87396628  1
  La3+  La28  1  0.35664767  0.33136189  0.12674569  1
  La3+  La29  1  0.36178045  0.33359773  0.37064261  1
  La3+  La30  1  0.35404005  0.33837075  0.62817607  1
  La3+  La31  1  0.36714132  0.32078766  0.87619371  1
  La3+  La32  1  0.36568563  0.66393140  0.12086169  1
  La3+  La33  1  0.36329312  0.66781982  0.37421753  1
  La3+  La34  1  0.36138854  0.66262343  0.62710854  1
  La3+  La35  1  0.36013217  0.66209342  0.87682488  1
  La3+  La36  1  0.86953080  -0.00575583  0.13157986  1
  La3+  La37  1  0.85839589  -0.00723446  0.37260749  1
  La3+  La38  1  0.85661344  -0.00170920  0.62044489  1
  La3+  La39  1  0.86568017  -0.00040135  0.87417958  1
  La3+  La40  1  0.86283958  0.33463692  0.12462355  1
  La3+  La41  1  0.86041051  0.33582953  0.37816135  1
  La3+  La42  1  0.85552681  0.33578769  0.62212712  1
  La3+  La43  1  0.85886872  0.33271657  0.87726040  1
  La3+  La44  1  0.86222877  0.66998871  0.12446717  1
  La3+  La45  1  0.85661322  0.66912472  0.38116843  1
  La3+  La46  1  0.85838311  0.66966360  0.61781133  1
  La3+  La47  1  0.86307082  0.66522259  0.87430503  1
  La3+  La48  1  0.50376583  0.82165773  0.61121940  1
  La3+  La49  1  0.00532476  0.15846674  0.37928502  1
  La3+  La50  1  0.00175385  0.16490244  0.63798244  1
  La3+  La51  1  0.00384564  0.50124739  0.86190285  1
  La3+  La52  1  0.49884673  0.17439812  0.38256185  1
  La3+  La53  1  0.49553820  0.83519429  0.85984924  1
  La3+  La54  1  0.49829826  0.83226019  0.37646959  1
  La3+  La55  1  0.00180945  0.83407618  0.11764977  1
  La3+  La56  1  0.00030063  0.49896671  0.13261165  1
  La3+  La57  1  0.00452453  0.82870987  0.60901276  1
  La3+  La58  1  0.49007406  0.83595140  0.12201545  1
  La3+  La59  1  0.00305795  0.83918316  0.87450384  1
  La3+  La60  1  -0.00432061  0.83980873  0.62148133  1
  La3+  La61  1  -0.00001189  0.83602779  0.36294651  1
  La3+  La62  1  0.49974920  0.50140159  0.86989026  1
  La3+  La63  1  0.49449406  0.17114624  0.62732450  1
  La3+  La64  1  0.00265338  0.50784501  0.62788225  1
  La3+  La65  1  0.49145750  0.48821241  0.13204159  1
  La3+  La66  1  0.49842457  0.16354908  0.11802075  1
  La3+  La67  1  0.00658422  0.50596633  0.11387304  1
  La3+  La68  1  0.49673762  0.16091920  0.13438374  1
  La3+  La69  1  0.00003038  0.49748816  0.38496748  1
  La3+  La70  1  0.49687757  0.82908335  0.88121422  1
  La3+  La71  1  0.00127536  0.51185864  0.88051266  1
  La3+  La72  1  0.25048051  0.78704989  0.51166108  1
  La3+  La73  1  0.24996339  0.44027318  -0.00238431  1
  La3+  La74  1  0.75171174  0.83421499  0.72657334  1
  La3+  La75  1  0.24888307  0.16413738  0.75664506  1
  La3+  La76  1  0.75091779  0.50472949  0.51711098  1
  La3+  La77  1  0.25025473  0.45750046  0.43636018  1
  La3+  La78  1  0.75048323  0.78856476  0.00951551  1
  La3+  La79  1  0.74980279  0.13008942  0.31042037  1
  La3+  La80  1  0.24961222  0.85400655  -0.07329226  1
  La3+  La81  1  0.74940715  0.12247247  -0.04736886  1
  La3+  La82  1  0.74960281  0.49266028  0.78350018  1
  La3+  La83  1  0.25042946  0.50983963  0.78909918  1
  Ru4+  Ru84  1  0.00286309  0.01349483  -0.00349553  1
  Ru4+  Ru85  1  0.00290383  0.01083054  0.23595210  1
  Ru4+  Ru86  1  -0.00325098  0.00317491  0.50713009  1
  Ru4+  Ru87  1  -0.00231747  -0.00001475  0.75655120  1
  Ru4+  Ru88  1  -0.00532327  0.32449290  -0.00248528  1
  Ru4+  Ru89  1  -0.00379589  0.33667605  0.25037006  1
  Ru4+  Ru90  1  -0.00398731  0.32827160  0.49504893  1
  Ru4+  Ru91  1  -0.00041109  0.32390266  0.74961826  1
  Ru4+  Ru92  1  -0.00614802  0.68683167  0.00506208  1
  Ru4+  Ru93  1  -0.00642781  0.66464481  0.26878200  1
  Ru4+  Ru94  1  0.00720651  0.66204823  0.48949445  1
  Ru4+  Ru95  1  -0.00960610  0.67617849  0.74471780  1
  Ru4+  Ru96  1  0.49313735  0.00114636  -0.00145086  1
  Ru4+  Ru97  1  0.49868149  -0.00061246  0.25505983  1
  Ru4+  Ru98  1  0.50160488  0.00406392  0.50085663  1
  Ru4+  Ru99  1  0.49489127  0.01124237  0.74166865  1
  Ru4+  Ru100  1  0.49720689  0.33246404  -0.00709639  1
  Ru4+  Ru101  1  0.49678851  0.33959092  0.25248435  1
  Ru4+  Ru102  1  0.49977780  0.33994435  0.50016716  1
  Ru4+  Ru103  1  0.50051647  0.33766333  0.74754657  1
  Ru4+  Ru104  1  0.51122462  0.66762184  0.00040176  1
  Ru4+  Ru105  1  0.50614180  0.67667248  0.25648414  1
  Ru4+  Ru106  1  0.49431710  0.66017129  0.49821907  1
  Ru4+  Ru107  1  0.49862141  0.66214676  0.75475936  1
  Ru4+  Ru108  1  0.11455537  0.16560043  -0.00500647  1
  Ru4+  Ru109  1  0.11113910  0.15691527  0.24522780  1
  Ru4+  Ru110  1  0.11294189  0.16731675  0.50316918  1
  Ru4+  Ru111  1  0.10714533  0.16899170  0.75316567  1
  Ru4+  Ru112  1  0.11748812  0.49672458  0.00306982  1
  Ru4+  Ru113  1  0.11447305  0.49685235  0.24722571  1
  Ru4+  Ru114  1  0.11300697  0.50897045  0.50226047  1
  Ru4+  Ru115  1  0.11780344  0.49508781  0.74876581  1
  Ru4+  Ru116  1  0.10866962  0.83219213  -0.00108481  1
  Ru4+  Ru117  1  0.11348280  0.83080406  0.24381946  1
  Ru4+  Ru118  1  0.11076271  0.83243331  0.49712635  1
  Ru4+  Ru119  1  0.11641508  0.83766038  0.75520201  1
  Ru4+  Ru120  1  0.60661703  0.17251991  -0.01376633  1
  Ru4+  Ru121  1  0.60548913  0.16638132  0.25390713  1
  Ru4+  Ru122  1  0.61196364  0.16612175  0.49746830  1
  Ru4+  Ru123  1  0.61023870  0.15209757  0.75434781  1
  Ru4+  Ru124  1  0.61478305  0.50821524  0.00102220  1
  Ru4+  Ru125  1  0.61201371  0.50120389  0.25208261  1
  Ru4+  Ru126  1  0.60683671  0.50146685  0.49494985  1
  Ru4+  Ru127  1  0.61159706  0.49901017  0.74668041  1
  Ru4+  Ru128  1  0.60956116  0.82890034  0.00580799  1
  Ru4+  Ru129  1  0.61383226  0.82955721  0.25772925  1
  Ru4+  Ru130  1  0.61225543  0.83285927  0.49771460  1
  Ru4+  Ru131  1  0.61216434  0.84062605  0.74390679  1
  Ru4+  Ru132  1  0.38170229  0.16467302  -0.00369587  1
  Ru4+  Ru133  1  0.38403287  0.16328774  0.25196170  1
  Ru4+  Ru134  1  0.38755874  0.17025312  0.49859640  1
  Ru4+  Ru135  1  0.38873090  0.16699481  0.75194471  1
  Ru4+  Ru136  1  0.38632618  0.48943655  -0.00216664  1
  Ru4+  Ru137  1  0.38507887  0.49515572  0.25339890  1
  Ru4+  Ru138  1  0.39630949  0.49821368  0.50047509  1
  Ru4+  Ru139  1  0.38922527  0.49841044  0.75050508  1
  Ru4+  Ru140  1  0.38735854  0.83924437  0.01469593  1
  Ru4+  Ru141  1  0.38580504  0.83506313  0.25257665  1
  Ru4+  Ru142  1  0.39211298  0.83402369  0.49614199  1
  Ru4+  Ru143  1  0.38275871  0.84389359  0.75170352  1
  Ru4+  Ru144  1  0.89275044  0.16463918  0.00367084  1
  Ru4+  Ru145  1  0.88884714  0.16675441  0.25053556  1
  Ru4+  Ru146  1  0.88918617  0.16220980  0.50134688  1
  Ru4+  Ru147  1  0.88651525  0.16585299  0.74914242  1
  Ru4+  Ru148  1  0.88160647  0.50134575  0.00164731  1
  Ru4+  Ru149  1  0.88611247  0.50138753  0.25467853  1
  Ru4+  Ru150  1  0.88966522  0.49783190  0.50016062  1
  Ru4+  Ru151  1  0.88528454  0.49546130  0.74510252  1
  Ru4+  Ru152  1  0.89692721  0.83307189  0.00038418  1
  Ru4+  Ru153  1  0.88189893  0.82918430  0.24768932  1
  Ru4+  Ru154  1  0.88036490  0.83763222  0.49920380  1
  Ru4+  Ru155  1  0.89117866  0.82950583  0.75883711  1
  Ru4+  Ru156  1  0.74979576  0.59694967  0.22673258  1
  Ru4+  Ru157  1  0.24917199  0.24187000  0.23731063  1
  Ru4+  Ru158  1  0.74901668  0.08434403  0.50516454  1
  Ru4+  Ru159  1  0.24985264  0.24655701  0.51001599  1
  Ru4+  Ru160  1  0.25132492  0.93860304  0.51137802  1
  Ru4+  Ru161  1  0.75139350  0.26944003  0.01127168  1
  Ru4+  Ru162  1  0.24876993  0.73043439  0.01445982  1
  Ru4+  Ru163  1  0.25163434  0.08215945  0.51344352  1
  Ru4+  Ru164  1  0.24868048  0.91502950  0.22738414  1
  Ru4+  Ru165  1  0.74978827  0.67912054  0.73808542  1
  Ru4+  Ru166  1  0.24872922  0.95743499  0.03775525  1
  Ru4+  Ru167  1  0.74995903  0.24910141  0.74105034  1
  Ru4+  Ru168  1  0.25078767  0.58747799  0.00822489  1
  Ru4+  Ru169  1  0.74938897  0.27147268  0.25031021  1
  Ru4+  Ru170  1  0.74949738  0.75296111  0.23412659  1
  Ru4+  Ru171  1  0.25086419  0.73836004  0.24167960  1
  Ru4+  Ru172  1  0.74964004  0.25160098  0.49895048  1
  Ru4+  Ru173  1  0.75039964  0.57617321  0.00812113  1
  Ru4+  Ru174  1  0.75081409  0.98637536  0.74147226  1
  Ru4+  Ru175  1  0.25011164  0.76260193  0.74350617  1
  Ru4+  Ru176  1  0.25111348  0.59571776  0.49452610  1
  Ru4+  Ru177  1  0.74895827  0.41110923  0.22927604  1
  Ru4+  Ru178  1  0.75119282  0.93270540  -0.00748059  1
  Ru4+  Ru179  1  0.25071381  0.58978520  0.24087251  1
  O2-  O180  1  0.16438622  0.08070092  0.00465678  1
  O2-  O181  1  0.16887701  0.08004453  0.24316804  1
  O2-  O182  1  0.16834709  0.08152134  0.50172224  1
  O2-  O183  1  0.16094905  0.08098172  0.74788345  1
  O2-  O184  1  0.16292626  0.40278535  0.00172182  1
  O2-  O185  1  0.16263402  0.41419691  0.25221691  1
  O2-  O186  1  0.16141085  0.41701690  0.49666552  1
  O2-  O187  1  0.17353263  0.41484872  0.75628163  1
  O2-  O188  1  0.16347200  0.74467891  0.00022346  1
  O2-  O189  1  0.16791782  0.74656574  0.24568057  1
  O2-  O190  1  0.15755812  0.74157583  0.50292646  1
  O2-  O191  1  0.16711595  0.74736566  0.75515001  1
  O2-  O192  1  0.66125533  0.08085818  0.00503443  1
  O2-  O193  1  0.66483675  0.07965137  0.24611464  1
  O2-  O194  1  0.66434430  0.08317861  0.49553802  1
  O2-  O195  1  0.67379602  0.08164629  0.75066895  1
  O2-  O196  1  0.66524813  0.42154039  0.00357180  1
  O2-  O197  1  0.66556515  0.41233141  0.24825947  1
  O2-  O198  1  0.66143323  0.41536355  0.50124285  1
  O2-  O199  1  0.66532663  0.41592521  0.74517549  1
  O2-  O200  1  0.65910535  0.74028751  0.00055414  1
  O2-  O201  1  0.66879344  0.74802268  0.24255436  1
  O2-  O202  1  0.66192432  0.74929534  0.50281442  1
  O2-  O203  1  0.66643670  0.74809717  0.74710450  1
  O2-  O204  1  0.33344082  0.25361625  -0.00239984  1
  O2-  O205  1  0.33258004  0.25363753  0.24879921  1
  O2-  O206  1  0.33497147  0.25257473  0.50187839  1
  O2-  O207  1  0.33792647  0.25427838  0.75362407  1
  O2-  O208  1  0.33405206  0.58367904  0.00193335  1
  O2-  O209  1  0.33351870  0.58636879  0.24740144  1
  O2-  O210  1  0.33708760  0.58683342  0.49764211  1
  O2-  O211  1  0.33505752  0.58610198  0.75365086  1
  O2-  O212  1  0.32864307  0.92214681  0.00074397  1
  O2-  O213  1  0.32947279  0.91911606  0.24573487  1
  O2-  O214  1  0.33529644  0.92122249  0.50119306  1
  O2-  O215  1  0.32611717  0.91636723  0.74666422  1
  O2-  O216  1  0.83226175  0.24960733  -0.00348677  1
  O2-  O217  1  0.83482558  0.25506332  0.25222055  1
  O2-  O218  1  0.83525368  0.24769638  0.49987843  1
  O2-  O219  1  0.83663590  0.25349709  0.74803609  1
  O2-  O220  1  0.82924532  0.58667998  0.00125815  1
  O2-  O221  1  0.83271935  0.58877454  0.24296043  1
  O2-  O222  1  0.83673636  0.58434490  0.50143791  1
  O2-  O223  1  0.82939450  0.58894344  0.75207500  1
  O2-  O224  1  0.83368789  0.91981594  -0.00077803  1
  O2-  O225  1  0.83383444  0.91775073  0.24641602  1
  O2-  O226  1  0.83105002  0.92028158  0.49531413  1
  O2-  O227  1  0.83546441  0.92201399  0.75463911  1
  O2-  O228  1  0.16665569  0.24763098  0.00367288  1
  O2-  O229  1  0.16334269  0.24748493  0.25141291  1
  O2-  O230  1  0.16402876  0.25364304  0.49996103  1
  O2-  O231  1  0.16705920  0.25232396  0.74785414  1
  O2-  O232  1  0.16743160  0.58486790  -0.00032471  1
  O2-  O233  1  0.16906522  0.58687295  0.24712520  1
  O2-  O234  1  0.16836817  0.58861555  0.50048841  1
  O2-  O235  1  0.16846198  0.58570091  0.75627504  1
  O2-  O236  1  0.17004200  0.92207802  0.00406058  1
  O2-  O237  1  0.16651068  0.91956564  0.24603522  1
  O2-  O238  1  0.16937305  0.92020421  0.50577022  1
  O2-  O239  1  0.16883580  0.91662338  0.75151121  1
  O2-  O240  1  0.66958429  0.25344901  0.00214409  1
  O2-  O241  1  0.66539071  0.25509551  0.25184016  1
  O2-  O242  1  0.66830814  0.25299627  0.49951120  1
  O2-  O243  1  0.66918105  0.24450116  0.74515978  1
  O2-  O244  1  0.67308453  0.58302386  0.00379966  1
  O2-  O245  1  0.66488086  0.58790126  0.24408131  1
  O2-  O246  1  0.66707163  0.58239298  0.50811527  1
  O2-  O247  1  0.67430734  0.58919832  0.74990555  1
  O2-  O248  1  0.66869406  0.91687941  0.00793702  1
  O2-  O249  1  0.66056277  0.91778769  0.24773774  1
  O2-  O250  1  0.66353044  0.91623972  0.49088961  1
  O2-  O251  1  0.67366209  0.92258114  0.75204944  1
  O2-  O252  1  0.33383271  0.08170863  0.00711886  1
  O2-  O253  1  0.33278573  0.07969100  0.25028108  1
  O2-  O254  1  0.33581522  0.07935864  0.50215722  1
  O2-  O255  1  0.33032195  0.08319689  0.74501524  1
  O2-  O256  1  0.33776286  0.40293529  -0.00393142  1
  O2-  O257  1  0.33029657  0.41861018  0.25037262  1
  O2-  O258  1  0.33548112  0.41231958  0.49691937  1
  O2-  O259  1  0.33515727  0.41338615  0.76183557  1
  O2-  O260  1  0.33297025  0.74703508  -0.00031223  1
  O2-  O261  1  0.33415396  0.74447088  0.24554759  1
  O2-  O262  1  0.34428783  0.74272262  0.50013529  1
  O2-  O263  1  0.33588204  0.74935689  0.75141262  1
  O2-  O264  1  0.83667322  0.07732574  0.00221848  1
  O2-  O265  1  0.83591087  0.07974166  0.24573531  1
  O2-  O266  1  0.83272786  0.08125608  0.50036767  1
  O2-  O267  1  0.83660260  0.07741050  0.75432921  1
  O2-  O268  1  0.83384987  0.41262588  0.00068876  1
  O2-  O269  1  0.83320395  0.41345052  0.24855892  1
  O2-  O270  1  0.83473317  0.41320978  0.50025515  1
  O2-  O271  1  0.83430352  0.41133239  0.74928881  1
  O2-  O272  1  0.84164311  0.74249433  -0.00367144  1
  O2-  O273  1  0.83211326  0.74613855  0.24788638  1
  O2-  O274  1  0.83562600  0.74927049  0.49978814  1
  O2-  O275  1  0.82861652  0.74084114  0.75324402  1
  O2-  O276  1  0.45286789  0.89415097  0.70472978  1
  O2-  O277  1  0.04039020  0.22356386  1.00348111  1
  O2-  O278  1  0.45367625  0.42650948  0.49917299  1
  O2-  O279  1  0.45032142  0.56927964  0.98253733  1
  O2-  O280  1  0.05075175  0.09085256  0.52100986  1
  O2-  O281  1  0.94793587  0.89781537  0.23823088  1
  O2-  O282  1  0.54697846  0.79283146  0.21562002  1
  O2-  O283  1  0.04722796  0.57667273  1.00005132  1
  O2-  O284  1  0.04485461  0.24055713  0.51822219  1
  O2-  O285  1  0.45446844  0.42787365  0.50285210  1
  O2-  O286  1  0.54599114  0.90743290  0.50169146  1
  O2-  O287  1  0.54676744  0.41759484  0.01719267  1
  O2-  O288  1  0.54712963  0.76329865  0.73208179  1
  O2-  O289  1  0.52778897  0.11053937  0.75497254  1
  O2-  O290  1  0.54713966  0.55580729  0.54602346  1
  O2-  O291  1  0.54136774  0.09593250  1.00051600  1
  O2-  O292  1  0.45552264  0.10689694  0.49827900  1
  O2-  O293  1  0.45730254  0.23680543  0.98270638  1
  O2-  O294  1  0.95090839  0.42053055  0.49120961  1
  O2-  O295  1  0.55311345  0.43003311  0.98173197  1
  O2-  O296  1  0.94835472  0.22943693  0.94586542  1
  O2-  O297  1  0.05182658  0.57023078  0.75810448  1
  O2-  O298  1  0.44692151  0.23240285  0.01834294  1
  O2-  O299  1  0.95544963  0.56510972  0.51103814  1
  O2-  O300  1  0.05750014  0.08970984  0.02065267  1
  O2-  O301  1  0.54735301  0.44549676  0.24718161  1
  O2-  O302  1  0.94997555  0.42933667  0.99216691  1
  O2-  O303  1  0.55383693  0.23977991  0.05003745  1
  O2-  O304  1  0.05097042  0.42364232  0.99428582  1
  O2-  O305  1  0.52749034  0.11135450  0.74942132  1
  O2-  O306  1  0.55271107  0.57599443  0.76167654  1
  O2-  O307  1  0.05561094  0.24156800  0.24108305  1
  O2-  O308  1  0.54413347  0.75648673  0.48576169  1
  O2-  O309  1  0.44722038  0.76156655  0.25871548  1
  O2-  O310  1  0.95597214  0.78289924  0.49077120  1
  O2-  O311  1  0.95138913  0.75619529  0.51591110  1
  O2-  O312  1  0.44785239  0.57422431  0.02143885  1
  O2-  O313  1  0.94604149  0.08681791  0.00528985  1
  O2-  O314  1  0.04480992  0.56386904  0.25380914  1
  O2-  O315  1  0.94716453  0.57442028  0.75757797  1
  O2-  O316  1  0.51600160  0.23829492  0.76069861  1
  O2-  O317  1  0.05503625  0.42597205  0.49572139  1
  O2-  O318  1  0.02944692  0.11022513  0.20116709  1
  O2-  O319  1  0.04652988  0.76647935  0.74148072  1
  O2-  O320  1  0.04755342  0.90100373  0.23325486  1
  O2-  O321  1  0.54614169  0.90294755  0.00946173  1
  O2-  O322  1  0.54667786  0.55475163  0.05393134  1
  O2-  O323  1  0.44423511  0.58219370  0.51511329  1
  O2-  O324  1  0.93056880  0.08993131  0.42670263  1
  O2-  O325  1  0.05890037  0.07949673  0.53189451  1
  O2-  O326  1  0.42740866  0.07430525  0.71887358  1
  O2-  O327  1  0.43594584  0.91237420  0.95543248  1
  O2-  O328  1  0.44417176  0.90583614  0.69556125  1
  O2-  O329  1  0.05887121  0.40381769  0.46511370  1
  O2-  O330  1  0.43612578  0.92301537  0.27223256  1
  O2-  O331  1  0.94180531  0.60323914  0.16637227  1
  O2-  O332  1  0.43675488  0.41368775  0.27622379  1
  O2-  O333  1  0.57111271  0.90851748  0.67252732  1
  O2-  O334  1  0.06241757  0.92490614  0.77390557  1
  O2-  O335  1  0.07030686  0.28417642  0.95939276  1
  O2-  O336  1  0.05981256  0.59384146  0.97154122  1
  O2-  O337  1  0.92506434  0.26847649  0.05261040  1
  O2-  O338  1  0.58532630  0.06892941  0.83735488  1
  O2-  O339  1  0.07786284  0.06491878  0.30345388  1
  O2-  O340  1  0.06400317  0.27226097  0.22492314  1
  O2-  O341  1  0.06823816  0.58868688  0.57830338  1
  O2-  O342  1  0.93114721  0.57433624  0.31572083  1
  O2-  O343  1  0.93829310  0.93016699  0.23024398  1
  O2-  O344  1  0.58710817  0.29403726  0.76116373  1
  O2-  O345  1  0.93956712  0.74013572  0.83165226  1
  O2-  O346  1  0.56937923  0.60425262  0.44021186  1
  O2-  O347  1  0.43456383  0.93853928  0.08834807  1
  O2-  O348  1  0.44137902  0.08246081  0.27350165  1
  O2-  O349  1  0.57716628  0.59937359  0.94273275  1
  O2-  O350  1  0.44119396  0.74062254  0.03449260  1
  O2-  O351  1  0.93573586  0.92366462  0.53408516  1
  O2-  O352  1  0.05847117  0.73583850  0.20660666  1
  O2-  O353  1  0.56830346  0.91349374  0.82840695  1
  O2-  O354  1  0.41010857  0.91801457  0.83394653  1
  O2-  O355  1  0.05872393  0.92129032  0.97998640  1
  O2-  O356  1  0.06730158  0.58104787  0.43230377  1
  O2-  O357  1  0.57240642  0.70924826  0.31783606  1
  O2-  O358  1  0.56297489  0.24363684  0.06022354  1
  O2-  O359  1  0.93928595  0.40691524  0.28459467  1
  O2-  O360  1  0.44205434  0.24766868  0.27103135  1
  O2-  O361  1  0.05837516  0.91953948  0.48063921  1
  O2-  O362  1  0.06479846  0.40582301  0.78251770  1
  O2-  O363  1  0.55760019  0.58445673  0.76837294  1
  O2-  O364  1  0.93919891  0.07886659  0.58137476  1
  O2-  O365  1  0.58151605  0.24749611  0.90958310  1
  O2-  O366  1  0.93730450  0.25780461  0.46858384  1
  O2-  O367  1  0.05913759  0.25357455  0.77727322  1
  O2-  O368  1  0.92986572  0.75374281  0.68100748  1
  O2-  O369  1  0.55951826  0.25332592  0.48319777  1
  O2-  O370  1  0.58169472  0.07214310  0.65714829  1
  O2-  O371  1  0.05694522  0.59363253  0.78677560  1
  O2-  O372  1  0.24968524  0.34275902  0.57967946  1
  O2-  O373  1  0.75072694  0.66296862  0.43182347  1
  O2-  O374  1  0.75279358  0.00311256  0.60556751  1
  O2-  O375  1  0.24892449  0.33915551  0.32686405  1
  O2-  O376  1  0.74920297  0.66704597  0.61917141  1
  O2-  O377  1  0.24952442  0.00370195  0.62111987  1
  O2-  O378  1  0.24722278  0.33069004  0.14880070  1
  O2-  O379  1  0.25122384  0.00713820  0.40475246  1
  O2-  O380  1  0.24904184  -0.01294901  0.83495157  1
  O2-  O381  1  0.24971088  0.32449122  0.42034262  1
  O2-  O382  1  0.74992087  -0.00271213  0.42032217  1
  O2-  O383  1  0.75080364  0.67284512  0.31664006  1
  O2-  O384  1  0.74977823  -0.00341605  0.32833254  1
  O2-  O385  1  0.75083727  0.34102383  0.82405482  1
  O2-  O386  1  0.24826960  0.01553578  0.92170391  1
  O2-  O387  1  0.25093367  0.66142123  0.68292830  1
  O2-  O388  1  0.75004446  0.32558979  0.60596055  1
  O2-  O389  1  0.74993911  0.32551330  0.39179735  1
  O2-  O390  1  0.75086887  0.34486431  0.91725195  1
  O2-  O391  1  0.25058783  0.32769946  0.67033463  1
  O2-  O392  1  0.25099819  0.67167066  0.39267769  1
  O2-  O393  1  0.25059134  0.67349057  0.13195576  1
  O2-  O394  1  0.24826704  0.66628649  0.89053341  1
  O2-  O395  1  0.25035541  0.67207203  0.59045673  1
  O2-  O396  1  0.24997253  0.51895036  0.11812252  1
  O2-  O397  1  0.25017108  0.16658719  0.60384080  1
  O2-  O398  1  0.74995035  0.83285080  0.14659846  1
  O2-  O399  1  0.24991016  0.83882785  0.10826714  1
  O2-  O400  1  0.75076984  0.49570224  0.65087821  1
  O2-  O401  1  0.75108746  0.17715658  0.08538370  1
  O2-  O402  1  0.75124928  0.15887849  0.67113469  1
  O2-  O403  1  0.75037320  0.16988042  0.58006607  1
  O2-  O404  1  0.25131585  0.17571941  0.88175223  1
  O2-  O405  1  0.75004302  0.17907447  0.17549054  1
  O2-  O406  1  0.74978059  0.85764373  0.88305132  1
  O2-  O407  1  0.25054019  0.16414363  0.43201003  1
  O2-  O408  1  0.24997873  0.16296894  0.31018748  1
  O2-  O409  1  0.24979290  0.85356291  0.39182606  1
  O2-  O410  1  0.74940516  0.50315933  0.29577294  1
  O2-  O411  1  0.25027745  0.49707053  0.65924005  1
  O2-  O412  1  0.25024545  0.16987743  0.15630245  1
  O2-  O413  1  0.75007523  0.50627236  0.14709788  1
  O2-  O414  1  0.24974311  0.83036891  0.30726597  1
  O2-  O415  1  0.25054969  0.50710804  0.57050975  1
  O2-  O416  1  0.75179366  0.17650901  0.83041216  1
  O2-  O417  1  0.74981271  0.83506724  0.59995891  1
  O2-  O418  1  0.24955743  0.83464788  0.65140421  1
  O2-  O419  1  0.74958074  0.50075079  0.38174783  1
  O2-  O420  1  0.98226349  0.65543200  0.61739848  1
  O2-  O421  1  0.48134561  0.01676114  0.88043797  1
  O2-  O422  1  0.47062940  0.66603744  0.37435930  1
  O2-  O423  1  0.54420632  0.33827191  0.16000100  1
  O2-  O424  1  0.01558703  0.01484612  0.87492372  1
  O2-  O425  1  0.47523282  0.32449259  0.62530897  1
  O2-  O426  1  0.45114205  0.66745326  0.86170148  1
  O2-  O427  1  0.48327796  -0.00496554  0.38254321  1
  O2-  O428  1  0.04612682  0.70032249  0.36300392  1
  O2-  O429  1  0.45294467  0.33713552  0.11947200  1
  O2-  O430  1  0.54199964  0.34460384  0.35855377  1
  O2-  O431  1  0.97773219  -0.00544182  0.11807679  1
  O2-  O432  1  0.52674487  0.67016564  0.13119103  1
  O2-  O433  1  0.48288185  0.01218746  0.61264267  1
  O2-  O434  1  0.46134420  0.31705864  0.39385931  1
  O2-  O435  1  0.96733380  -0.01882834  0.35235027  1
  O2-  O436  1  0.97704923  0.35194059  0.12826554  1
  O2-  O437  1  0.02062219  -0.00081376  0.38425159  1
  O2-  O438  1  0.47371710  0.67311962  0.63410043  1
  O2-  O439  1  0.52933016  0.00797957  0.13627479  1
  O2-  O440  1  0.50890006  0.36005155  0.86932881  1
  O2-  O441  1  0.54063403  0.70553271  0.87807438  1
  O2-  O442  1  0.95674411  0.68036605  0.38705989  1
  O2-  O443  1  0.97173617  0.34112411  0.86424828  1
