# generated using pymatgen
data_La7(Ru4O11)2
_symmetry_space_group_name_H-M   'P 1'
_cell_length_a   23.98969475
_cell_length_b   16.82932618
_cell_length_c   15.42610619
_cell_angle_alpha   90.00011463
_cell_angle_beta   90.00030585
_cell_angle_gamma   90.00071767
_symmetry_Int_Tables_number   1
_chemical_formula_structural   La7(Ru4O11)2
_chemical_formula_sum   'La84 Ru96 O264'
_cell_volume   6227.98799151
_cell_formula_units_Z   12
loop_
 _symmetry_equiv_pos_site_id
 _symmetry_equiv_pos_as_xyz
  1  'x, y, z'
loop_
 _atom_type_symbol
 _atom_type_oxidation_number
  La3+  3.0
  Ru4+  4.0
  O2-  -2.0
loop_
 _atom_site_type_symbol
 _atom_site_label
 _atom_site_symmetry_multiplicity
 _atom_site_fract_x
 _atom_site_fract_y
 _atom_site_fract_z
 _atom_site_occupancy
  La3+  La0  1  0.13769135  0.00062028  0.12569408  1
  La3+  La1  1  0.14028548  0.00099975  0.37586340  1
  La3+  La2  1  0.13799695  -0.00081295  0.62182795  1
  La3+  La3  1  0.13761228  -0.00070738  0.87498537  1
  La3+  La4  1  0.13638166  0.33039968  0.12984701  1
  La3+  La5  1  0.13744889  0.32908985  0.37204331  1
  La3+  La6  1  0.14005757  0.33299751  0.62347566  1
  La3+  La7  1  0.13914526  0.33350378  0.87434660  1
  La3+  La8  1  0.13795584  0.66654459  0.12737574  1
  La3+  La9  1  0.13892218  0.66819993  0.37378443  1
  La3+  La10  1  0.13785096  0.66876867  0.62624032  1
  La3+  La11  1  0.13767598  0.66782509  0.87331511  1
  La3+  La12  1  0.63665187  0.00242583  0.12490969  1
  La3+  La13  1  0.63872218  0.00015441  0.37397249  1
  La3+  La14  1  0.63942801  -0.00061955  0.62482216  1
  La3+  La15  1  0.63775555  0.00154251  0.87554491  1
  La3+  La16  1  0.63868708  0.33258847  0.12276636  1
  La3+  La17  1  0.63992276  0.33318542  0.37451325  1
  La3+  La18  1  0.63853764  0.33393241  0.62709668  1
  La3+  La19  1  0.63998028  0.33313703  0.87498059  1
  La3+  La20  1  0.63751471  0.66396668  0.12473498  1
  La3+  La21  1  0.63694011  0.66501454  0.37338863  1
  La3+  La22  1  0.63676798  0.66790602  0.62702619  1
  La3+  La23  1  0.63739498  0.66588354  0.87326014  1
  La3+  La24  1  0.36196881  0.00065360  0.12446204  1
  La3+  La25  1  0.36014086  -0.00069572  0.37574543  1
  La3+  La26  1  0.36094083  0.00000931  0.62358892  1
  La3+  La27  1  0.36289496  0.00041909  0.87472675  1
  La3+  La28  1  0.36215452  0.33299338  0.12568336  1
  La3+  La29  1  0.35989531  0.33238647  0.37522475  1
  La3+  La30  1  0.35948678  0.33313838  0.62477941  1
  La3+  La31  1  0.36141551  0.33240313  0.87493389  1
  La3+  La32  1  0.36229844  0.66722700  0.12633764  1
  La3+  La33  1  0.36116143  0.66802769  0.37421062  1
  La3+  La34  1  0.36122912  0.66754648  0.62640377  1
  La3+  La35  1  0.36278429  0.66819268  0.87388345  1
  La3+  La36  1  0.86299166  0.00321780  0.12501398  1
  La3+  La37  1  0.86144628  0.00047483  0.37523501  1
  La3+  La38  1  0.85950152  -0.00021775  0.62640469  1
  La3+  La39  1  0.86204229  0.00203942  0.87543797  1
  La3+  La40  1  0.86075661  0.33258871  0.12365056  1
  La3+  La41  1  0.85955968  0.33216820  0.37501022  1
  La3+  La42  1  0.86228619  0.33390719  0.62791609  1
  La3+  La43  1  0.85914784  0.33439656  0.87422184  1
  La3+  La44  1  0.86175079  0.66494207  0.12570260  1
  La3+  La45  1  0.86248361  0.66574186  0.37566477  1
  La3+  La46  1  0.86334291  0.66649606  0.62417994  1
  La3+  La47  1  0.86219753  0.66561179  0.87402444  1
  La3+  La48  1  -0.00430098  0.49572513  0.38162438  1
  La3+  La49  1  0.50011902  0.50076928  0.86590565  1
  La3+  La50  1  0.49524850  0.83131817  0.63680660  1
  La3+  La51  1  0.50046981  0.83343765  0.88464167  1
  La3+  La52  1  0.50341212  0.83606434  0.37928626  1
  La3+  La53  1  0.00153926  0.83107413  0.11441705  1
  La3+  La54  1  -0.00051234  0.83037632  0.38213590  1
  La3+  La55  1  0.00129379  0.50097466  0.11365172  1
  La3+  La56  1  0.00066835  0.16624374  0.88291530  1
  La3+  La57  1  0.00301111  0.16776750  0.37694728  1
  La3+  La58  1  0.50191839  0.16696231  0.35903097  1
  La3+  La59  1  0.00249142  0.16427307  0.12099609  1
  La3+  La60  1  0.00209180  0.16731965  0.35982588  1
  La3+  La61  1  -0.00057354  0.50162868  0.88242506  1
  La3+  La62  1  0.50240920  0.83552926  0.61811091  1
  La3+  La63  1  0.49990711  0.16427388  0.37888457  1
  La3+  La64  1  0.00157740  0.83085670  0.13637419  1
  La3+  La65  1  0.50047966  0.16798216  0.88473096  1
  La3+  La66  1  0.00020420  0.83412250  0.86267091  1
  La3+  La67  1  0.00170122  0.50227608  0.62138081  1
  La3+  La68  1  0.50196904  0.16758696  0.63519683  1
  La3+  La69  1  0.00084293  0.50145800  0.36139733  1
  La3+  La70  1  0.49963293  0.50042283  0.38481202  1
  La3+  La71  1  0.50177205  0.50103625  0.11748772  1
  La3+  La72  1  0.75010372  0.16683317  0.75478833  1
  La3+  La73  1  0.24995645  0.83251214  0.23363422  1
  La3+  La74  1  0.25001965  0.84032661  -0.00407348  1
  La3+  La75  1  0.25002565  0.46722499  0.46135523  1
  La3+  La76  1  0.25007395  0.46506863  -0.03084647  1
  La3+  La77  1  0.24993940  0.13380590  0.02450052  1
  La3+  La78  1  0.74997094  0.87573844  0.24652948  1
  La3+  La79  1  0.24982308  0.46724685  0.78425459  1
  La3+  La80  1  0.25017029  0.19934973  0.74782566  1
  La3+  La81  1  0.74942631  0.83302443  0.02623981  1
  La3+  La82  1  0.74979974  0.52849379  0.26594099  1
  La3+  La83  1  0.74999890  0.46850622  0.52435625  1
  Ru4+  Ru84  1  0.00352669  -0.00269062  -0.00232962  1
  Ru4+  Ru85  1  0.00067079  0.00236848  0.25195684  1
  Ru4+  Ru86  1  -0.00186362  -0.00155714  0.50270405  1
  Ru4+  Ru87  1  0.00080637  -0.00338396  0.74739516  1
  Ru4+  Ru88  1  0.00065401  0.33408766  -0.00050847  1
  Ru4+  Ru89  1  0.00009530  0.33080792  0.24812620  1
  Ru4+  Ru90  1  0.00227938  0.33139204  0.50643534  1
  Ru4+  Ru91  1  -0.00194297  0.33314702  0.74576234  1
  Ru4+  Ru92  1  0.00063955  0.66479807  0.00044425  1
  Ru4+  Ru93  1  0.00027223  0.66633940  0.24960496  1
  Ru4+  Ru94  1  0.00222516  0.67664000  0.50411782  1
  Ru4+  Ru95  1  0.00068080  0.66696790  0.74754752  1
  Ru4+  Ru96  1  0.50050046  0.00073920  0.00351865  1
  Ru4+  Ru97  1  0.50214795  -0.00313233  0.24355725  1
  Ru4+  Ru98  1  0.49979607  0.00059661  0.49899825  1
  Ru4+  Ru99  1  0.50282302  -0.00290413  0.74980909  1
  Ru4+  Ru100  1  0.49912398  0.33179452  0.00386713  1
  Ru4+  Ru101  1  0.49996021  0.33309926  0.24885579  1
  Ru4+  Ru102  1  0.49943403  0.33750163  0.50051689  1
  Ru4+  Ru103  1  0.49876756  0.33699289  0.74598138  1
  Ru4+  Ru104  1  0.49743032  0.67055237  -0.00024527  1
  Ru4+  Ru105  1  0.49625771  0.67197240  0.25255802  1
  Ru4+  Ru106  1  0.50200368  0.66016066  0.50052982  1
  Ru4+  Ru107  1  0.49634315  0.66083304  0.74997748  1
  Ru4+  Ru108  1  0.11045097  0.16658740  0.00167502  1
  Ru4+  Ru109  1  0.11151924  0.16938013  0.24881390  1
  Ru4+  Ru110  1  0.11611584  0.16958622  0.49974622  1
  Ru4+  Ru111  1  0.11295468  0.16738249  0.75032752  1
  Ru4+  Ru112  1  0.11134529  0.50069591  -0.00021288  1
  Ru4+  Ru113  1  0.11264067  0.49962664  0.24868191  1
  Ru4+  Ru114  1  0.11388775  0.49774181  0.50168970  1
  Ru4+  Ru115  1  0.11119301  0.49854977  0.75011763  1
  Ru4+  Ru116  1  0.11110593  0.83205223  -0.00044019  1
  Ru4+  Ru117  1  0.11242873  0.83317811  0.25099763  1
  Ru4+  Ru118  1  0.11361134  0.83315878  0.49998340  1
  Ru4+  Ru119  1  0.11329536  0.83238219  0.75031208  1
  Ru4+  Ru120  1  0.61292145  0.16618314  0.00088299  1
  Ru4+  Ru121  1  0.61396153  0.16613279  0.24952119  1
  Ru4+  Ru122  1  0.61372774  0.16733870  0.50011883  1
  Ru4+  Ru123  1  0.61405825  0.16428494  0.74918324  1
  Ru4+  Ru124  1  0.61506234  0.49634787  -0.00042420  1
  Ru4+  Ru125  1  0.61370254  0.49692969  0.25014387  1
  Ru4+  Ru126  1  0.61180123  0.49989987  0.49945398  1
  Ru4+  Ru127  1  0.61326788  0.49881543  0.75054746  1
  Ru4+  Ru128  1  0.61058483  0.83459138  0.00046019  1
  Ru4+  Ru129  1  0.61078661  0.83490783  0.24865035  1
  Ru4+  Ru130  1  0.61402366  0.83605742  0.49931181  1
  Ru4+  Ru131  1  0.61564102  0.83615417  0.75120682  1
  Ru4+  Ru132  1  0.38987553  0.16636322  0.00013083  1
  Ru4+  Ru133  1  0.38597145  0.16880664  0.24987538  1
  Ru4+  Ru134  1  0.38480685  0.16527340  0.50035738  1
  Ru4+  Ru135  1  0.38615417  0.17077170  0.74971586  1
  Ru4+  Ru136  1  0.38860396  0.49953426  -0.00001290  1
  Ru4+  Ru137  1  0.38733427  0.49942359  0.25087261  1
  Ru4+  Ru138  1  0.38853030  0.49916059  0.49971615  1
  Ru4+  Ru139  1  0.38742480  0.50185559  0.75012585  1
  Ru4+  Ru140  1  0.38973531  0.83271023  0.00033058  1
  Ru4+  Ru141  1  0.38801675  0.83298210  0.24935149  1
  Ru4+  Ru142  1  0.38412443  0.83640488  0.49905879  1
  Ru4+  Ru143  1  0.38680313  0.83202606  0.75092408  1
  Ru4+  Ru144  1  0.88315107  0.16870373  0.00024998  1
  Ru4+  Ru145  1  0.88664585  0.16625929  0.24948538  1
  Ru4+  Ru146  1  0.88551002  0.16525400  0.50062508  1
  Ru4+  Ru147  1  0.88822655  0.16927117  0.74890887  1
  Ru4+  Ru148  1  0.88725606  0.49828253  0.00010874  1
  Ru4+  Ru149  1  0.88643041  0.50173929  0.25022256  1
  Ru4+  Ru150  1  0.88435694  0.49748149  0.49982007  1
  Ru4+  Ru151  1  0.88673669  0.49765247  0.74999649  1
  Ru4+  Ru152  1  0.88809087  0.83319039  -0.00060020  1
  Ru4+  Ru153  1  0.88840321  0.83227696  0.25025170  1
  Ru4+  Ru154  1  0.88627080  0.83304181  0.50075098  1
  Ru4+  Ru155  1  0.88775170  0.83411557  0.74958267  1
  Ru4+  Ru156  1  0.75012380  0.25433146  0.49280424  1
  Ru4+  Ru157  1  0.24999871  0.58475721  0.25365129  1
  Ru4+  Ru158  1  0.74997915  0.60496042  0.50423618  1
  Ru4+  Ru159  1  0.24997331  0.06403719  0.74964586  1
  Ru4+  Ru160  1  0.25013408  0.71657409  0.00968077  1
  Ru4+  Ru161  1  0.75029579  0.91735828  0.74237974  1
  Ru4+  Ru162  1  0.75003420  0.74681878  0.74434055  1
  Ru4+  Ru163  1  0.25002523  0.60496734  0.50619768  1
  Ru4+  Ru164  1  0.24999614  0.41803912  0.25484878  1
  Ru4+  Ru165  1  0.75010821  0.07690331  0.49587977  1
  Ru4+  Ru166  1  0.74990637  0.75025012  0.50542288  1
  Ru4+  Ru167  1  0.24988099  0.60582057  0.75076050  1
  Ru4+  Ru168  1  0.25005375  0.90975067  0.75121961  1
  Ru4+  Ru169  1  0.24983056  0.26121277  -0.00168743  1
  Ru4+  Ru170  1  0.75002060  0.39345179  0.24769907  1
  Ru4+  Ru171  1  0.74984822  0.95883450  0.01079305  1
  Ru4+  Ru172  1  0.74999146  0.57413744  -0.00131042  1
  Ru4+  Ru173  1  0.74995919  0.71273445  -0.02559813  1
  Ru4+  Ru174  1  0.24992624  0.59152477  0.00702727  1
  Ru4+  Ru175  1  0.24989799  0.96683881  0.00140019  1
  Ru4+  Ru176  1  0.74996818  0.73384499  0.26185866  1
  Ru4+  Ru177  1  0.74996729  0.57718015  0.75360270  1
  Ru4+  Ru178  1  0.25030568  0.09077565  0.25526896  1
  Ru4+  Ru179  1  0.24988580  0.75828678  0.50195957  1
  O2-  O180  1  0.16657472  0.07840797  0.00014526  1
  O2-  O181  1  0.16723884  0.08061696  0.24910664  1
  O2-  O182  1  0.16762287  0.08145662  0.50009981  1
  O2-  O183  1  0.16645554  0.08019372  0.74991812  1
  O2-  O184  1  0.16651601  0.41294231  0.00006717  1
  O2-  O185  1  0.16749316  0.41453304  0.25064930  1
  O2-  O186  1  0.16668239  0.41443439  0.50012603  1
  O2-  O187  1  0.16604888  0.41407866  0.74995370  1
  O2-  O188  1  0.16541637  0.74607336  0.00033150  1
  O2-  O189  1  0.16787809  0.74664735  0.24960771  1
  O2-  O190  1  0.16721472  0.74757870  0.49984585  1
  O2-  O191  1  0.16570330  0.74832344  0.75061044  1
  O2-  O192  1  0.66749924  0.08120098  -0.00030126  1
  O2-  O193  1  0.66805965  0.08079106  0.25142970  1
  O2-  O194  1  0.66714162  0.08094359  0.49898336  1
  O2-  O195  1  0.66722586  0.07987226  0.74943002  1
  O2-  O196  1  0.66760450  0.41529226  0.00002307  1
  O2-  O197  1  0.66683539  0.41386173  0.24974111  1
  O2-  O198  1  0.66567456  0.41314220  0.50106351  1
  O2-  O199  1  0.66626026  0.41516920  0.74858535  1
  O2-  O200  1  0.66595170  0.74585743  -0.00061499  1
  O2-  O201  1  0.66797394  0.74705402  0.25094621  1
  O2-  O202  1  0.66761882  0.74656976  0.50077380  1
  O2-  O203  1  0.66767989  0.74719960  0.75016317  1
  O2-  O204  1  0.33278067  0.25322654  0.00054548  1
  O2-  O205  1  0.33396555  0.25142322  0.24946478  1
  O2-  O206  1  0.33217428  0.25141447  0.49962115  1
  O2-  O207  1  0.33412947  0.25264899  0.74990565  1
  O2-  O208  1  0.33358857  0.58677137  -0.00014866  1
  O2-  O209  1  0.33288743  0.58579093  0.25049948  1
  O2-  O210  1  0.33323753  0.58721561  0.49991529  1
  O2-  O211  1  0.33372549  0.58603125  0.75088341  1
  O2-  O212  1  0.33402877  0.92057484  -0.00076910  1
  O2-  O213  1  0.33122073  0.91942642  0.24994282  1
  O2-  O214  1  0.33340368  0.91964408  0.50040573  1
  O2-  O215  1  0.33260759  0.92016131  0.74986266  1
  O2-  O216  1  0.83286008  0.25137203  0.00139081  1
  O2-  O217  1  0.83298761  0.25227365  0.24975950  1
  O2-  O218  1  0.83152883  0.25183489  0.50036837  1
  O2-  O219  1  0.83233810  0.25168256  0.74988897  1
  O2-  O220  1  0.83214071  0.58648543  -0.00000659  1
  O2-  O221  1  0.83403264  0.58739400  0.24970403  1
  O2-  O222  1  0.83355273  0.58672971  0.50067263  1
  O2-  O223  1  0.83292713  0.58640273  0.74920482  1
  O2-  O224  1  0.83331813  0.92015599  0.00078846  1
  O2-  O225  1  0.83417168  0.92235050  0.25054755  1
  O2-  O226  1  0.83257724  0.91779058  0.49786400  1
  O2-  O227  1  0.83189006  0.91890025  0.75053481  1
  O2-  O228  1  0.16652599  0.25416670  -0.00021200  1
  O2-  O229  1  0.16861436  0.25184158  0.24996511  1
  O2-  O230  1  0.16625136  0.25074469  0.50031019  1
  O2-  O231  1  0.16618212  0.25296680  0.74970071  1
  O2-  O232  1  0.16620941  0.58660641  0.00024632  1
  O2-  O233  1  0.16800724  0.58611546  0.25098179  1
  O2-  O234  1  0.16749946  0.58700346  0.49946443  1
  O2-  O235  1  0.16700292  0.58727836  0.75075785  1
  O2-  O236  1  0.16664730  0.92144533  0.00059299  1
  O2-  O237  1  0.16726759  0.92033371  0.24880655  1
  O2-  O238  1  0.16760787  0.91778732  0.49986800  1
  O2-  O239  1  0.16826645  0.91928781  0.74964427  1
  O2-  O240  1  0.66628610  0.25176130  0.00048106  1
  O2-  O241  1  0.66654019  0.25222121  0.25045942  1
  O2-  O242  1  0.66801490  0.25239922  0.50072443  1
  O2-  O243  1  0.66834041  0.25336998  0.74868398  1
  O2-  O244  1  0.66893509  0.58590838  -0.00158463  1
  O2-  O245  1  0.66602663  0.58754957  0.25037294  1
  O2-  O246  1  0.66710598  0.58667955  0.50104849  1
  O2-  O247  1  0.66829998  0.58666197  0.74876779  1
  O2-  O248  1  0.66731088  0.92057729  -0.00011398  1
  O2-  O249  1  0.66527388  0.92083373  0.25136394  1
  O2-  O250  1  0.66639455  0.91879035  0.49894536  1
  O2-  O251  1  0.66714180  0.91918449  0.75023434  1
  O2-  O252  1  0.33370112  0.07910892  -0.00077097  1
  O2-  O253  1  0.33117950  0.07971641  0.24960489  1
  O2-  O254  1  0.33330227  0.08147103  0.50020201  1
  O2-  O255  1  0.33370507  0.07978474  0.75023456  1
  O2-  O256  1  0.33342248  0.41322651  0.00019978  1
  O2-  O257  1  0.33241074  0.41426625  0.24996880  1
  O2-  O258  1  0.33392744  0.41377146  0.50051084  1
  O2-  O259  1  0.33259182  0.41370509  0.74928660  1
  O2-  O260  1  0.33348505  0.74567796  -0.00013753  1
  O2-  O261  1  0.33319086  0.74723688  0.25025928  1
  O2-  O262  1  0.33179353  0.74686879  0.49969233  1
  O2-  O263  1  0.33371390  0.74724746  0.75049087  1
  O2-  O264  1  0.83330892  0.08148390  0.00078315  1
  O2-  O265  1  0.83183253  0.08041398  0.25106921  1
  O2-  O266  1  0.83252631  0.08181650  0.49838511  1
  O2-  O267  1  0.83211873  0.08068479  0.75052355  1
  O2-  O268  1  0.83328056  0.41486128  0.00063483  1
  O2-  O269  1  0.83191173  0.41306850  0.24912014  1
  O2-  O270  1  0.83288391  0.41376083  0.50035612  1
  O2-  O271  1  0.83215694  0.41551537  0.74946380  1
  O2-  O272  1  0.83377684  0.74569363  -0.00017718  1
  O2-  O273  1  0.83314353  0.74626206  0.25045124  1
  O2-  O274  1  0.83305066  0.74777899  0.50034515  1
  O2-  O275  1  0.83312959  0.74703660  0.75023315  1
  O2-  O276  1  0.04532581  0.56601302  0.73803709  1
  O2-  O277  1  0.54600654  0.09691892  0.48751212  1
  O2-  O278  1  0.95104686  0.57116269  0.51442173  1
  O2-  O279  1  0.55538861  0.24780603  0.77334605  1
  O2-  O280  1  0.95660593  0.22907135  0.47529595  1
  O2-  O281  1  0.04650285  0.09870823  0.51785437  1
  O2-  O282  1  0.04114569  0.22375563  0.24204812  1
  O2-  O283  1  0.54819128  0.09833282  0.76458781  1
  O2-  O284  1  0.95393301  0.90180869  0.23899338  1
  O2-  O285  1  0.96104583  0.22617687  0.02855053  1
  O2-  O286  1  0.95943356  0.88879568  0.50782564  1
  O2-  O287  1  0.95192247  0.90265537  0.01226631  1
  O2-  O288  1  0.46036736  0.44111549  0.72128577  1
  O2-  O289  1  0.04056897  0.22768916  0.72419542  1
  O2-  O290  1  0.95491050  0.76510800  0.98493085  1
  O2-  O291  1  0.45440167  0.43110113  0.01212357  1
  O2-  O292  1  0.04743384  0.23540882  0.26563761  1
  O2-  O293  1  0.04817984  0.76217628  0.51263067  1
  O2-  O294  1  0.04108290  0.88707366  0.49691646  1
  O2-  O295  1  0.54655440  0.76375103  0.51207716  1
  O2-  O296  1  0.95161704  0.09660534  0.98526607  1
  O2-  O297  1  0.04464415  0.43124763  0.98541640  1
  O2-  O298  1  0.53656649  0.77931162  0.24283648  1
  O2-  O299  1  0.04637210  0.90078364  0.98560156  1
  O2-  O300  1  0.04713845  0.09569140  0.47887408  1
  O2-  O301  1  0.46288638  0.88685912  0.24409621  1
  O2-  O302  1  0.04191352  0.56070577  0.47140385  1
  O2-  O303  1  0.45473107  0.90309710  0.48572652  1
  O2-  O304  1  0.45092314  0.75913954  0.26759747  1
  O2-  O305  1  0.54579064  0.90317523  0.73951468  1
  O2-  O306  1  0.95199402  0.76071326  0.51412034  1
  O2-  O307  1  0.54784896  0.76288492  0.73488344  1
  O2-  O308  1  0.45987567  0.22610977  0.47289134  1
  O2-  O309  1  0.45281175  0.09788114  0.77011330  1
  O2-  O310  1  0.96166418  0.44348116  0.21983047  1
  O2-  O311  1  0.95975156  0.43897886  0.52732339  1
  O2-  O312  1  0.55005460  0.90702743  0.23562907  1
  O2-  O313  1  0.54537857  0.23423801  0.01448309  1
  O2-  O314  1  0.45359898  0.10015921  0.01322295  1
  O2-  O315  1  0.04735711  0.23651776  0.48602112  1
  O2-  O316  1  0.54803578  0.56914780  0.26625623  1
  O2-  O317  1  0.44565852  0.75216900  0.46454969  1
  O2-  O318  1  0.45223665  0.09551147  0.73085624  1
  O2-  O319  1  0.45219823  0.56832931  0.01255422  1
  O2-  O320  1  0.45274978  0.23667207  0.73445115  1
  O2-  O321  1  0.54482089  0.43030131  0.48549147  1
  O2-  O322  1  0.55661625  0.58027436  0.02179133  1
  O2-  O323  1  0.95151882  0.09616880  0.48395517  1
  O2-  O324  1  0.92684593  0.39729626  0.45560069  1
  O2-  O325  1  0.55630692  0.58210727  0.02264076  1
  O2-  O326  1  0.43496455  0.07531514  0.20057657  1
  O2-  O327  1  0.56412121  0.40188709  0.03367382  1
  O2-  O328  1  0.44559499  0.75208174  0.46433329  1
  O2-  O329  1  0.06603656  0.40819684  0.21976059  1
  O2-  O330  1  0.06490557  0.92651664  0.77888887  1
  O2-  O331  1  0.93370710  0.25999255  0.72242544  1
  O2-  O332  1  0.93013664  0.27530923  0.94957311  1
  O2-  O333  1  0.56235414  0.73862037  0.71658768  1
  O2-  O334  1  0.43496829  0.06860877  0.30388436  1
  O2-  O335  1  0.07182852  0.60462515  0.54433986  1
  O2-  O336  1  0.06692798  0.27165183  0.79445380  1
  O2-  O337  1  0.93722387  0.59657274  0.53214243  1
  O2-  O338  1  0.93776800  0.07123939  0.96730866  1
  O2-  O339  1  0.56388391  0.59675080  0.78393003  1
  O2-  O340  1  0.56334104  0.06876556  0.21979882  1
  O2-  O341  1  0.93615414  0.06986255  0.79861162  1
  O2-  O342  1  0.56500771  0.06995106  0.03225388  1
  O2-  O343  1  0.56193279  0.59612723  0.28107177  1
  O2-  O344  1  0.42331140  0.94217580  0.21459628  1
  O2-  O345  1  0.43342180  0.26153943  0.97063567  1
  O2-  O346  1  0.56420005  0.59750744  0.46789382  1
  O2-  O347  1  0.56573829  0.26519178  0.44176921  1
  O2-  O348  1  0.07406646  0.95146055  0.45690742  1
  O2-  O349  1  0.06753079  0.26254596  0.22000170  1
  O2-  O350  1  0.42901534  0.39852804  0.78986114  1
  O2-  O351  1  0.06442955  0.40289513  0.53277040  1
  O2-  O352  1  0.93602173  0.40656181  0.72234603  1
  O2-  O353  1  0.93623233  0.59863957  0.28244337  1
  O2-  O354  1  0.06547909  0.07417572  0.79637577  1
  O2-  O355  1  0.93504662  0.07263791  0.22131567  1
  O2-  O356  1  0.93657863  0.92883857  0.71964029  1
  O2-  O357  1  0.56365230  0.26423916  0.55885276  1
  O2-  O358  1  0.57754073  0.72259106  0.21395930  1
  O2-  O359  1  0.92872640  0.26830328  0.54078735  1
  O2-  O360  1  0.93628478  0.07178903  0.70230619  1
  O2-  O361  1  0.55611600  0.24857535  0.77439780  1
  O2-  O362  1  0.06503919  0.59330134  0.22085700  1
  O2-  O363  1  0.56371494  0.92881321  0.03099499  1
  O2-  O364  1  0.92692015  0.39628815  0.29357451  1
  O2-  O365  1  0.06328411  0.73685668  0.28289620  1
  O2-  O366  1  0.92601083  0.94891590  0.54031268  1
  O2-  O367  1  0.42922894  0.73315407  0.55077137  1
  O2-  O368  1  0.43457079  0.73876593  0.02779079  1
  O2-  O369  1  0.43614911  0.40294779  0.28326718  1
  O2-  O370  1  0.06578691  0.07250094  0.70430896  1
  O2-  O371  1  0.43013550  0.27688179  0.55146440  1
  O2-  O372  1  0.24999501  0.33379192  0.58061899  1
  O2-  O373  1  0.24996178  0.34196376  0.91557107  1
  O2-  O374  1  0.24983195  0.34313345  0.08428949  1
  O2-  O375  1  0.75001235  0.66814754  0.84276604  1
  O2-  O376  1  0.24990648  0.33413782  0.42042300  1
  O2-  O377  1  0.75013481  0.33302213  0.91798449  1
  O2-  O378  1  0.24994816  0.33084959  0.33017767  1
  O2-  O379  1  0.75003465  0.65887374  0.08123160  1
  O2-  O380  1  0.74998567  0.65935970  0.17543696  1
  O2-  O381  1  0.74996334  0.01142354  0.91221040  1
  O2-  O382  1  0.24991349  0.66375938  0.89455841  1
  O2-  O383  1  0.25018554  -0.00320477  0.65136471  1
  O2-  O384  1  0.24996488  0.33324572  0.67048967  1
  O2-  O385  1  0.74991272  0.00235500  0.82334328  1
  O2-  O386  1  0.25007948  0.66681158  0.15770694  1
  O2-  O387  1  0.74994826  0.67008818  0.40144024  1
  O2-  O388  1  0.24999414  0.66794856  0.65364629  1
  O2-  O389  1  0.24984914  0.33031632  0.17265448  1
  O2-  O390  1  0.74981146  0.00200975  0.59239709  1
  O2-  O391  1  0.25001019  0.33226514  0.82449925  1
  O2-  O392  1  0.25006797  0.66879480  0.40309848  1
  O2-  O393  1  0.74988320  0.33334911  0.40653398  1
  O2-  O394  1  0.25017062  -0.00346751  0.84911853  1
  O2-  O395  1  0.75004630  0.33248377  0.83187110  1
  O2-  O396  1  0.74992497  0.83315520  0.81876013  1
  O2-  O397  1  0.25004900  0.50464085  0.66655570  1
  O2-  O398  1  0.25002509  0.16864201  0.89085717  1
  O2-  O399  1  0.75019944  0.16676328  0.94243732  1
  O2-  O400  1  0.75004571  0.50350667  0.83876180  1
  O2-  O401  1  0.25006103  0.16174197  0.33566841  1
  O2-  O402  1  0.25001671  0.83249506  0.36157287  1
  O2-  O403  1  0.24998924  0.50483260  0.09273209  1
  O2-  O404  1  0.74998327  0.16683579  0.55964595  1
  O2-  O405  1  0.74995284  0.83239834  0.65817368  1
  O2-  O406  1  0.74997660  0.16656382  0.08591619  1
  O2-  O407  1  0.75002496  0.50120840  0.39653402  1
  O2-  O408  1  0.25006723  0.82954266  0.58689282  1
  O2-  O409  1  0.24994683  0.50110324  0.17930474  1
  O2-  O410  1  0.75008127  0.49643253  0.13556850  1
  O2-  O411  1  0.74983707  0.16711010  0.86580845  1
  O2-  O412  1  0.75000071  0.83899423  0.43739423  1
  O2-  O413  1  0.75020696  0.83208820  0.90347758  1
  O2-  O414  1  0.74995656  0.82320491  0.35518043  1
  O2-  O415  1  0.75008797  0.16658092  0.16534691  1
  O2-  O416  1  0.24987397  0.50584691  0.58194569  1
  O2-  O417  1  0.75016987  0.16665936  0.63915496  1
  O2-  O418  1  0.24996803  0.83544196  0.83935050  1
  O2-  O419  1  0.75000227  0.82433401  0.14266984  1
  O2-  O420  1  0.52782491  0.00067897  0.62512379  1
  O2-  O421  1  0.47251896  0.33268618  0.12522571  1
  O2-  O422  1  0.46985523  0.66518471  0.12897823  1
  O2-  O423  1  0.96388276  0.33316996  0.12652633  1
  O2-  O424  1  0.47233568  0.66656878  0.87460806  1
  O2-  O425  1  0.47602635  -0.00182749  0.11586723  1
  O2-  O426  1  0.97780700  0.33659211  0.62369051  1
  O2-  O427  1  0.03749834  0.00074474  0.12574595  1
  O2-  O428  1  0.02608174  -0.00427206  0.62275070  1
  O2-  O429  1  0.03680713  0.33677917  0.37511515  1
  O2-  O430  1  0.96199668  0.66531827  0.87268549  1
  O2-  O431  1  0.03299048  0.33465590  0.11621258  1
  O2-  O432  1  0.53618502  -0.00122626  0.87626597  1
  O2-  O433  1  0.96544175  -0.00100487  0.11979273  1
  O2-  O434  1  0.52773850  0.66557823  0.12295162  1
  O2-  O435  1  0.02475371  0.66976620  0.63311676  1
  O2-  O436  1  0.46324479  -0.00226161  0.87640418  1
  O2-  O437  1  0.47271451  0.33194127  0.87800899  1
  O2-  O438  1  0.53108506  0.33760773  0.87860500  1
  O2-  O439  1  0.02358572  -0.00008061  0.88137765  1
  O2-  O440  1  0.03813012  0.66726490  0.87559046  1
  O2-  O441  1  0.02617501  0.66979037  0.12059359  1
  O2-  O442  1  0.96897701  0.32431258  0.37329245  1
  O2-  O443  1  0.47457147  0.66198259  0.63131342  1
