# generated using pymatgen
data_La7(Ru4O11)2
_symmetry_space_group_name_H-M   'P 1'
_cell_length_a   23.99147648
_cell_length_b   16.83122370
_cell_length_c   15.42780054
_cell_angle_alpha   90.00088008
_cell_angle_beta   89.99987786
_cell_angle_gamma   89.99881605
_symmetry_Int_Tables_number   1
_chemical_formula_structural   La7(Ru4O11)2
_chemical_formula_sum   'La84 Ru96 O264'
_cell_volume   6229.83699944
_cell_formula_units_Z   12
loop_
 _symmetry_equiv_pos_site_id
 _symmetry_equiv_pos_as_xyz
  1  'x, y, z'
loop_
 _atom_type_symbol
 _atom_type_oxidation_number
  La3+  3.0
  Ru4+  4.0
  O2-  -2.0
loop_
 _atom_site_type_symbol
 _atom_site_label
 _atom_site_symmetry_multiplicity
 _atom_site_fract_x
 _atom_site_fract_y
 _atom_site_fract_z
 _atom_site_occupancy
  La3+  La0  1  0.12913420  0.00646067  0.11846606  1
  La3+  La1  1  0.13615612  -0.00238978  0.37945964  1
  La3+  La2  1  0.14164206  0.00244172  0.62570740  1
  La3+  La3  1  0.13468092  0.00958621  0.87874730  1
  La3+  La4  1  0.13814721  0.33470958  0.12652599  1
  La3+  La5  1  0.14242200  0.33571038  0.37380701  1
  La3+  La6  1  0.14150217  0.33342595  0.62620066  1
  La3+  La7  1  0.14178655  0.33773919  0.87294979  1
  La3+  La8  1  0.13643893  0.66432478  0.12425678  1
  La3+  La9  1  0.14062212  0.66660943  0.37682935  1
  La3+  La10  1  0.13727172  0.66568265  0.62761631  1
  La3+  La11  1  0.13890233  0.66416045  0.87063324  1
  La3+  La12  1  0.63756304  0.00126774  0.12582002  1
  La3+  La13  1  0.64202325  0.00343458  0.37762798  1
  La3+  La14  1  0.63778164  0.00361604  0.62244174  1
  La3+  La15  1  0.63830385  0.00159179  0.87388570  1
  La3+  La16  1  0.64032495  0.33541740  0.12467697  1
  La3+  La17  1  0.64643160  0.33335318  0.37989353  1
  La3+  La18  1  0.63977718  0.33190273  0.62351792  1
  La3+  La19  1  0.64113931  0.33246558  0.87624776  1
  La3+  La20  1  0.64220841  0.66705772  0.12808163  1
  La3+  La21  1  0.64017625  0.66873948  0.37374112  1
  La3+  La22  1  0.63756448  0.66622958  0.62414981  1
  La3+  La23  1  0.63654314  0.66643173  0.87440994  1
  La3+  La24  1  0.36369759  0.00006935  0.12746155  1
  La3+  La25  1  0.36185041  0.00090443  0.37739507  1
  La3+  La26  1  0.36205193  0.00202740  0.62556127  1
  La3+  La27  1  0.35786718  0.00030458  0.86937845  1
  La3+  La28  1  0.36366276  0.33755116  0.12438342  1
  La3+  La29  1  0.35938280  0.33298777  0.37775042  1
  La3+  La30  1  0.35627155  0.33093523  0.62607168  1
  La3+  La31  1  0.35885672  0.33380570  0.87409761  1
  La3+  La32  1  0.36318254  0.66491831  0.12310830  1
  La3+  La33  1  0.35966665  0.66784599  0.37750746  1
  La3+  La34  1  0.36150033  0.66338959  0.62847533  1
  La3+  La35  1  0.36302220  0.66181548  0.87329349  1
  La3+  La36  1  0.86192866  0.00110166  0.12730546  1
  La3+  La37  1  0.85638744  0.00176295  0.37668841  1
  La3+  La38  1  0.86018747  0.00189287  0.62241971  1
  La3+  La39  1  0.86102618  0.00027062  0.87455795  1
  La3+  La40  1  0.85798254  0.33715606  0.12255312  1
  La3+  La41  1  0.85806315  0.33256285  0.37653026  1
  La3+  La42  1  0.86319361  0.33574265  0.63048679  1
  La3+  La43  1  0.86369404  0.33949430  0.87475485  1
  La3+  La44  1  0.86001836  0.66442979  0.12907837  1
  La3+  La45  1  0.86028493  0.66743136  0.37023730  1
  La3+  La46  1  0.86174738  0.66674815  0.62607635  1
  La3+  La47  1  0.86101113  0.66594611  0.87642696  1
  La3+  La48  1  -0.00572617  0.15750845  0.62298155  1
  La3+  La49  1  -0.00021223  0.16593010  0.89334061  1
  La3+  La50  1  -0.00051529  0.49120389  0.61678137  1
  La3+  La51  1  -0.00297819  0.83169146  0.36237817  1
  La3+  La52  1  0.00141803  0.15938910  0.64211723  1
  La3+  La53  1  0.50086054  0.16903943  0.11234346  1
  La3+  La54  1  0.00050143  0.48556470  0.63312683  1
  La3+  La55  1  0.00118764  0.16707797  0.11888039  1
  La3+  La56  1  0.49860578  0.50112660  0.39289538  1
  La3+  La57  1  -0.00114218  0.83079237  0.14321642  1
  La3+  La58  1  0.00453100  0.82828432  0.87590018  1
  La3+  La59  1  0.50459354  0.83023252  0.62152542  1
  La3+  La60  1  0.00436224  0.15936523  0.87340238  1
  La3+  La61  1  0.49965847  0.83299910  0.12172718  1
  La3+  La62  1  0.50003943  0.83327319  0.88178512  1
  La3+  La63  1  0.50204137  0.49542317  0.37200588  1
  La3+  La64  1  0.49803817  0.50032107  0.86491626  1
  La3+  La65  1  -0.00356316  0.82639319  0.38341345  1
  La3+  La66  1  0.50180644  0.16580181  0.61216652  1
  La3+  La67  1  0.00041342  0.16498252  0.38191260  1
  La3+  La68  1  0.49697998  0.51471422  0.11417205  1
  La3+  La69  1  0.49774061  0.50582575  0.13447361  1
  La3+  La70  1  0.00689411  0.50569307  0.36729802  1
  La3+  La71  1  0.00284996  0.17340867  0.36157677  1
  La3+  La72  1  0.25058918  0.16574571  -0.06361290  1
  La3+  La73  1  0.24974926  0.83777359  0.72739304  1
  La3+  La74  1  0.74921025  0.86774426  0.00343105  1
  La3+  La75  1  0.25137983  0.82128560  -0.02680244  1
  La3+  La76  1  0.74982340  0.19985487  0.02779290  1
  La3+  La77  1  0.74943578  0.86891198  0.47235743  1
  La3+  La78  1  0.74852263  0.45551737  0.76713164  1
  La3+  La79  1  0.75046817  0.50023599  0.28372373  1
  La3+  La80  1  0.25075776  0.16847075  0.47271757  1
  La3+  La81  1  0.74992977  0.80033467  0.75295860  1
  La3+  La82  1  0.74985496  0.13150256  0.74322212  1
  La3+  La83  1  0.25018468  0.83092017  0.49268087  1
  Ru4+  Ru84  1  -0.00047600  0.00220399  -0.00073286  1
  Ru4+  Ru85  1  0.00043893  -0.00461166  0.24336907  1
  Ru4+  Ru86  1  0.00317127  -0.00468437  0.50243384  1
  Ru4+  Ru87  1  -0.00163481  -0.00204495  0.75526043  1
  Ru4+  Ru88  1  -0.00088470  0.33794033  -0.00414301  1
  Ru4+  Ru89  1  -0.00235876  0.33696043  0.24226509  1
  Ru4+  Ru90  1  0.00323675  0.33945386  0.50295967  1
  Ru4+  Ru91  1  0.00164143  0.33693168  0.75324987  1
  Ru4+  Ru92  1  -0.00455751  0.66292089  0.00173338  1
  Ru4+  Ru93  1  -0.00024209  0.66259513  0.24456988  1
  Ru4+  Ru94  1  0.00157919  0.66619313  0.49918770  1
  Ru4+  Ru95  1  -0.00123900  0.66569664  0.75638508  1
  Ru4+  Ru96  1  0.50086494  0.00183906  0.00515215  1
  Ru4+  Ru97  1  0.49980289  -0.00068131  0.24771992  1
  Ru4+  Ru98  1  0.50243729  0.00002242  0.49751500  1
  Ru4+  Ru99  1  0.50043638  -0.00193702  0.74480411  1
  Ru4+  Ru100  1  0.50393631  0.32386660  -0.00991939  1
  Ru4+  Ru101  1  0.50240634  0.32427295  0.24900484  1
  Ru4+  Ru102  1  0.49957111  0.33198314  0.50056921  1
  Ru4+  Ru103  1  0.49834467  0.34009160  0.75452420  1
  Ru4+  Ru104  1  0.50330452  0.67423352  -0.00132165  1
  Ru4+  Ru105  1  0.50057988  0.67526881  0.24622972  1
  Ru4+  Ru106  1  0.50100557  0.67147641  0.50097168  1
  Ru4+  Ru107  1  0.49943599  0.66287396  0.75795716  1
  Ru4+  Ru108  1  0.10888556  0.16800314  0.00244823  1
  Ru4+  Ru109  1  0.11463983  0.16538326  0.24606852  1
  Ru4+  Ru110  1  0.11456841  0.16732715  0.49977330  1
  Ru4+  Ru111  1  0.11468639  0.16635727  0.75347129  1
  Ru4+  Ru112  1  0.11246574  0.49948839  0.00307816  1
  Ru4+  Ru113  1  0.11178495  0.50238570  0.25053519  1
  Ru4+  Ru114  1  0.11046289  0.50017384  0.49971582  1
  Ru4+  Ru115  1  0.11509147  0.49965744  0.74912983  1
  Ru4+  Ru116  1  0.10926972  0.83452612  0.00011003  1
  Ru4+  Ru117  1  0.11003850  0.83374978  0.24891824  1
  Ru4+  Ru118  1  0.11217957  0.83496138  0.50582282  1
  Ru4+  Ru119  1  0.11181835  0.83226962  0.75119053  1
  Ru4+  Ru120  1  0.61013786  0.16773357  -0.00025341  1
  Ru4+  Ru121  1  0.61231799  0.16847708  0.25198625  1
  Ru4+  Ru122  1  0.61493970  0.16536267  0.50035065  1
  Ru4+  Ru123  1  0.61018944  0.16489393  0.74886604  1
  Ru4+  Ru124  1  0.61794417  0.49769725  -0.00308265  1
  Ru4+  Ru125  1  0.61402817  0.50332171  0.25126323  1
  Ru4+  Ru126  1  0.61120787  0.50225728  0.50291234  1
  Ru4+  Ru127  1  0.60898356  0.50088235  0.74863739  1
  Ru4+  Ru128  1  0.60708692  0.83369781  -0.00055606  1
  Ru4+  Ru129  1  0.61392388  0.83012830  0.24941989  1
  Ru4+  Ru130  1  0.60888934  0.83340609  0.50049019  1
  Ru4+  Ru131  1  0.60960333  0.83070906  0.75104685  1
  Ru4+  Ru132  1  0.39082077  0.16781519  -0.00134020  1
  Ru4+  Ru133  1  0.38613281  0.16341764  0.25115623  1
  Ru4+  Ru134  1  0.39161336  0.16680281  0.49848889  1
  Ru4+  Ru135  1  0.38453076  0.16824834  0.75008551  1
  Ru4+  Ru136  1  0.37912459  0.49844065  -0.00235717  1
  Ru4+  Ru137  1  0.38360955  0.50043888  0.25277762  1
  Ru4+  Ru138  1  0.38683758  0.49972110  0.49824838  1
  Ru4+  Ru139  1  0.38761825  0.49493941  0.74781630  1
  Ru4+  Ru140  1  0.39180249  0.83555727  0.00108133  1
  Ru4+  Ru141  1  0.39081387  0.83399698  0.25038114  1
  Ru4+  Ru142  1  0.38852257  0.83038834  0.49805466  1
  Ru4+  Ru143  1  0.38946895  0.83309261  0.74884574  1
  Ru4+  Ru144  1  0.88987551  0.16661099  0.00032119  1
  Ru4+  Ru145  1  0.88456197  0.16698537  0.24781616  1
  Ru4+  Ru146  1  0.88292445  0.16881829  0.49978704  1
  Ru4+  Ru147  1  0.88591607  0.16397176  0.74955916  1
  Ru4+  Ru148  1  0.89316170  0.49867949  -0.00101744  1
  Ru4+  Ru149  1  0.88976899  0.50201583  0.24921964  1
  Ru4+  Ru150  1  0.88737318  0.50049012  0.50314263  1
  Ru4+  Ru151  1  0.88657913  0.50224232  0.75529724  1
  Ru4+  Ru152  1  0.89077491  0.83300985  -0.00066840  1
  Ru4+  Ru153  1  0.88620169  0.83126324  0.25028684  1
  Ru4+  Ru154  1  0.88925047  0.83415501  0.49898318  1
  Ru4+  Ru155  1  0.89062066  0.83267848  0.74820302  1
  Ru4+  Ru156  1  0.24968324  0.94150937  0.02898834  1
  Ru4+  Ru157  1  0.75015758  0.06063957  -0.00700927  1
  Ru4+  Ru158  1  0.25017743  0.28785084  0.00020587  1
  Ru4+  Ru159  1  0.25021597  0.07438387  0.25702658  1
  Ru4+  Ru160  1  0.75029497  0.40634445  0.49639983  1
  Ru4+  Ru161  1  0.25035059  0.25117418  0.25861452  1
  Ru4+  Ru162  1  0.24912452  0.56030002  -0.01696440  1
  Ru4+  Ru163  1  0.75006017  0.91064164  0.25431536  1
  Ru4+  Ru164  1  0.24913327  0.92728698  0.26267151  1
  Ru4+  Ru165  1  0.24986431  0.57318348  0.24429865  1
  Ru4+  Ru166  1  0.74981070  0.27043351  0.72972357  1
  Ru4+  Ru167  1  0.75017026  0.60187290  0.75555094  1
  Ru4+  Ru168  1  0.74975390  0.94057590  0.74206688  1
  Ru4+  Ru169  1  0.25104557  0.07112801  0.03772248  1
  Ru4+  Ru170  1  0.74989188  0.72652591  -0.01434769  1
  Ru4+  Ru171  1  0.75025621  0.72883401  0.51437150  1
  Ru4+  Ru172  1  0.24966842  0.42714081  0.25418561  1
  Ru4+  Ru173  1  0.24960339  0.42325842  0.49857355  1
  Ru4+  Ru174  1  0.24964027  0.74580607  0.25140929  1
  Ru4+  Ru175  1  0.24984517  0.57634878  0.49853699  1
  Ru4+  Ru176  1  0.24908913  0.69257445  0.00733358  1
  Ru4+  Ru177  1  0.74999541  0.58693658  0.49104579  1
  Ru4+  Ru178  1  0.74961924  0.24805031  0.24829501  1
  Ru4+  Ru179  1  0.75050995  0.57888384  -0.00652539  1
  O2-  O180  1  0.16796468  0.07882856  0.00240738  1
  O2-  O181  1  0.16656988  0.07815602  0.25085702  1
  O2-  O182  1  0.16944411  0.08092969  0.49735471  1
  O2-  O183  1  0.16304586  0.08202315  0.74923403  1
  O2-  O184  1  0.16587880  0.41668700  -0.00185418  1
  O2-  O185  1  0.16827077  0.41445027  0.24752836  1
  O2-  O186  1  0.16922179  0.41441893  0.50057532  1
  O2-  O187  1  0.16388442  0.41370624  0.74997955  1
  O2-  O188  1  0.16285965  0.74494685  -0.00016259  1
  O2-  O189  1  0.16596752  0.74502552  0.24980277  1
  O2-  O190  1  0.16574194  0.74858881  0.50228746  1
  O2-  O191  1  0.17022215  0.74636707  0.74807638  1
  O2-  O192  1  0.66781948  0.07845732  -0.00001892  1
  O2-  O193  1  0.66564246  0.08221477  0.24809242  1
  O2-  O194  1  0.66753949  0.08183900  0.50166451  1
  O2-  O195  1  0.66526716  0.07715887  0.75063621  1
  O2-  O196  1  0.66742180  0.41722781  0.00216182  1
  O2-  O197  1  0.66852098  0.41333979  0.25063713  1
  O2-  O198  1  0.66523109  0.41588678  0.50107371  1
  O2-  O199  1  0.66216687  0.41002628  0.74692042  1
  O2-  O200  1  0.66674203  0.74610997  -0.00127116  1
  O2-  O201  1  0.66360739  0.74927448  0.25135159  1
  O2-  O202  1  0.66734677  0.74619773  0.50035338  1
  O2-  O203  1  0.66330043  0.74591072  0.75086540  1
  O2-  O204  1  0.33232423  0.25384580  0.00237646  1
  O2-  O205  1  0.33321535  0.25344144  0.24836905  1
  O2-  O206  1  0.33179310  0.25409563  0.49756075  1
  O2-  O207  1  0.33308669  0.25098037  0.75023814  1
  O2-  O208  1  0.33145653  0.58542490  0.00010573  1
  O2-  O209  1  0.33369838  0.58729481  0.25052662  1
  O2-  O210  1  0.33199799  0.58655463  0.50172222  1
  O2-  O211  1  0.33684978  0.58547340  0.74829472  1
  O2-  O212  1  0.33301156  0.92238270  0.00168795  1
  O2-  O213  1  0.33251972  0.91952177  0.25157708  1
  O2-  O214  1  0.32807292  0.91864541  0.50164967  1
  O2-  O215  1  0.33042413  0.91838099  0.74745485  1
  O2-  O216  1  0.83589957  0.25242686  0.00104703  1
  O2-  O217  1  0.83105812  0.25109645  0.25057507  1
  O2-  O218  1  0.83234421  0.25119057  0.49858253  1
  O2-  O219  1  0.83340855  0.25350023  0.75197238  1
  O2-  O220  1  0.83445820  0.58523865  -0.00005860  1
  O2-  O221  1  0.83090132  0.58534520  0.25390391  1
  O2-  O222  1  0.83321466  0.58481710  0.49960757  1
  O2-  O223  1  0.83099765  0.58566350  0.74722057  1
  O2-  O224  1  0.83482621  0.92023909  0.00117717  1
  O2-  O225  1  0.83418049  0.92007770  0.24654023  1
  O2-  O226  1  0.83435772  0.92141371  0.50288852  1
  O2-  O227  1  0.83206307  0.91858632  0.74984296  1
  O2-  O228  1  0.16475373  0.25413949  -0.00131660  1
  O2-  O229  1  0.16708122  0.25235958  0.25030067  1
  O2-  O230  1  0.17160004  0.25265805  0.50186687  1
  O2-  O231  1  0.16414979  0.25464585  0.74996942  1
  O2-  O232  1  0.16673322  0.58244814  -0.00091203  1
  O2-  O233  1  0.16485873  0.58512514  0.24986935  1
  O2-  O234  1  0.16642369  0.58660210  0.50088827  1
  O2-  O235  1  0.16355061  0.58710803  0.74904223  1
  O2-  O236  1  0.16767220  0.92263852  0.00371444  1
  O2-  O237  1  0.16622586  0.92184868  0.25101109  1
  O2-  O238  1  0.17184633  0.91961453  0.49806046  1
  O2-  O239  1  0.16535327  0.91741643  0.74803484  1
  O2-  O240  1  0.66223510  0.25298610  0.00032838  1
  O2-  O241  1  0.67037712  0.24938048  0.24882481  1
  O2-  O242  1  0.66248455  0.25065589  0.50129426  1
  O2-  O243  1  0.66598353  0.25257769  0.74832961  1
  O2-  O244  1  0.66591686  0.58669075  -0.00066522  1
  O2-  O245  1  0.66684395  0.58643566  0.25390617  1
  O2-  O246  1  0.66772524  0.58551586  0.49865074  1
  O2-  O247  1  0.66697405  0.58716738  0.75073269  1
  O2-  O248  1  0.66580601  0.92268341  -0.00027491  1
  O2-  O249  1  0.66873189  0.91975272  0.24690807  1
  O2-  O250  1  0.66398819  0.92199772  0.50193541  1
  O2-  O251  1  0.66705621  0.92053880  0.74920757  1
  O2-  O252  1  0.33430073  0.07963760  0.00168058  1
  O2-  O253  1  0.33362470  0.08117547  0.25155020  1
  O2-  O254  1  0.33043881  0.08097730  0.49800550  1
  O2-  O255  1  0.33395216  0.08351413  0.74573449  1
  O2-  O256  1  0.33331071  0.41487995  0.00312591  1
  O2-  O257  1  0.33207171  0.41291250  0.24939507  1
  O2-  O258  1  0.33204536  0.41519725  0.49999252  1
  O2-  O259  1  0.33239254  0.41690195  0.74932869  1
  O2-  O260  1  0.33735339  0.74439226  -0.00033134  1
  O2-  O261  1  0.33493183  0.74677549  0.24964445  1
  O2-  O262  1  0.33314926  0.74785842  0.50270157  1
  O2-  O263  1  0.33252248  0.74685646  0.74855133  1
  O2-  O264  1  0.83313827  0.07802411  0.00217917  1
  O2-  O265  1  0.83376313  0.08024521  0.24802119  1
  O2-  O266  1  0.83561386  0.08014655  0.49958373  1
  O2-  O267  1  0.83510858  0.07747070  0.75058018  1
  O2-  O268  1  0.83666509  0.41628440  -0.00067889  1
  O2-  O269  1  0.83348121  0.41482511  0.25154292  1
  O2-  O270  1  0.83162325  0.41517412  0.49652199  1
  O2-  O271  1  0.83571147  0.41275586  0.74863370  1
  O2-  O272  1  0.83072042  0.74873645  0.00199976  1
  O2-  O273  1  0.83328365  0.74834312  0.25003970  1
  O2-  O274  1  0.83485457  0.74555229  0.50152393  1
  O2-  O275  1  0.83647072  0.74694092  0.75020382  1
  O2-  O276  1  0.45944810  0.10268238  0.72096289  1
  O2-  O277  1  0.03836968  0.44370483  0.21932610  1
  O2-  O278  1  0.05166473  0.90377463  0.45914693  1
  O2-  O279  1  0.05249923  0.24875485  0.22293223  1
  O2-  O280  1  0.55184085  0.57654710  0.76095282  1
  O2-  O281  1  0.04379447  0.44187863  0.96381203  1
  O2-  O282  1  0.05206264  0.09004140  0.98440902  1
  O2-  O283  1  0.45245139  0.42990179  0.98010877  1
  O2-  O284  1  0.95052655  0.09694426  0.26303494  1
  O2-  O285  1  0.95251512  0.56814764  0.01203148  1
  O2-  O286  1  0.55167697  0.42429670  0.74448750  1
  O2-  O287  1  0.94989291  0.90824739  0.98548405  1
  O2-  O288  1  0.44579727  0.23097846  0.21810866  1
  O2-  O289  1  0.55024672  0.42392051  0.75359131  1
  O2-  O290  1  0.46324374  0.46421209  0.72234280  1
  O2-  O291  1  0.53991965  0.20968223  0.24328647  1
  O2-  O292  1  0.95434433  0.42873603  0.72793137  1
  O2-  O293  1  0.44803948  0.09661877  0.01212344  1
  O2-  O294  1  0.95309046  0.76262698  0.75918652  1
  O2-  O295  1  0.04256942  0.10372021  0.00345315  1
  O2-  O296  1  0.54405179  0.21409584  0.23276799  1
  O2-  O297  1  0.45460104  0.57204813  0.26665576  1
  O2-  O298  1  0.54937003  0.89990741  0.48483311  1
  O2-  O299  1  0.96623079  0.45074647  0.46649424  1
  O2-  O300  1  0.45408452  0.76674302  0.26407123  1
  O2-  O301  1  0.54446151  0.89771632  0.76278266  1
  O2-  O302  1  0.95503683  0.44357389  0.75169012  1
  O2-  O303  1  0.96293641  0.89377172  0.78084978  1
  O2-  O304  1  0.45400128  0.75874049  0.48518754  1
  O2-  O305  1  0.55072725  0.09567910  0.00795901  1
  O2-  O306  1  0.54868599  0.42858897  0.24346448  1
  O2-  O307  1  0.44581104  0.41833160  0.23014959  1
  O2-  O308  1  0.96709250  0.77792119  0.03346381  1
  O2-  O309  1  0.44852694  0.43157435  0.01886738  1
  O2-  O310  1  0.44874444  0.58187891  0.73084485  1
  O2-  O311  1  0.45629589  0.57364045  0.98322400  1
  O2-  O312  1  0.54379682  0.42941379  0.51331884  1
  O2-  O313  1  0.03609987  0.22355367  0.52848366  1
  O2-  O314  1  0.54583163  0.44853143  0.03143076  1
  O2-  O315  1  0.95371525  0.23220451  0.74395792  1
  O2-  O316  1  0.04811164  0.09669108  0.23012548  1
  O2-  O317  1  0.96474187  0.56422087  0.71808440  1
  O2-  O318  1  0.45645123  0.89740480  0.52856423  1
  O2-  O319  1  0.94898524  0.42680688  0.01774023  1
  O2-  O320  1  0.45925705  0.23121461  0.78011067  1
  O2-  O321  1  0.45458327  0.23764305  0.48861701  1
  O2-  O322  1  0.04040597  0.88519623  0.04449491  1
  O2-  O323  1  0.45362303  0.23865829  0.50889294  1
  O2-  O324  1  0.93629147  0.93119680  0.46499551  1
  O2-  O325  1  0.92877043  0.93903785  0.69273141  1
  O2-  O326  1  0.56141020  0.59345723  0.52974069  1
  O2-  O327  1  0.56411989  0.73865668  0.53527944  1
  O2-  O328  1  0.43427822  0.92305397  0.72429202  1
  O2-  O329  1  0.42666394  0.38945866  0.67410011  1
  O2-  O330  1  0.07798731  0.93280524  0.94758282  1
  O2-  O331  1  0.43851648  0.92892458  0.06845932  1
  O2-  O332  1  0.92889292  0.24591368  0.56589430  1
  O2-  O333  1  0.43601861  0.07494110  0.52819737  1
  O2-  O334  1  0.06337333  0.07422279  0.53144324  1
  O2-  O335  1  0.93721658  0.26017931  0.97688925  1
  O2-  O336  1  0.08301969  0.27226897  0.44771270  1
  O2-  O337  1  0.93116831  0.40504245  0.77917755  1
  O2-  O338  1  0.92040114  0.39923462  0.55132346  1
  O2-  O339  1  0.43047968  0.91481563  0.93589060  1
  O2-  O340  1  0.56617091  0.07419736  0.72614899  1
  O2-  O341  1  0.57505025  0.38952627  0.95061339  1
  O2-  O342  1  0.43793727  0.59627460  0.46536249  1
  O2-  O343  1  0.44075179  0.41090121  0.22265325  1
  O2-  O344  1  0.42620319  0.07028303  0.79120363  1
  O2-  O345  1  0.43552954  0.26188580  0.70403686  1
  O2-  O346  1  0.06762380  0.39114202  0.05057593  1
  O2-  O347  1  0.93506486  0.58962763  0.22690531  1
  O2-  O348  1  0.06378044  0.60076589  0.03078228  1
  O2-  O349  1  0.05487918  0.25150331  0.22387689  1
  O2-  O350  1  0.93627406  0.07284937  0.71531926  1
  O2-  O351  1  0.43616793  0.92921306  0.21836245  1
  O2-  O352  1  0.57814586  0.30295319  0.31117928  1
  O2-  O353  1  0.06390468  0.73498788  0.78219616  1
  O2-  O354  1  0.05641927  0.91162169  0.45139463  1
  O2-  O355  1  0.93605586  0.26381599  0.21543692  1
  O2-  O356  1  0.56788097  0.92114009  0.29706319  1
  O2-  O357  1  0.42490960  0.93236062  0.45640062  1
  O2-  O358  1  0.07017901  0.93627391  0.59251369  1
  O2-  O359  1  0.07288260  0.40356415  0.28778278  1
  O2-  O360  1  0.43760468  0.26453197  0.97197050  1
  O2-  O361  1  0.92136051  0.72831028  0.95160163  1
  O2-  O362  1  0.93653330  0.73781709  0.28372896  1
  O2-  O363  1  0.56458448  0.07488691  0.47785016  1
  O2-  O364  1  0.43292564  0.27082625  0.30089997  1
  O2-  O365  1  0.93665379  0.59495870  0.53560603  1
  O2-  O366  1  0.93163030  0.25036062  0.43430826  1
  O2-  O367  1  0.56670311  0.92116148  0.20144910  1
  O2-  O368  1  0.43267261  0.58484106  0.97680317  1
  O2-  O369  1  0.43172656  0.39517256  0.82995256  1
  O2-  O370  1  0.06531343  0.06877290  0.03891943  1
  O2-  O371  1  0.91965024  0.60790604  0.80002948  1
  O2-  O372  1  0.74942375  0.33061560  0.92537203  1
  O2-  O373  1  0.24951467  -0.00046339  0.15761136  1
  O2-  O374  1  0.24994486  0.65966491  0.32095276  1
  O2-  O375  1  0.75049081  0.33490076  0.39988134  1
  O2-  O376  1  0.24978178  0.35911798  0.08561185  1
  O2-  O377  1  0.74973450  0.00303873  0.32670990  1
  O2-  O378  1  0.74957904  0.33113972  0.08292179  1
  O2-  O379  1  0.24867224  0.33838662  0.89288728  1
  O2-  O380  1  0.24956656  0.66208999  0.88693786  1
  O2-  O381  1  0.75038903  0.33667207  0.83398753  1
  O2-  O382  1  0.24951216  0.65759020  0.12382352  1
  O2-  O383  1  0.25000773  0.67132956  0.44338571  1
  O2-  O384  1  0.74998239  0.66602961  0.39513764  1
  O2-  O385  1  0.74949709  0.33786521  0.59540359  1
  O2-  O386  1  0.24985487  0.33414342  0.18394643  1
  O2-  O387  1  0.24954436  0.00235001  0.90999610  1
  O2-  O388  1  0.25041804  -0.00406664  0.81775043  1
  O2-  O389  1  0.25045193  0.33590203  0.35047885  1
  O2-  O390  1  0.75009227  -0.00077053  0.41748455  1
  O2-  O391  1  0.75015202  0.33512145  0.17368380  1
  O2-  O392  1  0.74951337  0.00073769  0.85148067  1
  O2-  O393  1  0.74963786  0.65848307  0.08433201  1
  O2-  O394  1  0.75027379  0.67184793  0.65342176  1
  O2-  O395  1  0.75008361  0.66712579  0.17469115  1
  O2-  O396  1  0.24953587  0.50754834  0.86042017  1
  O2-  O397  1  0.74999159  0.16047596  0.89209318  1
  O2-  O398  1  0.24985952  0.16181692  0.33493601  1
  O2-  O399  1  0.24945630  0.16614667  0.60450036  1
  O2-  O400  1  0.24986795  0.16520074  0.18098386  1
  O2-  O401  1  0.24997060  0.83431951  0.34583305  1
  O2-  O402  1  0.25007598  0.16653034  0.68614615  1
  O2-  O403  1  0.24987876  0.83793385  0.10583704  1
  O2-  O404  1  0.75005087  0.17140854  0.60915692  1
  O2-  O405  1  0.24995411  0.17473809  0.09084810  1
  O2-  O406  1  0.75002042  0.49799951  0.56103462  1
  O2-  O407  1  0.25039373  0.83916228  0.19172804  1
  O2-  O408  1  0.75011910  0.83265906  0.33127209  1
  O2-  O409  1  0.75015333  0.51635503  0.64808294  1
  O2-  O410  1  0.74974297  0.49264431  0.06316215  1
  O2-  O411  1  0.25002849  0.50008040  0.15286677  1
  O2-  O412  1  0.24965371  0.83458045  0.85009881  1
  O2-  O413  1  0.74992803  0.52044884  0.88643898  1
  O2-  O414  1  0.24952006  0.16867869  0.81858090  1
  O2-  O415  1  0.24989160  0.50243228  0.34656228  1
  O2-  O416  1  0.74968353  0.50203579  0.14982073  1
  O2-  O417  1  0.75007220  0.82870950  0.61306568  1
  O2-  O418  1  0.24985641  0.49790446  0.67017943  1
  O2-  O419  1  0.24964747  0.49779512  0.58383648  1
  O2-  O420  1  0.45551520  0.66779209  0.12020744  1
  O2-  O421  1  0.04925555  0.33787702  0.62769889  1
  O2-  O422  1  0.96417219  0.34388493  0.36133511  1
  O2-  O423  1  0.98710035  0.66587901  0.87830902  1
  O2-  O424  1  0.54552102  0.67172697  0.88367385  1
  O2-  O425  1  0.52430243  0.00625105  0.12239634  1
  O2-  O426  1  0.96787734  0.33208454  0.63954624  1
  O2-  O427  1  0.02931207  0.66524863  0.62751506  1
  O2-  O428  1  0.47228042  -0.00155587  0.62645560  1
  O2-  O429  1  0.54555802  0.66770307  0.12272015  1
  O2-  O430  1  0.52725301  0.33219882  0.11809403  1
  O2-  O431  1  0.02677565  0.33562526  0.37787237  1
  O2-  O432  1  0.04248672  0.00752399  0.85340446  1
  O2-  O433  1  0.52571027  0.00655483  0.37497312  1
  O2-  O434  1  0.47711248  0.00181736  0.87261078  1
  O2-  O435  1  0.97882850  0.32861326  0.87219914  1
  O2-  O436  1  0.95392082  0.00947778  0.87640788  1
  O2-  O437  1  0.46857785  0.00935640  0.36729433  1
  O2-  O438  1  0.52465867  0.31971857  0.87095289  1
  O2-  O439  1  0.02516692  0.01362021  0.36683203  1
  O2-  O440  1  0.97721543  0.67256589  0.12447827  1
  O2-  O441  1  0.53457318  0.00057372  0.87596665  1
  O2-  O442  1  0.53427223  -0.00591214  0.61837798  1
  O2-  O443  1  0.45739097  0.67734623  0.86804137  1
