# generated using pymatgen
data_La7(Ru4O11)2
_symmetry_space_group_name_H-M   'P 1'
_cell_length_a   23.99087007
_cell_length_b   16.83018020
_cell_length_c   15.42790243
_cell_angle_alpha   89.99948156
_cell_angle_beta   90.00006883
_cell_angle_gamma   90.00240447
_symmetry_Int_Tables_number   1
_chemical_formula_structural   La7(Ru4O11)2
_chemical_formula_sum   'La84 Ru96 O264'
_cell_volume   6229.33443934
_cell_formula_units_Z   12
loop_
 _symmetry_equiv_pos_site_id
 _symmetry_equiv_pos_as_xyz
  1  'x, y, z'
loop_
 _atom_type_symbol
 _atom_type_oxidation_number
  La3+  3.0
  Ru4+  4.0
  O2-  -2.0
loop_
 _atom_site_type_symbol
 _atom_site_label
 _atom_site_symmetry_multiplicity
 _atom_site_fract_x
 _atom_site_fract_y
 _atom_site_fract_z
 _atom_site_occupancy
  La3+  La0  1  0.14139578  -0.00170198  0.12352168  1
  La3+  La1  1  0.13774566  0.00123475  0.37296889  1
  La3+  La2  1  0.14163680  -0.00146521  0.61815921  1
  La3+  La3  1  0.13867303  0.00029081  0.87773893  1
  La3+  La4  1  0.12971631  0.32519300  0.13060877  1
  La3+  La5  1  0.14023690  0.32043881  0.36445318  1
  La3+  La6  1  0.14391342  0.33157821  0.62908884  1
  La3+  La7  1  0.13612628  0.33580101  0.87791485  1
  La3+  La8  1  0.13910365  0.66815972  0.12565823  1
  La3+  La9  1  0.13840211  0.66706944  0.37457759  1
  La3+  La10  1  0.13797812  0.66596320  0.62386815  1
  La3+  La11  1  0.14067819  0.66394639  0.87545404  1
  La3+  La12  1  0.63247280  0.00680027  0.11961021  1
  La3+  La13  1  0.64355517  0.00090431  0.37999002  1
  La3+  La14  1  0.64252718  0.00157796  0.62098925  1
  La3+  La15  1  0.63226807  0.00591798  0.87929100  1
  La3+  La16  1  0.63770152  0.33368861  0.12488717  1
  La3+  La17  1  0.63919226  0.33246850  0.37816707  1
  La3+  La18  1  0.63737283  0.33395076  0.62553956  1
  La3+  La19  1  0.63865055  0.33543451  0.87321804  1
  La3+  La20  1  0.64194755  0.66752858  0.12426188  1
  La3+  La21  1  0.63951214  0.66800185  0.37528274  1
  La3+  La22  1  0.64199130  0.66458121  0.62362098  1
  La3+  La23  1  0.63914301  0.66462873  0.87633499  1
  La3+  La24  1  0.35747943  -0.00021180  0.12203952  1
  La3+  La25  1  0.35960889  0.00321861  0.37882030  1
  La3+  La26  1  0.36256689  0.00350124  0.62261957  1
  La3+  La27  1  0.35938181  0.00162127  0.87894485  1
  La3+  La28  1  0.36073904  0.33113288  0.12767058  1
  La3+  La29  1  0.36207099  0.33163404  0.37324652  1
  La3+  La30  1  0.36103690  0.33349838  0.62667199  1
  La3+  La31  1  0.36250407  0.33514162  0.87364999  1
  La3+  La32  1  0.36178791  0.66785823  0.12434241  1
  La3+  La33  1  0.36305142  0.66632857  0.37434103  1
  La3+  La34  1  0.36218020  0.66574365  0.62492382  1
  La3+  La35  1  0.36421176  0.66622475  0.87578797  1
  La3+  La36  1  0.85642887  0.00585939  0.12877128  1
  La3+  La37  1  0.85990137  -0.00062145  0.37620490  1
  La3+  La38  1  0.85631455  -0.00039312  0.62173621  1
  La3+  La39  1  0.86088368  -0.00048774  0.87440430  1
  La3+  La40  1  0.86449876  0.33320716  0.12401578  1
  La3+  La41  1  0.86467246  0.33735877  0.38199613  1
  La3+  La42  1  0.86625307  0.34222708  0.61517545  1
  La3+  La43  1  0.86257875  0.33404057  0.87494677  1
  La3+  La44  1  0.85755911  0.66928277  0.12231594  1
  La3+  La45  1  0.86033079  0.66663629  0.37674074  1
  La3+  La46  1  0.85779868  0.66454064  0.62523504  1
  La3+  La47  1  0.86225699  0.66681482  0.87536822  1
  La3+  La48  1  0.49798472  0.84178205  0.88256587  1
  La3+  La49  1  -0.00337000  0.49475320  0.36869335  1
  La3+  La50  1  -0.00177388  0.17138879  0.89086254  1
  La3+  La51  1  0.00372927  0.83711612  0.39031757  1
  La3+  La52  1  0.49638377  0.49405336  0.87678283  1
  La3+  La53  1  -0.00434929  0.49978509  0.38454115  1
  La3+  La54  1  -0.00369708  0.84053587  0.62995020  1
  La3+  La55  1  0.49943996  0.83109695  0.86353030  1
  La3+  La56  1  0.49991863  0.50154250  0.13538630  1
  La3+  La57  1  0.00110584  0.50005208  0.86935557  1
  La3+  La58  1  -0.00427089  0.17505248  0.87492682  1
  La3+  La59  1  -0.00329516  0.50276735  0.62104848  1
  La3+  La60  1  -0.00175170  0.17543724  0.12708073  1
  La3+  La61  1  0.50125027  0.83227655  0.61324477  1
  La3+  La62  1  0.00089037  0.49576854  0.13235600  1
  La3+  La63  1  0.00093990  0.16410431  0.62693940  1
  La3+  La64  1  0.50081099  0.50285122  0.11360512  1
  La3+  La65  1  0.00158510  0.49611947  0.11486383  1
  La3+  La66  1  0.00216114  0.82825519  0.36997627  1
  La3+  La67  1  0.50499718  0.15830405  0.10666733  1
  La3+  La68  1  0.50087347  0.16533644  0.88092863  1
  La3+  La69  1  0.00651173  0.16396219  0.13924507  1
  La3+  La70  1  0.49892361  0.49955937  0.37004016  1
  La3+  La71  1  0.50040552  0.50146117  0.62094378  1
  La3+  La72  1  0.74977882  0.13198878  0.25069659  1
  La3+  La73  1  0.24993296  0.54097622  0.02602892  1
  La3+  La74  1  0.74995218  0.11409534  0.74077199  1
  La3+  La75  1  0.74948409  0.50114229  0.48336496  1
  La3+  La76  1  0.74998471  0.84442975  0.51851931  1
  La3+  La77  1  0.25048476  0.77328571  0.47094648  1
  La3+  La78  1  0.24998794  0.82253120  0.76836587  1
  La3+  La79  1  0.25084266  0.13409349  0.74789203  1
  La3+  La80  1  0.74986545  0.88890823  0.74533052  1
  La3+  La81  1  0.25029003  0.53325983  0.28024669  1
  La3+  La82  1  0.25003159  0.54189126  0.50958277  1
  La3+  La83  1  0.74927704  0.53839530  0.02736431  1
  Ru4+  Ru84  1  -0.00317571  -0.01217363  -0.00214721  1
  Ru4+  Ru85  1  0.00135547  0.00291083  0.25486961  1
  Ru4+  Ru86  1  0.00075113  0.00218656  0.50014696  1
  Ru4+  Ru87  1  0.00293525  0.00077292  0.74796825  1
  Ru4+  Ru88  1  -0.00358011  0.33892018  -0.00366962  1
  Ru4+  Ru89  1  0.00060655  0.33008780  0.25161075  1
  Ru4+  Ru90  1  -0.00022886  0.33864689  0.50371302  1
  Ru4+  Ru91  1  0.00211994  0.33561351  0.74711114  1
  Ru4+  Ru92  1  0.00262707  0.66929240  -0.00238794  1
  Ru4+  Ru93  1  0.00016038  0.66541830  0.25192156  1
  Ru4+  Ru94  1  0.00272475  0.66582421  0.50294953  1
  Ru4+  Ru95  1  0.00006117  0.66756566  0.75193065  1
  Ru4+  Ru96  1  0.50139062  0.00195492  0.00283181  1
  Ru4+  Ru97  1  0.50305585  0.00471572  0.24925967  1
  Ru4+  Ru98  1  0.49784601  0.00040776  0.49962667  1
  Ru4+  Ru99  1  0.50011302  0.00355005  0.75009833  1
  Ru4+  Ru100  1  0.49944292  0.33439646  0.00053709  1
  Ru4+  Ru101  1  0.49862993  0.33483245  0.25224050  1
  Ru4+  Ru102  1  0.50151488  0.32895586  0.50108732  1
  Ru4+  Ru103  1  0.50482547  0.33206033  0.74484468  1
  Ru4+  Ru104  1  0.50169566  0.65528509  0.00045680  1
  Ru4+  Ru105  1  0.50134355  0.66764324  0.24926747  1
  Ru4+  Ru106  1  0.49904300  0.66839914  0.49908979  1
  Ru4+  Ru107  1  0.50434190  0.66066698  0.74772815  1
  Ru4+  Ru108  1  0.11765467  0.15962633  0.00037115  1
  Ru4+  Ru109  1  0.11396940  0.16905936  0.25423366  1
  Ru4+  Ru110  1  0.11292463  0.16508214  0.49830867  1
  Ru4+  Ru111  1  0.11145472  0.16466319  0.74734251  1
  Ru4+  Ru112  1  0.11348228  0.50548207  -0.00081721  1
  Ru4+  Ru113  1  0.10999454  0.50081949  0.24983667  1
  Ru4+  Ru114  1  0.11126106  0.49825354  0.49833944  1
  Ru4+  Ru115  1  0.11438304  0.49832619  0.74940603  1
  Ru4+  Ru116  1  0.11332110  0.83334597  0.00131063  1
  Ru4+  Ru117  1  0.11463753  0.82880851  0.24703152  1
  Ru4+  Ru118  1  0.11268715  0.83269753  0.50371662  1
  Ru4+  Ru119  1  0.10975728  0.83192641  0.75138155  1
  Ru4+  Ru120  1  0.61261664  0.16780885  -0.00145260  1
  Ru4+  Ru121  1  0.60878011  0.16400269  0.24929428  1
  Ru4+  Ru122  1  0.61247942  0.16963008  0.50025496  1
  Ru4+  Ru123  1  0.60922880  0.16611010  0.74955312  1
  Ru4+  Ru124  1  0.60742635  0.50067305  0.00169300  1
  Ru4+  Ru125  1  0.61092478  0.49822233  0.24791841  1
  Ru4+  Ru126  1  0.61223887  0.49846545  0.49986239  1
  Ru4+  Ru127  1  0.61437606  0.50181429  0.74936130  1
  Ru4+  Ru128  1  0.61722851  0.83485122  0.00380056  1
  Ru4+  Ru129  1  0.61397601  0.83021233  0.25180659  1
  Ru4+  Ru130  1  0.61089243  0.83491666  0.49730486  1
  Ru4+  Ru131  1  0.61295801  0.83150427  0.74943933  1
  Ru4+  Ru132  1  0.38816015  0.16437814  -0.00000154  1
  Ru4+  Ru133  1  0.38704094  0.16926669  0.25022629  1
  Ru4+  Ru134  1  0.38727593  0.16184785  0.49895548  1
  Ru4+  Ru135  1  0.39172233  0.16600253  0.74957718  1
  Ru4+  Ru136  1  0.39141214  0.49983400  0.00043890  1
  Ru4+  Ru137  1  0.39313552  0.50019385  0.24883667  1
  Ru4+  Ru138  1  0.38976401  0.50265685  0.50113847  1
  Ru4+  Ru139  1  0.38533645  0.50063553  0.75027507  1
  Ru4+  Ru140  1  0.38335380  0.83892049  0.00382415  1
  Ru4+  Ru141  1  0.38525178  0.83131473  0.25153209  1
  Ru4+  Ru142  1  0.39125297  0.83305479  0.49878035  1
  Ru4+  Ru143  1  0.38500537  0.83968687  0.74667608  1
  Ru4+  Ru144  1  0.88201431  0.16253021  -0.00090414  1
  Ru4+  Ru145  1  0.88489861  0.17159566  0.25299429  1
  Ru4+  Ru146  1  0.88443116  0.16765121  0.50073667  1
  Ru4+  Ru147  1  0.88851682  0.16454401  0.74941168  1
  Ru4+  Ru148  1  0.88768210  0.49974166  0.00009029  1
  Ru4+  Ru149  1  0.89101146  0.49922153  0.25227206  1
  Ru4+  Ru150  1  0.88675307  0.49820312  0.49901972  1
  Ru4+  Ru151  1  0.88530643  0.50076896  0.74846938  1
  Ru4+  Ru152  1  0.89109287  0.83895038  -0.00015095  1
  Ru4+  Ru153  1  0.88609055  0.83412953  0.24532210  1
  Ru4+  Ru154  1  0.88561431  0.83491615  0.50104947  1
  Ru4+  Ru155  1  0.88883767  0.83328425  0.74864804  1
  Ru4+  Ru156  1  0.25000049  0.69427466  0.72030351  1
  Ru4+  Ru157  1  0.24991813  0.90857192  0.25447912  1
  Ru4+  Ru158  1  0.74933235  0.39973662  -0.00441921  1
  Ru4+  Ru159  1  0.74964626  0.25518485  0.01123536  1
  Ru4+  Ru160  1  0.24947169  0.23938088  0.49724531  1
  Ru4+  Ru161  1  0.75025617  0.42377830  0.24932891  1
  Ru4+  Ru162  1  0.75019383  0.92283949  0.00441586  1
  Ru4+  Ru163  1  0.25002258  0.40558000  0.48982863  1
  Ru4+  Ru164  1  0.74990725  0.72887991  0.75276432  1
  Ru4+  Ru165  1  0.74935886  0.92471920  0.24915093  1
  Ru4+  Ru166  1  0.74993836  0.27499911  0.24308384  1
  Ru4+  Ru167  1  0.25015199  0.09285675  0.24851504  1
  Ru4+  Ru168  1  0.25014422  0.75215575  0.25365790  1
  Ru4+  Ru169  1  0.74979426  0.74208443  0.23856822  1
  Ru4+  Ru170  1  0.75021871  0.27158058  0.75077647  1
  Ru4+  Ru171  1  0.24987624  0.94143661  0.50409020  1
  Ru4+  Ru172  1  0.75044287  0.07072136  0.00950365  1
  Ru4+  Ru173  1  0.25000649  0.24708581  -0.00112068  1
  Ru4+  Ru174  1  0.75002109  0.58105040  0.24781245  1
  Ru4+  Ru175  1  0.24996301  0.74418823  0.01457060  1
  Ru4+  Ru176  1  0.25019527  0.27290596  0.76578301  1
  Ru4+  Ru177  1  0.24961524  0.39507377  -0.01051547  1
  Ru4+  Ru178  1  0.24998540  0.39318592  0.24571416  1
  Ru4+  Ru179  1  0.24939641  0.95437957  0.74046544  1
  O2-  O180  1  0.16814784  0.08189219  -0.00101702  1
  O2-  O181  1  0.16658272  0.08225604  0.24983951  1
  O2-  O182  1  0.16562952  0.08325622  0.49957523  1
  O2-  O183  1  0.16895658  0.08180514  0.75331991  1
  O2-  O184  1  0.16728541  0.41155763  -0.00079289  1
  O2-  O185  1  0.16904439  0.41165161  0.24986357  1
  O2-  O186  1  0.16920607  0.41531868  0.50131435  1
  O2-  O187  1  0.16674100  0.41513494  0.75269131  1
  O2-  O188  1  0.16675545  0.74731229  0.00040631  1
  O2-  O189  1  0.16672611  0.74777012  0.24984563  1
  O2-  O190  1  0.16365853  0.74437707  0.50004035  1
  O2-  O191  1  0.16675066  0.74476337  0.74747118  1
  O2-  O192  1  0.66837534  0.07995795  0.00150664  1
  O2-  O193  1  0.66635972  0.07857720  0.24791962  1
  O2-  O194  1  0.66224321  0.08508716  0.50060523  1
  O2-  O195  1  0.66274532  0.07754039  0.75264489  1
  O2-  O196  1  0.66607983  0.41185711  0.00173267  1
  O2-  O197  1  0.66704041  0.41512565  0.25114494  1
  O2-  O198  1  0.66614872  0.41257027  0.49730145  1
  O2-  O199  1  0.66527720  0.41548468  0.74936099  1
  O2-  O200  1  0.66768521  0.74953590  -0.00392913  1
  O2-  O201  1  0.66784037  0.74843182  0.24904852  1
  O2-  O202  1  0.66575508  0.74769143  0.49963598  1
  O2-  O203  1  0.66712540  0.74700377  0.75145634  1
  O2-  O204  1  0.33349289  0.25375598  -0.00156581  1
  O2-  O205  1  0.33124746  0.25160413  0.24871811  1
  O2-  O206  1  0.33387394  0.25123472  0.50145704  1
  O2-  O207  1  0.33332177  0.25380182  0.75100957  1
  O2-  O208  1  0.33492380  0.58959176  0.00041677  1
  O2-  O209  1  0.33626121  0.58826635  0.24992008  1
  O2-  O210  1  0.33415029  0.58714362  0.49684368  1
  O2-  O211  1  0.33510527  0.58559543  0.74833275  1
  O2-  O212  1  0.33462459  0.91844919  0.00031966  1
  O2-  O213  1  0.33193290  0.91878504  0.24921570  1
  O2-  O214  1  0.33300675  0.92045132  0.50115970  1
  O2-  O215  1  0.33213979  0.92278452  0.74905854  1
  O2-  O216  1  0.83264487  0.25280065  0.00053020  1
  O2-  O217  1  0.83291666  0.25371175  0.25020453  1
  O2-  O218  1  0.83588253  0.25303966  0.50030802  1
  O2-  O219  1  0.83251922  0.25548736  0.74889985  1
  O2-  O220  1  0.83680982  0.58886286  -0.00260672  1
  O2-  O221  1  0.83202028  0.58643765  0.24890159  1
  O2-  O222  1  0.83400577  0.58616466  0.49871472  1
  O2-  O223  1  0.83588362  0.58512611  0.75153493  1
  O2-  O224  1  0.83010277  0.91859867  -0.00059924  1
  O2-  O225  1  0.83104779  0.91804144  0.25025814  1
  O2-  O226  1  0.83337047  0.91804293  0.50057633  1
  O2-  O227  1  0.83754981  0.92180408  0.75246528  1
  O2-  O228  1  0.16616644  0.25246311  -0.00207681  1
  O2-  O229  1  0.17003344  0.24980886  0.24565984  1
  O2-  O230  1  0.16777521  0.25084351  0.49997843  1
  O2-  O231  1  0.16539470  0.25051964  0.75339443  1
  O2-  O232  1  0.16391557  0.58982128  0.00039369  1
  O2-  O233  1  0.16293940  0.58685925  0.25034211  1
  O2-  O234  1  0.16506170  0.58763751  0.49848784  1
  O2-  O235  1  0.16415035  0.58498086  0.74893110  1
  O2-  O236  1  0.16280381  0.91599886  -0.00079850  1
  O2-  O237  1  0.16566879  0.91826284  0.25159768  1
  O2-  O238  1  0.16806611  0.91909277  0.49683117  1
  O2-  O239  1  0.16521480  0.92022425  0.75008784  1
  O2-  O240  1  0.66698957  0.25236914  0.00177135  1
  O2-  O241  1  0.66577366  0.25318147  0.24962099  1
  O2-  O242  1  0.66566001  0.25293037  0.49857215  1
  O2-  O243  1  0.66935502  0.25362172  0.75058578  1
  O2-  O244  1  0.66390746  0.58890136  -0.00274114  1
  O2-  O245  1  0.67001452  0.58631992  0.25059532  1
  O2-  O246  1  0.66657920  0.58703449  0.49792235  1
  O2-  O247  1  0.66765470  0.58443682  0.75425886  1
  O2-  O248  1  0.66636793  0.92064194  0.00061879  1
  O2-  O249  1  0.66807651  0.91831451  0.24686258  1
  O2-  O250  1  0.66758882  0.91852811  0.50177389  1
  O2-  O251  1  0.66146877  0.92395110  0.75122523  1
  O2-  O252  1  0.33586752  0.08344568  0.00043137  1
  O2-  O253  1  0.33511507  0.08197961  0.24958715  1
  O2-  O254  1  0.33137898  0.08387215  0.50200684  1
  O2-  O255  1  0.33603646  0.08062486  0.74978615  1
  O2-  O256  1  0.33387184  0.41204448  -0.00014618  1
  O2-  O257  1  0.33210368  0.41194857  0.25045726  1
  O2-  O258  1  0.33480968  0.41282113  0.50049844  1
  O2-  O259  1  0.33454261  0.41345725  0.74977180  1
  O2-  O260  1  0.33367378  0.74613831  0.00013751  1
  O2-  O261  1  0.33419255  0.74830939  0.25042859  1
  O2-  O262  1  0.33898186  0.74481457  0.50094690  1
  O2-  O263  1  0.33520772  0.74517521  0.74915257  1
  O2-  O264  1  0.83221284  0.07991420  -0.00091289  1
  O2-  O265  1  0.83388964  0.08197392  0.25280168  1
  O2-  O266  1  0.83393997  0.08457531  0.49990116  1
  O2-  O267  1  0.83788627  0.07766801  0.75051254  1
  O2-  O268  1  0.83241736  0.41252251  0.00079197  1
  O2-  O269  1  0.83143121  0.41364700  0.24893465  1
  O2-  O270  1  0.82965733  0.41291474  0.50093378  1
  O2-  O271  1  0.83469553  0.41287645  0.74908609  1
  O2-  O272  1  0.83806455  0.75045334  -0.00091538  1
  O2-  O273  1  0.83340749  0.74785041  0.24839461  1
  O2-  O274  1  0.83305857  0.74609150  0.50085731  1
  O2-  O275  1  0.83226658  0.74663251  0.75231556  1
  O2-  O276  1  0.03320213  0.44846349  0.50557427  1
  O2-  O277  1  0.05254747  0.90257316  0.26212305  1
  O2-  O278  1  0.46495571  0.21862256  0.20750880  1
  O2-  O279  1  0.54646401  0.76868865  0.97377113  1
  O2-  O280  1  0.53595093  0.56095560  0.78765762  1
  O2-  O281  1  0.44899966  0.90533431  0.51646663  1
  O2-  O282  1  0.54575781  0.56602178  0.50668298  1
  O2-  O283  1  0.04563223  0.22756234  0.24929456  1
  O2-  O284  1  0.03137089  0.12106776  0.75595374  1
  O2-  O285  1  0.04737015  0.43099020  0.01464105  1
  O2-  O286  1  0.05139883  0.57833151  0.48464653  1
  O2-  O287  1  0.45403989  0.23477572  0.74009483  1
  O2-  O288  1  0.95475658  0.23598395  0.73600878  1
  O2-  O289  1  0.05206495  0.23810132  0.22505622  1
  O2-  O290  1  0.55249438  0.90706916  0.48436855  1
  O2-  O291  1  0.54461507  0.90438561  0.01866545  1
  O2-  O292  1  0.03558261  0.11466570  0.77036650  1
  O2-  O293  1  0.94585320  0.42488756  0.51741206  1
  O2-  O294  1  0.94970833  0.57238453  0.48969971  1
  O2-  O295  1  0.94923162  0.90732562  0.28888318  1
  O2-  O296  1  0.95290309  0.09382856  0.23909867  1
  O2-  O297  1  0.04956261  0.23200375  0.01272827  1
  O2-  O298  1  0.45607185  0.76418045  0.72670385  1
  O2-  O299  1  0.54966421  0.42940139  0.73523923  1
  O2-  O300  1  0.54827789  0.09676467  0.02198078  1
  O2-  O301  1  0.94854674  0.75987600  0.25704117  1
  O2-  O302  1  0.95421548  0.76494869  0.51645644  1
  O2-  O303  1  0.95198952  0.43337053  0.49231946  1
  O2-  O304  1  0.45464842  0.43083807  0.51150660  1
  O2-  O305  1  0.94939585  0.23715844  0.26519541  1
  O2-  O306  1  0.95277839  0.23586084  0.99071039  1
  O2-  O307  1  0.44972884  0.76047755  0.76432261  1
  O2-  O308  1  0.54659908  0.90047291  0.75687219  1
  O2-  O309  1  0.97683216  0.86440183  0.01855687  1
  O2-  O310  1  0.54215190  0.88342171  0.25331869  1
  O2-  O311  1  0.45166403  0.77012127  0.01980297  1
  O2-  O312  1  0.54605653  0.23422331  0.50878447  1
  O2-  O313  1  0.03584175  0.45451299  0.49844449  1
  O2-  O314  1  0.04932788  0.76198255  0.23023233  1
  O2-  O315  1  0.95561298  0.56978868  0.01272156  1
  O2-  O316  1  0.45545064  0.76197224  0.48851554  1
  O2-  O317  1  0.45751931  0.88482677  0.25298515  1
  O2-  O318  1  0.45055659  0.42834593  0.76383916  1
  O2-  O319  1  0.04049924  0.78210093  0.71979960  1
  O2-  O320  1  0.45027800  0.76063927  0.98200469  1
  O2-  O321  1  0.54199602  0.10322232  0.99615552  1
  O2-  O322  1  0.95421706  0.43598468  0.75943186  1
  O2-  O323  1  0.95401175  0.09823944  0.00944838  1
  O2-  O324  1  0.93511019  0.92591889  0.47596920  1
  O2-  O325  1  0.06178068  0.73336667  0.03084912  1
  O2-  O326  1  0.06482519  0.74109226  0.52831685  1
  O2-  O327  1  0.42277790  0.94487122  0.28061717  1
  O2-  O328  1  0.43516705  0.59759228  0.53404614  1
  O2-  O329  1  0.57766875  0.60697768  0.69811757  1
  O2-  O330  1  0.06214089  0.40659509  0.21482714  1
  O2-  O331  1  0.57388993  0.73000002  0.04093826  1
  O2-  O332  1  0.93418519  0.40904117  0.02848500  1
  O2-  O333  1  0.06405379  0.92624167  0.52288955  1
  O2-  O334  1  0.56472657  0.73521167  0.28454078  1
  O2-  O335  1  0.57012954  0.07041578  0.97470214  1
  O2-  O336  1  0.56248534  0.06920798  0.71742793  1
  O2-  O337  1  0.56788844  0.25317769  0.93879515  1
  O2-  O338  1  0.06542701  0.07170606  0.28164832  1
  O2-  O339  1  0.93804757  0.93147885  0.71885333  1
  O2-  O340  1  0.56114017  0.92083329  0.47952014  1
  O2-  O341  1  0.06637105  0.08076953  0.93818776  1
  O2-  O342  1  0.93561516  0.07138025  0.55396106  1
  O2-  O343  1  0.08544881  0.04026156  0.70439438  1
  O2-  O344  1  0.06098743  0.93017129  0.28390479  1
  O2-  O345  1  0.93082048  0.94182763  0.92485891  1
  O2-  O346  1  0.07085879  0.26185163  0.27739241  1
  O2-  O347  1  0.92675843  0.39730779  0.46796636  1
  O2-  O348  1  0.93772554  0.25278700  0.96522473  1
  O2-  O349  1  0.93479148  0.07829144  0.45436027  1
  O2-  O350  1  0.08818803  0.39196341  0.42818381  1
  O2-  O351  1  0.07160604  0.71777364  0.80730820  1
  O2-  O352  1  0.06207760  0.40963157  0.03667784  1
  O2-  O353  1  0.06543389  0.06868542  0.06890250  1
  O2-  O354  1  0.43081694  0.92237965  0.80861853  1
  O2-  O355  1  0.43784287  0.93331674  0.67913587  1
  O2-  O356  1  0.56265818  0.26809318  0.07022420  1
  O2-  O357  1  0.56266257  0.07720392  0.27163397  1
  O2-  O358  1  0.91914972  0.94217650  0.05882184  1
  O2-  O359  1  0.43607399  0.59159694  0.97426411  1
  O2-  O360  1  0.05886797  0.25763405  0.03602405  1
  O2-  O361  1  0.56644860  0.25885084  0.72438234  1
  O2-  O362  1  0.92628401  0.92889428  0.17443121  1
  O2-  O363  1  0.07252248  0.37205979  0.57842706  1
  O2-  O364  1  0.93980534  0.91400983  0.29851817  1
  O2-  O365  1  0.93540672  0.07908146  0.21552785  1
  O2-  O366  1  0.42553615  0.27243768  0.29633032  1
  O2-  O367  1  0.93450438  0.73610073  0.71577629  1
  O2-  O368  1  0.43563747  0.07264194  0.47792408  1
  O2-  O369  1  0.57802688  0.93950580  0.28484810  1
  O2-  O370  1  0.06163613  0.40398705  0.72270534  1
  O2-  O371  1  0.56501533  0.58723257  0.22531496  1
  O2-  O372  1  0.24999343  0.65737859  0.82803052  1
  O2-  O373  1  0.25033194  -0.00115103  0.17058384  1
  O2-  O374  1  0.25045261  0.32097217  0.57211227  1
  O2-  O375  1  0.25010162  -0.00263847  0.92633950  1
  O2-  O376  1  0.25023769  0.66516563  0.59614993  1
  O2-  O377  1  0.25018296  0.01976727  0.84045418  1
  O2-  O378  1  0.25000912  0.01529078  0.42589118  1
  O2-  O379  1  0.25023248  0.32630831  0.39609705  1
  O2-  O380  1  0.74899983  0.00153562  0.15095212  1
  O2-  O381  1  0.74988313  -0.00454706  0.60563122  1
  O2-  O382  1  0.25012437  0.00012654  0.08081524  1
  O2-  O383  1  0.25030472  0.00111412  0.31891905  1
  O2-  O384  1  0.75034452  0.66649349  0.65437662  1
  O2-  O385  1  0.75016508  0.32649974  0.89772407  1
  O2-  O386  1  0.25001164  0.33101316  0.09917703  1
  O2-  O387  1  0.75053612  0.66473598  0.10597248  1
  O2-  O388  1  0.74978591  0.66527526  0.34438474  1
  O2-  O389  1  0.25071691  0.01244735  0.63563434  1
  O2-  O390  1  0.75000750  -0.00221102  0.39029861  1
  O2-  O391  1  0.24994449  0.66388631  0.93397888  1
  O2-  O392  1  0.75003543  0.33869473  0.35175224  1
  O2-  O393  1  0.25007021  0.66893709  0.15218643  1
  O2-  O394  1  0.25046101  0.34688729  0.68352634  1
  O2-  O395  1  0.25018204  0.66670802  0.34749443  1
  O2-  O396  1  0.24980071  0.81840524  0.64545179  1
  O2-  O397  1  0.75013750  0.18349555  0.85569535  1
  O2-  O398  1  0.74947124  0.82711837  0.94547558  1
  O2-  O399  1  0.75020672  0.18556912  0.63642236  1
  O2-  O400  1  0.74991601  0.82921280  0.39439542  1
  O2-  O401  1  0.75007758  0.49790904  0.60804318  1
  O2-  O402  1  0.25010604  0.82967429  0.17073035  1
  O2-  O403  1  0.25016195  0.48650982  0.15115210  1
  O2-  O404  1  0.25010671  0.84460139  0.35623470  1
  O2-  O405  1  0.75004927  0.81155501  0.64361962  1
  O2-  O406  1  0.74989394  0.16399568  0.94057240  1
  O2-  O407  1  0.24994404  0.84677104  0.96274994  1
  O2-  O408  1  0.24995688  0.85664506  0.57395609  1
  O2-  O409  1  0.25015231  0.17215519  0.16704106  1
  O2-  O410  1  0.75012986  0.83117741  0.30879690  1
  O2-  O411  1  0.74988268  0.81782275  0.85888397  1
  O2-  O412  1  0.75030626  0.16536658  0.55086393  1
  O2-  O413  1  0.24991818  0.16159643  0.07953575  1
  O2-  O414  1  0.24997035  0.49898068  0.81510226  1
  O2-  O415  1  0.75016011  0.49316312  0.89601332  1
  O2-  O416  1  0.25014271  0.48859955  0.89823042  1
  O2-  O417  1  0.25011313  0.83537674  0.88542007  1
  O2-  O418  1  0.25020144  0.83724548  0.08324025  1
  O2-  O419  1  0.74999872  0.16719116  0.09470825  1
  O2-  O420  1  0.45851337  0.01443093  0.89225899  1
  O2-  O421  1  0.52682802  0.00673092  0.37819087  1
  O2-  O422  1  0.52193615  0.34014536  0.86725063  1
  O2-  O423  1  0.97498250  0.33778868  0.86912743  1
  O2-  O424  1  0.97239754  0.33279115  0.13185185  1
  O2-  O425  1  0.47562250  0.66645942  0.87049922  1
  O2-  O426  1  0.45512057  0.66287630  0.13043304  1
  O2-  O427  1  0.01732607  -0.00133575  0.62164492  1
  O2-  O428  1  0.52351501  0.67783947  0.61828449  1
  O2-  O429  1  0.98426071  0.00636721  0.37486766  1
  O2-  O430  1  0.03110900  0.33028926  0.37196751  1
  O2-  O431  1  0.98645792  0.00995395  0.12160485  1
  O2-  O432  1  0.52361293  0.34004178  0.61897975  1
  O2-  O433  1  0.97146222  0.66404628  0.87564133  1
  O2-  O434  1  0.95776260  0.33056160  0.36794398  1
  O2-  O435  1  0.02537901  0.65700497  0.62892856  1
  O2-  O436  1  0.54111386  -0.00473385  0.86326353  1
  O2-  O437  1  0.47224546  0.66111133  0.37022753  1
  O2-  O438  1  0.47115166  0.00063388  0.37456612  1
  O2-  O439  1  0.02381904  -0.01021696  0.86630009  1
  O2-  O440  1  0.04403669  0.66761759  0.37062767  1
  O2-  O441  1  0.53357280  0.65914522  0.12541259  1
  O2-  O442  1  0.47791885  0.34122516  0.38401002  1
  O2-  O443  1  0.95637576  0.66372540  0.37555455  1
