# generated using pymatgen
data_La7(Ru4O11)2
_symmetry_space_group_name_H-M   'P 1'
_cell_length_a   23.99216789
_cell_length_b   16.83235972
_cell_length_c   15.42800616
_cell_angle_alpha   90.00005390
_cell_angle_beta   90.00019117
_cell_angle_gamma   89.99858789
_symmetry_Int_Tables_number   1
_chemical_formula_structural   La7(Ru4O11)2
_chemical_formula_sum   'La84 Ru96 O264'
_cell_volume   6230.52006296
_cell_formula_units_Z   12
loop_
 _symmetry_equiv_pos_site_id
 _symmetry_equiv_pos_as_xyz
  1  'x, y, z'
loop_
 _atom_type_symbol
 _atom_type_oxidation_number
  La3+  3.0
  Ru4+  4.0
  O2-  -2.0
loop_
 _atom_site_type_symbol
 _atom_site_label
 _atom_site_symmetry_multiplicity
 _atom_site_fract_x
 _atom_site_fract_y
 _atom_site_fract_z
 _atom_site_occupancy
  La3+  La0  1  0.13567048  -0.00356853  0.12540781  1
  La3+  La1  1  0.13576782  -0.00153937  0.37542537  1
  La3+  La2  1  0.13720482  -0.00038013  0.62864609  1
  La3+  La3  1  0.14397767  0.00226411  0.87359666  1
  La3+  La4  1  0.13615771  0.33605193  0.12213116  1
  La3+  La5  1  0.13831338  0.33548673  0.37964487  1
  La3+  La6  1  0.14346951  0.33765316  0.62639402  1
  La3+  La7  1  0.14174821  0.33609482  0.87264388  1
  La3+  La8  1  0.14139122  0.66693521  0.12026704  1
  La3+  La9  1  0.13703616  0.66719407  0.37441948  1
  La3+  La10  1  0.13630913  0.66553424  0.62998325  1
  La3+  La11  1  0.13565910  0.66695362  0.87619847  1
  La3+  La12  1  0.63648791  0.00162381  0.12653573  1
  La3+  La13  1  0.64101796  0.00126742  0.37351856  1
  La3+  La14  1  0.64521314  -0.00164871  0.62206612  1
  La3+  La15  1  0.64467894  -0.00795662  0.87725105  1
  La3+  La16  1  0.64025932  0.33340244  0.12619034  1
  La3+  La17  1  0.63687750  0.33310250  0.37102417  1
  La3+  La18  1  0.64063545  0.33771023  0.62668832  1
  La3+  La19  1  0.64065567  0.33905406  0.87695326  1
  La3+  La20  1  0.63862508  0.66364445  0.11795225  1
  La3+  La21  1  0.63844312  0.66598176  0.37310258  1
  La3+  La22  1  0.63968833  0.66066540  0.62782307  1
  La3+  La23  1  0.64178056  0.66306793  0.87750989  1
  La3+  La24  1  0.36402406  -0.00149504  0.12363606  1
  La3+  La25  1  0.36389153  0.00069266  0.37742321  1
  La3+  La26  1  0.36414566  0.00310393  0.63107243  1
  La3+  La27  1  0.35433460  -0.00243267  0.86873635  1
  La3+  La28  1  0.36870735  0.33554466  0.11970464  1
  La3+  La29  1  0.36245819  0.33422796  0.37781491  1
  La3+  La30  1  0.35819883  0.33754044  0.62557132  1
  La3+  La31  1  0.35955971  0.33817221  0.87753497  1
  La3+  La32  1  0.35944855  0.66544017  0.11864444  1
  La3+  La33  1  0.35686789  0.66995086  0.37187336  1
  La3+  La34  1  0.36122608  0.66395593  0.62383525  1
  La3+  La35  1  0.36186990  0.66705855  0.87706106  1
  La3+  La36  1  0.86824323  -0.00649844  0.11773146  1
  La3+  La37  1  0.86697503  -0.00604817  0.38124450  1
  La3+  La38  1  0.87272468  -0.00789094  0.61856624  1
  La3+  La39  1  0.87155139  -0.01147335  0.88341037  1
  La3+  La40  1  0.85462635  0.33378118  0.13033758  1
  La3+  La41  1  0.86065139  0.33402057  0.37168551  1
  La3+  La42  1  0.86133325  0.33556331  0.62930835  1
  La3+  La43  1  0.85819005  0.33383456  0.87323982  1
  La3+  La44  1  0.85961233  0.66296796  0.11954882  1
  La3+  La45  1  0.86142184  0.66378863  0.37696695  1
  La3+  La46  1  0.85913443  0.66391020  0.62491719  1
  La3+  La47  1  0.85605582  0.66370170  0.87999112  1
  La3+  La48  1  0.49664733  0.17868104  0.62003590  1
  La3+  La49  1  0.50005675  0.83224308  0.38327067  1
  La3+  La50  1  0.50170412  0.50334924  0.86639101  1
  La3+  La51  1  0.00098936  0.50222274  0.37727591  1
  La3+  La52  1  0.49605087  0.16140974  0.87593954  1
  La3+  La53  1  -0.00082038  0.16988662  0.11373632  1
  La3+  La54  1  -0.00237358  0.16632556  0.85986636  1
  La3+  La55  1  0.49946195  0.83177379  0.63764383  1
  La3+  La56  1  -0.00376154  0.16874017  0.87705847  1
  La3+  La57  1  0.00325490  0.16143232  0.13311430  1
  La3+  La58  1  -0.00519975  0.16405222  0.36437903  1
  La3+  La59  1  0.50332256  0.83435224  0.13116292  1
  La3+  La60  1  0.00129991  0.50365646  0.61561257  1
  La3+  La61  1  0.49844993  0.50122721  0.11945789  1
  La3+  La62  1  -0.00205248  0.83604067  0.61239675  1
  La3+  La63  1  0.00107388  0.16913702  0.63557721  1
  La3+  La64  1  -0.00538898  0.83693951  0.88822182  1
  La3+  La65  1  -0.00450528  0.83569169  0.37687229  1
  La3+  La66  1  -0.00195524  0.83798686  0.11503118  1
  La3+  La67  1  -0.00419090  0.83329831  0.62885507  1
  La3+  La68  1  -0.00182902  0.16478217  0.61618520  1
  La3+  La69  1  0.00106447  0.49403850  0.63549878  1
  La3+  La70  1  -0.00365006  0.49358295  0.87677627  1
  La3+  La71  1  0.49670137  0.15725538  0.89234471  1
  La3+  La72  1  0.74993931  0.90035774  0.25589595  1
  La3+  La73  1  0.25036312  0.12893314  0.53225724  1
  La3+  La74  1  0.75093114  0.12697045  0.75219990  1
  La3+  La75  1  0.24948840  0.16314934  0.24316975  1
  La3+  La76  1  0.74968201  0.81345105  -0.00334241  1
  La3+  La77  1  0.25032754  0.78654339  0.24995321  1
  La3+  La78  1  0.25001309  0.18344032  0.03401851  1
  La3+  La79  1  0.75003017  0.16360192  -0.00118329  1
  La3+  La80  1  0.75055153  0.13455427  0.47167012  1
  La3+  La81  1  0.24993148  0.49890466  0.33021921  1
  La3+  La82  1  0.74978039  0.49927917  0.24550563  1
  La3+  La83  1  0.25071696  0.83294497  0.71391559  1
  Ru4+  Ru84  1  -0.00087423  -0.00424876  -0.00249587  1
  Ru4+  Ru85  1  -0.00549175  0.00109299  0.25438234  1
  Ru4+  Ru86  1  -0.00059502  -0.00592679  0.49783678  1
  Ru4+  Ru87  1  0.01005327  0.00326632  0.75630357  1
  Ru4+  Ru88  1  -0.00609328  0.34519198  0.00592083  1
  Ru4+  Ru89  1  0.00042599  0.34159906  0.25230411  1
  Ru4+  Ru90  1  -0.00253940  0.33392421  0.49295823  1
  Ru4+  Ru91  1  0.00470561  0.33869888  0.75806626  1
  Ru4+  Ru92  1  -0.00229813  0.66387401  0.00649430  1
  Ru4+  Ru93  1  0.00036013  0.66420846  0.24762572  1
  Ru4+  Ru94  1  0.00101901  0.66750416  0.49477811  1
  Ru4+  Ru95  1  -0.00869748  0.66464778  0.75180157  1
  Ru4+  Ru96  1  0.50182530  -0.00186332  0.01166448  1
  Ru4+  Ru97  1  0.49913304  -0.00399283  0.24975699  1
  Ru4+  Ru98  1  0.50157826  -0.00449531  0.49365885  1
  Ru4+  Ru99  1  0.49930133  0.00231872  0.73713470  1
  Ru4+  Ru100  1  0.50261368  0.32821441  0.00758250  1
  Ru4+  Ru101  1  0.50207075  0.32787020  0.24541106  1
  Ru4+  Ru102  1  0.50168747  0.32876620  0.50645391  1
  Ru4+  Ru103  1  0.49873522  0.33684675  0.74644464  1
  Ru4+  Ru104  1  0.50141284  0.67001841  -0.00217204  1
  Ru4+  Ru105  1  0.50009827  0.66368653  0.25163674  1
  Ru4+  Ru106  1  0.49857404  0.66359256  0.49424797  1
  Ru4+  Ru107  1  0.49920651  0.67320897  0.75711669  1
  Ru4+  Ru108  1  0.11064011  0.17168692  -0.00048585  1
  Ru4+  Ru109  1  0.10960653  0.17141757  0.25140952  1
  Ru4+  Ru110  1  0.11080184  0.16601236  0.50010822  1
  Ru4+  Ru111  1  0.11187849  0.16436564  0.75087044  1
  Ru4+  Ru112  1  0.11650832  0.50075455  0.00481358  1
  Ru4+  Ru113  1  0.10749241  0.50254598  0.24881864  1
  Ru4+  Ru114  1  0.11415268  0.49848234  0.49823004  1
  Ru4+  Ru115  1  0.11815262  0.49294918  0.75239895  1
  Ru4+  Ru116  1  0.11499893  0.82768077  -0.00087202  1
  Ru4+  Ru117  1  0.11321222  0.82516254  0.24936775  1
  Ru4+  Ru118  1  0.11396990  0.83575543  0.50022548  1
  Ru4+  Ru119  1  0.11723642  0.83614054  0.75177018  1
  Ru4+  Ru120  1  0.60843882  0.16790076  0.00178891  1
  Ru4+  Ru121  1  0.61117092  0.17011249  0.24833331  1
  Ru4+  Ru122  1  0.61057852  0.16943299  0.49775385  1
  Ru4+  Ru123  1  0.61002754  0.16497200  0.74986784  1
  Ru4+  Ru124  1  0.61692983  0.49906949  -0.00314016  1
  Ru4+  Ru125  1  0.60921402  0.49884973  0.25197004  1
  Ru4+  Ru126  1  0.61958167  0.50249092  0.49692078  1
  Ru4+  Ru127  1  0.61624429  0.49838370  0.74909569  1
  Ru4+  Ru128  1  0.60996453  0.83311590  0.00000471  1
  Ru4+  Ru129  1  0.60858621  0.83343886  0.24970061  1
  Ru4+  Ru130  1  0.61135865  0.83515560  0.50088065  1
  Ru4+  Ru131  1  0.61311306  0.83355679  0.75025660  1
  Ru4+  Ru132  1  0.39108232  0.16759942  0.00117320  1
  Ru4+  Ru133  1  0.39254582  0.16866829  0.24892324  1
  Ru4+  Ru134  1  0.39039290  0.16596929  0.49917629  1
  Ru4+  Ru135  1  0.38659715  0.16145255  0.74888726  1
  Ru4+  Ru136  1  0.38254727  0.50482439  0.00044267  1
  Ru4+  Ru137  1  0.39208882  0.50074001  0.25128572  1
  Ru4+  Ru138  1  0.38535594  0.49879559  0.49874946  1
  Ru4+  Ru139  1  0.38684837  0.49597081  0.75040472  1
  Ru4+  Ru140  1  0.38593403  0.83041356  -0.00108405  1
  Ru4+  Ru141  1  0.39187887  0.83665213  0.24936958  1
  Ru4+  Ru142  1  0.38834834  0.83727228  0.50023353  1
  Ru4+  Ru143  1  0.39089180  0.83256517  0.75177610  1
  Ru4+  Ru144  1  0.88948774  0.16917533  -0.00138591  1
  Ru4+  Ru145  1  0.88275098  0.16550415  0.25051290  1
  Ru4+  Ru146  1  0.89012395  0.16657970  0.49722667  1
  Ru4+  Ru147  1  0.87903428  0.16372136  0.75133437  1
  Ru4+  Ru148  1  0.89143392  0.49448913  0.00319919  1
  Ru4+  Ru149  1  0.89077178  0.49678644  0.24956591  1
  Ru4+  Ru150  1  0.88574354  0.50153273  0.49897126  1
  Ru4+  Ru151  1  0.88153376  0.49904004  0.75266862  1
  Ru4+  Ru152  1  0.88678654  0.83224717  -0.00199428  1
  Ru4+  Ru153  1  0.88922334  0.83056244  0.25116782  1
  Ru4+  Ru154  1  0.88880305  0.83249429  0.50139358  1
  Ru4+  Ru155  1  0.88123770  0.82701919  0.74880508  1
  Ru4+  Ru156  1  0.24983743  0.90636551  0.01053855  1
  Ru4+  Ru157  1  0.75046001  0.42003925  0.51253561  1
  Ru4+  Ru158  1  0.25062028  0.03786969  0.26094124  1
  Ru4+  Ru159  1  0.74937878  0.74044358  0.51706286  1
  Ru4+  Ru160  1  0.24998385  0.28986022  0.26377055  1
  Ru4+  Ru161  1  0.24997264  0.57458829  0.74446478  1
  Ru4+  Ru162  1  0.24934313  0.57613085  0.50302245  1
  Ru4+  Ru163  1  0.74951848  0.91987810  0.51332620  1
  Ru4+  Ru164  1  0.74923150  0.02691141  -0.00181379  1
  Ru4+  Ru165  1  0.25047593  0.76245506  0.49782756  1
  Ru4+  Ru166  1  0.24995434  0.91430150  0.25373228  1
  Ru4+  Ru167  1  0.74998821  0.27626510  0.50654261  1
  Ru4+  Ru168  1  0.25029491  0.05475232  -0.00643365  1
  Ru4+  Ru169  1  0.74953987  0.72681006  0.26488995  1
  Ru4+  Ru170  1  0.74988703  0.30557683  0.02993867  1
  Ru4+  Ru171  1  0.25007978  0.31230045  -0.01614640  1
  Ru4+  Ru172  1  0.74895725  0.73696885  0.73613262  1
  Ru4+  Ru173  1  0.25032023  0.61204262  0.24352421  1
  Ru4+  Ru174  1  0.24944032  0.24631807  0.76047218  1
  Ru4+  Ru175  1  0.74933763  0.26695893  0.73834243  1
  Ru4+  Ru176  1  0.25043852  0.26449112  0.49050530  1
  Ru4+  Ru177  1  0.25064797  0.90571320  0.49961190  1
  Ru4+  Ru178  1  0.75049960  0.93095953  0.73043617  1
  Ru4+  Ru179  1  0.24990786  0.40861142  0.21223424  1
  O2-  O180  1  0.16591117  0.07763262  0.00257255  1
  O2-  O181  1  0.16431907  0.07561382  0.25140592  1
  O2-  O182  1  0.16428239  0.07762934  0.49873675  1
  O2-  O183  1  0.16490159  0.08140955  0.74596443  1
  O2-  O184  1  0.16766062  0.41505917  0.00041161  1
  O2-  O185  1  0.16368113  0.41373146  0.25132424  1
  O2-  O186  1  0.16788212  0.41573391  0.49706154  1
  O2-  O187  1  0.16928790  0.41555601  0.74992864  1
  O2-  O188  1  0.16621816  0.74824733  -0.00194458  1
  O2-  O189  1  0.16311536  0.74277615  0.25167145  1
  O2-  O190  1  0.16701324  0.74765539  0.49844719  1
  O2-  O191  1  0.16646462  0.74742766  0.74945911  1
  O2-  O192  1  0.66594021  0.07926564  0.00204763  1
  O2-  O193  1  0.66407040  0.08288030  0.24563788  1
  O2-  O194  1  0.66652506  0.08220083  0.49944578  1
  O2-  O195  1  0.66838611  0.08046020  0.75023613  1
  O2-  O196  1  0.66659397  0.41340262  0.00207299  1
  O2-  O197  1  0.66549797  0.41254794  0.25281133  1
  O2-  O198  1  0.66598608  0.41335487  0.49778813  1
  O2-  O199  1  0.66372884  0.41562604  0.75116886  1
  O2-  O200  1  0.66544311  0.74837079  -0.00069396  1
  O2-  O201  1  0.66568971  0.74577160  0.25069316  1
  O2-  O202  1  0.66555201  0.74665507  0.50028206  1
  O2-  O203  1  0.66440695  0.74816535  0.74845960  1
  O2-  O204  1  0.33112189  0.25654863  0.00018103  1
  O2-  O205  1  0.33301310  0.25503197  0.25160767  1
  O2-  O206  1  0.33490763  0.25373002  0.49948083  1
  O2-  O207  1  0.33384027  0.25110189  0.75099780  1
  O2-  O208  1  0.33280283  0.58534571  -0.00318974  1
  O2-  O209  1  0.33431187  0.58792142  0.24954162  1
  O2-  O210  1  0.32950097  0.58392506  0.50072470  1
  O2-  O211  1  0.33529111  0.58624839  0.75077069  1
  O2-  O212  1  0.33142522  0.91882153  0.00370264  1
  O2-  O213  1  0.33552344  0.91937363  0.25154864  1
  O2-  O214  1  0.33185580  0.91814296  0.49863473  1
  O2-  O215  1  0.33299507  0.91707753  0.74353753  1
  O2-  O216  1  0.83276797  0.25319854  -0.00022021  1
  O2-  O217  1  0.83328376  0.25066113  0.25476964  1
  O2-  O218  1  0.83058352  0.25499096  0.49816607  1
  O2-  O219  1  0.83181267  0.25359558  0.74835479  1
  O2-  O220  1  0.83563284  0.58111773  -0.00159402  1
  O2-  O221  1  0.83531967  0.58621986  0.25330722  1
  O2-  O222  1  0.83343852  0.58692429  0.49686313  1
  O2-  O223  1  0.83470930  0.58590574  0.74991881  1
  O2-  O224  1  0.82937677  0.91919629  0.00015368  1
  O2-  O225  1  0.84073534  0.92377060  0.24828783  1
  O2-  O226  1  0.83304426  0.91909946  0.49953543  1
  O2-  O227  1  0.83311510  0.92071102  0.74954621  1
  O2-  O228  1  0.16706298  0.25546349  0.00204373  1
  O2-  O229  1  0.16482879  0.25546165  0.25084756  1
  O2-  O230  1  0.16888021  0.25320804  0.49735845  1
  O2-  O231  1  0.16807180  0.25134030  0.74994989  1
  O2-  O232  1  0.16611074  0.58500562  -0.00472424  1
  O2-  O233  1  0.16771735  0.58870567  0.25212412  1
  O2-  O234  1  0.16673740  0.58676139  0.49803447  1
  O2-  O235  1  0.16543172  0.58718006  0.75020013  1
  O2-  O236  1  0.16546445  0.91954765  0.00166410  1
  O2-  O237  1  0.16538307  0.91992856  0.25188957  1
  O2-  O238  1  0.17054071  0.91916138  0.49823890  1
  O2-  O239  1  0.17178146  0.91713836  0.74376635  1
  O2-  O240  1  0.66867343  0.25451620  0.00017354  1
  O2-  O241  1  0.66522848  0.25122319  0.25293591  1
  O2-  O242  1  0.66612275  0.25290393  0.49767208  1
  O2-  O243  1  0.66835985  0.25186016  0.75212898  1
  O2-  O244  1  0.66754370  0.58421029  -0.00088621  1
  O2-  O245  1  0.66547916  0.58581842  0.25167612  1
  O2-  O246  1  0.66858166  0.58510232  0.50100067  1
  O2-  O247  1  0.66524905  0.58472952  0.74965720  1
  O2-  O248  1  0.66822821  0.91970794  0.00457304  1
  O2-  O249  1  0.65799294  0.92306345  0.24506769  1
  O2-  O250  1  0.66724077  0.91830881  0.49756608  1
  O2-  O251  1  0.67070678  0.91990618  0.74926030  1
  O2-  O252  1  0.33546434  0.07836537  0.00192283  1
  O2-  O253  1  0.33793469  0.07844921  0.25086598  1
  O2-  O254  1  0.33518283  0.07657317  0.49900113  1
  O2-  O255  1  0.32981174  0.08298771  0.74359743  1
  O2-  O256  1  0.33399620  0.41334286  -0.00177563  1
  O2-  O257  1  0.33576881  0.41405480  0.25019514  1
  O2-  O258  1  0.33443908  0.41384154  0.49866387  1
  O2-  O259  1  0.33583603  0.41518738  0.75062258  1
  O2-  O260  1  0.33703961  0.74937635  -0.00097979  1
  O2-  O261  1  0.33822841  0.74488163  0.24807017  1
  O2-  O262  1  0.33203520  0.74819247  0.50062505  1
  O2-  O263  1  0.33448605  0.74784473  0.74866938  1
  O2-  O264  1  0.83094356  0.07532691  -0.00126309  1
  O2-  O265  1  0.83359874  0.08148364  0.24887038  1
  O2-  O266  1  0.83818527  0.07783645  0.50081208  1
  O2-  O267  1  0.83513182  0.07309601  0.74940659  1
  O2-  O268  1  0.83182272  0.41800107  0.00171048  1
  O2-  O269  1  0.83175983  0.41538916  0.25335014  1
  O2-  O270  1  0.83396520  0.41347963  0.49860148  1
  O2-  O271  1  0.83173395  0.41601697  0.74988378  1
  O2-  O272  1  0.83501549  0.74871274  0.00079723  1
  O2-  O273  1  0.83417539  0.74559593  0.25229139  1
  O2-  O274  1  0.83288871  0.74648136  0.49871345  1
  O2-  O275  1  0.83051252  0.74610252  0.74981976  1
  O2-  O276  1  0.97691882  0.46759716  0.02069770  1
  O2-  O277  1  0.95668400  0.23738925  0.75851108  1
  O2-  O278  1  0.95368804  0.89120036  0.00476568  1
  O2-  O279  1  0.45553053  0.76513371  0.23917773  1
  O2-  O280  1  0.94681152  0.90906844  0.52154192  1
  O2-  O281  1  0.95139718  0.89997530  0.26190768  1
  O2-  O282  1  0.44276136  0.07826648  0.69351122  1
  O2-  O283  1  0.94770453  0.90708615  0.72867741  1
  O2-  O284  1  0.54433882  0.42773601  0.26301871  1
  O2-  O285  1  0.45555255  0.55381956  0.53942637  1
  O2-  O286  1  0.04763234  0.76602797  0.50862738  1
  O2-  O287  1  0.04955120  0.09399441  0.26287978  1
  O2-  O288  1  0.94955718  0.57002844  0.73624792  1
  O2-  O289  1  0.53131140  0.11441989  0.75349227  1
  O2-  O290  1  0.45656739  0.76603516  0.51396385  1
  O2-  O291  1  0.94893373  0.09592189  0.25862139  1
  O2-  O292  1  0.94733794  0.89854990  0.76684109  1
  O2-  O293  1  0.45707276  0.43404445  0.74247416  1
  O2-  O294  1  0.45427356  0.90507907  0.75796632  1
  O2-  O295  1  0.45450044  0.56797118  0.26189102  1
  O2-  O296  1  0.05166017  0.90138176  0.98966294  1
  O2-  O297  1  0.46039615  0.88136330  0.99470656  1
  O2-  O298  1  0.54020639  0.09979203  0.52598307  1
  O2-  O299  1  0.04934463  0.56851215  0.77210636  1
  O2-  O300  1  0.03910127  0.89037115  0.75275250  1
  O2-  O301  1  0.55274653  0.90144004  0.99145667  1
  O2-  O302  1  0.03684118  0.21955778  0.46292606  1
  O2-  O303  1  0.05050900  0.89817060  0.23088078  1
  O2-  O304  1  0.04203158  0.75900243  0.76885546  1
  O2-  O305  1  0.54488307  0.54800503  0.49335463  1
  O2-  O306  1  0.54893622  0.56718808  0.73301642  1
  O2-  O307  1  0.95570957  0.89631273  0.50126104  1
  O2-  O308  1  0.55367210  0.57766684  0.02109329  1
  O2-  O309  1  0.04745583  0.90853881  0.26839662  1
  O2-  O310  1  0.04799070  0.76243419  0.73089620  1
  O2-  O311  1  0.94983238  0.90204105  0.97968538  1
  O2-  O312  1  0.04475172  0.10335107  0.98711026  1
  O2-  O313  1  0.53362214  0.24684346  0.79612883  1
  O2-  O314  1  0.54604868  0.23949810  0.47898138  1
  O2-  O315  1  0.53093202  0.12265461  0.74427902  1
  O2-  O316  1  0.95250146  0.09571770  0.73777974  1
  O2-  O317  1  0.45008029  0.43491056  0.00840087  1
  O2-  O318  1  0.04310699  0.56535487  0.97067026  1
  O2-  O319  1  0.95367078  0.23792689  0.23716594  1
  O2-  O320  1  0.45946785  0.54673516  0.50211462  1
  O2-  O321  1  0.05090346  0.57113911  0.73312975  1
  O2-  O322  1  0.45453707  0.76017549  0.75911575  1
  O2-  O323  1  0.54812248  0.23618593  0.23752549  1
  O2-  O324  1  0.06792834  0.41166881  0.95267724  1
  O2-  O325  1  0.06034389  0.73726275  0.96398377  1
  O2-  O326  1  0.56464197  0.74311443  0.02962665  1
  O2-  O327  1  0.93698709  0.26845513  0.42525438  1
  O2-  O328  1  0.42098167  0.94118742  0.97354886  1
  O2-  O329  1  0.06761662  0.92725554  0.52726445  1
  O2-  O330  1  0.93408872  0.41145329  0.72606713  1
  O2-  O331  1  0.56198896  0.25956267  0.03039790  1
  O2-  O332  1  0.06508356  0.41073873  0.77845196  1
  O2-  O333  1  0.92952449  0.24632831  0.56144065  1
  O2-  O334  1  0.56086015  0.92939751  0.56568507  1
  O2-  O335  1  0.56480033  0.92131819  0.70162388  1
  O2-  O336  1  0.55940584  0.59814858  0.72084881  1
  O2-  O337  1  0.06761167  0.40816249  0.04648309  1
  O2-  O338  1  0.06194335  0.41011804  0.52163812  1
  O2-  O339  1  0.92819244  0.37226407  0.06852834  1
  O2-  O340  1  0.08312568  0.95017990  0.77816772  1
  O2-  O341  1  0.55997296  0.40485997  0.96262677  1
  O2-  O342  1  0.08034841  0.26407845  0.55555041  1
  O2-  O343  1  0.56351058  0.92044970  0.79597889  1
  O2-  O344  1  0.93376785  0.59496142  0.02809584  1
  O2-  O345  1  0.57187333  0.06700679  0.45702819  1
  O2-  O346  1  0.57432286  0.05238013  0.66239432  1
  O2-  O347  1  0.43952197  0.08626174  0.69141384  1
  O2-  O348  1  0.57577604  0.61402799  0.46963624  1
  O2-  O349  1  0.93643847  0.73869392  0.71500506  1
  O2-  O350  1  0.93593440  0.07943211  0.02745952  1
  O2-  O351  1  0.42036280  0.08311820  0.83230690  1
  O2-  O352  1  0.93852965  0.73790949  0.96441977  1
  O2-  O353  1  0.93676031  0.40524244  0.22533150  1
  O2-  O354  1  0.93546364  0.73874730  0.53410961  1
  O2-  O355  1  0.43700716  0.25822364  0.02461750  1
  O2-  O356  1  0.43875249  0.40503103  0.02156337  1
  O2-  O357  1  0.92935713  0.92855082  0.02817685  1
  O2-  O358  1  0.06775908  0.60404392  0.05152594  1
  O2-  O359  1  0.56686308  0.91570377  0.43503418  1
  O2-  O360  1  0.06404544  0.59533796  0.22072416  1
  O2-  O361  1  0.42285127  0.63708322  0.44077075  1
  O2-  O362  1  0.91977257  0.41343047  0.92831524  1
  O2-  O363  1  0.93025600  0.93019935  0.46903718  1
  O2-  O364  1  0.94008674  0.07413711  0.71337778  1
  O2-  O365  1  0.93567102  0.24515034  0.77871503  1
  O2-  O366  1  0.58095407  0.26736596  0.69563741  1
  O2-  O367  1  0.93819996  0.59363637  0.53145361  1
  O2-  O368  1  0.43413426  0.25977452  0.22871345  1
  O2-  O369  1  0.58889421  0.06922012  0.83033563  1
  O2-  O370  1  0.55368952  0.57483806  0.02203030  1
  O2-  O371  1  0.43525386  0.59600410  0.03651223  1
  O2-  O372  1  0.24994149  0.34313888  0.39473585  1
  O2-  O373  1  0.25037513  0.66224471  0.06786366  1
  O2-  O374  1  0.25059379  0.32976742  0.84870373  1
  O2-  O375  1  0.24967547  0.67560096  0.35730366  1
  O2-  O376  1  0.75200627  0.00168764  0.60482800  1
  O2-  O377  1  0.25033803  0.67141430  0.69008388  1
  O2-  O378  1  0.25015867  0.34141362  0.58452939  1
  O2-  O379  1  0.74975476  0.34365359  0.91869713  1
  O2-  O380  1  0.25055326  -0.00537704  0.10838480  1
  O2-  O381  1  0.75044831  0.67263074  0.91849216  1
  O2-  O382  1  0.75031581  0.65410854  0.16953927  1
  O2-  O383  1  0.74856239  0.32982040  0.14742897  1
  O2-  O384  1  0.75042708  0.67152023  0.07995048  1
  O2-  O385  1  0.74990963  0.66404655  0.82823173  1
  O2-  O386  1  0.74940838  0.34403007  0.82495699  1
  O2-  O387  1  0.75059364  0.00179492  0.42389103  1
  O2-  O388  1  0.24954367  -0.02088846  0.90464955  1
  O2-  O389  1  0.24979891  0.68991731  0.15193230  1
  O2-  O390  1  0.24986814  0.00064418  0.81634419  1
  O2-  O391  1  0.75001861  0.33950579  0.64344083  1
  O2-  O392  1  0.74938372  0.66597521  0.64340382  1
  O2-  O393  1  0.74961491  0.00767383  0.33175825  1
  O2-  O394  1  0.25036646  0.33125542  0.67568406  1
  O2-  O395  1  0.24983430  0.66857358  0.56360696  1
  O2-  O396  1  0.75010435  0.83236726  0.59440886  1
  O2-  O397  1  0.25016808  0.83398457  0.84700899  1
  O2-  O398  1  0.75000941  0.49297654  0.59121920  1
  O2-  O399  1  0.74993572  0.83529945  0.78660812  1
  O2-  O400  1  0.24984996  0.50302903  0.91561089  1
  O2-  O401  1  0.74996104  0.17488526  0.61389430  1
  O2-  O402  1  0.25014184  0.50686939  0.65726934  1
  O2-  O403  1  0.24987865  0.50695235  0.15542244  1
  O2-  O404  1  0.74988950  0.84047011  0.87206390  1
  O2-  O405  1  0.75013346  0.86484013  0.11479837  1
  O2-  O406  1  0.24999375  0.83466588  0.09788894  1
  O2-  O407  1  0.74999357  0.50120731  0.12302297  1
  O2-  O408  1  0.24975223  0.49636233  0.83336591  1
  O2-  O409  1  0.74970976  0.80519875  0.35432766  1
  O2-  O410  1  0.75019722  0.79282377  0.17010930  1
  O2-  O411  1  0.74991096  0.49529712  0.36927072  1
  O2-  O412  1  0.25009641  0.17089684  0.39411652  1
  O2-  O413  1  0.24991679  0.49838912  0.06899642  1
  O2-  O414  1  0.25007937  0.82049589  0.93309670  1
  O2-  O415  1  0.75006249  0.50120244  0.84094037  1
  O2-  O416  1  0.24983247  0.16800644  0.88725460  1
  O2-  O417  1  0.75030906  0.83074598  0.44181527  1
  O2-  O418  1  0.74972302  0.49993302  0.04173383  1
  O2-  O419  1  0.74984861  0.51451099  0.45155076  1
  O2-  O420  1  0.02669182  0.66497570  0.37396404  1
  O2-  O421  1  0.95643673  0.00619370  0.87076575  1
  O2-  O422  1  0.97501495  0.67658182  0.13393838  1
  O2-  O423  1  0.47516350  -0.00276423  0.87464454  1
  O2-  O424  1  0.04518867  0.00290567  0.11760992  1
  O2-  O425  1  0.02777465  0.00704766  0.63022573  1
  O2-  O426  1  0.45532085  0.32827113  0.61986035  1
  O2-  O427  1  0.03947310  0.33758761  0.64535573  1
  O2-  O428  1  0.51853873  0.00047447  0.36006891  1
  O2-  O429  1  0.48047020  0.34346850  0.13114996  1
  O2-  O430  1  0.52157577  0.66962349  0.13548459  1
  O2-  O431  1  0.53695716  0.34762785  0.61182554  1
  O2-  O432  1  0.52486696  0.67677052  0.36636411  1
  O2-  O433  1  0.97619210  0.00898135  0.37675307  1
  O2-  O434  1  0.96626610  0.33073441  0.87759379  1
  O2-  O435  1  0.04022054  0.01199055  0.88152451  1
  O2-  O436  1  0.45625947  0.65950362  0.88062358  1
  O2-  O437  1  0.95988620  0.00287888  0.14245003  1
  O2-  O438  1  0.02659629  0.32164302  0.13232287  1
  O2-  O439  1  0.02710450  0.66439872  0.62123045  1
  O2-  O440  1  0.53049569  -0.00001883  0.90005804  1
  O2-  O441  1  0.96546529  0.34038085  0.62432497  1
  O2-  O442  1  0.54331538  0.66802988  0.87264754  1
  O2-  O443  1  0.04244017  0.30860231  0.87188162  1
