# generated using pymatgen
data_La7(Ru4O11)2
_symmetry_space_group_name_H-M   'P 1'
_cell_length_a   23.99616531
_cell_length_b   16.83667070
_cell_length_c   15.43192927
_cell_angle_alpha   89.99721702
_cell_angle_beta   89.99993134
_cell_angle_gamma   89.99811310
_symmetry_Int_Tables_number   1
_chemical_formula_structural   La7(Ru4O11)2
_chemical_formula_sum   'La84 Ru96 O264'
_cell_volume   6234.73912382
_cell_formula_units_Z   12
loop_
 _symmetry_equiv_pos_site_id
 _symmetry_equiv_pos_as_xyz
  1  'x, y, z'
loop_
 _atom_type_symbol
 _atom_type_oxidation_number
  La3+  3.0
  Ru4+  4.0
  O2-  -2.0
loop_
 _atom_site_type_symbol
 _atom_site_label
 _atom_site_symmetry_multiplicity
 _atom_site_fract_x
 _atom_site_fract_y
 _atom_site_fract_z
 _atom_site_occupancy
  La3+  La0  1  0.14152357  -0.00579639  0.12096706  1
  La3+  La1  1  0.13308972  0.00175655  0.38017665  1
  La3+  La2  1  0.13688464  0.00163948  0.62092324  1
  La3+  La3  1  0.13926712  -0.00412249  0.88027186  1
  La3+  La4  1  0.13856397  0.33318989  0.12768223  1
  La3+  La5  1  0.13336675  0.33337935  0.37749107  1
  La3+  La6  1  0.13206875  0.33974715  0.62872432  1
  La3+  La7  1  0.13462695  0.34220717  0.87342357  1
  La3+  La8  1  0.14792577  0.67025952  0.11662328  1
  La3+  La9  1  0.14742100  0.66409197  0.37378028  1
  La3+  La10  1  0.14549377  0.66770637  0.62655140  1
  La3+  La11  1  0.14954613  0.67166642  0.87673966  1
  La3+  La12  1  0.64733902  -0.00594223  0.11769135  1
  La3+  La13  1  0.65352603  0.00416013  0.37628664  1
  La3+  La14  1  0.65314780  0.00376323  0.62568035  1
  La3+  La15  1  0.63347385  -0.00633375  0.87931801  1
  La3+  La16  1  0.63814134  0.33468013  0.12468117  1
  La3+  La17  1  0.63663098  0.32931777  0.37285492  1
  La3+  La18  1  0.63685483  0.33262671  0.62515310  1
  La3+  La19  1  0.64917099  0.33213795  0.88335050  1
  La3+  La20  1  0.64172395  0.66200845  0.12537175  1
  La3+  La21  1  0.64416746  0.67302889  0.38125321  1
  La3+  La22  1  0.63959551  0.67039894  0.62153079  1
  La3+  La23  1  0.63634731  0.67058111  0.87622475  1
  La3+  La24  1  0.36194726  -0.00483992  0.12195778  1
  La3+  La25  1  0.36263217  -0.00247306  0.37598952  1
  La3+  La26  1  0.35631408  0.00225930  0.63253355  1
  La3+  La27  1  0.35465091  -0.00479343  0.88606628  1
  La3+  La28  1  0.36454631  0.33099122  0.12322688  1
  La3+  La29  1  0.36510284  0.32442150  0.37622828  1
  La3+  La30  1  0.35598598  0.33592137  0.62655063  1
  La3+  La31  1  0.36286068  0.33940546  0.87466267  1
  La3+  La32  1  0.36299605  0.66918710  0.11226814  1
  La3+  La33  1  0.36776431  0.66380018  0.36747621  1
  La3+  La34  1  0.36142280  0.67179650  0.63218235  1
  La3+  La35  1  0.35600645  0.67035682  0.88390715  1
  La3+  La36  1  0.86217911  0.00130852  0.11408146  1
  La3+  La37  1  0.86517967  -0.00506346  0.38291266  1
  La3+  La38  1  0.86015375  -0.01140690  0.62558792  1
  La3+  La39  1  0.86845043  0.00181278  0.88417249  1
  La3+  La40  1  0.86561170  0.32979397  0.12555699  1
  La3+  La41  1  0.87064730  0.32737182  0.37099097  1
  La3+  La42  1  0.86777815  0.32845379  0.62412973  1
  La3+  La43  1  0.85036773  0.33589622  0.88372786  1
  La3+  La44  1  0.86004206  0.66288889  0.12691023  1
  La3+  La45  1  0.85789028  0.67380423  0.37392535  1
  La3+  La46  1  0.86163472  0.67395715  0.62359631  1
  La3+  La47  1  0.85987010  0.66602183  0.87852816  1
  La3+  La48  1  0.00069101  0.18071975  0.37013738  1
  La3+  La49  1  0.00400576  0.15713681  0.60567886  1
  La3+  La50  1  0.49740648  0.82343414  0.63447172  1
  La3+  La51  1  -0.00870586  0.83151857  0.87247599  1
  La3+  La52  1  -0.00191776  0.49300828  0.37151785  1
  La3+  La53  1  0.49512670  0.16677199  0.11222678  1
  La3+  La54  1  -0.00458222  0.50606041  0.11435953  1
  La3+  La55  1  0.49820371  0.50519445  0.63936534  1
  La3+  La56  1  -0.00360768  0.16621516  0.86409238  1
  La3+  La57  1  0.49437813  0.50861325  0.38647592  1
  La3+  La58  1  0.49957098  0.17081518  0.87411429  1
  La3+  La59  1  0.00018419  0.49907453  0.87285158  1
  La3+  La60  1  0.00312908  0.50388437  0.38878370  1
  La3+  La61  1  0.49967445  0.50094237  0.10972282  1
  La3+  La62  1  0.49465440  0.83390407  0.12555695  1
  La3+  La63  1  0.49641655  0.49854321  0.36714938  1
  La3+  La64  1  0.49980638  0.83331838  0.10464506  1
  La3+  La65  1  0.50027148  0.16483456  0.61311714  1
  La3+  La66  1  -0.00050409  0.49641869  0.62962097  1
  La3+  La67  1  -0.00229451  0.17451352  0.11050052  1
  La3+  La68  1  -0.00095825  0.16552431  0.13014576  1
  La3+  La69  1  0.50156692  0.82814450  0.36934208  1
  La3+  La70  1  0.49322985  0.50017606  0.12987607  1
  La3+  La71  1  0.00098244  0.83000755  0.88931427  1
  La3+  La72  1  0.74945109  0.77815517  0.21117611  1
  La3+  La73  1  0.75130167  0.08636974  0.76727125  1
  La3+  La74  1  0.25104774  0.78817893  0.48110627  1
  La3+  La75  1  0.75148123  0.53235044  0.78548066  1
  La3+  La76  1  0.75232470  0.42545189  0.49126282  1
  La3+  La77  1  0.74977988  0.51842755  0.02310344  1
  La3+  La78  1  0.24819534  0.87992709  0.27240948  1
  La3+  La79  1  0.25254404  0.12141544  0.48896908  1
  La3+  La80  1  0.74746689  0.19269815  0.26189597  1
  La3+  La81  1  0.75381911  0.51068577  0.27261577  1
  La3+  La82  1  0.25095589  0.46483337  0.45489084  1
  La3+  La83  1  0.25143359  0.19046419  0.80380328  1
  Ru4+  Ru84  1  0.00677026  -0.00790127  -0.00576421  1
  Ru4+  Ru85  1  -0.00133182  -0.00860738  0.25813602  1
  Ru4+  Ru86  1  0.00647735  -0.02084031  0.50898454  1
  Ru4+  Ru87  1  -0.00325538  -0.00167358  0.74648306  1
  Ru4+  Ru88  1  -0.00076962  0.33495358  -0.00357484  1
  Ru4+  Ru89  1  0.00145374  0.34359552  0.24573192  1
  Ru4+  Ru90  1  0.00097766  0.33104927  0.50191088  1
  Ru4+  Ru91  1  -0.00225850  0.32446003  0.74331500  1
  Ru4+  Ru92  1  0.00183319  0.66481966  -0.00960924  1
  Ru4+  Ru93  1  0.00263981  0.68071698  0.23770401  1
  Ru4+  Ru94  1  0.01343777  0.69354253  0.51621907  1
  Ru4+  Ru95  1  -0.00085911  0.67009345  0.74954523  1
  Ru4+  Ru96  1  0.50414244  0.00868151  -0.00380563  1
  Ru4+  Ru97  1  0.49928046  0.00208943  0.25605709  1
  Ru4+  Ru98  1  0.50607089  -0.01273620  0.50368349  1
  Ru4+  Ru99  1  0.48931304  -0.00537455  0.75241239  1
  Ru4+  Ru100  1  0.49792160  0.33121386  -0.00154806  1
  Ru4+  Ru101  1  0.49877045  0.32809645  0.25482034  1
  Ru4+  Ru102  1  0.50453329  0.33747898  0.52281035  1
  Ru4+  Ru103  1  0.49711849  0.33551223  0.74438723  1
  Ru4+  Ru104  1  0.50871561  0.66677580  -0.01047958  1
  Ru4+  Ru105  1  0.50202232  0.67072690  0.25449537  1
  Ru4+  Ru106  1  0.50306124  0.67219808  0.50725032  1
  Ru4+  Ru107  1  0.50180122  0.67169069  0.75200766  1
  Ru4+  Ru108  1  0.11294861  0.16609866  -0.00762553  1
  Ru4+  Ru109  1  0.11699371  0.16749785  0.25163748  1
  Ru4+  Ru110  1  0.11515414  0.17503206  0.50104552  1
  Ru4+  Ru111  1  0.11191740  0.16771361  0.75254538  1
  Ru4+  Ru112  1  0.11448720  0.50223043  0.00253374  1
  Ru4+  Ru113  1  0.11303404  0.50405056  0.24407757  1
  Ru4+  Ru114  1  0.11622860  0.50744351  0.50058795  1
  Ru4+  Ru115  1  0.11639432  0.50281693  0.75162748  1
  Ru4+  Ru116  1  0.11448875  0.83153220  0.00207616  1
  Ru4+  Ru117  1  0.10812276  0.83446524  0.24963245  1
  Ru4+  Ru118  1  0.09395850  0.83501380  0.50477274  1
  Ru4+  Ru119  1  0.11562111  0.83022639  0.74660733  1
  Ru4+  Ru120  1  0.61443496  0.15958928  -0.00409864  1
  Ru4+  Ru121  1  0.60387163  0.15058503  0.25326193  1
  Ru4+  Ru122  1  0.60967225  0.16306921  0.49892916  1
  Ru4+  Ru123  1  0.60632804  0.16835837  0.74912867  1
  Ru4+  Ru124  1  0.61198626  0.49754832  -0.00440395  1
  Ru4+  Ru125  1  0.61653957  0.49468724  0.24703621  1
  Ru4+  Ru126  1  0.61021382  0.49906384  0.50463098  1
  Ru4+  Ru127  1  0.61143751  0.50329629  0.75101842  1
  Ru4+  Ru128  1  0.61451257  0.83334330  -0.00653675  1
  Ru4+  Ru129  1  0.61277937  0.83619721  0.25403193  1
  Ru4+  Ru130  1  0.61182163  0.84978987  0.50000484  1
  Ru4+  Ru131  1  0.61605024  0.83110101  0.75256961  1
  Ru4+  Ru132  1  0.38846419  0.16543742  0.00028436  1
  Ru4+  Ru133  1  0.38318133  0.17161934  0.25692151  1
  Ru4+  Ru134  1  0.39413965  0.17273100  0.49517451  1
  Ru4+  Ru135  1  0.39085648  0.16670699  0.74999476  1
  Ru4+  Ru136  1  0.38253283  0.49688059  -0.00476306  1
  Ru4+  Ru137  1  0.37798245  0.48866598  0.25294313  1
  Ru4+  Ru138  1  0.38887387  0.49399917  0.50262032  1
  Ru4+  Ru139  1  0.38666499  0.49730527  0.75109782  1
  Ru4+  Ru140  1  0.38340958  0.83624167  -0.00293452  1
  Ru4+  Ru141  1  0.38697988  0.83612445  0.25430793  1
  Ru4+  Ru142  1  0.39233526  0.83936670  0.50699311  1
  Ru4+  Ru143  1  0.39401647  0.83865121  0.75942610  1
  Ru4+  Ru144  1  0.88170184  0.17175310  -0.00032485  1
  Ru4+  Ru145  1  0.88520379  0.16103740  0.25123893  1
  Ru4+  Ru146  1  0.88537239  0.15392262  0.49942887  1
  Ru4+  Ru147  1  0.89248768  0.17101211  0.75291500  1
  Ru4+  Ru148  1  0.88736801  0.50056728  0.00172191  1
  Ru4+  Ru149  1  0.89564078  0.49807222  0.24581125  1
  Ru4+  Ru150  1  0.88793317  0.50948235  0.49995968  1
  Ru4+  Ru151  1  0.88839452  0.49749399  0.74633743  1
  Ru4+  Ru152  1  0.88798379  0.83383976  0.00268245  1
  Ru4+  Ru153  1  0.89503094  0.83479611  0.24840482  1
  Ru4+  Ru154  1  0.88970209  0.83913215  0.49999240  1
  Ru4+  Ru155  1  0.88131351  0.83410202  0.74762349  1
  Ru4+  Ru156  1  0.24901275  0.04838341  0.77322796  1
  Ru4+  Ru157  1  0.25288144  0.59667118  0.53339711  1
  Ru4+  Ru158  1  0.75369238  0.91230109  0.26726527  1
  Ru4+  Ru159  1  0.24950988  0.42511919  -0.00894616  1
  Ru4+  Ru160  1  0.74892878  0.61460294  0.49347107  1
  Ru4+  Ru161  1  0.24807646  0.42325810  0.24787336  1
  Ru4+  Ru162  1  0.74957119  0.07537612  0.48108839  1
  Ru4+  Ru163  1  0.24892757  0.26006310  0.01276336  1
  Ru4+  Ru164  1  0.75043778  0.38492289  0.72307636  1
  Ru4+  Ru165  1  0.25088857  0.55944792  0.24102735  1
  Ru4+  Ru166  1  0.24984703  0.08887426  0.22684989  1
  Ru4+  Ru167  1  0.74816396  0.24932082  0.75423894  1
  Ru4+  Ru168  1  0.75052597  0.25303858  0.47778068  1
  Ru4+  Ru169  1  0.75078818  0.76257069  -0.03169591  1
  Ru4+  Ru170  1  0.75095252  0.33455778  0.23243728  1
  Ru4+  Ru171  1  0.24965968  0.32862870  0.75104784  1
  Ru4+  Ru172  1  0.25136603  0.58922779  0.76158924  1
  Ru4+  Ru173  1  0.25031696  0.74124688  0.23110631  1
  Ru4+  Ru174  1  0.75016509  0.66943946  0.73518151  1
  Ru4+  Ru175  1  0.25007459  0.07589532  0.01233480  1
  Ru4+  Ru176  1  0.75442490  0.04814747  0.24274073  1
  Ru4+  Ru177  1  0.24961780  0.88206838  0.76295451  1
  Ru4+  Ru178  1  0.24921253  0.27617067  0.49969406  1
  Ru4+  Ru179  1  0.24830995  0.92320876  0.51585729  1
  O2-  O180  1  0.16823752  0.07981525  0.00321845  1
  O2-  O181  1  0.16552468  0.07979151  0.24212911  1
  O2-  O182  1  0.15827184  0.07919059  0.49928288  1
  O2-  O183  1  0.16328473  0.07509739  0.75876593  1
  O2-  O184  1  0.16989337  0.41166474  0.00546179  1
  O2-  O185  1  0.16815361  0.41211895  0.25207146  1
  O2-  O186  1  0.16663231  0.41256832  0.49741055  1
  O2-  O187  1  0.16683943  0.41096533  0.75309096  1
  O2-  O188  1  0.16771375  0.75158231  0.00163904  1
  O2-  O189  1  0.16683764  0.74795121  0.24777987  1
  O2-  O190  1  0.16045920  0.75179508  0.49677385  1
  O2-  O191  1  0.17212012  0.75303100  0.75234108  1
  O2-  O192  1  0.67051717  0.07847224  -0.00474240  1
  O2-  O193  1  0.67541172  0.08293238  0.24425633  1
  O2-  O194  1  0.66930806  0.08330005  0.50094842  1
  O2-  O195  1  0.65510796  0.07785301  0.75811144  1
  O2-  O196  1  0.66370326  0.41410001  0.00926839  1
  O2-  O197  1  0.67311151  0.40725321  0.25185699  1
  O2-  O198  1  0.65858844  0.40761839  0.49516866  1
  O2-  O199  1  0.66996414  0.41258912  0.74755754  1
  O2-  O200  1  0.67355399  0.74778855  0.00261840  1
  O2-  O201  1  0.66117398  0.74225548  0.25188872  1
  O2-  O202  1  0.66179881  0.75616777  0.50267748  1
  O2-  O203  1  0.66855180  0.74247139  0.75068698  1
  O2-  O204  1  0.33074278  0.25678117  0.00186282  1
  O2-  O205  1  0.33676327  0.25758081  0.24698867  1
  O2-  O206  1  0.33331839  0.25513601  0.49823211  1
  O2-  O207  1  0.33520244  0.25590257  0.75666214  1
  O2-  O208  1  0.33734001  0.58492873  -0.00005604  1
  O2-  O209  1  0.33115455  0.58174746  0.24750891  1
  O2-  O210  1  0.33532670  0.58650581  0.50268832  1
  O2-  O211  1  0.33492462  0.58640160  0.75302255  1
  O2-  O212  1  0.33048667  0.91545453  0.00127263  1
  O2-  O213  1  0.33556009  0.92416998  0.24663374  1
  O2-  O214  1  0.33176913  0.91709680  0.49938185  1
  O2-  O215  1  0.32850393  0.90844741  0.75256313  1
  O2-  O216  1  0.83082622  0.25096140  0.00766695  1
  O2-  O217  1  0.83211012  0.25298418  0.24929218  1
  O2-  O218  1  0.83709552  0.24894619  0.49194378  1
  O2-  O219  1  0.83167485  0.25299006  0.74528996  1
  O2-  O220  1  0.83325068  0.58810408  0.00481155  1
  O2-  O221  1  0.83874252  0.58714312  0.25132926  1
  O2-  O222  1  0.83214142  0.59175825  0.49604785  1
  O2-  O223  1  0.83597608  0.59190907  0.74956050  1
  O2-  O224  1  0.83534537  0.92005959  -0.00056702  1
  O2-  O225  1  0.83682861  0.91879196  0.24928899  1
  O2-  O226  1  0.83374677  0.91886176  0.49864470  1
  O2-  O227  1  0.83575494  0.92389771  0.75833965  1
  O2-  O228  1  0.16339931  0.25546389  0.00478567  1
  O2-  O229  1  0.16338404  0.25832227  0.24708046  1
  O2-  O230  1  0.16571170  0.26020839  0.49712908  1
  O2-  O231  1  0.17051963  0.25739145  0.75403706  1
  O2-  O232  1  0.16168825  0.58541264  0.00341067  1
  O2-  O233  1  0.16852225  0.58200419  0.24380440  1
  O2-  O234  1  0.17046953  0.58681103  0.50246081  1
  O2-  O235  1  0.16822186  0.58490318  0.75628913  1
  O2-  O236  1  0.16190277  0.92120980  0.00159915  1
  O2-  O237  1  0.15721644  0.92339721  0.24927107  1
  O2-  O238  1  0.16462232  0.91476328  0.50030484  1
  O2-  O239  1  0.16578957  0.91521897  0.75419584  1
  O2-  O240  1  0.65923884  0.25053973  0.00913813  1
  O2-  O241  1  0.65907042  0.24704725  0.24649029  1
  O2-  O242  1  0.66383427  0.25159750  0.49448119  1
  O2-  O243  1  0.66144230  0.25207531  0.75201628  1
  O2-  O244  1  0.66394735  0.58990723  0.00077554  1
  O2-  O245  1  0.66455573  0.58500564  0.25337793  1
  O2-  O246  1  0.66443905  0.58665242  0.49879149  1
  O2-  O247  1  0.66680080  0.59047742  0.74968870  1
  O2-  O248  1  0.66599210  0.91610491  -0.00623439  1
  O2-  O249  1  0.67117487  0.91452743  0.24676411  1
  O2-  O250  1  0.67559675  0.91291273  0.50608963  1
  O2-  O251  1  0.66289218  0.92038176  0.75333936  1
  O2-  O252  1  0.33421044  0.08254653  0.00349669  1
  O2-  O253  1  0.33253801  0.08109711  0.24269835  1
  O2-  O254  1  0.34788098  0.07967554  0.50136574  1
  O2-  O255  1  0.33163637  0.07617283  0.76213994  1
  O2-  O256  1  0.33058278  0.41198475  0.00157719  1
  O2-  O257  1  0.32745392  0.40524706  0.24849883  1
  O2-  O258  1  0.33429037  0.41091630  0.49479838  1
  O2-  O259  1  0.33127670  0.41171891  0.75458209  1
  O2-  O260  1  0.33520524  0.74847087  -0.00148403  1
  O2-  O261  1  0.33295386  0.74527788  0.24695449  1
  O2-  O262  1  0.34257184  0.74428633  0.50094730  1
  O2-  O263  1  0.33927570  0.75257082  0.75156966  1
  O2-  O264  1  0.83521992  0.07827644  -0.00175458  1
  O2-  O265  1  0.83484635  0.07531060  0.25265197  1
  O2-  O266  1  0.82940928  0.07626846  0.49081568  1
  O2-  O267  1  0.84653981  0.07661157  0.75183188  1
  O2-  O268  1  0.83506842  0.41576238  0.01310547  1
  O2-  O269  1  0.83387272  0.40792027  0.25184564  1
  O2-  O270  1  0.84738850  0.40796660  0.49786991  1
  O2-  O271  1  0.83252765  0.41171557  0.74687635  1
  O2-  O272  1  0.83155687  0.75011167  0.00085261  1
  O2-  O273  1  0.83736481  0.74785386  0.24886505  1
  O2-  O274  1  0.84134356  0.75088842  0.49971149  1
  O2-  O275  1  0.82964699  0.74285241  0.75256048  1
  O2-  O276  1  0.44793517  0.75569051  0.49335199  1
  O2-  O277  1  0.55129257  0.75904229  0.25634120  1
  O2-  O278  1  0.55307708  0.76838389  0.75728601  1
  O2-  O279  1  0.44588004  0.42545318  0.77111602  1
  O2-  O280  1  0.05601703  0.75961897  0.26012272  1
  O2-  O281  1  0.44178373  0.74737484  0.74874152  1
  O2-  O282  1  0.45427639  0.56791278  0.25572758  1
  O2-  O283  1  0.55250762  0.57210920  0.24358918  1
  O2-  O284  1  0.94510532  0.23391568  0.50938327  1
  O2-  O285  1  0.05503251  0.42924755  0.48463925  1
  O2-  O286  1  0.95380435  0.43510508  0.51419619  1
  O2-  O287  1  0.05402415  0.09593381  0.50230164  1
  O2-  O288  1  0.44860684  0.56723828  0.98843239  1
  O2-  O289  1  0.54832573  0.56585164  0.98660776  1
  O2-  O290  1  0.95702225  0.10455859  0.98953476  1
  O2-  O291  1  0.95188855  0.91314376  0.22759138  1
  O2-  O292  1  0.44469156  0.11707884  0.22280350  1
  O2-  O293  1  0.05102028  0.23978355  0.25678684  1
  O2-  O294  1  0.05080026  0.91152664  0.77015112  1
  O2-  O295  1  0.94879132  0.09164661  0.02390700  1
  O2-  O296  1  0.94457114  0.77399701  0.73663427  1
  O2-  O297  1  0.94904932  0.90825726  0.48260174  1
  O2-  O298  1  0.04498609  0.09693931  0.74284904  1
  O2-  O299  1  0.48203197  0.88317779  0.75536528  1
  O2-  O300  1  0.53113009  0.86649855  0.50326476  1
  O2-  O301  1  0.95125172  0.23746588  0.23389257  1
  O2-  O302  1  0.53051898  0.18728348  0.24402518  1
  O2-  O303  1  0.52615944  0.87410479  0.50661648  1
  O2-  O304  1  0.95149841  0.10263853  0.44358247  1
  O2-  O305  1  0.95317850  0.09129074  0.24509066  1
  O2-  O306  1  0.44711335  0.58651919  0.02168235  1
  O2-  O307  1  0.04600631  0.41740480  0.76927605  1
  O2-  O308  1  0.43228356  0.90375018  0.43501100  1
  O2-  O309  1  0.03788289  0.77767959  0.73574863  1
  O2-  O310  1  0.94896687  0.42753079  1.00123038  1
  O2-  O311  1  0.94674643  0.75479952  0.24711921  1
  O2-  O312  1  0.05173102  0.43460747  0.73574263  1
  O2-  O313  1  0.44743149  0.75768959  0.01331287  1
  O2-  O314  1  0.45229815  0.56730749  0.51365280  1
  O2-  O315  1  0.94570766  0.75313691  0.26562027  1
  O2-  O316  1  0.95591807  0.90378766  0.01845999  1
  O2-  O317  1  0.04851737  0.43343817  0.23329572  1
  O2-  O318  1  0.94880427  0.57455989  0.98324395  1
  O2-  O319  1  0.05608445  0.42235656  0.98210262  1
  O2-  O320  1  0.01359300  0.79757511  0.48091706  1
  O2-  O321  1  0.96218494  0.21948799  0.70638213  1
  O2-  O322  1  0.53966330  0.44803049  0.76387683  1
  O2-  O323  1  0.95393648  0.56760775  0.75759113  1
  O2-  O324  1  0.55630531  0.91416032  0.22755913  1
  O2-  O325  1  0.44088409  0.08549907  0.71134776  1
  O2-  O326  1  0.44260351  0.26652093  0.46751183  1
  O2-  O327  1  0.58802300  0.93755425  0.58792141  1
  O2-  O328  1  0.43372775  0.57385433  0.27778240  1
  O2-  O329  1  0.06201946  0.91893110  0.58008270  1
  O2-  O330  1  0.06455041  0.40947117  0.97475015  1
  O2-  O331  1  0.93779480  0.26364334  0.52865801  1
  O2-  O332  1  0.56724424  0.74296604  0.97801336  1
  O2-  O333  1  0.56535229  0.09116604  0.06017566  1
  O2-  O334  1  0.43918630  0.92476347  0.01219418  1
  O2-  O335  1  0.57817822  0.07914884  0.33140746  1
  O2-  O336  1  0.91901062  0.06847631  0.56558229  1
  O2-  O337  1  0.94359066  0.58305625  0.97723365  1
  O2-  O338  1  0.43378136  0.06905040  0.30230512  1
  O2-  O339  1  0.43614138  0.74267229  0.27052836  1
  O2-  O340  1  0.41719913  0.95948850  0.79551821  1
  O2-  O341  1  0.56576421  0.73147571  0.45938262  1
  O2-  O342  1  0.06240838  0.68577794  0.41843083  1
  O2-  O343  1  0.06435202  0.92183070  0.43485754  1
  O2-  O344  1  0.43503987  0.94978659  0.57412128  1
  O2-  O345  1  0.05899943  0.74436308  0.98699309  1
  O2-  O346  1  0.59155349  0.92151635  0.40469001  1
  O2-  O347  1  0.92666852  0.57470972  0.57410006  1
  O2-  O348  1  0.91746404  0.25747460  0.82249858  1
  O2-  O349  1  0.93768160  0.26480462  0.03082495  1
  O2-  O350  1  0.58026259  0.38950689  0.77684490  1
  O2-  O351  1  0.06218424  0.07213388  0.96322925  1
  O2-  O352  1  0.08017343  0.71595476  0.73268735  1
  O2-  O353  1  0.57829395  0.06171696  0.19014973  1
  O2-  O354  1  0.06687378  0.26065047  0.73882700  1
  O2-  O355  1  0.43953912  0.74063241  0.04556544  1
  O2-  O356  1  0.56276080  0.40554744  0.21276979  1
  O2-  O357  1  0.93826172  0.26291775  0.21499839  1
  O2-  O358  1  0.55586792  0.08420847  0.49147893  1
  O2-  O359  1  0.07494383  0.74710139  0.57612488  1
  O2-  O360  1  0.94018024  0.59995697  0.41683086  1
  O2-  O361  1  0.43720450  0.25315628  0.01548529  1
  O2-  O362  1  0.05873678  0.07202596  0.53092635  1
  O2-  O363  1  0.56149535  0.42473805  0.56926300  1
  O2-  O364  1  0.56346676  0.59649701  0.71558234  1
  O2-  O365  1  0.56061045  0.58875275  0.53330278  1
  O2-  O366  1  0.43564198  0.40959743  0.02307488  1
  O2-  O367  1  0.06062712  0.40951978  0.45285339  1
  O2-  O368  1  0.44034983  0.91993501  0.27454656  1
  O2-  O369  1  0.93713294  0.40322020  0.71135548  1
  O2-  O370  1  0.55477193  0.39511884  0.41524142  1
  O2-  O371  1  0.56701254  0.09186218  0.91857230  1
  O2-  O372  1  0.74996341  0.33120724  0.36809673  1
  O2-  O373  1  0.74987990  0.67663165  0.38915757  1
  O2-  O374  1  0.74821994  0.33265575  0.92954913  1
  O2-  O375  1  0.25235781  0.65825241  0.65049172  1
  O2-  O376  1  0.24901185  0.34469369  0.62585106  1
  O2-  O377  1  0.25064479  0.64668218  0.16064878  1
  O2-  O378  1  0.24822259  0.00670879  0.11543206  1
  O2-  O379  1  0.24746937  -0.02845493  0.68935681  1
  O2-  O380  1  0.74971786  0.67501513  0.61014470  1
  O2-  O381  1  0.25069720  0.01838470  0.57260802  1
  O2-  O382  1  0.24829092  0.01166352  0.90014726  1
  O2-  O383  1  0.75422180  -0.00605254  0.13348592  1
  O2-  O384  1  0.74877824  0.66196405  0.89601955  1
  O2-  O385  1  0.25016974  -0.00138455  0.42409202  1
  O2-  O386  1  0.25256990  0.65417864  0.86754929  1
  O2-  O387  1  0.75746903  0.01140997  0.37363532  1
  O2-  O388  1  0.25089488  0.65193276  0.31227040  1
  O2-  O389  1  0.75016171  0.66494663  0.13764955  1
  O2-  O390  1  0.24945723  0.32705657  0.89298057  1
  O2-  O391  1  0.74950606  0.33795289  0.83675121  1
  O2-  O392  1  0.75123380  0.32942834  0.59993138  1
  O2-  O393  1  0.24939373  0.00698111  0.29843468  1
  O2-  O394  1  0.25063183  0.66664638  0.44219791  1
  O2-  O395  1  0.24865609  0.65880482  0.07266862  1
  O2-  O396  1  0.74970359  0.16538637  0.94853932  1
  O2-  O397  1  0.74761603  0.47261991  0.14721342  1
  O2-  O398  1  0.75116749  0.83431646  0.58566355  1
  O2-  O399  1  0.75055039  0.84017006  0.35589549  1
  O2-  O400  1  0.74839542  0.17949861  0.66734079  1
  O2-  O401  1  0.24898723  0.82196737  0.14292754  1
  O2-  O402  1  0.75067443  0.54004381  0.57240604  1
  O2-  O403  1  0.24969162  0.85055683  0.87013521  1
  O2-  O404  1  0.24915208  0.16572444  0.94423758  1
  O2-  O405  1  0.25011249  0.17752949  0.27688462  1
  O2-  O406  1  0.74980152  0.47133985  0.65634946  1
  O2-  O407  1  0.24880420  0.21458276  0.59284859  1
  O2-  O408  1  0.74868625  0.53130488  0.40704263  1
  O2-  O409  1  0.74944826  0.18400523  0.86081305  1
  O2-  O410  1  0.25059423  0.50183787  0.59893795  1
  O2-  O411  1  0.74920859  0.47294031  0.90031160  1
  O2-  O412  1  0.25049250  0.84615363  0.61531181  1
  O2-  O413  1  0.24975222  0.12629013  0.68014346  1
  O2-  O414  1  0.24950391  0.21799462  0.39526480  1
  O2-  O415  1  0.75063744  0.16502628  0.54225427  1
  O2-  O416  1  0.75027567  0.83508778  0.66615610  1
  O2-  O417  1  0.24992748  0.50129977  0.69181573  1
  O2-  O418  1  0.24983584  0.49617826  0.90926156  1
  O2-  O419  1  0.75016623  0.82074935  0.87768314  1
  O2-  O420  1  0.96586308  0.69295577  0.62858840  1
  O2-  O421  1  0.52754148  0.66871295  0.12118617  1
  O2-  O422  1  0.51833224  0.02555993  0.64012239  1
  O2-  O423  1  0.95561934  0.69900777  0.86894725  1
  O2-  O424  1  0.53982931  -0.04428687  0.08819085  1
  O2-  O425  1  0.47968657  0.33049038  0.13250971  1
  O2-  O426  1  0.97869472  -0.01285110  0.63193575  1
  O2-  O427  1  0.45213996  0.33545340  0.62461023  1
  O2-  O428  1  0.02762937  0.34020075  0.62185535  1
  O2-  O429  1  0.04417834  0.64402917  0.86777018  1
  O2-  O430  1  0.97065508  0.33076239  0.37812042  1
  O2-  O431  1  0.98402722  0.34020645  0.87053846  1
  O2-  O432  1  0.03089943  0.62704421  0.62397694  1
  O2-  O433  1  0.02513800  0.02163248  0.36413507  1
  O2-  O434  1  0.48383089  0.65479494  0.38104361  1
  O2-  O435  1  0.51982014  0.31634187  0.87958260  1
  O2-  O436  1  0.97815810  0.65734298  0.12001236  1
  O2-  O437  1  0.50340339  -0.00682653  0.37685360  1
  O2-  O438  1  0.51934179  -0.01513569  0.86869190  1
  O2-  O439  1  0.47526036  0.66527516  0.62687615  1
  O2-  O440  1  0.97130267  -0.00131203  0.87072220  1
  O2-  O441  1  0.45732309  0.01229230  0.13884773  1
  O2-  O442  1  0.54345862  0.29994376  0.64160401  1
  O2-  O443  1  0.51926374  0.66050933  0.86757650  1
