# generated using pymatgen
data_La7(Ru4O11)2
_symmetry_space_group_name_H-M   'P 1'
_cell_length_a   23.99431475
_cell_length_b   16.83612256
_cell_length_c   15.43030153
_cell_angle_alpha   89.99916567
_cell_angle_beta   90.00076491
_cell_angle_gamma   90.00023375
_symmetry_Int_Tables_number   1
_chemical_formula_structural   La7(Ru4O11)2
_chemical_formula_sum   'La84 Ru96 O264'
_cell_volume   6233.39779341
_cell_formula_units_Z   12
loop_
 _symmetry_equiv_pos_site_id
 _symmetry_equiv_pos_as_xyz
  1  'x, y, z'
loop_
 _atom_type_symbol
 _atom_type_oxidation_number
  La3+  3.0
  Ru4+  4.0
  O2-  -2.0
loop_
 _atom_site_type_symbol
 _atom_site_label
 _atom_site_symmetry_multiplicity
 _atom_site_fract_x
 _atom_site_fract_y
 _atom_site_fract_z
 _atom_site_occupancy
  La3+  La0  1  0.14515378  0.00538688  0.12240812  1
  La3+  La1  1  0.15075533  -0.00122317  0.38216845  1
  La3+  La2  1  0.13957730  0.00094780  0.62145524  1
  La3+  La3  1  0.13397269  0.00228330  0.87750110  1
  La3+  La4  1  0.13671640  0.32943421  0.12107256  1
  La3+  La5  1  0.13637008  0.33349121  0.37248115  1
  La3+  La6  1  0.13295027  0.32920694  0.62453599  1
  La3+  La7  1  0.13411028  0.33068673  0.87550969  1
  La3+  La8  1  0.14636676  0.66536951  0.12716730  1
  La3+  La9  1  0.13996294  0.67394625  0.37703803  1
  La3+  La10  1  0.14179388  0.67410148  0.62699795  1
  La3+  La11  1  0.13593352  0.66888966  0.86878211  1
  La3+  La12  1  0.64173993  -0.00038606  0.12921134  1
  La3+  La13  1  0.64195140  0.00105637  0.37947853  1
  La3+  La14  1  0.63553388  -0.00940484  0.62833144  1
  La3+  La15  1  0.64982331  0.00140363  0.87584056  1
  La3+  La16  1  0.64183103  0.33407435  0.12254946  1
  La3+  La17  1  0.64119397  0.33624581  0.37757206  1
  La3+  La18  1  0.64319085  0.33672031  0.62126761  1
  La3+  La19  1  0.63163691  0.32594413  0.87717457  1
  La3+  La20  1  0.64690947  0.66562100  0.13161411  1
  La3+  La21  1  0.65636581  0.66834693  0.37761315  1
  La3+  La22  1  0.64741267  0.67129016  0.62266039  1
  La3+  La23  1  0.63906147  0.67227557  0.86828978  1
  La3+  La24  1  0.36123062  0.00150530  0.11616872  1
  La3+  La25  1  0.35029465  -0.00781093  0.37746135  1
  La3+  La26  1  0.36415122  -0.00320984  0.62373868  1
  La3+  La27  1  0.37198446  -0.00230860  0.87632766  1
  La3+  La28  1  0.36277788  0.33387701  0.12393210  1
  La3+  La29  1  0.36441277  0.33698448  0.37826638  1
  La3+  La30  1  0.36513635  0.33382442  0.62382440  1
  La3+  La31  1  0.36078089  0.33603716  0.87243238  1
  La3+  La32  1  0.36074337  0.66395900  0.12434623  1
  La3+  La33  1  0.36399329  0.67661526  0.38110791  1
  La3+  La34  1  0.35714279  0.68065342  0.62282825  1
  La3+  La35  1  0.36388486  0.66134227  0.86996118  1
  La3+  La36  1  0.85575136  0.00036974  0.13288450  1
  La3+  La37  1  0.85851841  0.00125624  0.37935608  1
  La3+  La38  1  0.86104587  0.00190738  0.62192596  1
  La3+  La39  1  0.86405421  0.00091450  0.87104853  1
  La3+  La40  1  0.85975859  0.33545480  0.11990417  1
  La3+  La41  1  0.86085061  0.33538947  0.38146671  1
  La3+  La42  1  0.85934479  0.33772390  0.62593952  1
  La3+  La43  1  0.86370739  0.32287484  0.87800351  1
  La3+  La44  1  0.85936443  0.66162331  0.13701031  1
  La3+  La45  1  0.84239914  0.66487986  0.37729658  1
  La3+  La46  1  0.85904802  0.67012301  0.62480943  1
  La3+  La47  1  0.85448108  0.67423185  0.87333588  1
  La3+  La48  1  0.00313830  0.83201471  0.09488102  1
  La3+  La49  1  0.50180895  0.16428166  0.12635440  1
  La3+  La50  1  0.00120737  0.51000062  0.35979242  1
  La3+  La51  1  -0.00065269  0.50022523  0.37948255  1
  La3+  La52  1  0.49699982  0.49415199  0.61652954  1
  La3+  La53  1  0.49907456  0.83141121  0.38956372  1
  La3+  La54  1  -0.00096713  0.83970500  0.08195351  1
  La3+  La55  1  0.49267348  0.81874123  0.61911453  1
  La3+  La56  1  0.00159951  0.17203807  0.12430195  1
  La3+  La57  1  0.00428321  0.82801050  0.63175172  1
  La3+  La58  1  0.49518771  0.49195968  0.36589670  1
  La3+  La59  1  0.00001153  0.16384095  0.37771511  1
  La3+  La60  1  0.50316060  0.18894100  0.62448339  1
  La3+  La61  1  0.49328534  0.49111017  0.63219031  1
  La3+  La62  1  0.50020081  0.82207742  0.37024726  1
  La3+  La63  1  0.50485626  0.83477168  0.10647178  1
  La3+  La64  1  -0.00009217  0.49792678  0.11496350  1
  La3+  La65  1  0.49523710  0.85093299  0.86925379  1
  La3+  La66  1  0.00606114  0.50670844  0.62951047  1
  La3+  La67  1  0.49876630  0.16764392  0.87039344  1
  La3+  La68  1  0.49944487  0.83790901  0.12678527  1
  La3+  La69  1  0.49478497  0.17256634  0.37717398  1
  La3+  La70  1  0.00024053  0.83194472  0.37093553  1
  La3+  La71  1  0.50458152  0.49610825  0.88050288  1
  La3+  La72  1  0.75295303  0.15974601  0.70973407  1
  La3+  La73  1  0.25095508  0.54584358  0.25567170  1
  La3+  La74  1  0.74884344  0.51467107  0.30198713  1
  La3+  La75  1  0.24963326  0.82367491  0.78067801  1
  La3+  La76  1  0.25026115  0.15166881  0.30540975  1
  La3+  La77  1  0.74926498  0.44047716  -0.05261819  1
  La3+  La78  1  0.75033233  0.18059078  0.30480757  1
  La3+  La79  1  0.74790740  0.84157045  -0.06836889  1
  La3+  La80  1  0.24999571  0.48797988  0.56530149  1
  La3+  La81  1  0.24983132  0.52682454  0.01447914  1
  La3+  La82  1  0.25045091  0.87562905  0.02398505  1
  La3+  La83  1  0.74978880  0.56253901  0.74499327  1
  Ru4+  Ru84  1  0.00208417  -0.00513361  -0.00402437  1
  Ru4+  Ru85  1  0.00615190  -0.00740420  0.25708856  1
  Ru4+  Ru86  1  0.00830612  0.00650676  0.50001579  1
  Ru4+  Ru87  1  -0.00297731  0.00597731  0.74527220  1
  Ru4+  Ru88  1  0.00518351  0.33694451  0.00124936  1
  Ru4+  Ru89  1  0.00188813  0.32783774  0.26255715  1
  Ru4+  Ru90  1  0.00007261  0.32048712  0.50700179  1
  Ru4+  Ru91  1  -0.01015303  0.33843419  0.77004976  1
  Ru4+  Ru92  1  0.00581307  0.68154613  0.00862341  1
  Ru4+  Ru93  1  -0.00131770  0.68149738  0.25337268  1
  Ru4+  Ru94  1  -0.00094782  0.67143516  0.50128227  1
  Ru4+  Ru95  1  -0.00830331  0.64722000  0.74857279  1
  Ru4+  Ru96  1  0.50592515  0.00763346  -0.00406840  1
  Ru4+  Ru97  1  0.49935834  0.00278474  0.24047807  1
  Ru4+  Ru98  1  0.49321205  0.01159212  0.50097916  1
  Ru4+  Ru99  1  0.50508786  -0.00058431  0.74644278  1
  Ru4+  Ru100  1  0.50213250  0.33828638  0.00724874  1
  Ru4+  Ru101  1  0.49920192  0.33292726  0.24883685  1
  Ru4+  Ru102  1  0.50844958  0.32740081  0.50535163  1
  Ru4+  Ru103  1  0.50585858  0.32870294  0.74620534  1
  Ru4+  Ru104  1  0.50044143  0.65505030  -0.02097530  1
  Ru4+  Ru105  1  0.50128763  0.66660826  0.25265058  1
  Ru4+  Ru106  1  0.50760743  0.66291433  0.50426499  1
  Ru4+  Ru107  1  0.50702437  0.66734137  0.75382872  1
  Ru4+  Ru108  1  0.11235549  0.16282282  -0.00368160  1
  Ru4+  Ru109  1  0.11081608  0.16078515  0.24842203  1
  Ru4+  Ru110  1  0.11030424  0.15825666  0.50548482  1
  Ru4+  Ru111  1  0.11156461  0.17050873  0.75141069  1
  Ru4+  Ru112  1  0.10679283  0.49712237  -0.00209461  1
  Ru4+  Ru113  1  0.10915110  0.50253494  0.24963162  1
  Ru4+  Ru114  1  0.11181650  0.49551286  0.50391305  1
  Ru4+  Ru115  1  0.11109531  0.50182634  0.74576602  1
  Ru4+  Ru116  1  0.10500384  0.83202866  -0.01086876  1
  Ru4+  Ru117  1  0.11098882  0.84595113  0.25245723  1
  Ru4+  Ru118  1  0.11490808  0.83080069  0.50101196  1
  Ru4+  Ru119  1  0.10807720  0.82896803  0.75244468  1
  Ru4+  Ru120  1  0.61295154  0.17094870  -0.00278319  1
  Ru4+  Ru121  1  0.61010407  0.16966205  0.25155370  1
  Ru4+  Ru122  1  0.61759982  0.16486502  0.49979539  1
  Ru4+  Ru123  1  0.61502745  0.16403642  0.76095585  1
  Ru4+  Ru124  1  0.61048105  0.49975083  0.00529719  1
  Ru4+  Ru125  1  0.60887228  0.49894250  0.25096844  1
  Ru4+  Ru126  1  0.61909075  0.49755817  0.49746730  1
  Ru4+  Ru127  1  0.60551850  0.50117181  0.74634271  1
  Ru4+  Ru128  1  0.60864931  0.83452256  -0.00252355  1
  Ru4+  Ru129  1  0.61488605  0.83119210  0.24886718  1
  Ru4+  Ru130  1  0.61105519  0.83131063  0.50161350  1
  Ru4+  Ru131  1  0.60914745  0.83547374  0.75301259  1
  Ru4+  Ru132  1  0.38493686  0.16271707  0.00120897  1
  Ru4+  Ru133  1  0.39047714  0.16166804  0.24756484  1
  Ru4+  Ru134  1  0.38950921  0.15620967  0.49587999  1
  Ru4+  Ru135  1  0.38514141  0.16772519  0.75085506  1
  Ru4+  Ru136  1  0.39276480  0.50437382  0.00659017  1
  Ru4+  Ru137  1  0.39357076  0.50229698  0.25059935  1
  Ru4+  Ru138  1  0.38435432  0.50562813  0.49664219  1
  Ru4+  Ru139  1  0.38743449  0.51170963  0.74959545  1
  Ru4+  Ru140  1  0.38526506  0.82326526  0.00090499  1
  Ru4+  Ru141  1  0.38394081  0.83017783  0.24792771  1
  Ru4+  Ru142  1  0.38137261  0.84047049  0.50258122  1
  Ru4+  Ru143  1  0.38282485  0.83123923  0.74715930  1
  Ru4+  Ru144  1  0.88649431  0.16691639  -0.00010712  1
  Ru4+  Ru145  1  0.88860955  0.16277646  0.24723853  1
  Ru4+  Ru146  1  0.88817905  0.16776411  0.50205132  1
  Ru4+  Ru147  1  0.89617171  0.16382213  0.75166645  1
  Ru4+  Ru148  1  0.89024145  0.49877881  -0.00777874  1
  Ru4+  Ru149  1  0.88315443  0.49481210  0.24772738  1
  Ru4+  Ru150  1  0.88215188  0.49514395  0.49765965  1
  Ru4+  Ru151  1  0.90481845  0.49575285  0.75353043  1
  Ru4+  Ru152  1  0.89171804  0.83346482  -0.00260356  1
  Ru4+  Ru153  1  0.88856336  0.82357431  0.25826263  1
  Ru4+  Ru154  1  0.88712750  0.83271615  0.50127355  1
  Ru4+  Ru155  1  0.88522806  0.83319614  0.74646286  1
  Ru4+  Ru156  1  0.74905172  0.01019475  0.71082740  1
  Ru4+  Ru157  1  0.25023331  0.25614190  0.75051754  1
  Ru4+  Ru158  1  0.25117306  0.40433031  0.24834770  1
  Ru4+  Ru159  1  0.74918369  0.10258565  -0.00007441  1
  Ru4+  Ru160  1  0.74965529  0.41832537  0.72359576  1
  Ru4+  Ru161  1  0.24984688  0.36465748  0.48724940  1
  Ru4+  Ru162  1  0.24819754  0.57306181  0.76459890  1
  Ru4+  Ru163  1  0.74914184  0.91475884  0.50320017  1
  Ru4+  Ru164  1  0.24928004  0.72923776  -0.02766120  1
  Ru4+  Ru165  1  0.24950660  0.77087716  0.26509968  1
  Ru4+  Ru166  1  0.25025398  0.22926843  0.49453921  1
  Ru4+  Ru167  1  0.75082884  0.28557885  0.77911003  1
  Ru4+  Ru168  1  0.75053509  0.31218783  0.22410523  1
  Ru4+  Ru169  1  0.25086888  0.37995574  -0.00698968  1
  Ru4+  Ru170  1  0.75076037  0.57888998  -0.00962249  1
  Ru4+  Ru171  1  0.24859822  0.42774107  0.75799518  1
  Ru4+  Ru172  1  0.24863532  0.60604968  0.48971809  1
  Ru4+  Ru173  1  0.24980077  0.08130297  0.75255934  1
  Ru4+  Ru174  1  0.74948682  0.71562444  -0.00546455  1
  Ru4+  Ru175  1  0.25046259  0.26772562  0.21355994  1
  Ru4+  Ru176  1  0.25138740  0.00690312  0.22862226  1
  Ru4+  Ru177  1  0.74865742  0.03017607  0.28072369  1
  Ru4+  Ru178  1  0.25073556  0.24160444  0.00980496  1
  Ru4+  Ru179  1  0.75141504  0.93935503  0.03417642  1
  O2-  O180  1  0.16650692  0.07967229  -0.00659849  1
  O2-  O181  1  0.17052479  0.08150944  0.24987168  1
  O2-  O182  1  0.17090503  0.08403454  0.50316720  1
  O2-  O183  1  0.16571907  0.08233533  0.75105621  1
  O2-  O184  1  0.17090512  0.41204984  -0.00109732  1
  O2-  O185  1  0.16983626  0.41406635  0.24897054  1
  O2-  O186  1  0.16923223  0.40976956  0.50108380  1
  O2-  O187  1  0.16424604  0.41506170  0.75035861  1
  O2-  O188  1  0.16858487  0.75117681  -0.00950493  1
  O2-  O189  1  0.16361306  0.75625519  0.25324584  1
  O2-  O190  1  0.16551129  0.75027807  0.49704590  1
  O2-  O191  1  0.16715803  0.75062689  0.75229289  1
  O2-  O192  1  0.66452060  0.08388007  0.00566538  1
  O2-  O193  1  0.66715332  0.07854687  0.25524358  1
  O2-  O194  1  0.66165454  0.07863662  0.50191823  1
  O2-  O195  1  0.67006976  0.07705745  0.74293277  1
  O2-  O196  1  0.66537683  0.41024454  0.00221053  1
  O2-  O197  1  0.66685620  0.41423695  0.25308191  1
  O2-  O198  1  0.66653831  0.41255537  0.49766744  1
  O2-  O199  1  0.66479517  0.41635460  0.75093579  1
  O2-  O200  1  0.66373783  0.74408187  0.00061914  1
  O2-  O201  1  0.66338560  0.74805403  0.24962959  1
  O2-  O202  1  0.66236643  0.75082409  0.50097770  1
  O2-  O203  1  0.66370483  0.75237347  0.75068242  1
  O2-  O204  1  0.33454283  0.25221885  0.00079988  1
  O2-  O205  1  0.33333588  0.25339918  0.24915201  1
  O2-  O206  1  0.33458912  0.24818937  0.49800338  1
  O2-  O207  1  0.33392712  0.25449014  0.74898919  1
  O2-  O208  1  0.33596258  0.58515259  -0.00237122  1
  O2-  O209  1  0.34353764  0.59078975  0.25092138  1
  O2-  O210  1  0.33308638  0.59231883  0.49984965  1
  O2-  O211  1  0.32932874  0.58566799  0.75338568  1
  O2-  O212  1  0.33625084  0.92222992  -0.00750678  1
  O2-  O213  1  0.33214471  0.92241669  0.24291212  1
  O2-  O214  1  0.33025023  0.92353519  0.50480108  1
  O2-  O215  1  0.33016502  0.92153048  0.75480346  1
  O2-  O216  1  0.83482685  0.24858809  0.00086370  1
  O2-  O217  1  0.83208600  0.25757498  0.25339773  1
  O2-  O218  1  0.83693316  0.25452210  0.49797033  1
  O2-  O219  1  0.83216926  0.25371448  0.75161758  1
  O2-  O220  1  0.83595536  0.58662054  -0.00133350  1
  O2-  O221  1  0.83407388  0.58240756  0.25112984  1
  O2-  O222  1  0.84079763  0.58745536  0.50675712  1
  O2-  O223  1  0.83959150  0.58548035  0.75161339  1
  O2-  O224  1  0.83373925  0.92393134  -0.00281450  1
  O2-  O225  1  0.84248086  0.91324255  0.25864985  1
  O2-  O226  1  0.83429096  0.91954098  0.50092884  1
  O2-  O227  1  0.84227949  0.92160641  0.74713367  1
  O2-  O228  1  0.16960166  0.24990250  0.00073181  1
  O2-  O229  1  0.16811505  0.25397152  0.25027709  1
  O2-  O230  1  0.16584758  0.24978274  0.49855427  1
  O2-  O231  1  0.16909838  0.25469795  0.74849215  1
  O2-  O232  1  0.15995855  0.58607951  -0.00354497  1
  O2-  O233  1  0.15830741  0.59056115  0.25440424  1
  O2-  O234  1  0.16381207  0.58897237  0.49807181  1
  O2-  O235  1  0.16738265  0.58303236  0.75488012  1
  O2-  O236  1  0.16428601  0.91762849  -0.01129320  1
  O2-  O237  1  0.17406190  0.91597876  0.23967378  1
  O2-  O238  1  0.16382851  0.92004258  0.50506498  1
  O2-  O239  1  0.16512382  0.91859018  0.75498468  1
  O2-  O240  1  0.66515006  0.24906650  0.00171302  1
  O2-  O241  1  0.66751032  0.25423874  0.25154923  1
  O2-  O242  1  0.66074081  0.25567013  0.49931211  1
  O2-  O243  1  0.66924840  0.25378315  0.74940787  1
  O2-  O244  1  0.66683150  0.58416781  -0.00338197  1
  O2-  O245  1  0.66203494  0.58241801  0.25196286  1
  O2-  O246  1  0.65943530  0.58772210  0.50159492  1
  O2-  O247  1  0.65624193  0.58942889  0.74903248  1
  O2-  O248  1  0.66876816  0.92156660  0.00700307  1
  O2-  O249  1  0.66276293  0.91888122  0.25591151  1
  O2-  O250  1  0.66478442  0.92016840  0.49842738  1
  O2-  O251  1  0.66546476  0.91202082  0.73891442  1
  O2-  O252  1  0.33299359  0.08107693  -0.00636936  1
  O2-  O253  1  0.33095686  0.08125381  0.24863353  1
  O2-  O254  1  0.33255967  0.08194253  0.50256528  1
  O2-  O255  1  0.33113818  0.07815860  0.75175976  1
  O2-  O256  1  0.33456734  0.41494349  -0.00066597  1
  O2-  O257  1  0.33504154  0.41538661  0.24948955  1
  O2-  O258  1  0.33187611  0.41301448  0.50190074  1
  O2-  O259  1  0.33407097  0.41820407  0.74679634  1
  O2-  O260  1  0.33034389  0.74437291  -0.00202563  1
  O2-  O261  1  0.33181716  0.74882056  0.25327717  1
  O2-  O262  1  0.33587847  0.75150966  0.49522970  1
  O2-  O263  1  0.33265567  0.74725302  0.75507139  1
  O2-  O264  1  0.83275794  0.08528584  -0.00387229  1
  O2-  O265  1  0.82959125  0.07987031  0.25986704  1
  O2-  O266  1  0.84078651  0.08112341  0.50040219  1
  O2-  O267  1  0.83349989  0.08059643  0.74795560  1
  O2-  O268  1  0.83442132  0.40975519  -0.00017590  1
  O2-  O269  1  0.83049025  0.41252152  0.25614759  1
  O2-  O270  1  0.83353126  0.41209138  0.49858554  1
  O2-  O271  1  0.83373636  0.42198041  0.75097929  1
  O2-  O272  1  0.83183149  0.74782941  0.00440888  1
  O2-  O273  1  0.83242307  0.75261416  0.24602179  1
  O2-  O274  1  0.83586797  0.75214308  0.50093474  1
  O2-  O275  1  0.83798577  0.74924061  0.74524886  1
  O2-  O276  1  0.54496944  0.09763540  0.26353845  1
  O2-  O277  1  0.45510957  0.23689140  0.49768544  1
  O2-  O278  1  0.94652322  0.24205278  0.50942334  1
  O2-  O279  1  0.94839130  0.23535293  0.24629095  1
  O2-  O280  1  0.95352811  0.88690673  0.94474513  1
  O2-  O281  1  0.95333839  0.56645791  0.23232676  1
  O2-  O282  1  0.94722165  0.08113714  0.77389099  1
  O2-  O283  1  0.54444061  0.56539195  0.25720588  1
  O2-  O284  1  0.44502470  0.42935621  0.73056644  1
  O2-  O285  1  0.96061903  0.78308811  0.20923459  1
  O2-  O286  1  0.45875860  0.56409199  0.49859229  1
  O2-  O287  1  0.95231467  0.42700445  0.26456289  1
  O2-  O288  1  0.54109829  0.89377397  0.71090399  1
  O2-  O289  1  0.96288072  0.10707837  -0.00778784  1
  O2-  O290  1  0.53856612  0.90176362  0.71487625  1
  O2-  O291  1  0.44861126  0.90928317  0.02626004  1
  O2-  O292  1  0.94116018  0.42213583  0.02152727  1
  O2-  O293  1  0.05496174  0.09058656  0.01518423  1
  O2-  O294  1  0.45092715  0.89723718  0.98935437  1
  O2-  O295  1  0.05132517  0.23285679  0.25990288  1
  O2-  O296  1  0.03223068  0.76798589  0.94224050  1
  O2-  O297  1  0.45871185  0.42474373  0.49228414  1
  O2-  O298  1  0.05306557  0.23652833  0.51482765  1
  O2-  O299  1  0.04578460  0.57008686  0.50474311  1
  O2-  O300  1  0.04309271  0.89588920  0.49560149  1
  O2-  O301  1  0.93972744  0.41687298  0.67977903  1
  O2-  O302  1  0.53853028  0.76800128  0.78842026  1
  O2-  O303  1  0.44260529  0.90571466  0.74164734  1
  O2-  O304  1  0.53876438  0.10633875  0.72672779  1
  O2-  O305  1  0.54851151  0.90315938  0.27257218  1
  O2-  O306  1  0.95380464  0.24341479  0.95861918  1
  O2-  O307  1  0.96932424  0.22013149  0.74916252  1
  O2-  O308  1  0.55231071  0.23779392  0.76643663  1
  O2-  O309  1  0.45171587  0.89719095  0.24843436  1
  O2-  O310  1  0.95316213  0.09020674  0.49080618  1
  O2-  O311  1  0.05298952  0.90869643  0.93855329  1
  O2-  O312  1  0.54985165  0.09650819  0.50071593  1
  O2-  O313  1  0.54383371  0.10244153  0.74320213  1
  O2-  O314  1  0.04170414  0.46792575  0.95264146  1
  O2-  O315  1  0.44296285  0.09703847  0.73474977  1
  O2-  O316  1  0.45733118  0.22523841  0.23931507  1
  O2-  O317  1  0.98572236  0.53445566  0.77931122  1
  O2-  O318  1  0.44988632  0.76394031  0.48902571  1
  O2-  O319  1  0.45189591  0.57073973  0.79610130  1
  O2-  O320  1  0.95627169  0.77080244  0.48944885  1
  O2-  O321  1  0.03153213  0.88344707  0.21735139  1
  O2-  O322  1  0.46343490  0.43029230  0.75754511  1
  O2-  O323  1  0.44959798  0.09474739  0.55923375  1
  O2-  O324  1  0.06499666  0.94600655  0.07859580  1
  O2-  O325  1  0.56098274  0.92645369  0.97316107  1
  O2-  O326  1  0.06369880  0.41036428  0.27769237  1
  O2-  O327  1  0.94169625  0.40782281  0.46417368  1
  O2-  O328  1  0.44101806  0.92503844  0.53519451  1
  O2-  O329  1  0.56933461  0.70859003  0.67427023  1
  O2-  O330  1  0.93381861  0.25806454  0.04638278  1
  O2-  O331  1  0.93629508  0.64063790  0.82875854  1
  O2-  O332  1  0.92668021  0.26893219  0.70913803  1
  O2-  O333  1  0.07922535  0.73442105  0.06137059  1
  O2-  O334  1  0.06447146  0.74052427  0.54036395  1
  O2-  O335  1  0.92716258  0.92379173  0.08312457  1
  O2-  O336  1  0.94918346  0.41008187  0.68926744  1
  O2-  O337  1  0.93247979  0.39815602  0.83889669  1
  O2-  O338  1  0.92567183  0.58358155  0.67208705  1
  O2-  O339  1  0.94246642  0.06417736  0.21987747  1
  O2-  O340  1  0.06693736  0.07835031  0.56944146  1
  O2-  O341  1  0.94307204  0.42121741  0.02401691  1
  O2-  O342  1  0.92849795  0.06093723  0.04222677  1
  O2-  O343  1  0.43364235  0.05764235  0.41634247  1
  O2-  O344  1  0.57256940  0.41880448  0.94183785  1
  O2-  O345  1  0.56182298  0.41518486  0.06715530  1
  O2-  O346  1  0.58174712  0.93887128  0.82644337  1
  O2-  O347  1  0.44048515  0.59636820  0.03778962  1
  O2-  O348  1  0.07145414  0.08585473  0.42577606  1
  O2-  O349  1  0.93343732  0.72847106  0.97511059  1
  O2-  O350  1  0.06734686  0.25886878  0.76516211  1
  O2-  O351  1  0.06752515  0.59620067  0.70720407  1
  O2-  O352  1  0.07325935  0.40378985  0.05675799  1
  O2-  O353  1  0.55664636  0.25286125  0.97416773  1
  O2-  O354  1  0.44374374  0.08386545  0.02253920  1
  O2-  O355  1  0.06602362  0.25581491  0.02630772  1
  O2-  O356  1  0.44007341  0.74715012  0.45771006  1
  O2-  O357  1  0.93795081  0.59291131  0.22075393  1
  O2-  O358  1  0.41552034  0.57488858  0.64807804  1
  O2-  O359  1  0.56038049  0.24732027  0.77925470  1
  O2-  O360  1  0.92959789  0.71797414  0.32518594  1
  O2-  O361  1  0.57612049  0.08887799  0.87106889  1
  O2-  O362  1  0.55730276  0.42152033  0.52144447  1
  O2-  O363  1  0.56485493  0.05273313  0.65517112  1
  O2-  O364  1  0.06043774  0.40327295  0.53358527  1
  O2-  O365  1  0.05529855  0.73698503  0.77452034  1
  O2-  O366  1  0.94079595  0.07251968  0.77790010  1
  O2-  O367  1  0.43464169  0.41467325  0.48737529  1
  O2-  O368  1  0.43672428  0.93710436  0.72455338  1
  O2-  O369  1  0.08160509  0.94373684  0.31119875  1
  O2-  O370  1  0.44259315  0.58070132  0.79480804  1
  O2-  O371  1  0.56190110  0.58675029  0.99118003  1
  O2-  O372  1  0.25092778  0.00823302  0.35366804  1
  O2-  O373  1  0.24798116  0.67186852  0.85617881  1
  O2-  O374  1  0.74907683  0.32568824  0.89048409  1
  O2-  O375  1  0.25017405  -0.00891515  0.10372944  1
  O2-  O376  1  0.74885801  0.65776161  0.86718237  1
  O2-  O377  1  0.24917247  0.65471820  0.06042856  1
  O2-  O378  1  0.24956197  0.66676832  0.32916200  1
  O2-  O379  1  0.75113206  0.32466317  0.64662026  1
  O2-  O380  1  0.75212296  0.01484986  0.92771082  1
  O2-  O381  1  0.24882089  0.32778507  0.35714670  1
  O2-  O382  1  0.24926646  0.67772978  0.19032257  1
  O2-  O383  1  0.24985600  0.68590855  0.57181154  1
  O2-  O384  1  0.74962456  0.66732342  0.18908219  1
  O2-  O385  1  0.74746775  0.66276637  0.38705783  1
  O2-  O386  1  0.74993321  0.65642129  0.09851600  1
  O2-  O387  1  0.75228292  -0.03176357  0.81397588  1
  O2-  O388  1  0.75137790  0.33559541  0.11036488  1
  O2-  O389  1  0.75024909  0.03857532  0.09709465  1
  O2-  O390  1  0.24918503  0.33625697  0.84832533  1
  O2-  O391  1  0.75082803  -0.00230289  0.59030434  1
  O2-  O392  1  0.75210672  -0.04167433  0.19817188  1
  O2-  O393  1  0.24949117  0.66081691  0.69663982  1
  O2-  O394  1  0.74985171  -0.00631194  0.40128981  1
  O2-  O395  1  0.25107114  0.69504227  0.41385565  1
  O2-  O396  1  0.25015844  0.16033637  0.91737099  1
  O2-  O397  1  0.75065031  0.49101187  0.42339793  1
  O2-  O398  1  0.75098756  0.83895017  0.66234022  1
  O2-  O399  1  0.24938066  0.83488535  0.56124405  1
  O2-  O400  1  0.25008081  0.16918809  0.83109930  1
  O2-  O401  1  0.75017823  0.49786556  0.07625654  1
  O2-  O402  1  0.75034194  0.16954469  0.15986132  1
  O2-  O403  1  0.75007099  0.84239676  0.09416072  1
  O2-  O404  1  0.75010082  0.83085664  0.57709135  1
  O2-  O405  1  0.25009883  0.18268423  0.13081352  1
  O2-  O406  1  0.25023598  0.82222788  0.36348942  1
  O2-  O407  1  0.74915036  0.49142181  0.62476750  1
  O2-  O408  1  0.24980015  0.49717253  0.86800267  1
  O2-  O409  1  0.75288482  0.82567371  0.81080953  1
  O2-  O410  1  0.75021464  0.19098400  0.07581379  1
  O2-  O411  1  0.74890917  0.16791507  0.42788359  1
  O2-  O412  1  0.24990790  0.83771755  0.64458829  1
  O2-  O413  1  0.74941583  0.15988610  0.58652673  1
  O2-  O414  1  0.25023656  0.16995278  0.67103658  1
  O2-  O415  1  0.25036268  0.15628843  0.58442881  1
  O2-  O416  1  0.74982251  0.19667125  0.94006337  1
  O2-  O417  1  0.24977519  0.51128054  0.40167808  1
  O2-  O418  1  0.74916660  0.17111298  0.85594238  1
  O2-  O419  1  0.75017373  0.49941269  0.16276685  1
  O2-  O420  1  0.97011798  0.33698060  0.13975179  1
  O2-  O421  1  0.47019282  0.00292278  0.87607908  1
  O2-  O422  1  0.44950627  0.32098230  0.89936757  1
  O2-  O423  1  0.02715499  0.33559433  0.87593595  1
  O2-  O424  1  0.98073912  0.68822272  0.62628422  1
  O2-  O425  1  -0.00107958  0.00337747  0.37558254  1
  O2-  O426  1  0.45294212  0.33945870  0.11473174  1
  O2-  O427  1  0.53232298  0.35874178  0.85244276  1
  O2-  O428  1  0.45253548  0.33428936  0.35328832  1
  O2-  O429  1  0.01934828  -0.02075734  0.63350400  1
  O2-  O430  1  0.54634110  0.30749054  0.15191156  1
  O2-  O431  1  0.54376383  0.65754144  0.86907717  1
  O2-  O432  1  0.54773059  0.32966244  0.37110526  1
  O2-  O433  1  0.45037634  0.70310225  0.90208976  1
  O2-  O434  1  0.45140773  0.00212057  0.14891401  1
  O2-  O435  1  0.02507661  0.33109505  0.38379689  1
  O2-  O436  1  0.53001003  0.66966955  0.38100336  1
  O2-  O437  1  0.54631687  0.00107515  0.11705920  1
  O2-  O438  1  0.03072820  0.66555875  0.37423099  1
  O2-  O439  1  0.02911776  0.32682996  0.14212986  1
  O2-  O440  1  0.47923563  0.68063695  0.62216677  1
  O2-  O441  1  0.01738021  0.64746972  0.13469581  1
  O2-  O442  1  0.54664096  0.32638964  0.63061634  1
  O2-  O443  1  0.45495308  0.33603299  0.62377818  1
