# generated using pymatgen
data_La7(Ru4O11)2
_symmetry_space_group_name_H-M   'P 1'
_cell_length_a   23.98920215
_cell_length_b   16.82884574
_cell_length_c   15.42617664
_cell_angle_alpha   89.99973585
_cell_angle_beta   89.99978511
_cell_angle_gamma   89.99979841
_symmetry_Int_Tables_number   1
_chemical_formula_structural   La7(Ru4O11)2
_chemical_formula_sum   'La84 Ru96 O264'
_cell_volume   6227.71075459
_cell_formula_units_Z   12
loop_
 _symmetry_equiv_pos_site_id
 _symmetry_equiv_pos_as_xyz
  1  'x, y, z'
loop_
 _atom_type_symbol
 _atom_type_oxidation_number
  La3+  3.0
  Ru4+  4.0
  O2-  -2.0
loop_
 _atom_site_type_symbol
 _atom_site_label
 _atom_site_symmetry_multiplicity
 _atom_site_fract_x
 _atom_site_fract_y
 _atom_site_fract_z
 _atom_site_occupancy
  La3+  La0  1  0.13699058  0.00138936  0.12705373  1
  La3+  La1  1  0.13731866  0.00146369  0.37579805  1
  La3+  La2  1  0.14076647  0.00123979  0.62526089  1
  La3+  La3  1  0.13851509  0.00084884  0.87259798  1
  La3+  La4  1  0.13755516  0.33418097  0.12580635  1
  La3+  La5  1  0.13660544  0.33276287  0.37522545  1
  La3+  La6  1  0.13983728  0.33268616  0.62540080  1
  La3+  La7  1  0.13735818  0.33393777  0.87425041  1
  La3+  La8  1  0.13887144  0.66607154  0.12430806  1
  La3+  La9  1  0.13804274  0.66635417  0.37484320  1
  La3+  La10  1  0.13916667  0.66691372  0.62500774  1
  La3+  La11  1  0.14050343  0.66546469  0.87568468  1
  La3+  La12  1  0.63850105  0.00063809  0.12472017  1
  La3+  La13  1  0.63794992  0.00123053  0.37660109  1
  La3+  La14  1  0.64016167  0.00066863  0.62514033  1
  La3+  La15  1  0.63901582  0.00019646  0.87384375  1
  La3+  La16  1  0.63914027  0.33367650  0.12600136  1
  La3+  La17  1  0.63920302  0.33197733  0.37365537  1
  La3+  La18  1  0.63863448  0.33167749  0.62607107  1
  La3+  La19  1  0.64002401  0.33264890  0.87416219  1
  La3+  La20  1  0.63561820  0.66724883  0.12667935  1
  La3+  La21  1  0.63628462  0.66883884  0.37277520  1
  La3+  La22  1  0.63934977  0.66717097  0.62544929  1
  La3+  La23  1  0.63958017  0.66557865  0.87526362  1
  La3+  La24  1  0.36200005  0.00041724  0.12600060  1
  La3+  La25  1  0.36284772  0.00114866  0.37569453  1
  La3+  La26  1  0.35953404  0.00107921  0.62672626  1
  La3+  La27  1  0.36111298  0.00011183  0.87228299  1
  La3+  La28  1  0.36158223  0.33359321  0.12454392  1
  La3+  La29  1  0.36089255  0.33429594  0.37592225  1
  La3+  La30  1  0.35954328  0.33344477  0.62549021  1
  La3+  La31  1  0.36066120  0.33349858  0.87407847  1
  La3+  La32  1  0.36206205  0.66656708  0.12243583  1
  La3+  La33  1  0.36231126  0.66719607  0.37648039  1
  La3+  La34  1  0.36051220  0.66635508  0.62428985  1
  La3+  La35  1  0.35991525  0.66625378  0.87725167  1
  La3+  La36  1  0.86184392  0.00101746  0.12397536  1
  La3+  La37  1  0.86283288  0.00213383  0.37798788  1
  La3+  La38  1  0.86059399  0.00113472  0.62339309  1
  La3+  La39  1  0.86096493  0.00041875  0.87456416  1
  La3+  La40  1  0.86028887  0.33294344  0.12560318  1
  La3+  La41  1  0.86122921  0.33177488  0.37291823  1
  La3+  La42  1  0.86228178  0.33243783  0.62773056  1
  La3+  La43  1  0.86058911  0.33309637  0.87341555  1
  La3+  La44  1  0.86191510  0.66563099  0.12480476  1
  La3+  La45  1  0.86235981  0.66643146  0.37453469  1
  La3+  La46  1  0.86148891  0.66776347  0.62550968  1
  La3+  La47  1  0.86097462  0.66629221  0.87462153  1
  La3+  La48  1  -0.00059681  0.50125295  0.13423880  1
  La3+  La49  1  0.00167571  0.50289698  0.63992093  1
  La3+  La50  1  0.49954844  0.16506312  0.63728236  1
  La3+  La51  1  0.50006328  0.83460475  0.63623644  1
  La3+  La52  1  -0.00246075  0.83312336  0.88527716  1
  La3+  La53  1  0.49792976  0.49842087  0.38433594  1
  La3+  La54  1  0.49867483  0.83597113  0.61386095  1
  La3+  La55  1  0.00111189  0.83018761  0.86427356  1
  La3+  La56  1  0.50075562  0.83384853  0.36564046  1
  La3+  La57  1  0.49779366  0.49741750  0.88627971  1
  La3+  La58  1  0.50035422  0.50035028  0.63436613  1
  La3+  La59  1  0.50167141  0.49718072  0.36308442  1
  La3+  La60  1  0.50219981  0.49772871  0.86520249  1
  La3+  La61  1  0.50060357  0.16732645  0.88502046  1
  La3+  La62  1  0.50094893  0.83136481  0.13627654  1
  La3+  La63  1  0.00011059  0.83331371  0.38583291  1
  La3+  La64  1  -0.00121771  0.83494385  0.11475481  1
  La3+  La65  1  -0.00032446  0.83340123  0.63317724  1
  La3+  La66  1  0.50033183  0.16695249  0.13624684  1
  La3+  La67  1  0.50043367  0.83395731  0.86639241  1
  La3+  La68  1  0.00079595  0.16611291  0.36596491  1
  La3+  La69  1  -0.00023908  0.16635823  0.11492146  1
  La3+  La70  1  0.00178579  0.49615182  0.61883101  1
  La3+  La71  1  -0.00101186  0.49757277  0.37894418  1
  La3+  La72  1  0.75022036  0.49930802  0.54788128  1
  La3+  La73  1  0.25005061  0.79195862  -0.04686679  1
  La3+  La74  1  0.25001934  0.11877455  0.25950092  1
  La3+  La75  1  0.24994967  0.20637667  -0.04741745  1
  La3+  La76  1  0.25011081  0.78773605  0.26659776  1
  La3+  La77  1  0.25014945  0.49980439  0.50130190  1
  La3+  La78  1  0.75007514  0.83312646  0.53601559  1
  La3+  La79  1  0.74985547  0.83427078  0.77356197  1
  La3+  La80  1  0.74984239  0.83234014  0.22684312  1
  La3+  La81  1  0.25009426  0.46554227  0.24907189  1
  La3+  La82  1  0.24994134  0.53524161  0.02425648  1
  La3+  La83  1  0.24987959  0.80200161  0.50555718  1
  Ru4+  Ru84  1  -0.00068382  0.00140961  -0.00016727  1
  Ru4+  Ru85  1  -0.00218153  -0.00231790  0.24940921  1
  Ru4+  Ru86  1  0.00276149  -0.00016730  0.50080592  1
  Ru4+  Ru87  1  -0.00209498  0.00437916  0.75051833  1
  Ru4+  Ru88  1  0.00065438  0.33476239  -0.00565942  1
  Ru4+  Ru89  1  0.00081847  0.33378547  0.25165531  1
  Ru4+  Ru90  1  -0.00016034  0.32888013  0.50002410  1
  Ru4+  Ru91  1  0.00355456  0.32821706  0.75386941  1
  Ru4+  Ru92  1  -0.00153229  0.66260561  -0.00202063  1
  Ru4+  Ru93  1  0.00061474  0.66951123  0.24806732  1
  Ru4+  Ru94  1  -0.00245924  0.67115503  0.50210059  1
  Ru4+  Ru95  1  0.00039985  0.66810845  0.75057307  1
  Ru4+  Ru96  1  0.50110834  0.00145021  -0.00072690  1
  Ru4+  Ru97  1  0.49935113  0.00042565  0.25299092  1
  Ru4+  Ru98  1  0.50004144  0.00225378  0.49913905  1
  Ru4+  Ru99  1  0.49947608  0.00107779  0.74999269  1
  Ru4+  Ru100  1  0.50090380  0.33238252  0.00158528  1
  Ru4+  Ru101  1  0.50247984  0.33426855  0.24862198  1
  Ru4+  Ru102  1  0.49774535  0.34086699  0.49965455  1
  Ru4+  Ru103  1  0.50054661  0.33292238  0.74988552  1
  Ru4+  Ru104  1  0.49751956  0.66458971  0.00284206  1
  Ru4+  Ru105  1  0.50086130  0.66663407  0.24764607  1
  Ru4+  Ru106  1  0.49915029  0.66749702  0.49496344  1
  Ru4+  Ru107  1  0.50191707  0.66200791  0.75294903  1
  Ru4+  Ru108  1  0.11072047  0.16773417  -0.00045839  1
  Ru4+  Ru109  1  0.11348093  0.16997335  0.25072061  1
  Ru4+  Ru110  1  0.11258326  0.16650728  0.50031932  1
  Ru4+  Ru111  1  0.11314361  0.16801231  0.75024227  1
  Ru4+  Ru112  1  0.11021999  0.50002335  -0.00048592  1
  Ru4+  Ru113  1  0.11354693  0.50373244  0.25118143  1
  Ru4+  Ru114  1  0.11341080  0.49787308  0.49968394  1
  Ru4+  Ru115  1  0.11380058  0.49850995  0.75007531  1
  Ru4+  Ru116  1  0.11329494  0.83289007  0.00061364  1
  Ru4+  Ru117  1  0.11224302  0.83456033  0.25036359  1
  Ru4+  Ru118  1  0.11198598  0.83419032  0.50043358  1
  Ru4+  Ru119  1  0.11420249  0.83295534  0.74967893  1
  Ru4+  Ru120  1  0.61356030  0.16824840  -0.00004786  1
  Ru4+  Ru121  1  0.61240191  0.16781162  0.24971994  1
  Ru4+  Ru122  1  0.61800161  0.16295360  0.49960714  1
  Ru4+  Ru123  1  0.61363738  0.16754362  0.74998891  1
  Ru4+  Ru124  1  0.61533720  0.49684668  0.00026556  1
  Ru4+  Ru125  1  0.61340553  0.49714529  0.24931473  1
  Ru4+  Ru126  1  0.61234518  0.49970164  0.50052845  1
  Ru4+  Ru127  1  0.61289619  0.49900301  0.74969621  1
  Ru4+  Ru128  1  0.61330642  0.83421753  0.00049084  1
  Ru4+  Ru129  1  0.61240093  0.83354049  0.25121779  1
  Ru4+  Ru130  1  0.61221020  0.83443587  0.49907313  1
  Ru4+  Ru131  1  0.61383350  0.83550097  0.75012603  1
  Ru4+  Ru132  1  0.38828451  0.16821800  0.00045738  1
  Ru4+  Ru133  1  0.38845329  0.16543921  0.25043919  1
  Ru4+  Ru134  1  0.38476136  0.16593875  0.50013996  1
  Ru4+  Ru135  1  0.38673740  0.16575474  0.74994343  1
  Ru4+  Ru136  1  0.38820088  0.50157620  0.00116958  1
  Ru4+  Ru137  1  0.38800917  0.49831091  0.24983489  1
  Ru4+  Ru138  1  0.38742676  0.49977550  0.49991122  1
  Ru4+  Ru139  1  0.38634367  0.49750358  0.74962612  1
  Ru4+  Ru140  1  0.38502585  0.83475171  0.00067355  1
  Ru4+  Ru141  1  0.38862281  0.83369279  0.25016304  1
  Ru4+  Ru142  1  0.38783696  0.83180763  0.49903940  1
  Ru4+  Ru143  1  0.38519854  0.83628545  0.75011969  1
  Ru4+  Ru144  1  0.88625610  0.16861575  0.00041204  1
  Ru4+  Ru145  1  0.88531752  0.16368149  0.24913569  1
  Ru4+  Ru146  1  0.88452802  0.17050630  0.50087688  1
  Ru4+  Ru147  1  0.88719109  0.16653520  0.75024035  1
  Ru4+  Ru148  1  0.88855476  0.50001979  -0.00032301  1
  Ru4+  Ru149  1  0.88418037  0.49521159  0.24995116  1
  Ru4+  Ru150  1  0.88737400  0.49997524  0.49951289  1
  Ru4+  Ru151  1  0.88424590  0.50183578  0.75165728  1
  Ru4+  Ru152  1  0.88794965  0.83357553  0.00076193  1
  Ru4+  Ru153  1  0.88789229  0.83196191  0.24997460  1
  Ru4+  Ru154  1  0.88804088  0.83362792  0.50036840  1
  Ru4+  Ru155  1  0.88734751  0.83235623  0.74990652  1
  Ru4+  Ru156  1  0.74990892  0.57937393  0.00257364  1
  Ru4+  Ru157  1  0.75000355  0.75351434  0.00088990  1
  Ru4+  Ru158  1  0.74983969  0.08944834  0.74893411  1
  Ru4+  Ru159  1  0.74996214  0.57935602  0.24448113  1
  Ru4+  Ru160  1  0.24998389  0.94348796  0.25401717  1
  Ru4+  Ru161  1  0.25010659  0.58263279  0.75324347  1
  Ru4+  Ru162  1  0.74988409  0.62593696  0.49585105  1
  Ru4+  Ru163  1  0.24998576  0.27677099  0.25364173  1
  Ru4+  Ru164  1  0.25006018  0.75000213  0.75140980  1
  Ru4+  Ru165  1  0.74979829  0.25199488  0.24957414  1
  Ru4+  Ru166  1  0.74996540  0.41910235  0.00127496  1
  Ru4+  Ru167  1  0.25003146  0.93642398  0.00659061  1
  Ru4+  Ru168  1  0.74973375  0.58068474  0.75049600  1
  Ru4+  Ru169  1  0.75023287  0.95135978  0.25878857  1
  Ru4+  Ru170  1  0.75033816  0.71209607  0.25288068  1
  Ru4+  Ru171  1  0.75000007  0.08774462  0.25054440  1
  Ru4+  Ru172  1  0.74981464  0.08678852  -0.00073731  1
  Ru4+  Ru173  1  0.75026452  0.91371654  0.00171125  1
  Ru4+  Ru174  1  0.74993972  0.37286565  0.48310322  1
  Ru4+  Ru175  1  0.24991084  0.94723499  0.50412693  1
  Ru4+  Ru176  1  0.25008996  0.06292687  0.00614563  1
  Ru4+  Ru177  1  0.25004516  0.24942859  0.74535061  1
  Ru4+  Ru178  1  0.24987798  0.39113847  0.00073727  1
  Ru4+  Ru179  1  0.25009894  0.60645159  0.25917797  1
  O2-  O180  1  0.16649145  0.07990464  0.00101352  1
  O2-  O181  1  0.16564394  0.07922484  0.25006798  1
  O2-  O182  1  0.16693488  0.08084057  0.49841686  1
  O2-  O183  1  0.16732895  0.08216563  0.75145025  1
  O2-  O184  1  0.16743893  0.41340072  0.00118074  1
  O2-  O185  1  0.16700912  0.41353792  0.25023672  1
  O2-  O186  1  0.16873990  0.41425408  0.49993576  1
  O2-  O187  1  0.16669961  0.41498711  0.74990083  1
  O2-  O188  1  0.16709463  0.74754077  0.00076976  1
  O2-  O189  1  0.16698395  0.74565085  0.24965117  1
  O2-  O190  1  0.16729030  0.74611990  0.49967978  1
  O2-  O191  1  0.16776476  0.74770308  0.75020303  1
  O2-  O192  1  0.66842641  0.08040863  0.00044380  1
  O2-  O193  1  0.66685645  0.08033376  0.25049628  1
  O2-  O194  1  0.66650385  0.08083909  0.49915697  1
  O2-  O195  1  0.66779591  0.08109574  0.75014092  1
  O2-  O196  1  0.66734475  0.41514215  0.00010567  1
  O2-  O197  1  0.66692293  0.41594695  0.25079542  1
  O2-  O198  1  0.66621429  0.41310902  0.49998538  1
  O2-  O199  1  0.66672371  0.41473304  0.74955829  1
  O2-  O200  1  0.66799620  0.74751209  0.00026458  1
  O2-  O201  1  0.66654443  0.74557265  0.24976044  1
  O2-  O202  1  0.66744175  0.74668160  0.49948653  1
  O2-  O203  1  0.66827741  0.74632803  0.75012555  1
  O2-  O204  1  0.33244101  0.25283491  0.00073545  1
  O2-  O205  1  0.33234170  0.25332312  0.24975709  1
  O2-  O206  1  0.33191404  0.25171852  0.49979171  1
  O2-  O207  1  0.33170633  0.25248421  0.75124046  1
  O2-  O208  1  0.33346452  0.58575388  0.00009610  1
  O2-  O209  1  0.33311841  0.58738553  0.25014590  1
  O2-  O210  1  0.33039903  0.58590888  0.50012831  1
  O2-  O211  1  0.33109671  0.58620346  0.75003732  1
  O2-  O212  1  0.33303381  0.91966845  0.00035956  1
  O2-  O213  1  0.33296072  0.92018802  0.25015243  1
  O2-  O214  1  0.33289752  0.92015735  0.49973040  1
  O2-  O215  1  0.33260602  0.91780791  0.75104900  1
  O2-  O216  1  0.83226260  0.25173137  -0.00015253  1
  O2-  O217  1  0.83298149  0.25188359  0.25019562  1
  O2-  O218  1  0.83360540  0.25146847  0.49942924  1
  O2-  O219  1  0.83420975  0.25117275  0.74983465  1
  O2-  O220  1  0.83283205  0.58585871  0.00022474  1
  O2-  O221  1  0.83228816  0.58630900  0.25017427  1
  O2-  O222  1  0.83412654  0.58715980  0.49951613  1
  O2-  O223  1  0.83241815  0.58603029  0.74977499  1
  O2-  O224  1  0.83145166  0.91991362  0.00010558  1
  O2-  O225  1  0.83344423  0.92136218  0.25066685  1
  O2-  O226  1  0.83134282  0.91958754  0.49935896  1
  O2-  O227  1  0.83298372  0.91976821  0.75035929  1
  O2-  O228  1  0.16703564  0.25319288  0.00132833  1
  O2-  O229  1  0.16743517  0.25293406  0.25019802  1
  O2-  O230  1  0.16672762  0.25264423  0.49960314  1
  O2-  O231  1  0.16778269  0.25121420  0.75031091  1
  O2-  O232  1  0.16573775  0.58621762  0.00027596  1
  O2-  O233  1  0.16720518  0.58614485  0.25047490  1
  O2-  O234  1  0.17008018  0.58654416  0.49981836  1
  O2-  O235  1  0.16841066  0.58612059  0.74998026  1
  O2-  O236  1  0.16641365  0.92035056  0.00064322  1
  O2-  O237  1  0.16652697  0.91998835  0.25023206  1
  O2-  O238  1  0.16785754  0.91960892  0.49872464  1
  O2-  O239  1  0.16795289  0.91814010  0.75084860  1
  O2-  O240  1  0.66679962  0.25154356  -0.00011990  1
  O2-  O241  1  0.66783074  0.25205329  0.25032101  1
  O2-  O242  1  0.66775609  0.25147130  0.50001994  1
  O2-  O243  1  0.66588692  0.25156796  0.74965210  1
  O2-  O244  1  0.66772337  0.58619429  0.00044311  1
  O2-  O245  1  0.66731820  0.58688379  0.25095569  1
  O2-  O246  1  0.66587971  0.58693552  0.49941378  1
  O2-  O247  1  0.66846026  0.58675710  0.74940688  1
  O2-  O248  1  0.66725556  0.91930045  0.00053546  1
  O2-  O249  1  0.66572527  0.92095375  0.25012628  1
  O2-  O250  1  0.66796435  0.91947931  0.49903202  1
  O2-  O251  1  0.66721161  0.91883747  0.75054785  1
  O2-  O252  1  0.33341245  0.07956761  0.00007820  1
  O2-  O253  1  0.33450635  0.07946784  0.25036894  1
  O2-  O254  1  0.33358872  0.08107497  0.49911784  1
  O2-  O255  1  0.33354847  0.08194647  0.75129375  1
  O2-  O256  1  0.33363084  0.41288474  -0.00003994  1
  O2-  O257  1  0.33268651  0.41394669  0.25000731  1
  O2-  O258  1  0.33030741  0.41471992  0.50036547  1
  O2-  O259  1  0.33328757  0.41511779  0.75076956  1
  O2-  O260  1  0.33373918  0.74815766  0.00088725  1
  O2-  O261  1  0.33396299  0.74567948  0.24988696  1
  O2-  O262  1  0.33183180  0.74653860  0.50011616  1
  O2-  O263  1  0.33173610  0.74749055  0.75037224  1
  O2-  O264  1  0.83230790  0.08081533  -0.00017610  1
  O2-  O265  1  0.83305704  0.08104074  0.25033093  1
  O2-  O266  1  0.83320197  0.08127859  0.49941659  1
  O2-  O267  1  0.83287940  0.08093575  0.75008437  1
  O2-  O268  1  0.83242822  0.41446045  0.00019967  1
  O2-  O269  1  0.83441779  0.41601896  0.25031553  1
  O2-  O270  1  0.83386166  0.41308148  0.49947329  1
  O2-  O271  1  0.83293994  0.41564296  0.74977194  1
  O2-  O272  1  0.83275377  0.74712777  -0.00002616  1
  O2-  O273  1  0.83454848  0.74561688  0.25030863  1
  O2-  O274  1  0.83315685  0.74718794  0.49952300  1
  O2-  O275  1  0.83236506  0.74636756  0.74986959  1
  O2-  O276  1  0.04604321  0.90114661  0.98844745  1
  O2-  O277  1  0.04131383  0.55690213  0.46999624  1
  O2-  O278  1  0.45315365  0.09978721  0.98536414  1
  O2-  O279  1  0.95224146  0.56996953  0.01446031  1
  O2-  O280  1  0.45492958  0.09960929  0.26345673  1
  O2-  O281  1  0.95280893  0.23630560  0.51317124  1
  O2-  O282  1  0.04984905  0.09830875  0.23318594  1
  O2-  O283  1  0.95401084  0.43072092  0.26469820  1
  O2-  O284  1  0.54645578  0.09998817  0.01464419  1
  O2-  O285  1  0.04173053  0.10687578  0.77666299  1
  O2-  O286  1  0.95416140  0.90361228  0.76243877  1
  O2-  O287  1  0.46627532  0.20385291  0.47766588  1
  O2-  O288  1  0.54298830  0.77193827  0.26140613  1
  O2-  O289  1  0.04843520  0.09615802  0.51424965  1
  O2-  O290  1  0.54331019  0.22783084  0.50668652  1
  O2-  O291  1  0.95261345  0.09750530  0.48014879  1
  O2-  O292  1  0.95392559  0.42897260  0.51043850  1
  O2-  O293  1  0.95192932  0.23767775  0.26499663  1
  O2-  O294  1  0.54481064  0.09360617  0.51605109  1
  O2-  O295  1  0.54328899  0.22788478  0.50649572  1
  O2-  O296  1  0.54698605  0.76171251  0.23571224  1
  O2-  O297  1  0.95306880  0.09987155  0.23548327  1
  O2-  O298  1  0.04824830  0.56672290  0.01432451  1
  O2-  O299  1  0.95198918  0.09790859  0.73489354  1
  O2-  O300  1  0.45466477  0.43200935  0.01498790  1
  O2-  O301  1  0.54669918  0.57137369  0.98142207  1
  O2-  O302  1  0.04884207  0.42982665  0.23492529  1
  O2-  O303  1  0.95214710  0.42880194  0.73626284  1
  O2-  O304  1  0.54535847  0.43219647  0.51515802  1
  O2-  O305  1  0.54621043  0.76423159  0.51216516  1
  O2-  O306  1  0.95469763  0.42989137  0.98585671  1
  O2-  O307  1  0.54627757  0.89958394  0.01536342  1
  O2-  O308  1  0.03825712  0.77660925  0.22023599  1
  O2-  O309  1  0.95254567  0.57052033  0.51218864  1
  O2-  O310  1  0.45424039  0.57063058  0.26265021  1
  O2-  O311  1  0.04737543  0.23604916  0.48534641  1
  O2-  O312  1  0.45391207  0.56961564  0.76279787  1
  O2-  O313  1  0.04452485  0.76649922  0.51465267  1
  O2-  O314  1  0.54486463  0.56698710  0.02033128  1
  O2-  O315  1  0.04550466  0.23289469  0.98730315  1
  O2-  O316  1  0.95347034  0.09726631  0.51909141  1
  O2-  O317  1  0.46005264  0.89216363  0.97111140  1
  O2-  O318  1  0.54645572  0.57079812  0.48767139  1
  O2-  O319  1  0.45504566  0.90069568  0.48507014  1
  O2-  O320  1  0.45333844  0.76173873  0.98351383  1
  O2-  O321  1  0.45225854  0.76509897  0.26469674  1
  O2-  O322  1  0.95465190  0.56888476  0.76639638  1
  O2-  O323  1  0.95329852  0.57020838  0.26605677  1
  O2-  O324  1  0.07125393  0.60916707  0.55038268  1
  O2-  O325  1  0.43608527  0.26447329  0.71800886  1
  O2-  O326  1  0.06610184  0.40413879  0.97237547  1
  O2-  O327  1  0.93782201  0.26355149  0.28195578  1
  O2-  O328  1  0.43485375  0.40678230  0.47138544  1
  O2-  O329  1  0.06625266  0.59272065  0.28042116  1
  O2-  O330  1  0.56432828  0.40597944  0.22263460  1
  O2-  O331  1  0.06300431  0.93108701  0.53219318  1
  O2-  O332  1  0.56608733  0.73925996  0.05045097  1
  O2-  O333  1  0.56503191  0.25963860  0.22104009  1
  O2-  O334  1  0.56688102  0.73167359  0.28356430  1
  O2-  O335  1  0.06633596  0.73989730  0.05211198  1
  O2-  O336  1  0.93463583  0.92731710  0.30087415  1
  O2-  O337  1  0.57383747  0.28144490  0.45295106  1
  O2-  O338  1  0.06449093  0.73449642  0.94285677  1
  O2-  O339  1  0.56422713  0.73583285  0.80736068  1
  O2-  O340  1  0.06540880  0.26133312  0.27863963  1
  O2-  O341  1  0.06194473  0.06932130  0.21894357  1
  O2-  O342  1  0.43604194  0.73707385  0.46688746  1
  O2-  O343  1  0.93654933  0.26466069  0.03343007  1
  O2-  O344  1  0.43384443  0.26045433  0.29880112  1
  O2-  O345  1  0.43585802  0.59598178  0.46690779  1
  O2-  O346  1  0.06397059  0.92887875  0.69368367  1
  O2-  O347  1  0.06516297  0.26305562  0.77762428  1
  O2-  O348  1  0.07194652  0.73054055  0.29422788  1
  O2-  O349  1  0.43806916  0.73718882  0.96705249  1
  O2-  O350  1  0.56686436  0.73907084  0.69854043  1
  O2-  O351  1  0.43596890  0.59858084  0.03211777  1
  O2-  O352  1  0.56437779  0.92916634  0.71685893  1
  O2-  O353  1  0.43595366  0.26453991  0.03267950  1
  O2-  O354  1  0.56409357  0.73609624  0.94535165  1
  O2-  O355  1  0.06889252  0.06352752  0.70582935  1
  O2-  O356  1  0.56410598  0.93126725  0.28292430  1
  O2-  O357  1  0.56368392  0.07079485  0.71730453  1
  O2-  O358  1  0.06593506  0.92853190  0.80235412  1
  O2-  O359  1  0.43228544  0.73972378  0.69820683  1
  O2-  O360  1  0.42311270  0.27693797  0.44049059  1
  O2-  O361  1  0.43497824  0.92881641  0.72092208  1
  O2-  O362  1  0.93589856  0.40591969  0.71973183  1
  O2-  O363  1  0.43541588  0.26421874  0.19682116  1
  O2-  O364  1  0.06154148  0.40302804  0.21715260  1
  O2-  O365  1  0.93604467  0.59388133  0.27861003  1
  O2-  O366  1  0.93452843  0.92794416  0.02869477  1
  O2-  O367  1  0.93679488  0.93020756  0.53262794  1
  O2-  O368  1  0.93428304  0.92694921  0.19921013  1
  O2-  O369  1  0.43542893  0.73591038  0.80790237  1
  O2-  O370  1  0.42957468  0.27387818  0.56827407  1
  O2-  O371  1  0.42789412  0.93618463  0.04357032  1
  O2-  O372  1  0.74999582  0.33187195  0.92128427  1
  O2-  O373  1  0.24986821  0.33192767  0.65878228  1
  O2-  O374  1  0.75003588  0.66716153  0.90713236  1
  O2-  O375  1  0.74984623  0.00194856  0.15270946  1
  O2-  O376  1  0.24994400  0.66616904  0.65662629  1
  O2-  O377  1  0.74991406  0.66966358  0.60032332  1
  O2-  O378  1  0.74994846  0.33448585  0.82995191  1
  O2-  O379  1  0.75007451  0.00156784  0.65830453  1
  O2-  O380  1  0.74995035  -0.00177641  0.82161194  1
  O2-  O381  1  0.75008220  0.66718478  0.09371017  1
  O2-  O382  1  0.75010158  0.33118265  0.15787637  1
  O2-  O383  1  0.75000341  0.32545953  0.58481331  1
  O2-  O384  1  0.24988834  0.66682660  0.07436372  1
  O2-  O385  1  0.24998042  -0.00245344  0.65195218  1
  O2-  O386  1  0.74990965  0.00075538  0.92822947  1
  O2-  O387  1  0.24991177  0.67407766  0.16864509  1
  O2-  O388  1  0.74987028  0.33445305  0.67370306  1
  O2-  O389  1  0.24995316  0.33599579  0.15374018  1
  O2-  O390  1  0.75005522  0.33183415  0.34255152  1
  O2-  O391  1  0.74996727  0.67103263  0.39784287  1
  O2-  O392  1  0.25019654  0.33040748  0.90302284  1
  O2-  O393  1  0.24998521  0.00279339  0.15442596  1
  O2-  O394  1  0.25014594  -0.00006904  0.89922440  1
  O2-  O395  1  0.24994803  0.66783192  0.90320867  1
  O2-  O396  1  0.75009639  0.83419363  0.34579657  1
  O2-  O397  1  0.25005577  0.17585150  0.36703315  1
  O2-  O398  1  0.25007205  0.16604020  0.44711184  1
  O2-  O399  1  0.75001959  0.49870008  0.82627499  1
  O2-  O400  1  0.75000851  0.83324937  0.91083582  1
  O2-  O401  1  0.74995414  0.16500274  0.59326675  1
  O2-  O402  1  0.74997517  0.83289019  0.64525580  1
  O2-  O403  1  0.74994985  0.50085777  0.92075672  1
  O2-  O404  1  0.75005682  0.83300249  0.11027408  1
  O2-  O405  1  0.25006625  0.16525114  0.66913696  1
  O2-  O406  1  0.25001767  0.49733426  0.88468187  1
  O2-  O407  1  0.24999285  0.83930853  0.07138273  1
  O2-  O408  1  0.75000854  0.16279351  0.83808972  1
  O2-  O409  1  0.75000566  0.16558791  0.34013867  1
  O2-  O410  1  0.25013233  0.15910407  0.06874425  1
  O2-  O411  1  0.75001762  0.50364432  0.15978582  1
  O2-  O412  1  0.75005355  0.83387614  0.42140500  1
  O2-  O413  1  0.74996370  0.50022561  0.40377891  1
  O2-  O414  1  0.25014303  0.17769578  0.14929075  1
  O2-  O415  1  0.25000630  0.16803554  0.58328646  1
  O2-  O416  1  0.24991287  0.84041316  0.15396764  1
  O2-  O417  1  0.74999569  0.16621473  0.15895140  1
  O2-  O418  1  0.75000627  0.49733853  0.31573904  1
  O2-  O419  1  0.25000895  0.84189779  0.38560300  1
  O2-  O420  1  0.47835087  0.34015647  0.37211666  1
  O2-  O421  1  0.47349738  0.00274122  0.62190709  1
  O2-  O422  1  0.52633565  0.66333709  0.12948485  1
  O2-  O423  1  0.03010699  0.66264275  0.13134076  1
  O2-  O424  1  0.53316678  0.66125143  0.62102410  1
  O2-  O425  1  0.02586906  0.00250876  0.88085700  1
  O2-  O426  1  0.46571524  0.00019457  0.87398299  1
  O2-  O427  1  0.46684807  0.66199981  0.62022559  1
  O2-  O428  1  0.52485534  0.33290546  0.11791075  1
  O2-  O429  1  0.97187356  0.66815504  0.62447051  1
  O2-  O430  1  0.02671689  0.33816721  0.37883075  1
  O2-  O431  1  0.97448413  0.33063084  0.62324356  1
  O2-  O432  1  0.02835875  0.66629544  0.38103160  1
  O2-  O433  1  0.47011728  0.00307189  0.12935635  1
  O2-  O434  1  0.96874585  0.67053068  0.37873267  1
  O2-  O435  1  0.47256966  -0.00053611  0.37449467  1
  O2-  O436  1  0.53448373  0.00003231  0.87516760  1
  O2-  O437  1  0.97456452  0.00196975  0.37862101  1
  O2-  O438  1  0.97659962  0.00480825  0.12226802  1
  O2-  O439  1  0.96711255  0.66806377  0.12785287  1
  O2-  O440  1  0.52738644  0.33330736  0.87485239  1
  O2-  O441  1  0.02410505  0.33418877  0.87264287  1
  O2-  O442  1  0.53195897  -0.00000060  0.12677573  1
  O2-  O443  1  0.52782205  0.33382356  0.62704060  1
