# generated using pymatgen
data_La7(Ru4O11)2
_symmetry_space_group_name_H-M   'P 1'
_cell_length_a   23.99049815
_cell_length_b   16.83029445
_cell_length_c   15.42749162
_cell_angle_alpha   89.99842131
_cell_angle_beta   89.99986216
_cell_angle_gamma   89.99859526
_symmetry_Int_Tables_number   1
_chemical_formula_structural   La7(Ru4O11)2
_chemical_formula_sum   'La84 Ru96 O264'
_cell_volume   6229.11428352
_cell_formula_units_Z   12
loop_
 _symmetry_equiv_pos_site_id
 _symmetry_equiv_pos_as_xyz
  1  'x, y, z'
loop_
 _atom_type_symbol
 _atom_type_oxidation_number
  La3+  3.0
  Ru4+  4.0
  O2-  -2.0
loop_
 _atom_site_type_symbol
 _atom_site_label
 _atom_site_symmetry_multiplicity
 _atom_site_fract_x
 _atom_site_fract_y
 _atom_site_fract_z
 _atom_site_occupancy
  La3+  La0  1  0.12796961  0.00201264  0.12276552  1
  La3+  La1  1  0.13228110  -0.00660256  0.36956184  1
  La3+  La2  1  0.13935394  -0.00264076  0.62395713  1
  La3+  La3  1  0.13454272  0.00833689  0.88823383  1
  La3+  La4  1  0.13634680  0.33517372  0.12747512  1
  La3+  La5  1  0.14452632  0.33475159  0.37425211  1
  La3+  La6  1  0.14085921  0.33236622  0.61998485  1
  La3+  La7  1  0.13416319  0.33314996  0.87891351  1
  La3+  La8  1  0.13376106  0.67753900  0.11742838  1
  La3+  La9  1  0.13792328  0.66698018  0.37337769  1
  La3+  La10  1  0.13501149  0.66695264  0.62767777  1
  La3+  La11  1  0.12990173  0.67789377  0.88512646  1
  La3+  La12  1  0.63728822  0.00061896  0.12336592  1
  La3+  La13  1  0.63888204  0.00085896  0.37500239  1
  La3+  La14  1  0.63226584  0.00103965  0.62229714  1
  La3+  La15  1  0.63770385  0.00097900  0.87759269  1
  La3+  La16  1  0.64024699  0.33278293  0.12834425  1
  La3+  La17  1  0.64871029  0.33115061  0.36828273  1
  La3+  La18  1  0.64616892  0.33113108  0.62841585  1
  La3+  La19  1  0.63715825  0.33270633  0.87861314  1
  La3+  La20  1  0.64066315  0.66371218  0.12916014  1
  La3+  La21  1  0.64238446  0.66428152  0.37526694  1
  La3+  La22  1  0.64054827  0.66585766  0.62326160  1
  La3+  La23  1  0.63916736  0.66327754  0.87243956  1
  La3+  La24  1  0.35975588  0.00185768  0.12634234  1
  La3+  La25  1  0.36014762  0.00075735  0.37444933  1
  La3+  La26  1  0.35837541  -0.00124252  0.62943986  1
  La3+  La27  1  0.36107758  0.00197247  0.87503337  1
  La3+  La28  1  0.35489960  0.32828073  0.12880856  1
  La3+  La29  1  0.35269026  0.33338946  0.37413245  1
  La3+  La30  1  0.35713676  0.33244414  0.62022776  1
  La3+  La31  1  0.36508432  0.33495316  0.87972098  1
  La3+  La32  1  0.36076425  0.67018876  0.12566611  1
  La3+  La33  1  0.36195815  0.67010450  0.37307404  1
  La3+  La34  1  0.36404033  0.66750875  0.62256089  1
  La3+  La35  1  0.36139734  0.66763486  0.87937699  1
  La3+  La36  1  0.86467093  0.00022191  0.12584082  1
  La3+  La37  1  0.86283927  0.00203778  0.36951261  1
  La3+  La38  1  0.86340006  -0.00226257  0.62497493  1
  La3+  La39  1  0.86326085  0.00196881  0.87824992  1
  La3+  La40  1  0.85766216  0.33337224  0.12770197  1
  La3+  La41  1  0.86077450  0.33355938  0.36976697  1
  La3+  La42  1  0.86038490  0.33494951  0.62454704  1
  La3+  La43  1  0.86258192  0.33175798  0.87927409  1
  La3+  La44  1  0.85890494  0.66255175  0.12737248  1
  La3+  La45  1  0.86008113  0.66581700  0.37124874  1
  La3+  La46  1  0.85988054  0.66447638  0.62491813  1
  La3+  La47  1  0.86041536  0.66370099  0.87346259  1
  La3+  La48  1  0.00113440  0.83187271  0.89182374  1
  La3+  La49  1  -0.00359915  0.50395237  0.11669037  1
  La3+  La50  1  0.49889997  0.49726896  0.13422097  1
  La3+  La51  1  0.49669725  0.16283812  0.85794201  1
  La3+  La52  1  0.49362585  0.50418729  0.62378578  1
  La3+  La53  1  0.00326826  0.16066457  0.11099075  1
  La3+  La54  1  0.50757468  0.17071470  0.35319566  1
  La3+  La55  1  0.00858658  0.15379259  0.87818405  1
  La3+  La56  1  0.00311465  0.83897851  0.36610920  1
  La3+  La57  1  0.00065880  0.83145775  0.87450173  1
  La3+  La58  1  0.49908282  0.83691400  0.13550288  1
  La3+  La59  1  0.49614107  0.16173432  0.61359604  1
  La3+  La60  1  0.50550770  0.17208017  0.36951594  1
  La3+  La61  1  0.50430022  0.51114755  0.37414942  1
  La3+  La62  1  0.00494064  0.84074614  0.38299334  1
  La3+  La63  1  0.50289154  0.50172887  0.64082460  1
  La3+  La64  1  0.50367977  0.16225227  0.63248719  1
  La3+  La65  1  -0.00282913  0.50520027  0.60727223  1
  La3+  La66  1  0.00257174  0.16204124  0.12796608  1
  La3+  La67  1  0.50089822  0.82628855  0.11669598  1
  La3+  La68  1  0.00150584  0.16465581  0.62869460  1
  La3+  La69  1  -0.00083528  0.16677227  0.37085883  1
  La3+  La70  1  0.49119949  0.15607266  0.87746902  1
  La3+  La71  1  0.50108537  0.83687071  0.88168859  1
  La3+  La72  1  0.24923892  0.53484535  -0.02947033  1
  La3+  La73  1  0.24967691  0.49640595  0.53058393  1
  La3+  La74  1  0.24907169  0.11068907  0.76748778  1
  La3+  La75  1  0.24946108  0.87910324  0.79479753  1
  La3+  La76  1  0.74999412  0.52711542  0.00882521  1
  La3+  La77  1  0.24964206  0.44450050  0.21900799  1
  La3+  La78  1  0.25003819  0.17371768  0.25143991  1
  La3+  La79  1  0.74957047  0.17424157  0.71998012  1
  La3+  La80  1  0.25005463  0.86895762  0.44664563  1
  La3+  La81  1  0.75126633  0.83416426  -0.04068593  1
  La3+  La82  1  0.24988075  0.54035104  0.78248540  1
  La3+  La83  1  0.75117712  0.83240707  0.30726928  1
  Ru4+  Ru84  1  0.00343056  0.00197153  0.00816876  1
  Ru4+  Ru85  1  0.00208477  -0.00704874  0.24880107  1
  Ru4+  Ru86  1  -0.00169049  0.00345983  0.50429151  1
  Ru4+  Ru87  1  -0.00428169  0.00330689  0.75211465  1
  Ru4+  Ru88  1  -0.00387916  0.32928930  -0.00208652  1
  Ru4+  Ru89  1  -0.00454363  0.33086303  0.24804415  1
  Ru4+  Ru90  1  0.00170726  0.33428160  0.49917993  1
  Ru4+  Ru91  1  0.00306790  0.33707609  0.75507849  1
  Ru4+  Ru92  1  0.00072910  0.67170447  0.00831259  1
  Ru4+  Ru93  1  0.00101705  0.66917725  0.24560495  1
  Ru4+  Ru94  1  0.00175596  0.66394292  0.49890340  1
  Ru4+  Ru95  1  -0.00467333  0.66270069  0.74483729  1
  Ru4+  Ru96  1  0.49642521  0.00954576  -0.00502654  1
  Ru4+  Ru97  1  0.49718323  0.00129777  0.24983704  1
  Ru4+  Ru98  1  0.49626978  -0.01264479  0.50841129  1
  Ru4+  Ru99  1  0.50453170  -0.01079319  0.75100937  1
  Ru4+  Ru100  1  0.50040351  0.33494480  0.00237615  1
  Ru4+  Ru101  1  0.50108041  0.33050807  0.24751520  1
  Ru4+  Ru102  1  0.50013442  0.33978210  0.49564439  1
  Ru4+  Ru103  1  0.50038339  0.33419067  0.76092494  1
  Ru4+  Ru104  1  0.49766501  0.65958296  -0.00367986  1
  Ru4+  Ru105  1  0.50610138  0.66132573  0.24801416  1
  Ru4+  Ru106  1  0.49961900  0.67303563  0.50429233  1
  Ru4+  Ru107  1  0.49993657  0.67191898  0.75373402  1
  Ru4+  Ru108  1  0.11432956  0.16246282  0.00125166  1
  Ru4+  Ru109  1  0.11243873  0.16742807  0.24687769  1
  Ru4+  Ru110  1  0.11421211  0.16991691  0.50255632  1
  Ru4+  Ru111  1  0.11029536  0.16808013  0.75271110  1
  Ru4+  Ru112  1  0.11237145  0.50756068  -0.00161818  1
  Ru4+  Ru113  1  0.11414363  0.50579214  0.24985435  1
  Ru4+  Ru114  1  0.11052805  0.49774713  0.49907733  1
  Ru4+  Ru115  1  0.10813204  0.50014913  0.75275176  1
  Ru4+  Ru116  1  0.11139720  0.83189934  0.00385266  1
  Ru4+  Ru117  1  0.11082267  0.83232801  0.24618192  1
  Ru4+  Ru118  1  0.11529227  0.82620623  0.49912541  1
  Ru4+  Ru119  1  0.11379920  0.83894079  0.75225304  1
  Ru4+  Ru120  1  0.61492901  0.17173491  0.00229065  1
  Ru4+  Ru121  1  0.61349274  0.17024967  0.24922929  1
  Ru4+  Ru122  1  0.61803492  0.17065964  0.49855582  1
  Ru4+  Ru123  1  0.61141629  0.16756616  0.75148638  1
  Ru4+  Ru124  1  0.61114815  0.50320347  -0.00254088  1
  Ru4+  Ru125  1  0.61509283  0.50545741  0.24980093  1
  Ru4+  Ru126  1  0.61417614  0.49802106  0.49797173  1
  Ru4+  Ru127  1  0.61379115  0.50108530  0.74955344  1
  Ru4+  Ru128  1  0.61507057  0.82621880  -0.00229077  1
  Ru4+  Ru129  1  0.61385893  0.83193322  0.25220062  1
  Ru4+  Ru130  1  0.61164545  0.83094608  0.50235216  1
  Ru4+  Ru131  1  0.61026528  0.83008849  0.74842845  1
  Ru4+  Ru132  1  0.38674275  0.16329308  -0.00039800  1
  Ru4+  Ru133  1  0.39011992  0.16607336  0.24937413  1
  Ru4+  Ru134  1  0.38543056  0.16778041  0.50054262  1
  Ru4+  Ru135  1  0.38452529  0.17271955  0.75109541  1
  Ru4+  Ru136  1  0.38989938  0.50269060  -0.00206419  1
  Ru4+  Ru137  1  0.39022906  0.49606242  0.24847742  1
  Ru4+  Ru138  1  0.38669189  0.49949528  0.49776466  1
  Ru4+  Ru139  1  0.38974664  0.50215494  0.75129102  1
  Ru4+  Ru140  1  0.38375364  0.82981612  -0.00312979  1
  Ru4+  Ru141  1  0.38367681  0.83491065  0.25162389  1
  Ru4+  Ru142  1  0.39298399  0.83255328  0.50270384  1
  Ru4+  Ru143  1  0.39048427  0.83363298  0.75070236  1
  Ru4+  Ru144  1  0.88558563  0.16790831  0.00052806  1
  Ru4+  Ru145  1  0.88413070  0.17224831  0.25240302  1
  Ru4+  Ru146  1  0.88832457  0.16687969  0.49974621  1
  Ru4+  Ru147  1  0.89093531  0.16110992  0.74908202  1
  Ru4+  Ru148  1  0.88881884  0.50135690  0.00165135  1
  Ru4+  Ru149  1  0.88266499  0.50005618  0.24986619  1
  Ru4+  Ru150  1  0.88566422  0.50239011  0.50092170  1
  Ru4+  Ru151  1  0.88673820  0.50310084  0.74874125  1
  Ru4+  Ru152  1  0.88734293  0.82711150  -0.00031468  1
  Ru4+  Ru153  1  0.88688210  0.83188746  0.24473544  1
  Ru4+  Ru154  1  0.88626939  0.83234076  0.50114048  1
  Ru4+  Ru155  1  0.88931817  0.82796557  0.74855708  1
  Ru4+  Ru156  1  0.75021007  0.08123987  0.49692059  1
  Ru4+  Ru157  1  0.24995345  0.73277811  0.73709202  1
  Ru4+  Ru158  1  0.24976760  0.40177827  0.75754265  1
  Ru4+  Ru159  1  0.74996741  0.75274021  0.74138327  1
  Ru4+  Ru160  1  0.25030531  0.72615150  0.50571620  1
  Ru4+  Ru161  1  0.75014453  0.38851520  0.00624678  1
  Ru4+  Ru162  1  0.74991510  0.74975396  0.50208522  1
  Ru4+  Ru163  1  0.75013561  0.42385224  0.49256891  1
  Ru4+  Ru164  1  0.24954155  0.25972824  0.76407717  1
  Ru4+  Ru165  1  0.75003651  0.09430329  0.23179171  1
  Ru4+  Ru166  1  0.75002215  0.04021004  0.72741696  1
  Ru4+  Ru167  1  0.24952663  0.60919248  0.25018773  1
  Ru4+  Ru168  1  0.75001786  0.90981422  0.50274948  1
  Ru4+  Ru169  1  0.75020686  0.25394658  0.49673766  1
  Ru4+  Ru170  1  0.75039179  0.29279679  0.78386105  1
  Ru4+  Ru171  1  0.24974706  0.38553376  0.00718457  1
  Ru4+  Ru172  1  0.74960013  0.90304053  0.74362653  1
  Ru4+  Ru173  1  0.24950786  0.08319801  0.49576433  1
  Ru4+  Ru174  1  0.24971871  0.91369476  -0.00167756  1
  Ru4+  Ru175  1  0.74983376  0.95435128  0.02230696  1
  Ru4+  Ru176  1  0.25022680  0.24676513  -0.00190466  1
  Ru4+  Ru177  1  0.74975835  0.70958906  0.01720750  1
  Ru4+  Ru178  1  0.24976938  0.91346178  0.24638792  1
  Ru4+  Ru179  1  0.75038845  0.42853341  0.75037056  1
  O2-  O180  1  0.16902075  0.08371842  0.00257175  1
  O2-  O181  1  0.16852983  0.07952456  0.25030747  1
  O2-  O182  1  0.16660722  0.08067137  0.49784698  1
  O2-  O183  1  0.16014390  0.07604808  0.75014412  1
  O2-  O184  1  0.16822260  0.41266237  -0.00013589  1
  O2-  O185  1  0.16178136  0.41332840  0.25212320  1
  O2-  O186  1  0.16670141  0.41524161  0.50051112  1
  O2-  O187  1  0.16802083  0.41382473  0.74924507  1
  O2-  O188  1  0.16826772  0.74875892  0.00062095  1
  O2-  O189  1  0.16135085  0.74973790  0.25091801  1
  O2-  O190  1  0.16766867  0.74530925  0.50026311  1
  O2-  O191  1  0.16645650  0.74466762  0.74918659  1
  O2-  O192  1  0.66198802  0.08331216  -0.00015985  1
  O2-  O193  1  0.66916240  0.08248493  0.25003056  1
  O2-  O194  1  0.66763752  0.08072180  0.50069567  1
  O2-  O195  1  0.66824828  0.07559805  0.74844862  1
  O2-  O196  1  0.66681086  0.41402185  0.00039317  1
  O2-  O197  1  0.66275330  0.41697684  0.24898868  1
  O2-  O198  1  0.67110511  0.41697114  0.50013666  1
  O2-  O199  1  0.66864922  0.41515029  0.75312553  1
  O2-  O200  1  0.66654620  0.74236139  -0.00187348  1
  O2-  O201  1  0.66754729  0.74796821  0.25212179  1
  O2-  O202  1  0.66889061  0.75024228  0.49950673  1
  O2-  O203  1  0.66705165  0.74902778  0.74964364  1
  O2-  O204  1  0.33095090  0.25160372  -0.00184629  1
  O2-  O205  1  0.33443518  0.24806822  0.25248568  1
  O2-  O206  1  0.33628202  0.25104805  0.49896388  1
  O2-  O207  1  0.33316836  0.25602914  0.75228733  1
  O2-  O208  1  0.33439917  0.58607002  0.00239853  1
  O2-  O209  1  0.33518349  0.58631362  0.25025802  1
  O2-  O210  1  0.33263938  0.58796515  0.50089470  1
  O2-  O211  1  0.33690075  0.58850982  0.74794427  1
  O2-  O212  1  0.33384018  0.92061348  -0.00019552  1
  O2-  O213  1  0.33174356  0.91816479  0.25322028  1
  O2-  O214  1  0.33573025  0.91879029  0.49891903  1
  O2-  O215  1  0.33688866  0.91933241  0.75088022  1
  O2-  O216  1  0.83144557  0.25200221  -0.00443703  1
  O2-  O217  1  0.83129205  0.25246907  0.25074373  1
  O2-  O218  1  0.83420826  0.25364236  0.50050250  1
  O2-  O219  1  0.83648376  0.25586535  0.75053155  1
  O2-  O220  1  0.83565281  0.58630941  -0.00288611  1
  O2-  O221  1  0.83644588  0.58562579  0.25220333  1
  O2-  O222  1  0.83681187  0.58428319  0.49886479  1
  O2-  O223  1  0.83536169  0.58403244  0.74911715  1
  O2-  O224  1  0.83382316  0.92173301  0.00252377  1
  O2-  O225  1  0.83028020  0.91856254  0.25399356  1
  O2-  O226  1  0.83105704  0.91905935  0.49949577  1
  O2-  O227  1  0.83336932  0.91614720  0.74774904  1
  O2-  O228  1  0.16787583  0.25055213  0.00211644  1
  O2-  O229  1  0.16611112  0.25032510  0.24844750  1
  O2-  O230  1  0.16571631  0.25025425  0.49749274  1
  O2-  O231  1  0.16586110  0.25290863  0.75079419  1
  O2-  O232  1  0.16337604  0.58809348  0.00077769  1
  O2-  O233  1  0.16597123  0.58659918  0.25057470  1
  O2-  O234  1  0.16483899  0.58702274  0.50292190  1
  O2-  O235  1  0.16317106  0.58632726  0.74698819  1
  O2-  O236  1  0.16241267  0.91782949  0.00017071  1
  O2-  O237  1  0.16818881  0.91958009  0.25026968  1
  O2-  O238  1  0.16551882  0.91791729  0.50044428  1
  O2-  O239  1  0.16382617  0.92122029  0.75011799  1
  O2-  O240  1  0.66928840  0.25043315  -0.00302312  1
  O2-  O241  1  0.66945932  0.24881795  0.24477440  1
  O2-  O242  1  0.66809525  0.25386634  0.49946376  1
  O2-  O243  1  0.66490687  0.25533913  0.75384914  1
  O2-  O244  1  0.66432674  0.58717512  -0.00044341  1
  O2-  O245  1  0.66664879  0.58541869  0.25059094  1
  O2-  O246  1  0.66418539  0.58404005  0.49952904  1
  O2-  O247  1  0.66407997  0.58477050  0.75084980  1
  O2-  O248  1  0.66698189  0.92383800  0.00044166  1
  O2-  O249  1  0.66833645  0.92184660  0.25256529  1
  O2-  O250  1  0.66628654  0.91743221  0.49955202  1
  O2-  O251  1  0.66492265  0.91805563  0.74961175  1
  O2-  O252  1  0.33574405  0.08245454  0.00051256  1
  O2-  O253  1  0.32854004  0.08046841  0.25257213  1
  O2-  O254  1  0.33217002  0.08025874  0.49659054  1
  O2-  O255  1  0.33839946  0.07709048  0.75160491  1
  O2-  O256  1  0.33033827  0.41529411  -0.00266205  1
  O2-  O257  1  0.33712678  0.41486052  0.25463983  1
  O2-  O258  1  0.33334181  0.41438171  0.50068534  1
  O2-  O259  1  0.33420006  0.41196691  0.75142431  1
  O2-  O260  1  0.33547518  0.74664323  0.00116439  1
  O2-  O261  1  0.33474210  0.74787736  0.25212708  1
  O2-  O262  1  0.33137857  0.74661331  0.49772893  1
  O2-  O263  1  0.33377136  0.74605225  0.74904435  1
  O2-  O264  1  0.83423065  0.08460829  0.00121434  1
  O2-  O265  1  0.83163236  0.08153944  0.24987669  1
  O2-  O266  1  0.83404016  0.08063985  0.50041595  1
  O2-  O267  1  0.83170864  0.07715857  0.74782542  1
  O2-  O268  1  0.83319509  0.41368219  -0.00235704  1
  O2-  O269  1  0.83635064  0.41398783  0.25222334  1
  O2-  O270  1  0.83320748  0.41229408  0.49917891  1
  O2-  O271  1  0.83429745  0.41380313  0.75150900  1
  O2-  O272  1  0.83291429  0.74557165  -0.00049604  1
  O2-  O273  1  0.83038816  0.74872801  0.25511140  1
  O2-  O274  1  0.83359826  0.74893335  0.49947309  1
  O2-  O275  1  0.83228805  0.74760532  0.74937391  1
  O2-  O276  1  0.47299984  0.44677891  -0.00030525  1
  O2-  O277  1  0.05239682  0.90682939  0.47434050  1
  O2-  O278  1  0.04673708  0.90039417  0.24265141  1
  O2-  O279  1  0.45010860  0.57597700  0.48259481  1
  O2-  O280  1  0.04607572  0.43521435  0.98075959  1
  O2-  O281  1  0.04203380  0.76909072  0.73687712  1
  O2-  O282  1  0.94936230  0.09784186  0.25884136  1
  O2-  O283  1  0.52994675  0.21146695  0.21181756  1
  O2-  O284  1  0.95395806  0.76754233  0.29035390  1
  O2-  O285  1  0.04410705  0.89618758  0.50953876  1
  O2-  O286  1  0.95299083  0.89798994  0.01394144  1
  O2-  O287  1  0.45367757  0.43455688  0.76406149  1
  O2-  O288  1  0.46041738  0.45192471  0.96665674  1
  O2-  O289  1  0.04626580  0.89563747  0.27047950  1
  O2-  O290  1  0.54665370  0.89616397  0.76598131  1
  O2-  O291  1  0.46329155  0.44453503  0.28065771  1
  O2-  O292  1  0.95367355  0.24155504  0.48763561  1
  O2-  O293  1  0.53559564  0.21932765  0.97124319  1
  O2-  O294  1  0.53354643  0.45097053  0.48941253  1
  O2-  O295  1  0.05040880  0.76070857  0.97478019  1
  O2-  O296  1  0.45122382  0.89841495  0.00966486  1
  O2-  O297  1  0.45476841  0.11232050  0.45933577  1
  O2-  O298  1  0.54776941  0.09636132  0.51103380  1
  O2-  O299  1  0.04884828  0.09688672  0.01468943  1
  O2-  O300  1  0.03270129  0.44620601  0.70920130  1
  O2-  O301  1  0.04375739  0.77129026  -0.00134883  1
  O2-  O302  1  0.45375808  0.09900645  0.74063678  1
  O2-  O303  1  0.95575047  0.23990231  0.73852136  1
  O2-  O304  1  0.53214199  0.45387322  0.50753704  1
  O2-  O305  1  0.04605921  0.10170900  0.25709262  1
  O2-  O306  1  0.54949738  0.90617407  0.24593917  1
  O2-  O307  1  0.44933647  0.76113703  0.23056055  1
  O2-  O308  1  0.04840264  0.76515968  0.77479368  1
  O2-  O309  1  0.95459631  0.09519706  0.48723557  1
  O2-  O310  1  0.94773463  0.90492815  0.48462218  1
  O2-  O311  1  0.04694950  0.42977313  0.23301505  1
  O2-  O312  1  0.45869195  0.76384125  0.26685916  1
  O2-  O313  1  0.55252611  0.58486687  0.51695926  1
  O2-  O314  1  0.44190848  0.42053605  0.48357763  1
  O2-  O315  1  0.04746276  0.42563646  0.01860833  1
  O2-  O316  1  0.04590494  0.76036747  0.48936649  1
  O2-  O317  1  0.05326677  0.23513588  0.98965256  1
  O2-  O318  1  0.54798174  0.89942712  0.01419668  1
  O2-  O319  1  0.54515205  0.23554295  0.48830502  1
  O2-  O320  1  0.45300999  0.90108579  0.51111667  1
  O2-  O321  1  0.95936734  0.22212339  0.96065683  1
  O2-  O322  1  0.04676349  0.09839509  0.75699147  1
  O2-  O323  1  0.45285444  0.77074653  0.76307841  1
  O2-  O324  1  0.93785457  0.26273042  0.28556277  1
  O2-  O325  1  0.42080311  0.36292950  0.05085390  1
  O2-  O326  1  0.93656975  0.73803768  0.96604440  1
  O2-  O327  1  0.06874261  0.08129081  0.44433816  1
  O2-  O328  1  0.94371932  0.74967553  0.32036968  1
  O2-  O329  1  0.57369223  0.37129495  0.57894307  1
  O2-  O330  1  0.06066349  0.40595606  0.46909685  1
  O2-  O331  1  0.57705613  0.27178220  0.30145462  1
  O2-  O332  1  0.56245376  0.59296454  0.17777938  1
  O2-  O333  1  0.43717354  0.07849089  0.22823689  1
  O2-  O334  1  0.93380840  0.92302496  0.22719971  1
  O2-  O335  1  0.93627425  0.06993129  0.67543636  1
  O2-  O336  1  0.44030729  0.07729133  0.71738574  1
  O2-  O337  1  0.56470231  0.07355327  0.52551033  1
  O2-  O338  1  0.94097805  0.92906668  0.01993590  1
  O2-  O339  1  0.93140324  0.08411532  0.81345879  1
  O2-  O340  1  0.42825291  0.38326838  0.19406946  1
  O2-  O341  1  0.93343930  0.07737322  0.97411424  1
  O2-  O342  1  0.43466352  0.73871924  0.52329547  1
  O2-  O343  1  0.94083846  0.06843550  0.27706261  1
  O2-  O344  1  0.56421805  0.40313360  0.72218564  1
  O2-  O345  1  0.43302591  0.92630700  0.22216901  1
  O2-  O346  1  0.56311816  0.59737806  0.96881812  1
  O2-  O347  1  0.56287572  0.07070300  0.28659512  1
  O2-  O348  1  0.92229600  0.27106075  0.05364599  1
  O2-  O349  1  0.56418795  0.92263205  0.03014338  1
  O2-  O350  1  0.06441727  0.40482306  0.22501157  1
  O2-  O351  1  0.57921016  0.27693237  0.05106541  1
  O2-  O352  1  0.93950946  0.59366960  0.03403318  1
  O2-  O353  1  0.56484196  0.73389998  0.71997240  1
  O2-  O354  1  0.58712081  0.38704952  0.42855990  1
  O2-  O355  1  0.93221294  0.72512588  0.16486507  1
  O2-  O356  1  0.06812622  0.73485511  0.02472736  1
  O2-  O357  1  0.06668453  0.06999492  0.96607812  1
  O2-  O358  1  0.43303678  0.59346112  0.97501007  1
  O2-  O359  1  0.56356953  0.60142572  0.32143269  1
  O2-  O360  1  0.06109061  0.08140641  0.02714524  1
  O2-  O361  1  0.93807552  0.91720908  0.77612069  1
  O2-  O362  1  0.07289258  0.93536897  0.27830286  1
  O2-  O363  1  0.93781968  0.73840210  0.82033939  1
  O2-  O364  1  0.56676709  0.07341637  0.72359838  1
  O2-  O365  1  0.93273273  0.74491193  0.68837106  1
  O2-  O366  1  0.06631592  0.07681952  0.55320109  1
  O2-  O367  1  0.56353497  0.73943573  0.52986139  1
  O2-  O368  1  0.07832326  0.39453845  0.79831511  1
  O2-  O369  1  0.06093012  0.59864489  0.78059136  1
  O2-  O370  1  0.42822889  0.05167185  0.56192056  1
  O2-  O371  1  0.06308673  0.26019200  0.53505940  1
  O2-  O372  1  0.24973477  0.66680640  0.92567863  1
  O2-  O373  1  0.74929295  0.01309589  0.12134660  1
  O2-  O374  1  0.25047841  0.32937289  0.34595726  1
  O2-  O375  1  0.24916174  0.32686617  0.13943168  1
  O2-  O376  1  0.25002277  0.32954262  0.66261514  1
  O2-  O377  1  0.75020810  0.66439672  0.81787232  1
  O2-  O378  1  0.74998410  0.67405636  0.59768483  1
  O2-  O379  1  0.25065615  0.00002664  0.39898110  1
  O2-  O380  1  0.24995853  -0.00510718  0.57804586  1
  O2-  O381  1  0.24971798  0.66247871  0.83358537  1
  O2-  O382  1  0.24980014  -0.00321314  0.90059233  1
  O2-  O383  1  0.75150904  0.33588127  0.64526337  1
  O2-  O384  1  0.24963839  0.00478083  0.17230056  1
  O2-  O385  1  0.74980759  -0.01709501  0.83446542  1
  O2-  O386  1  0.25046430  0.67077522  0.35443616  1
  O2-  O387  1  0.75062940  0.67637266  0.40536927  1
  O2-  O388  1  0.24962494  -0.00011222  0.67041807  1
  O2-  O389  1  0.74978175  0.02198473  0.92357061  1
  O2-  O390  1  0.74992105  0.65059706  0.91274953  1
  O2-  O391  1  0.25014171  0.33697073  0.57008170  1
  O2-  O392  1  0.74916536  0.65363898  0.11814809  1
  O2-  O393  1  0.25013809  0.00220419  0.08095299  1
  O2-  O394  1  0.75004402  -0.00354652  0.40421956  1
  O2-  O395  1  0.25003233  0.66618845  0.15091732  1
  O2-  O396  1  0.25002197  0.83192332  0.08249330  1
  O2-  O397  1  0.74987817  0.83338744  0.64794978  1
  O2-  O398  1  0.25025277  0.50481796  0.09890773  1
  O2-  O399  1  0.25006122  0.18722653  0.88661486  1
  O2-  O400  1  0.75055086  0.49863560  0.57710591  1
  O2-  O401  1  0.24993608  0.82307195  0.57727998  1
  O2-  O402  1  0.25031812  0.49410462  0.65889656  1
  O2-  O403  1  0.25024516  0.49658804  0.40862053  1
  O2-  O404  1  0.74965985  0.82943820  0.83349911  1
  O2-  O405  1  0.25004898  0.17588001  0.55444803  1
  O2-  O406  1  0.75048958  0.50392415  0.66820234  1
  O2-  O407  1  0.25038727  0.83090402  0.92200601  1
  O2-  O408  1  0.74997914  0.16843680  0.40878445  1
  O2-  O409  1  0.74947085  0.83341706  0.18013423  1
  O2-  O410  1  0.75042573  0.49288697  0.14125686  1
  O2-  O411  1  0.24987011  0.51952384  0.32863590  1
  O2-  O412  1  0.25013580  0.83059666  0.17011194  1
  O2-  O413  1  0.25023731  0.17672572  0.64417139  1
  O2-  O414  1  0.25005441  0.82433850  0.66524891  1
  O2-  O415  1  0.75019932  0.49184940  0.35639908  1
  O2-  O416  1  0.75019777  0.16612466  0.57936021  1
  O2-  O417  1  0.74980819  0.83430578  0.09236495  1
  O2-  O418  1  0.74980822  0.15989249  0.11044204  1
  O2-  O419  1  0.75015767  0.17757695  0.85796638  1
  O2-  O420  1  0.53393628  0.00984105  0.12800031  1
  O2-  O421  1  0.46847504  0.00153105  0.11048037  1
  O2-  O422  1  0.47162478  0.66596511  0.12146501  1
  O2-  O423  1  0.95963455  0.01988062  0.12795351  1
  O2-  O424  1  0.54381642  0.00480555  0.88056560  1
  O2-  O425  1  0.04254017  0.31687381  0.11775878  1
  O2-  O426  1  0.96800472  -0.01521517  0.88867747  1
  O2-  O427  1  0.52377394  -0.01059804  0.62721875  1
  O2-  O428  1  0.52444317  0.34984857  0.13135958  1
  O2-  O429  1  0.45518074  0.00006370  0.87506317  1
  O2-  O430  1  0.95984614  0.35011883  0.14045762  1
  O2-  O431  1  0.54566653  0.33540932  0.87208899  1
  O2-  O432  1  0.47369051  0.65763842  0.63276450  1
  O2-  O433  1  0.02788760  0.65450100  0.13325244  1
  O2-  O434  1  0.97727589  0.65310142  0.61425841  1
  O2-  O435  1  0.04300230  -0.01491655  0.86022976  1
  O2-  O436  1  0.02764017  0.66403283  0.37049863  1
  O2-  O437  1  0.04164921  -0.00658621  0.12685590  1
  O2-  O438  1  0.45523249  0.32186525  0.87533088  1
  O2-  O439  1  0.47707047  0.67167019  0.87156367  1
  O2-  O440  1  0.02007180  0.32323108  0.87808546  1
  O2-  O441  1  0.51016962  0.33249773  0.37158974  1
  O2-  O442  1  0.02286944  -0.00660192  0.63448218  1
  O2-  O443  1  0.01730107  -0.00488579  0.37517218  1
