# generated using pymatgen
data_La7(Ru4O11)2
_symmetry_space_group_name_H-M   'P 1'
_cell_length_a   23.99032956
_cell_length_b   16.83051879
_cell_length_c   15.42670772
_cell_angle_alpha   89.99782981
_cell_angle_beta   89.99905885
_cell_angle_gamma   90.00097372
_symmetry_Int_Tables_number   1
_chemical_formula_structural   La7(Ru4O11)2
_chemical_formula_sum   'La84 Ru96 O264'
_cell_volume   6228.83702411
_cell_formula_units_Z   12
loop_
 _symmetry_equiv_pos_site_id
 _symmetry_equiv_pos_as_xyz
  1  'x, y, z'
loop_
 _atom_type_symbol
 _atom_type_oxidation_number
  La3+  3.0
  Ru4+  4.0
  O2-  -2.0
loop_
 _atom_site_type_symbol
 _atom_site_label
 _atom_site_symmetry_multiplicity
 _atom_site_fract_x
 _atom_site_fract_y
 _atom_site_fract_z
 _atom_site_occupancy
  La3+  La0  1  0.13613408  -0.00407559  0.12017694  1
  La3+  La1  1  0.13848185  -0.00125118  0.37464540  1
  La3+  La2  1  0.13246948  -0.00863159  0.63517231  1
  La3+  La3  1  0.13316987  -0.00851056  0.87112985  1
  La3+  La4  1  0.13806959  0.33222191  0.12317860  1
  La3+  La5  1  0.13377364  0.33058147  0.37600180  1
  La3+  La6  1  0.13571679  0.32806118  0.62829304  1
  La3+  La7  1  0.14349553  0.33140967  0.86977844  1
  La3+  La8  1  0.13618896  0.66629730  0.12274558  1
  La3+  La9  1  0.13895758  0.66886202  0.37464041  1
  La3+  La10  1  0.13840826  0.67017724  0.62614167  1
  La3+  La11  1  0.13998938  0.66848249  0.87427448  1
  La3+  La12  1  0.63322952  0.00034316  0.12997408  1
  La3+  La13  1  0.64285613  0.00194430  0.37626369  1
  La3+  La14  1  0.64132930  -0.00049089  0.62364570  1
  La3+  La15  1  0.64065228  0.00305603  0.87109490  1
  La3+  La16  1  0.64270430  0.33356691  0.12623565  1
  La3+  La17  1  0.64512040  0.33389689  0.37521814  1
  La3+  La18  1  0.63938412  0.33195847  0.62205006  1
  La3+  La19  1  0.63740976  0.33127241  0.87772356  1
  La3+  La20  1  0.64207746  0.66576969  0.12922649  1
  La3+  La21  1  0.64054079  0.66623983  0.37538648  1
  La3+  La22  1  0.63553120  0.66655830  0.62753329  1
  La3+  La23  1  0.63624914  0.66386355  0.87077214  1
  La3+  La24  1  0.36441556  -0.00311758  0.12469226  1
  La3+  La25  1  0.36168080  -0.00162729  0.37584960  1
  La3+  La26  1  0.35719127  -0.00125544  0.62472856  1
  La3+  La27  1  0.35879455  -0.00184808  0.87469341  1
  La3+  La28  1  0.36138987  0.33278683  0.12249462  1
  La3+  La29  1  0.36294939  0.33222087  0.37443226  1
  La3+  La30  1  0.35755790  0.33023052  0.62669252  1
  La3+  La31  1  0.35580511  0.33258272  0.87129791  1
  La3+  La32  1  0.36307863  0.66523390  0.12507209  1
  La3+  La33  1  0.36232359  0.66654765  0.37297841  1
  La3+  La34  1  0.36082759  0.67128924  0.62512179  1
  La3+  La35  1  0.35950716  0.66694334  0.87550448  1
  La3+  La36  1  0.86883470  -0.00327411  0.13518881  1
  La3+  La37  1  0.87179163  -0.00783658  0.36756490  1
  La3+  La38  1  0.86212021  -0.00041633  0.62529940  1
  La3+  La39  1  0.86002846  0.00157185  0.86805022  1
  La3+  La40  1  0.85918279  0.33331448  0.12678435  1
  La3+  La41  1  0.85578807  0.33282885  0.37502643  1
  La3+  La42  1  0.86135959  0.33054977  0.62496093  1
  La3+  La43  1  0.86238838  0.33095235  0.87241461  1
  La3+  La44  1  0.86116032  0.66688625  0.13319173  1
  La3+  La45  1  0.86114726  0.66925644  0.37110521  1
  La3+  La46  1  0.86420534  0.66758442  0.62636371  1
  La3+  La47  1  0.86486693  0.66532511  0.87142626  1
  La3+  La48  1  0.49697430  0.83792321  0.88104021  1
  La3+  La49  1  -0.00602367  0.84099295  0.36139732  1
  La3+  La50  1  0.50099544  0.50128030  0.86407010  1
  La3+  La51  1  0.00207699  0.83621175  0.63505477  1
  La3+  La52  1  -0.00282086  0.16699118  0.38984164  1
  La3+  La53  1  -0.00129947  0.17115012  0.86313971  1
  La3+  La54  1  0.49856044  0.15568099  0.88861323  1
  La3+  La55  1  0.49772262  0.17168012  0.62485019  1
  La3+  La56  1  -0.00435826  0.83524390  0.12701742  1
  La3+  La57  1  0.49967968  0.16060714  0.36101647  1
  La3+  La58  1  0.49758504  0.83095685  0.38141461  1
  La3+  La59  1  0.49962999  0.16660971  0.38270414  1
  La3+  La60  1  0.50124259  0.50098651  0.88099266  1
  La3+  La61  1  0.00303723  0.49676838  0.64337962  1
  La3+  La62  1  -0.00025511  0.50619360  0.13509194  1
  La3+  La63  1  0.49357062  0.50361414  0.13643182  1
  La3+  La64  1  0.00434409  0.82718190  0.87046216  1
  La3+  La65  1  -0.00028485  0.50350827  0.36891852  1
  La3+  La66  1  0.49824110  0.83386031  0.85890475  1
  La3+  La67  1  0.49909231  0.84199271  0.36252005  1
  La3+  La68  1  0.49586053  0.82935276  0.11474754  1
  La3+  La69  1  0.49952335  0.49767240  0.11725350  1
  La3+  La70  1  0.49957979  0.50317018  0.38819780  1
  La3+  La71  1  0.00033364  0.16843184  0.11862163  1
  La3+  La72  1  0.25106226  0.10451095  0.24839907  1
  La3+  La73  1  0.25031902  0.49478490  0.47253700  1
  La3+  La74  1  0.75031111  0.53609376  0.72232411  1
  La3+  La75  1  0.75035124  0.49664729  0.21875824  1
  La3+  La76  1  0.75015702  0.83077306  0.24929203  1
  La3+  La77  1  0.75009591  0.83882924  0.75217122  1
  La3+  La78  1  0.25007816  0.54378088  0.21465025  1
  La3+  La79  1  0.75005167  0.21878349  0.27175299  1
  La3+  La80  1  0.75061400  0.83524508  0.49972674  1
  La3+  La81  1  0.24870454  0.45848611  0.73722369  1
  La3+  La82  1  0.74962930  0.83323248  -0.00040776  1
  La3+  La83  1  0.25040051  0.21239390  0.01251609  1
  Ru4+  Ru84  1  -0.00767908  0.00022279  0.00057801  1
  Ru4+  Ru85  1  -0.00121036  0.00164889  0.24897795  1
  Ru4+  Ru86  1  0.00165915  0.00679213  0.50102727  1
  Ru4+  Ru87  1  0.00217524  0.00564835  0.74642942  1
  Ru4+  Ru88  1  -0.00119893  0.33346263  -0.00169955  1
  Ru4+  Ru89  1  -0.00143446  0.33137979  0.25060794  1
  Ru4+  Ru90  1  -0.00137300  0.33783484  0.50130098  1
  Ru4+  Ru91  1  -0.00377399  0.33695974  0.74892792  1
  Ru4+  Ru92  1  -0.00124208  0.66581182  -0.00063872  1
  Ru4+  Ru93  1  0.00451369  0.66486399  0.25503846  1
  Ru4+  Ru94  1  -0.00083041  0.66332577  0.50081467  1
  Ru4+  Ru95  1  -0.00045914  0.66736150  0.75142169  1
  Ru4+  Ru96  1  0.49817817  0.00396705  -0.00244292  1
  Ru4+  Ru97  1  0.49711362  0.00647835  0.24639268  1
  Ru4+  Ru98  1  0.49509174  0.00287847  0.50409513  1
  Ru4+  Ru99  1  0.49792624  0.00161810  0.75260369  1
  Ru4+  Ru100  1  0.50018566  0.32902334  0.00407737  1
  Ru4+  Ru101  1  0.50027443  0.32989655  0.24993409  1
  Ru4+  Ru102  1  0.50050288  0.33556085  0.49900776  1
  Ru4+  Ru103  1  0.49931487  0.33076754  0.75346199  1
  Ru4+  Ru104  1  0.49788175  0.66708192  0.00047527  1
  Ru4+  Ru105  1  0.50130536  0.67248433  0.25217223  1
  Ru4+  Ru106  1  0.49962330  0.66345731  0.50248210  1
  Ru4+  Ru107  1  0.49444574  0.67327969  0.74883883  1
  Ru4+  Ru108  1  0.11350351  0.17156411  0.00228953  1
  Ru4+  Ru109  1  0.11006952  0.16465090  0.24652291  1
  Ru4+  Ru110  1  0.11616725  0.15934027  0.49950839  1
  Ru4+  Ru111  1  0.11560101  0.16388742  0.74936504  1
  Ru4+  Ru112  1  0.11498363  0.50214579  -0.00240895  1
  Ru4+  Ru113  1  0.11149309  0.50232434  0.25070468  1
  Ru4+  Ru114  1  0.10895374  0.50085506  0.50089571  1
  Ru4+  Ru115  1  0.11090449  0.50064446  0.75011050  1
  Ru4+  Ru116  1  0.11711004  0.82906381  -0.00344710  1
  Ru4+  Ru117  1  0.11247607  0.83581030  0.25103102  1
  Ru4+  Ru118  1  0.11410224  0.83164640  0.50171799  1
  Ru4+  Ru119  1  0.11459370  0.83493880  0.75179193  1
  Ru4+  Ru120  1  0.61115644  0.16643312  0.00349531  1
  Ru4+  Ru121  1  0.60957831  0.16526870  0.24779196  1
  Ru4+  Ru122  1  0.61353180  0.17128349  0.50061419  1
  Ru4+  Ru123  1  0.61367709  0.16353066  0.74799718  1
  Ru4+  Ru124  1  0.61424116  0.49721150  -0.00083566  1
  Ru4+  Ru125  1  0.61386040  0.49977221  0.25099162  1
  Ru4+  Ru126  1  0.61094111  0.49875083  0.50214900  1
  Ru4+  Ru127  1  0.61520063  0.49535402  0.74929055  1
  Ru4+  Ru128  1  0.61189261  0.83344350  0.00002030  1
  Ru4+  Ru129  1  0.61388856  0.83585386  0.24954664  1
  Ru4+  Ru130  1  0.61505494  0.82877808  0.50126086  1
  Ru4+  Ru131  1  0.61137252  0.83062634  0.74666898  1
  Ru4+  Ru132  1  0.39071525  0.16659681  0.00163359  1
  Ru4+  Ru133  1  0.39061704  0.16539046  0.25245440  1
  Ru4+  Ru134  1  0.38520772  0.16397307  0.50006040  1
  Ru4+  Ru135  1  0.38828848  0.16543092  0.74844459  1
  Ru4+  Ru136  1  0.38700295  0.50235217  -0.00165761  1
  Ru4+  Ru137  1  0.38464826  0.49576219  0.24902844  1
  Ru4+  Ru138  1  0.39174621  0.50004731  0.50166731  1
  Ru4+  Ru139  1  0.38696164  0.50041396  0.74854101  1
  Ru4+  Ru140  1  0.38800918  0.83493239  0.00039209  1
  Ru4+  Ru141  1  0.38445824  0.83511758  0.24852086  1
  Ru4+  Ru142  1  0.38442330  0.82882650  0.50350006  1
  Ru4+  Ru143  1  0.38485397  0.83336605  0.74979432  1
  Ru4+  Ru144  1  0.88811109  0.16681207  -0.00007587  1
  Ru4+  Ru145  1  0.88985742  0.16580948  0.24943340  1
  Ru4+  Ru146  1  0.88676060  0.16813629  0.50009212  1
  Ru4+  Ru147  1  0.88683952  0.16292106  0.74897461  1
  Ru4+  Ru148  1  0.88693446  0.50288696  -0.00019376  1
  Ru4+  Ru149  1  0.88877556  0.50039647  0.24957822  1
  Ru4+  Ru150  1  0.88844097  0.50103600  0.49955240  1
  Ru4+  Ru151  1  0.88909555  0.50112610  0.74791055  1
  Ru4+  Ru152  1  0.88926934  0.83493363  0.00367359  1
  Ru4+  Ru153  1  0.88465165  0.83932914  0.24975884  1
  Ru4+  Ru154  1  0.88679028  0.82981709  0.49835697  1
  Ru4+  Ru155  1  0.88506441  0.82700868  0.74981635  1
  Ru4+  Ru156  1  0.75040547  0.06328790  0.24851431  1
  Ru4+  Ru157  1  0.75069263  0.41953102  -0.00916066  1
  Ru4+  Ru158  1  0.75076633  0.70294495  -0.03105217  1
  Ru4+  Ru159  1  0.75032028  0.08650281  0.50030233  1
  Ru4+  Ru160  1  0.75017583  0.39749932  0.75430921  1
  Ru4+  Ru161  1  0.74983179  0.24190772  0.75269840  1
  Ru4+  Ru162  1  0.24983061  0.05800093  -0.01113817  1
  Ru4+  Ru163  1  0.24937242  0.90704477  0.50916707  1
  Ru4+  Ru164  1  0.25052409  0.75877924  -0.00642180  1
  Ru4+  Ru165  1  0.24990203  0.59986361  0.77079745  1
  Ru4+  Ru166  1  0.24987332  0.26111268  0.24296277  1
  Ru4+  Ru167  1  0.24966795  0.36171448  0.47720140  1
  Ru4+  Ru168  1  0.75054412  0.25387648  -0.01561314  1
  Ru4+  Ru169  1  0.75047170  0.59024969  0.50294784  1
  Ru4+  Ru170  1  0.75023310  0.57030186  -0.00831804  1
  Ru4+  Ru171  1  0.24978139  0.08127271  0.74928100  1
  Ru4+  Ru172  1  0.75002154  0.40993317  0.50173260  1
  Ru4+  Ru173  1  0.24931815  0.40137742  0.24459192  1
  Ru4+  Ru174  1  0.24971687  0.75673791  0.24904112  1
  Ru4+  Ru175  1  0.24997713  0.61872931  0.50877180  1
  Ru4+  Ru176  1  0.25026154  0.42088787  -0.00571510  1
  Ru4+  Ru177  1  0.75037031  0.96381151  0.03252398  1
  Ru4+  Ru178  1  0.24974968  0.23321702  0.51290119  1
  Ru4+  Ru179  1  0.75071207  0.09231377  -0.01330034  1
  O2-  O180  1  0.16775530  0.07960953  -0.00050559  1
  O2-  O181  1  0.16250173  0.07616649  0.25385419  1
  O2-  O182  1  0.16426071  0.07902249  0.49858416  1
  O2-  O183  1  0.16528037  0.08024037  0.75027559  1
  O2-  O184  1  0.16558843  0.41603879  -0.00087166  1
  O2-  O185  1  0.16523258  0.41251457  0.24854544  1
  O2-  O186  1  0.16382973  0.41095468  0.49888019  1
  O2-  O187  1  0.15932220  0.41157486  0.74938212  1
  O2-  O188  1  0.16981451  0.74684752  0.00287544  1
  O2-  O189  1  0.16647372  0.74678405  0.24813882  1
  O2-  O190  1  0.16387749  0.74826343  0.49987407  1
  O2-  O191  1  0.16185779  0.74914883  0.75082707  1
  O2-  O192  1  0.66527607  0.08202362  0.00111597  1
  O2-  O193  1  0.66827006  0.08024030  0.24889550  1
  O2-  O194  1  0.66722806  0.08037547  0.50113375  1
  O2-  O195  1  0.66407931  0.08188828  0.74758858  1
  O2-  O196  1  0.66815045  0.41416058  -0.00161918  1
  O2-  O197  1  0.66547841  0.41595407  0.25101391  1
  O2-  O198  1  0.66969174  0.41471118  0.50048669  1
  O2-  O199  1  0.66633832  0.41278277  0.74906216  1
  O2-  O200  1  0.66506452  0.74465625  0.00021244  1
  O2-  O201  1  0.66728030  0.74881765  0.25207184  1
  O2-  O202  1  0.66929813  0.74785008  0.50208247  1
  O2-  O203  1  0.67283633  0.74783060  0.75011822  1
  O2-  O204  1  0.33839373  0.25577317  -0.00043567  1
  O2-  O205  1  0.33279980  0.25433005  0.24821966  1
  O2-  O206  1  0.33227714  0.25279745  0.49750008  1
  O2-  O207  1  0.33442826  0.24820844  0.75232682  1
  O2-  O208  1  0.33562430  0.58776995  0.00159813  1
  O2-  O209  1  0.33674329  0.58888798  0.25035491  1
  O2-  O210  1  0.33531845  0.58882722  0.49867151  1
  O2-  O211  1  0.33436560  0.58607556  0.75180926  1
  O2-  O212  1  0.33454843  0.91926920  0.00293226  1
  O2-  O213  1  0.33064179  0.91990960  0.24686020  1
  O2-  O214  1  0.33330709  0.91920801  0.49877401  1
  O2-  O215  1  0.33624700  0.91790079  0.75028484  1
  O2-  O216  1  0.83399595  0.25395197  -0.00088603  1
  O2-  O217  1  0.84078878  0.25483184  0.24815677  1
  O2-  O218  1  0.83497960  0.25225195  0.50033202  1
  O2-  O219  1  0.83288739  0.25253357  0.74877802  1
  O2-  O220  1  0.83490548  0.58411692  -0.00114757  1
  O2-  O221  1  0.83237268  0.58542308  0.25076451  1
  O2-  O222  1  0.83059566  0.58614483  0.50392701  1
  O2-  O223  1  0.83346466  0.58888583  0.75198021  1
  O2-  O224  1  0.83223137  0.92104994  -0.00216416  1
  O2-  O225  1  0.82783398  0.91761363  0.24866442  1
  O2-  O226  1  0.83173742  0.91589426  0.49842367  1
  O2-  O227  1  0.83266642  0.91709897  0.74955467  1
  O2-  O228  1  0.16364598  0.25580176  -0.00193161  1
  O2-  O229  1  0.16592366  0.25144997  0.24994090  1
  O2-  O230  1  0.16665901  0.25282626  0.49943731  1
  O2-  O231  1  0.16443265  0.24882321  0.74963789  1
  O2-  O232  1  0.16763098  0.58568925  0.00204888  1
  O2-  O233  1  0.16486218  0.58899351  0.24920969  1
  O2-  O234  1  0.16738456  0.59021162  0.49869602  1
  O2-  O235  1  0.16576292  0.58712602  0.75063158  1
  O2-  O236  1  0.16642435  0.91833912  0.00065585  1
  O2-  O237  1  0.16587162  0.91980100  0.24993784  1
  O2-  O238  1  0.16591845  0.92033076  0.49940433  1
  O2-  O239  1  0.16881533  0.91807312  0.75057320  1
  O2-  O240  1  0.66734262  0.25170879  -0.00268604  1
  O2-  O241  1  0.65981410  0.25393983  0.25023924  1
  O2-  O242  1  0.66557549  0.25241014  0.49969489  1
  O2-  O243  1  0.66519601  0.25271893  0.74971270  1
  O2-  O244  1  0.66567157  0.58595427  0.00075223  1
  O2-  O245  1  0.66666776  0.58660844  0.25120085  1
  O2-  O246  1  0.66578717  0.58580444  0.50063464  1
  O2-  O247  1  0.66685297  0.58724288  0.74882018  1
  O2-  O248  1  0.66515449  0.92151008  0.00072112  1
  O2-  O249  1  0.67161344  0.91675692  0.24570930  1
  O2-  O250  1  0.66925559  0.91678875  0.49985661  1
  O2-  O251  1  0.66694815  0.91758668  0.74735739  1
  O2-  O252  1  0.33012444  0.08022326  0.00201991  1
  O2-  O253  1  0.34044331  0.07583972  0.24860082  1
  O2-  O254  1  0.33349342  0.08137456  0.49895054  1
  O2-  O255  1  0.33283263  0.08227815  0.74854405  1
  O2-  O256  1  0.33095367  0.41338738  -0.00040471  1
  O2-  O257  1  0.33242306  0.41243683  0.24844131  1
  O2-  O258  1  0.33480638  0.41129446  0.49819686  1
  O2-  O259  1  0.33534969  0.41425749  0.75308753  1
  O2-  O260  1  0.33209056  0.74551391  0.00211827  1
  O2-  O261  1  0.33377374  0.74631252  0.24739305  1
  O2-  O262  1  0.33244454  0.74880526  0.49870263  1
  O2-  O263  1  0.33550891  0.74759546  0.75238171  1
  O2-  O264  1  0.83408321  0.08073615  -0.00107978  1
  O2-  O265  1  0.83094252  0.07874433  0.25069027  1
  O2-  O266  1  0.83200147  0.08075148  0.49852062  1
  O2-  O267  1  0.83444377  0.08281350  0.75000371  1
  O2-  O268  1  0.83158005  0.41364590  -0.00036163  1
  O2-  O269  1  0.83615162  0.41516859  0.24978913  1
  O2-  O270  1  0.83375081  0.41625136  0.50108681  1
  O2-  O271  1  0.83366953  0.41365616  0.74999467  1
  O2-  O272  1  0.83594499  0.74534549  -0.00069066  1
  O2-  O273  1  0.83167084  0.75144413  0.25027830  1
  O2-  O274  1  0.83202710  0.74905298  0.50168352  1
  O2-  O275  1  0.82768636  0.74671403  0.75111437  1
  O2-  O276  1  0.54484481  0.90394854  0.73434412  1
  O2-  O277  1  0.54446182  0.23576871  0.24028144  1
  O2-  O278  1  0.54802860  0.57184066  0.23517239  1
  O2-  O279  1  0.55102936  0.42511978  0.76842561  1
  O2-  O280  1  0.04719768  0.90990066  0.73524585  1
  O2-  O281  1  0.45114658  0.23793227  0.01769249  1
  O2-  O282  1  0.04306815  0.09366524  0.97873337  1
  O2-  O283  1  0.54274245  0.89646246  0.20749708  1
  O2-  O284  1  0.95567295  0.75988237  0.01727174  1
  O2-  O285  1  0.05277539  0.90268835  0.98151502  1
  O2-  O286  1  0.96495361  0.54929093  0.53829240  1
  O2-  O287  1  0.54516443  0.09847401  0.51557242  1
  O2-  O288  1  0.04621663  0.89417731  0.75852392  1
  O2-  O289  1  0.54598696  0.42646569  0.23760498  1
  O2-  O290  1  0.54607088  0.56473623  0.99132051  1
  O2-  O291  1  0.55372813  0.90456423  0.48411465  1
  O2-  O292  1  0.95030028  0.24060774  0.48838418  1
  O2-  O293  1  0.95336336  0.75800702  0.25805816  1
  O2-  O294  1  0.05027017  0.09753504  0.01620416  1
  O2-  O295  1  0.03311617  0.54836399  0.99294516  1
  O2-  O296  1  0.54650326  0.56987747  0.76431415  1
  O2-  O297  1  0.04634978  0.09538875  0.76698969  1
  O2-  O298  1  0.05126063  0.23448141  0.73411428  1
  O2-  O299  1  0.54642428  0.56547231  0.51044966  1
  O2-  O300  1  0.54485999  0.90875018  0.52058381  1
  O2-  O301  1  0.54983801  0.23566347  0.96071589  1
  O2-  O302  1  0.04553079  0.43312583  0.23635052  1
  O2-  O303  1  0.46646556  0.22331544  0.78611010  1
  O2-  O304  1  0.45354279  0.43549701  0.50987426  1
  O2-  O305  1  0.95068546  0.90117004  0.51831158  1
  O2-  O306  1  0.54533483  0.90615967  0.01575834  1
  O2-  O307  1  0.54526604  0.10239278  0.75916018  1
  O2-  O308  1  0.95977640  0.44261563  0.02510192  1
  O2-  O309  1  0.94776658  0.89959607  0.73695263  1
  O2-  O310  1  0.54959666  0.76135562  0.49135396  1
  O2-  O311  1  0.54770754  0.76219821  0.25480436  1
  O2-  O312  1  0.45094599  0.56716744  0.26761709  1
  O2-  O313  1  0.04805947  0.90716336  0.01994345  1
  O2-  O314  1  0.46441014  0.45790480  0.74054900  1
  O2-  O315  1  0.54759384  0.09628796  0.01824078  1
  O2-  O316  1  0.94969834  0.90200022  0.26735862  1
  O2-  O317  1  0.54614919  0.76504228  0.99257258  1
  O2-  O318  1  0.95775996  0.89309194  0.95447977  1
  O2-  O319  1  0.95910522  0.90120189  0.24273745  1
  O2-  O320  1  0.95737625  0.76562095  0.48867765  1
  O2-  O321  1  0.03731470  0.11053343  0.28700380  1
  O2-  O322  1  0.05291028  0.23369619  0.48781152  1
  O2-  O323  1  0.44942874  0.90425754  0.48831657  1
  O2-  O324  1  0.43680349  0.26094981  0.28630857  1
  O2-  O325  1  0.43605641  0.07704876  0.47665550  1
  O2-  O326  1  0.43634699  0.40425644  0.21559155  1
  O2-  O327  1  0.93700318  0.40622172  0.71708755  1
  O2-  O328  1  0.56649135  0.40453623  0.52160574  1
  O2-  O329  1  0.58021355  0.92119113  0.33178223  1
  O2-  O330  1  0.07118660  0.60863347  0.96117137  1
  O2-  O331  1  0.93861242  0.93047808  0.53192101  1
  O2-  O332  1  0.56931779  0.74815557  0.81358175  1
  O2-  O333  1  0.56434989  0.59046000  0.78064054  1
  O2-  O334  1  0.43886176  0.40452539  0.96532581  1
  O2-  O335  1  0.43260024  0.08057799  0.80944414  1
  O2-  O336  1  0.92045647  0.60513082  0.44866510  1
  O2-  O337  1  0.56047965  0.40695926  0.96402817  1
  O2-  O338  1  0.06522155  0.59282793  0.52383354  1
  O2-  O339  1  0.93282322  0.74195018  0.27314200  1
  O2-  O340  1  0.43370359  0.07517787  0.97449376  1
  O2-  O341  1  0.06537443  0.26130572  0.47145986  1
  O2-  O342  1  0.56770561  0.27806303  0.08398665  1
  O2-  O343  1  0.55957254  0.25560871  0.93198329  1
  O2-  O344  1  0.55713290  0.92081713  0.18923863  1
  O2-  O345  1  0.06735688  0.93468963  0.78443248  1
  O2-  O346  1  0.93757485  0.74183159  0.71453902  1
  O2-  O347  1  0.93781603  0.07066482  0.71861403  1
  O2-  O348  1  0.93320388  0.07754804  0.27905016  1
  O2-  O349  1  0.43798597  0.59619214  0.27937606  1
  O2-  O350  1  0.56871352  0.74656151  0.68679531  1
  O2-  O351  1  0.93962753  0.92929258  0.71868868  1
  O2-  O352  1  0.06173554  0.26667776  0.72758876  1
  O2-  O353  1  0.93006496  0.93200405  0.22090749  1
  O2-  O354  1  0.92416908  0.93949428  0.05159561  1
  O2-  O355  1  0.07054112  0.05250432  0.19086502  1
  O2-  O356  1  0.42270515  0.39392729  0.71500309  1
  O2-  O357  1  0.56242756  0.07080449  0.21832641  1
  O2-  O358  1  0.06367044  0.26203719  0.21643523  1
  O2-  O359  1  0.43706441  0.07056087  0.67802441  1
  O2-  O360  1  0.93488683  0.07418619  0.47409499  1
  O2-  O361  1  0.42417528  0.26282615  0.69615421  1
  O2-  O362  1  0.43362698  0.92554514  0.27218801  1
  O2-  O363  1  0.43512097  0.25840773  0.52258633  1
  O2-  O364  1  0.93308834  0.25500975  0.77569920  1
  O2-  O365  1  0.43539561  0.73890562  0.52231884  1
  O2-  O366  1  0.06449775  0.74301735  0.96422036  1
  O2-  O367  1  0.06313408  0.59519780  0.28318609  1
  O2-  O368  1  0.93726881  0.59502398  0.21492579  1
  O2-  O369  1  0.06093293  0.26592726  0.03102737  1
  O2-  O370  1  0.92794131  0.39903250  0.96309803  1
  O2-  O371  1  0.93704924  0.59190384  0.71508513  1
  O2-  O372  1  0.75033271  0.00550605  0.90776113  1
  O2-  O373  1  0.25040504  0.67409664  0.68186831  1
  O2-  O374  1  0.75009231  0.65420517  0.08664117  1
  O2-  O375  1  0.75021701  -0.00493402  0.34724347  1
  O2-  O376  1  0.75038570  0.33382974  0.07407915  1
  O2-  O377  1  0.75058782  0.33651228  0.17214540  1
  O2-  O378  1  0.24956364  0.00171876  0.57677857  1
  O2-  O379  1  0.74976940  0.66808857  0.40738066  1
  O2-  O380  1  0.25018141  0.69640914  0.59167278  1
  O2-  O381  1  0.75007457  0.32988900  0.64774211  1
  O2-  O382  1  0.24924883  0.00450311  0.84706407  1
  O2-  O383  1  0.25003826  0.33695992  0.09421867  1
  O2-  O384  1  0.25001225  0.33478859  0.35417494  1
  O2-  O385  1  0.74997200  0.33544471  0.35356931  1
  O2-  O386  1  0.24969161  0.34004875  0.85999603  1
  O2-  O387  1  0.74974291  -0.00756762  0.81720872  1
  O2-  O388  1  0.25004540  0.66185890  0.32122997  1
  O2-  O389  1  0.74942860  0.00041863  0.59091155  1
  O2-  O390  1  0.25035703  0.33187777  0.68551014  1
  O2-  O391  1  0.25003732  0.68689712  0.40853945  1
  O2-  O392  1  0.24946015  0.32728076  0.59402039  1
  O2-  O393  1  0.25015378  -0.00419385  0.66960902  1
  O2-  O394  1  0.74974485  0.66879548  0.17967716  1
  O2-  O395  1  0.74980993  0.32688391  0.85678525  1
  O2-  O396  1  0.74990050  0.17209155  0.84459735  1
  O2-  O397  1  0.25011586  0.16573501  0.59662459  1
  O2-  O398  1  0.25056074  0.84002867  0.64495010  1
  O2-  O399  1  0.74992171  0.49635504  0.86854002  1
  O2-  O400  1  0.24986179  0.14778170  0.43715349  1
  O2-  O401  1  0.75013512  0.49956795  0.43602238  1
  O2-  O402  1  0.24977633  0.83860163  0.33041845  1
  O2-  O403  1  0.25018685  0.82707294  0.91424072  1
  O2-  O404  1  0.24991914  0.18404692  0.35663703  1
  O2-  O405  1  0.25013416  0.51285900  0.86781385  1
  O2-  O406  1  0.74981352  0.16062926  0.66676709  1
  O2-  O407  1  0.74966641  0.15022241  0.39169994  1
  O2-  O408  1  0.24981559  0.17668815  0.14075933  1
  O2-  O409  1  0.74997285  0.17390279  0.06533280  1
  O2-  O410  1  0.74991824  0.50150637  0.34920321  1
  O2-  O411  1  0.74979438  0.17117216  0.57964726  1
  O2-  O412  1  0.25016245  0.51168809  0.60915034  1
  O2-  O413  1  0.25021161  0.15215575  0.89761473  1
  O2-  O414  1  0.74998395  0.14721227  0.15447339  1
  O2-  O415  1  0.74990658  0.49792310  0.08444175  1
  O2-  O416  1  0.24988886  0.49114823  0.33992161  1
  O2-  O417  1  0.24984708  0.82995635  0.41935873  1
  O2-  O418  1  0.24999321  0.49462460  0.08222735  1
  O2-  O419  1  0.25005068  0.17388102  0.81096490  1
  O2-  O420  1  0.02299140  0.34037321  0.37177246  1
  O2-  O421  1  0.53623955  0.66236418  0.89180170  1
  O2-  O422  1  0.47174766  0.66855400  0.12659829  1
  O2-  O423  1  0.53825698  0.02040440  0.38451738  1
  O2-  O424  1  0.97875279  0.01623347  0.12799787  1
  O2-  O425  1  0.03009557  0.00045354  0.61750771  1
  O2-  O426  1  0.98098761  -0.00994509  0.37771344  1
  O2-  O427  1  0.46743472  0.66033142  0.63006428  1
  O2-  O428  1  0.02362012  0.34174257  0.61982189  1
  O2-  O429  1  0.46114822  0.00372525  0.36796390  1
  O2-  O430  1  0.47009072  -0.00145345  0.12401156  1
  O2-  O431  1  0.98289561  0.66439754  0.37150520  1
  O2-  O432  1  0.53409273  0.32527999  0.63370398  1
  O2-  O433  1  0.45245365  0.66723925  0.86910301  1
  O2-  O434  1  0.02630020  0.67529702  0.63006377  1
  O2-  O435  1  0.02957880  0.66761534  0.12562022  1
  O2-  O436  1  0.97148801  0.33094583  0.12612896  1
  O2-  O437  1  0.52758022  0.65810711  0.62097856  1
  O2-  O438  1  0.52726105  0.66331620  0.37668503  1
  O2-  O439  1  0.98239117  0.32925127  0.87302997  1
  O2-  O440  1  0.97146672  0.66788728  0.87473162  1
  O2-  O441  1  0.47688190  0.33750422  0.61639259  1
  O2-  O442  1  0.54664174  -0.00221918  0.87689143  1
  O2-  O443  1  0.46086226  -0.02332370  0.88060691  1
