# generated using pymatgen
data_La7(Ru4O11)2
_symmetry_space_group_name_H-M   'P 1'
_cell_length_a   23.99242631
_cell_length_b   16.83176442
_cell_length_c   15.42954568
_cell_angle_alpha   89.99288633
_cell_angle_beta   89.99914537
_cell_angle_gamma   89.99954445
_symmetry_Int_Tables_number   1
_chemical_formula_structural   La7(Ru4O11)2
_chemical_formula_sum   'La84 Ru96 O264'
_cell_volume   6230.98848731
_cell_formula_units_Z   12
loop_
 _symmetry_equiv_pos_site_id
 _symmetry_equiv_pos_as_xyz
  1  'x, y, z'
loop_
 _atom_type_symbol
 _atom_type_oxidation_number
  La3+  3.0
  Ru4+  4.0
  O2-  -2.0
loop_
 _atom_site_type_symbol
 _atom_site_label
 _atom_site_symmetry_multiplicity
 _atom_site_fract_x
 _atom_site_fract_y
 _atom_site_fract_z
 _atom_site_occupancy
  La3+  La0  1  0.13835471  -0.00281702  0.12635417  1
  La3+  La1  1  0.13497924  0.00030376  0.38173636  1
  La3+  La2  1  0.13400078  -0.00144240  0.61696505  1
  La3+  La3  1  0.13814151  -0.00318434  0.87505406  1
  La3+  La4  1  0.14664289  0.33530691  0.12656227  1
  La3+  La5  1  0.14783104  0.33805545  0.37346588  1
  La3+  La6  1  0.14016056  0.33269470  0.62465437  1
  La3+  La7  1  0.14046244  0.33510309  0.87531019  1
  La3+  La8  1  0.14804848  0.66456804  0.12097433  1
  La3+  La9  1  0.14361947  0.66675629  0.37209316  1
  La3+  La10  1  0.14927068  0.66715838  0.62975601  1
  La3+  La11  1  0.14083901  0.67154076  0.87226345  1
  La3+  La12  1  0.63991397  0.00137930  0.12224906  1
  La3+  La13  1  0.64075135  -0.01674686  0.37173768  1
  La3+  La14  1  0.63192189  0.00081675  0.61945346  1
  La3+  La15  1  0.65071506  0.00116191  0.88148586  1
  La3+  La16  1  0.64568286  0.33569641  0.11971591  1
  La3+  La17  1  0.63383079  0.33385229  0.38092642  1
  La3+  La18  1  0.62216987  0.33607293  0.62743971  1
  La3+  La19  1  0.64649824  0.34089982  0.87296961  1
  La3+  La20  1  0.64052313  0.66540084  0.12268110  1
  La3+  La21  1  0.63756033  0.67333238  0.37390666  1
  La3+  La22  1  0.63602358  0.66812123  0.62387191  1
  La3+  La23  1  0.64185439  0.66813904  0.87686221  1
  La3+  La24  1  0.36244338  -0.00626805  0.13207252  1
  La3+  La25  1  0.36230065  -0.00630424  0.37101251  1
  La3+  La26  1  0.36053280  -0.00200744  0.62491521  1
  La3+  La27  1  0.36023279  -0.00330343  0.87339035  1
  La3+  La28  1  0.35208787  0.33048711  0.12451292  1
  La3+  La29  1  0.35811354  0.33926315  0.37413203  1
  La3+  La30  1  0.36776964  0.33742404  0.62737114  1
  La3+  La31  1  0.36581396  0.34074100  0.87318214  1
  La3+  La32  1  0.35873363  0.66978254  0.13059973  1
  La3+  La33  1  0.36004900  0.66803707  0.37009406  1
  La3+  La34  1  0.35373695  0.66618244  0.63075351  1
  La3+  La35  1  0.36337214  0.66921046  0.87150560  1
  La3+  La36  1  0.85657321  -0.00008345  0.12030067  1
  La3+  La37  1  0.86767398  -0.00348969  0.37893957  1
  La3+  La38  1  0.86191742  0.00010539  0.62282396  1
  La3+  La39  1  0.85443496  0.00031867  0.87993184  1
  La3+  La40  1  0.85919646  0.33593017  0.11707626  1
  La3+  La41  1  0.85698672  0.33054147  0.37150425  1
  La3+  La42  1  0.87023433  0.34142986  0.63554681  1
  La3+  La43  1  0.85783889  0.33227714  0.87119179  1
  La3+  La44  1  0.85618111  0.66246403  0.12183994  1
  La3+  La45  1  0.85874550  0.66812949  0.37365286  1
  La3+  La46  1  0.85975999  0.66834418  0.62590046  1
  La3+  La47  1  0.85870826  0.66864457  0.87678032  1
  La3+  La48  1  -0.00828940  0.16082183  0.10199174  1
  La3+  La49  1  0.00565775  0.84161154  0.63754592  1
  La3+  La50  1  0.00033012  0.17245830  0.37738935  1
  La3+  La51  1  0.49689788  0.49936116  0.87240405  1
  La3+  La52  1  0.00343737  0.50617640  0.63384202  1
  La3+  La53  1  -0.00609648  0.48964805  0.87919197  1
  La3+  La54  1  0.49940805  0.49596497  0.12528266  1
  La3+  La55  1  0.00149470  0.82866140  0.12872747  1
  La3+  La56  1  -0.00257122  0.16394642  0.62506444  1
  La3+  La57  1  -0.00215114  0.49833943  0.85970567  1
  La3+  La58  1  0.49732814  0.16970083  0.84765070  1
  La3+  La59  1  0.50031408  0.16994230  0.36687281  1
  La3+  La60  1  0.49804510  0.82862353  0.62518387  1
  La3+  La61  1  0.00416803  0.50681489  0.12396813  1
  La3+  La62  1  0.49267632  0.51073542  0.40034579  1
  La3+  La63  1  0.50875385  0.15869969  0.11575217  1
  La3+  La64  1  -0.00319378  0.84385549  0.38013134  1
  La3+  La65  1  0.49358236  0.51077562  0.38362628  1
  La3+  La66  1  0.49504119  0.17233654  0.86356785  1
  La3+  La67  1  0.00193289  0.83563511  0.39910204  1
  La3+  La68  1  -0.00854246  0.15459049  0.12322159  1
  La3+  La69  1  0.00470670  0.83961690  0.62087904  1
  La3+  La70  1  0.49850655  0.49525256  0.62600535  1
  La3+  La71  1  0.00039299  0.49636113  0.37301160  1
  La3+  La72  1  0.75068958  0.17701163  -0.01118976  1
  La3+  La73  1  0.74939588  0.16602379  0.47667119  1
  La3+  La74  1  0.75185609  0.55361213  0.53446134  1
  La3+  La75  1  0.24909228  0.21676405  0.75654151  1
  La3+  La76  1  0.75040901  0.78891782  0.21286207  1
  La3+  La77  1  0.24943414  0.49829586  0.25041744  1
  La3+  La78  1  0.25158547  0.10932549  0.01238495  1
  La3+  La79  1  0.74974538  0.49681803  -0.05693316  1
  La3+  La80  1  0.74986877  0.55661393  0.29036885  1
  La3+  La81  1  0.25165333  0.82829169  0.51341150  1
  La3+  La82  1  0.25002531  0.17697021  0.26211990  1
  La3+  La83  1  0.75038362  0.10097376  0.30223371  1
  Ru4+  Ru84  1  -0.00142573  -0.00481295  -0.00828228  1
  Ru4+  Ru85  1  -0.00172065  -0.00177354  0.24969640  1
  Ru4+  Ru86  1  -0.00721807  0.00588817  0.50534702  1
  Ru4+  Ru87  1  -0.00267955  0.00017451  0.75805866  1
  Ru4+  Ru88  1  -0.00003841  0.33050045  0.00092510  1
  Ru4+  Ru89  1  0.00570863  0.33382660  0.25419561  1
  Ru4+  Ru90  1  -0.00527463  0.33899756  0.49075798  1
  Ru4+  Ru91  1  0.00202977  0.32658519  0.74708659  1
  Ru4+  Ru92  1  -0.00464934  0.67143892  0.00707192  1
  Ru4+  Ru93  1  0.00250031  0.66120680  0.24005537  1
  Ru4+  Ru94  1  0.00354112  0.66046141  0.50111776  1
  Ru4+  Ru95  1  0.00179604  0.67765612  0.75836304  1
  Ru4+  Ru96  1  0.50537924  -0.00467159  0.00664549  1
  Ru4+  Ru97  1  0.49708120  -0.00357175  0.24574235  1
  Ru4+  Ru98  1  0.50172751  -0.00257088  0.50619477  1
  Ru4+  Ru99  1  0.50498987  -0.01240126  0.75254249  1
  Ru4+  Ru100  1  0.50135432  0.32986475  -0.00002826  1
  Ru4+  Ru101  1  0.49465564  0.33246221  0.24625643  1
  Ru4+  Ru102  1  0.49326721  0.32381566  0.49956167  1
  Ru4+  Ru103  1  0.50391074  0.32147222  0.74427297  1
  Ru4+  Ru104  1  0.50004276  0.66664464  0.00167665  1
  Ru4+  Ru105  1  0.50301817  0.68123155  0.25791877  1
  Ru4+  Ru106  1  0.50229355  0.67356444  0.49721852  1
  Ru4+  Ru107  1  0.50161951  0.66783110  0.75801135  1
  Ru4+  Ru108  1  0.11194463  0.16419275  0.00012200  1
  Ru4+  Ru109  1  0.11119618  0.17119208  0.25652009  1
  Ru4+  Ru110  1  0.11666957  0.17416405  0.49920280  1
  Ru4+  Ru111  1  0.10523795  0.16550702  0.75079811  1
  Ru4+  Ru112  1  0.11602163  0.49542258  0.00563015  1
  Ru4+  Ru113  1  0.10505973  0.50011328  0.24947817  1
  Ru4+  Ru114  1  0.11221970  0.49921578  0.49510658  1
  Ru4+  Ru115  1  0.11495283  0.49627322  0.74339160  1
  Ru4+  Ru116  1  0.11308593  0.83451298  -0.00051260  1
  Ru4+  Ru117  1  0.11524669  0.83359084  0.24345097  1
  Ru4+  Ru118  1  0.11986208  0.82595789  0.50302864  1
  Ru4+  Ru119  1  0.11033426  0.82208320  0.75342521  1
  Ru4+  Ru120  1  0.61094186  0.17053944  0.00494869  1
  Ru4+  Ru121  1  0.61204814  0.16516545  0.24884515  1
  Ru4+  Ru122  1  0.61009596  0.15531047  0.49760409  1
  Ru4+  Ru123  1  0.61115942  0.17415996  0.75413833  1
  Ru4+  Ru124  1  0.61045212  0.50180374  0.00183462  1
  Ru4+  Ru125  1  0.61002856  0.49405122  0.23929597  1
  Ru4+  Ru126  1  0.61588162  0.50809322  0.49897630  1
  Ru4+  Ru127  1  0.61416437  0.51000939  0.75095492  1
  Ru4+  Ru128  1  0.61323969  0.84061003  0.00167506  1
  Ru4+  Ru129  1  0.60674430  0.82941677  0.24937738  1
  Ru4+  Ru130  1  0.61169095  0.83604823  0.49720871  1
  Ru4+  Ru131  1  0.61039383  0.84154074  0.75573139  1
  Ru4+  Ru132  1  0.38962320  0.17020337  0.00235872  1
  Ru4+  Ru133  1  0.39059132  0.17161153  0.25209437  1
  Ru4+  Ru134  1  0.38500186  0.16627817  0.49914668  1
  Ru4+  Ru135  1  0.38834750  0.16807406  0.74705224  1
  Ru4+  Ru136  1  0.38461873  0.49711800  0.00122306  1
  Ru4+  Ru137  1  0.38754326  0.49270839  0.24265975  1
  Ru4+  Ru138  1  0.38045271  0.50668147  0.50225306  1
  Ru4+  Ru139  1  0.38336360  0.50851950  0.74804406  1
  Ru4+  Ru140  1  0.38401722  0.83112978  0.00061623  1
  Ru4+  Ru141  1  0.39009047  0.83644734  0.24787005  1
  Ru4+  Ru142  1  0.39195052  0.83570978  0.49915538  1
  Ru4+  Ru143  1  0.38940922  0.82965427  0.75302426  1
  Ru4+  Ru144  1  0.88618492  0.16840942  -0.00763837  1
  Ru4+  Ru145  1  0.88880303  0.16208031  0.25515597  1
  Ru4+  Ru146  1  0.89050120  0.17170489  0.49959882  1
  Ru4+  Ru147  1  0.88878328  0.16958377  0.75116649  1
  Ru4+  Ru148  1  0.88772817  0.50360493  0.00492474  1
  Ru4+  Ru149  1  0.89461323  0.49967661  0.24963990  1
  Ru4+  Ru150  1  0.89377861  0.49475746  0.49795003  1
  Ru4+  Ru151  1  0.88242065  0.50770061  0.74427995  1
  Ru4+  Ru152  1  0.88860381  0.83572854  0.00080457  1
  Ru4+  Ru153  1  0.88878039  0.82877237  0.24721887  1
  Ru4+  Ru154  1  0.87755737  0.82846866  0.49991019  1
  Ru4+  Ru155  1  0.88830378  0.82935230  0.74959922  1
  Ru4+  Ru156  1  0.25083255  0.58187326  0.00474268  1
  Ru4+  Ru157  1  0.25074705  0.75898407  0.26507445  1
  Ru4+  Ru158  1  0.25127026  0.42023053  0.75263803  1
  Ru4+  Ru159  1  0.75006676  0.26750110  0.23039675  1
  Ru4+  Ru160  1  0.24878548  0.59125953  0.51314472  1
  Ru4+  Ru161  1  0.74930046  0.76113699  0.76026893  1
  Ru4+  Ru162  1  0.74964619  0.26578993  0.72562705  1
  Ru4+  Ru163  1  0.25041083  0.10183912  0.51035156  1
  Ru4+  Ru164  1  0.75043412  0.93528918  0.25924923  1
  Ru4+  Ru165  1  0.24888745  0.90585221  0.75471740  1
  Ru4+  Ru166  1  0.24945548  0.26612899  -0.01078748  1
  Ru4+  Ru167  1  0.75043061  0.27975581  0.56319236  1
  Ru4+  Ru168  1  0.25058265  0.41582516  0.49137329  1
  Ru4+  Ru169  1  0.74983372  0.75559987  -0.00505478  1
  Ru4+  Ru170  1  0.24945620  0.06489834  0.74088913  1
  Ru4+  Ru171  1  0.75046633  0.01146488  0.49306891  1
  Ru4+  Ru172  1  0.75083645  0.89971525  0.75443330  1
  Ru4+  Ru173  1  0.75127019  0.40984838  0.22674452  1
  Ru4+  Ru174  1  0.25092513  0.24543551  0.49827200  1
  Ru4+  Ru175  1  0.74862340  0.41520807  0.51116951  1
  Ru4+  Ru176  1  0.25029762  0.90650474  -0.00122896  1
  Ru4+  Ru177  1  0.74834152  0.75175038  0.49788022  1
  Ru4+  Ru178  1  0.74964977  0.58236928  0.75031594  1
  Ru4+  Ru179  1  0.74962172  0.07149768  0.71939125  1
  O2-  O180  1  0.16167776  0.07333005  -0.00303050  1
  O2-  O181  1  0.16533055  0.07908180  0.25135702  1
  O2-  O182  1  0.16830961  0.08030079  0.50032947  1
  O2-  O183  1  0.16530146  0.07920058  0.74988050  1
  O2-  O184  1  0.16895922  0.41673647  -0.00217345  1
  O2-  O185  1  0.16575425  0.41805988  0.24849329  1
  O2-  O186  1  0.16880875  0.41526664  0.50141119  1
  O2-  O187  1  0.17000981  0.41257046  0.74961970  1
  O2-  O188  1  0.16270153  0.75005106  -0.00282215  1
  O2-  O189  1  0.17162598  0.74956949  0.25624570  1
  O2-  O190  1  0.17225970  0.74242600  0.49824979  1
  O2-  O191  1  0.16701513  0.74753225  0.75183926  1
  O2-  O192  1  0.66710281  0.08565851  0.00376188  1
  O2-  O193  1  0.66612895  0.07929223  0.25131276  1
  O2-  O194  1  0.67582147  0.08152912  0.50842610  1
  O2-  O195  1  0.66456626  0.08022472  0.74221593  1
  O2-  O196  1  0.66705707  0.41957326  -0.00274620  1
  O2-  O197  1  0.66812618  0.41536041  0.25484023  1
  O2-  O198  1  0.66513516  0.41569492  0.50069073  1
  O2-  O199  1  0.66183508  0.42026188  0.74592599  1
  O2-  O200  1  0.66364890  0.74897382  -0.00069289  1
  O2-  O201  1  0.66591788  0.74563691  0.25048502  1
  O2-  O202  1  0.66714222  0.74880509  0.50127705  1
  O2-  O203  1  0.66702506  0.75078004  0.75042902  1
  O2-  O204  1  0.33159486  0.25216189  -0.00604536  1
  O2-  O205  1  0.33174354  0.24964438  0.24888800  1
  O2-  O206  1  0.33383937  0.25321619  0.50103269  1
  O2-  O207  1  0.33700523  0.25798080  0.74772485  1
  O2-  O208  1  0.33336110  0.58615389  -0.00101792  1
  O2-  O209  1  0.33354395  0.58047795  0.24878617  1
  O2-  O210  1  0.32985133  0.58983434  0.49954629  1
  O2-  O211  1  0.32972022  0.58484671  0.75751016  1
  O2-  O212  1  0.33344297  0.92011372  0.00006204  1
  O2-  O213  1  0.33277008  0.91890939  0.24916466  1
  O2-  O214  1  0.33314197  0.92255572  0.50120339  1
  O2-  O215  1  0.33313928  0.91788826  0.74965975  1
  O2-  O216  1  0.83362113  0.25347195  0.00171300  1
  O2-  O217  1  0.83379694  0.25374177  0.24504631  1
  O2-  O218  1  0.83568400  0.25400603  0.50301841  1
  O2-  O219  1  0.83166217  0.25413203  0.74262795  1
  O2-  O220  1  0.83454446  0.58511185  -0.00507001  1
  O2-  O221  1  0.84140203  0.58834588  0.24753850  1
  O2-  O222  1  0.84242703  0.58663057  0.49689325  1
  O2-  O223  1  0.83041159  0.59093682  0.75164330  1
  O2-  O224  1  0.83930673  0.91787812  0.00085345  1
  O2-  O225  1  0.83444603  0.92221590  0.25240579  1
  O2-  O226  1  0.83093131  0.92577360  0.49978153  1
  O2-  O227  1  0.83246554  0.91765051  0.74986669  1
  O2-  O228  1  0.16579985  0.25265720  -0.00230028  1
  O2-  O229  1  0.16655940  0.25084279  0.24733291  1
  O2-  O230  1  0.16904967  0.25320618  0.49932296  1
  O2-  O231  1  0.15832155  0.25581530  0.74896321  1
  O2-  O232  1  0.16824840  0.58395549  -0.00480701  1
  O2-  O233  1  0.16595183  0.58282982  0.25170844  1
  O2-  O234  1  0.16584291  0.58424060  0.49966565  1
  O2-  O235  1  0.16364285  0.58277296  0.75412943  1
  O2-  O236  1  0.17027052  0.92029076  0.00001419  1
  O2-  O237  1  0.16225679  0.92104207  0.25307499  1
  O2-  O238  1  0.16802519  0.92138193  0.49732620  1
  O2-  O239  1  0.16256728  0.91693046  0.74889856  1
  O2-  O240  1  0.66643310  0.25069088  -0.00477536  1
  O2-  O241  1  0.66642590  0.25372247  0.25430852  1
  O2-  O242  1  0.66438310  0.24840047  0.50384604  1
  O2-  O243  1  0.66809799  0.25601071  0.74124668  1
  O2-  O244  1  0.66518458  0.58399637  -0.00410709  1
  O2-  O245  1  0.65855182  0.58743780  0.24616898  1
  O2-  O246  1  0.66591535  0.59230521  0.49399604  1
  O2-  O247  1  0.66908831  0.58885119  0.75298114  1
  O2-  O248  1  0.66742140  0.91623165  0.00168948  1
  O2-  O249  1  0.66514506  0.91374619  0.24264850  1
  O2-  O250  1  0.67005853  0.92103541  0.50464557  1
  O2-  O251  1  0.67148669  0.91474312  0.74478513  1
  O2-  O252  1  0.34314731  0.07267206  -0.00112137  1
  O2-  O253  1  0.33548647  0.07998856  0.24983712  1
  O2-  O254  1  0.33295476  0.08053120  0.50130838  1
  O2-  O255  1  0.33372843  0.07940467  0.75096473  1
  O2-  O256  1  0.33077856  0.41755661  -0.00216050  1
  O2-  O257  1  0.32929786  0.41718090  0.25104101  1
  O2-  O258  1  0.33245725  0.41469589  0.50085605  1
  O2-  O259  1  0.33425422  0.41526862  0.75130423  1
  O2-  O260  1  0.33671196  0.74656721  -0.00207935  1
  O2-  O261  1  0.33388912  0.74975412  0.25091802  1
  O2-  O262  1  0.33636191  0.74904602  0.50122820  1
  O2-  O263  1  0.33763930  0.74771153  0.75381402  1
  O2-  O264  1  0.83220416  0.08134628  0.00182312  1
  O2-  O265  1  0.83794077  0.07701195  0.25248832  1
  O2-  O266  1  0.82777657  0.07749042  0.49547525  1
  O2-  O267  1  0.83610063  0.07958029  0.74473008  1
  O2-  O268  1  0.83457189  0.41438281  -0.00296616  1
  O2-  O269  1  0.83546359  0.41413654  0.24639978  1
  O2-  O270  1  0.83131501  0.41682339  0.50880530  1
  O2-  O271  1  0.83632444  0.41721792  0.74918744  1
  O2-  O272  1  0.83431806  0.74859115  -0.00064949  1
  O2-  O273  1  0.83827168  0.74384304  0.24943758  1
  O2-  O274  1  0.82936022  0.74229948  0.49957114  1
  O2-  O275  1  0.83068433  0.74946975  0.75140127  1
  O2-  O276  1  0.54600921  0.42746878  0.98639601  1
  O2-  O277  1  0.95417043  0.89699414  0.74357017  1
  O2-  O278  1  0.54579755  0.23174375  0.70273524  1
  O2-  O279  1  0.05415582  0.90139330  0.51274779  1
  O2-  O280  1  0.45515691  0.75888850  0.75710934  1
  O2-  O281  1  0.04748003  0.08972812  0.24826171  1
  O2-  O282  1  0.45472879  0.90376716  0.49547741  1
  O2-  O283  1  0.05119343  0.23845731  0.00800790  1
  O2-  O284  1  0.45516920  0.09289046  0.98623114  1
  O2-  O285  1  0.46059487  0.57493655  0.26249519  1
  O2-  O286  1  0.95149092  0.90195548  0.25163356  1
  O2-  O287  1  0.54509114  0.57192353  0.98891853  1
  O2-  O288  1  0.44806002  0.08398750  0.75590756  1
  O2-  O289  1  0.54874909  0.43654064  0.50591415  1
  O2-  O290  1  0.05055981  0.09704110  0.47901717  1
  O2-  O291  1  0.03515810  0.78354618  0.27444954  1
  O2-  O292  1  0.95126346  0.43469091  0.74428474  1
  O2-  O293  1  0.94772787  0.24100983  0.24143374  1
  O2-  O294  1  0.04847103  0.24280351  0.72923340  1
  O2-  O295  1  0.04724906  0.23230807  0.19978413  1
  O2-  O296  1  0.44916165  0.42756283  0.72829956  1
  O2-  O297  1  0.95442090  0.57337991  0.49993872  1
  O2-  O298  1  0.55114269  0.09247924  0.77118273  1
  O2-  O299  1  0.54802821  0.24838523  0.48186188  1
  O2-  O300  1  0.04515686  0.56451111  0.98400634  1
  O2-  O301  1  0.44948114  0.42849201  0.76735830  1
  O2-  O302  1  0.95575983  0.77321117  0.01655673  1
  O2-  O303  1  0.54981695  0.44693859  0.30135662  1
  O2-  O304  1  0.94905693  0.89958523  0.50437036  1
  O2-  O305  1  0.04622539  0.08945427  0.74440992  1
  O2-  O306  1  0.45265386  0.43587407  0.49805569  1
  O2-  O307  1  0.52181131  0.10989102  0.50699311  1
  O2-  O308  1  0.55118263  0.23809206  0.24770924  1
  O2-  O309  1  0.04503746  0.09128032  0.75356056  1
  O2-  O310  1  0.55247524  0.43468045  0.73172303  1
  O2-  O311  1  0.05076873  0.09698254  0.51859132  1
  O2-  O312  1  0.45657443  0.21690770  0.20413579  1
  O2-  O313  1  0.53518943  0.79125777  0.29000791  1
  O2-  O314  1  0.44222719  0.91546516  0.72806886  1
  O2-  O315  1  0.04946533  0.57583137  0.74447281  1
  O2-  O316  1  0.53574148  0.11750915  0.53795544  1
  O2-  O317  1  0.95371372  0.43026734  0.01825461  1
  O2-  O318  1  0.94899829  0.89985777  0.50650519  1
  O2-  O319  1  0.53611862  0.21724161  0.97332484  1
  O2-  O320  1  0.45126718  0.43803954  0.29138519  1
  O2-  O321  1  0.96554047  0.43230794  0.54356633  1
  O2-  O322  1  0.53548711  0.86063578  0.75052014  1
  O2-  O323  1  0.54814944  0.41838128  0.76593072  1
  O2-  O324  1  0.56196895  0.91641315  0.47692909  1
  O2-  O325  1  0.92829670  0.58105192  0.81862798  1
  O2-  O326  1  0.56964485  0.57622623  0.68236335  1
  O2-  O327  1  0.06267707  0.40440332  0.04034158  1
  O2-  O328  1  0.59229009  0.06152811  0.44081777  1
  O2-  O329  1  0.93601811  0.26246471  0.97262020  1
  O2-  O330  1  0.93494834  0.73516355  0.46459054  1
  O2-  O331  1  0.43255062  0.38960413  0.16907424  1
  O2-  O332  1  0.43491417  0.73843671  0.21308442  1
  O2-  O333  1  0.57429737  0.72760733  0.20265943  1
  O2-  O334  1  0.55613940  0.24114305  0.69659261  1
  O2-  O335  1  0.56203729  0.40698567  0.51410182  1
  O2-  O336  1  0.43934358  0.57978847  0.28307685  1
  O2-  O337  1  0.43782930  0.59025388  0.72549070  1
  O2-  O338  1  0.06249352  0.73852857  0.82619933  1
  O2-  O339  1  0.06144923  0.74030976  0.52451152  1
  O2-  O340  1  0.94117311  0.40824238  0.72294555  1
  O2-  O341  1  0.06189725  0.06953475  0.03856042  1
  O2-  O342  1  0.43580479  0.25768515  0.72651239  1
  O2-  O343  1  0.93419125  0.07248820  0.02183496  1
  O2-  O344  1  0.07415746  0.42338420  0.82106001  1
  O2-  O345  1  0.56348412  0.07341662  0.22457095  1
  O2-  O346  1  0.55991435  0.91780853  0.01950181  1
  O2-  O347  1  0.43909727  0.41885566  0.47070407  1
  O2-  O348  1  0.06305914  0.40705088  0.46285115  1
  O2-  O349  1  0.56864272  0.26490420  0.46876241  1
  O2-  O350  1  0.55937606  0.58729093  0.52476508  1
  O2-  O351  1  0.56770133  0.28154314  0.07176106  1
  O2-  O352  1  0.43840694  0.41185493  0.97711512  1
  O2-  O353  1  0.08635393  0.73113106  0.19355763  1
  O2-  O354  1  0.56497319  0.39197164  0.17758316  1
  O2-  O355  1  0.43668817  0.92516850  0.26756606  1
  O2-  O356  1  0.06019907  0.92355652  0.54208341  1
  O2-  O357  1  0.42267984  0.26801919  0.31278445  1
  O2-  O358  1  0.91873335  0.39943087  0.43880503  1
  O2-  O359  1  0.56279414  0.59657397  0.82245346  1
  O2-  O360  1  0.56470189  0.74543172  0.47510019  1
  O2-  O361  1  0.05924237  0.73396959  0.67839044  1
  O2-  O362  1  0.57970740  0.96369272  0.79429877  1
  O2-  O363  1  0.93005618  0.07669547  0.52292457  1
  O2-  O364  1  0.56603220  0.07427716  0.02408025  1
  O2-  O365  1  0.93644233  0.26136271  0.77922598  1
  O2-  O366  1  0.57354126  0.26692740  0.84404859  1
  O2-  O367  1  0.93788329  0.60427242  0.67457690  1
  O2-  O368  1  0.07074736  0.28051834  0.32496834  1
  O2-  O369  1  0.43788387  0.25822582  0.03568554  1
  O2-  O370  1  0.06341109  0.39958373  0.67311532  1
  O2-  O371  1  0.06263303  0.92532928  0.96871020  1
  O2-  O372  1  0.24910430  0.66523506  0.34429618  1
  O2-  O373  1  0.24978395  0.65860237  0.62384636  1
  O2-  O374  1  0.75070051  -0.00006275  0.15771592  1
  O2-  O375  1  0.75083060  0.00671697  0.92835440  1
  O2-  O376  1  0.74972422  0.67577933  0.60070261  1
  O2-  O377  1  0.25049137  0.33920867  0.37025221  1
  O2-  O378  1  0.75071105  -0.00078222  0.81119335  1
  O2-  O379  1  0.24995209  0.33808143  0.84700740  1
  O2-  O380  1  0.24926418  0.33713660  0.17114612  1
  O2-  O381  1  0.74946483  0.31993857  0.44407588  1
  O2-  O382  1  0.74910778  0.67742476  0.09987668  1
  O2-  O383  1  0.24895204  0.34538622  0.07949225  1
  O2-  O384  1  0.25089032  0.32826758  0.59058536  1
  O2-  O385  1  0.75148291  0.33186317  0.91745601  1
  O2-  O386  1  0.75186760  0.67474272  0.35981729  1
  O2-  O387  1  0.75019386  0.33780551  0.32190731  1
  O2-  O388  1  0.25010493  -0.00316065  0.85481859  1
  O2-  O389  1  0.75044913  0.33964259  0.82454532  1
  O2-  O390  1  0.75320537  0.33014494  0.11582689  1
  O2-  O391  1  0.24995469  -0.00890283  0.64443166  1
  O2-  O392  1  0.25076413  0.66906693  0.07855959  1
  O2-  O393  1  0.25057911  0.66158402  0.16984267  1
  O2-  O394  1  0.75003900  0.66190730  0.89853199  1
  O2-  O395  1  0.75039289  -0.00419163  0.61815703  1
  O2-  O396  1  0.75033398  0.84183687  0.43694147  1
  O2-  O397  1  0.75022733  0.50103293  0.07427498  1
  O2-  O398  1  0.75007808  0.50254001  0.16103447  1
  O2-  O399  1  0.24988999  0.83995078  0.84618843  1
  O2-  O400  1  0.75007735  0.50053911  0.66920648  1
  O2-  O401  1  0.75152304  0.16591072  0.19179123  1
  O2-  O402  1  0.24968000  0.18146653  0.12400472  1
  O2-  O403  1  0.75003842  0.82285347  0.89994991  1
  O2-  O404  1  0.25037928  0.82691673  0.08109773  1
  O2-  O405  1  0.25003501  0.83742904  0.66271839  1
  O2-  O406  1  0.74744328  0.14377063  0.11032398  1
  O2-  O407  1  0.24972777  0.17892686  0.89328365  1
  O2-  O408  1  0.25013264  0.50028106  0.68574431  1
  O2-  O409  1  0.75048639  0.17248251  0.62871223  1
  O2-  O410  1  0.25052622  0.14759727  0.62394005  1
  O2-  O411  1  0.24960570  0.84011411  0.16952115  1
  O2-  O412  1  0.75064537  0.48007745  0.40300108  1
  O2-  O413  1  0.25012158  0.49668569  0.56643567  1
  O2-  O414  1  0.75031467  0.83516298  0.07724520  1
  O2-  O415  1  0.25036172  0.15907938  0.40560392  1
  O2-  O416  1  0.74940800  0.84893896  0.34697090  1
  O2-  O417  1  0.74956419  0.16582418  0.77762394  1
  O2-  O418  1  0.25011722  0.82607859  0.36492788  1
  O2-  O419  1  0.75017238  0.16485335  0.86247296  1
  O2-  O420  1  0.97296313  0.00940423  0.37321332  1
  O2-  O421  1  0.48909197  0.32897719  0.38219203  1
  O2-  O422  1  0.98034375  -0.01119805  0.12555705  1
  O2-  O423  1  0.50928642  -0.00873884  0.13082725  1
  O2-  O424  1  0.53827361  0.69662018  0.63418168  1
  O2-  O425  1  0.52817248  0.34766373  0.62515897  1
  O2-  O426  1  0.02303569  0.32652082  0.88166881  1
  O2-  O427  1  0.45495682  0.67592873  0.39339086  1
  O2-  O428  1  0.47258852  0.32073076  0.87048031  1
  O2-  O429  1  0.47051230  0.66126310  0.88219817  1
  O2-  O430  1  0.04187375  0.65065235  0.10719929  1
  O2-  O431  1  0.97385596  0.00057279  0.87585939  1
  O2-  O432  1  0.45777421  0.34167657  0.60623404  1
  O2-  O433  1  0.02691389  0.65701442  0.37067968  1
  O2-  O434  1  0.52759128  -0.01089254  0.62445436  1
  O2-  O435  1  0.97690267  -0.00102494  0.63389487  1
  O2-  O436  1  0.95096487  0.66289577  0.13438125  1
  O2-  O437  1  0.97767815  0.32066587  0.36960730  1
  O2-  O438  1  0.46895795  0.01947546  0.38348349  1
  O2-  O439  1  0.54562199  0.64103771  0.36139071  1
  O2-  O440  1  0.97829936  0.67306565  0.88799066  1
  O2-  O441  1  0.52493870  -0.00407309  0.35913845  1
  O2-  O442  1  0.51911886  0.65486088  0.11977944  1
  O2-  O443  1  0.45467231  0.67266206  0.59644466  1
