# generated using pymatgen
data_La7(Ru4O11)2
_symmetry_space_group_name_H-M   'P 1'
_cell_length_a   23.98973459
_cell_length_b   16.82918599
_cell_length_c   15.42654198
_cell_angle_alpha   89.99966211
_cell_angle_beta   90.00002988
_cell_angle_gamma   89.99973730
_symmetry_Int_Tables_number   1
_chemical_formula_structural   La7(Ru4O11)2
_chemical_formula_sum   'La84 Ru96 O264'
_cell_volume   6228.12239145
_cell_formula_units_Z   12
loop_
 _symmetry_equiv_pos_site_id
 _symmetry_equiv_pos_as_xyz
  1  'x, y, z'
loop_
 _atom_type_symbol
 _atom_type_oxidation_number
  La3+  3.0
  Ru4+  4.0
  O2-  -2.0
loop_
 _atom_site_type_symbol
 _atom_site_label
 _atom_site_symmetry_multiplicity
 _atom_site_fract_x
 _atom_site_fract_y
 _atom_site_fract_z
 _atom_site_occupancy
  La3+  La0  1  0.14169615  0.00061969  0.12681391  1
  La3+  La1  1  0.14035162  -0.00089672  0.37292222  1
  La3+  La2  1  0.13943609  -0.00078396  0.62467472  1
  La3+  La3  1  0.14071922  0.00002974  0.87564196  1
  La3+  La4  1  0.13913603  0.33470076  0.12322602  1
  La3+  La5  1  0.13957479  0.33222976  0.37678075  1
  La3+  La6  1  0.13956715  0.33324147  0.62404680  1
  La3+  La7  1  0.13977882  0.33447665  0.87480348  1
  La3+  La8  1  0.13951155  0.66616812  0.12594981  1
  La3+  La9  1  0.13963534  0.66652573  0.37297156  1
  La3+  La10  1  0.13831108  0.66645796  0.62692404  1
  La3+  La11  1  0.14039648  0.66601851  0.87364025  1
  La3+  La12  1  0.63558940  0.00083690  0.12475099  1
  La3+  La13  1  0.63861295  0.00051946  0.37437738  1
  La3+  La14  1  0.63564703  0.00376365  0.62945150  1
  La3+  La15  1  0.63245717  0.00189489  0.87210128  1
  La3+  La16  1  0.63661233  0.33413372  0.12428788  1
  La3+  La17  1  0.63785031  0.33275367  0.37656268  1
  La3+  La18  1  0.63955398  0.33308103  0.62530793  1
  La3+  La19  1  0.63801800  0.33356918  0.87369744  1
  La3+  La20  1  0.63976839  0.66552758  0.12307719  1
  La3+  La21  1  0.63882818  0.66580577  0.37757420  1
  La3+  La22  1  0.63814308  0.66660837  0.62481091  1
  La3+  La23  1  0.64062082  0.66704298  0.87606460  1
  La3+  La24  1  0.35851967  0.00016037  0.12765901  1
  La3+  La25  1  0.35847050  -0.00101894  0.37243437  1
  La3+  La26  1  0.35961151  -0.00155184  0.62578644  1
  La3+  La27  1  0.35941764  -0.00012233  0.87535634  1
  La3+  La28  1  0.36120074  0.33489815  0.12395569  1
  La3+  La29  1  0.35991823  0.33278396  0.37692847  1
  La3+  La30  1  0.35860194  0.33272885  0.62279564  1
  La3+  La31  1  0.35991845  0.33367995  0.87661300  1
  La3+  La32  1  0.36145529  0.66581813  0.12713856  1
  La3+  La33  1  0.36057114  0.66693554  0.37307135  1
  La3+  La34  1  0.36074239  0.66697643  0.62645135  1
  La3+  La35  1  0.36050541  0.66595545  0.87300990  1
  La3+  La36  1  0.86293463  0.00011145  0.12559912  1
  La3+  La37  1  0.86202708  0.00094632  0.37587953  1
  La3+  La38  1  0.86213608  0.00037039  0.62319846  1
  La3+  La39  1  0.86298640  -0.00055640  0.87433959  1
  La3+  La40  1  0.86259820  0.33461971  0.12548762  1
  La3+  La41  1  0.86260606  0.33271958  0.37729033  1
  La3+  La42  1  0.86027594  0.33429269  0.62369130  1
  La3+  La43  1  0.86294207  0.33362416  0.87399440  1
  La3+  La44  1  0.86165232  0.66606972  0.12151555  1
  La3+  La45  1  0.86242900  0.66604959  0.37626263  1
  La3+  La46  1  0.86084375  0.66575306  0.62452246  1
  La3+  La47  1  0.85999361  0.66655560  0.87771453  1
  La3+  La48  1  -0.00013544  0.83379247  0.61670135  1
  La3+  La49  1  -0.00319423  0.17053835  0.61757784  1
  La3+  La50  1  0.49965089  0.16683587  0.63765313  1
  La3+  La51  1  0.50244377  0.16268503  0.13114194  1
  La3+  La52  1  0.50205159  0.16950357  0.38157482  1
  La3+  La53  1  0.00003763  0.83351683  0.13546699  1
  La3+  La54  1  0.00390351  0.16278849  0.88548014  1
  La3+  La55  1  -0.00061317  0.49484526  0.12407313  1
  La3+  La56  1  0.50275291  0.16842911  0.86624646  1
  La3+  La57  1  -0.00182123  0.50262219  0.86566439  1
  La3+  La58  1  0.50020290  0.83357448  0.88305035  1
  La3+  La59  1  0.49972485  0.83374613  0.11424059  1
  La3+  La60  1  0.00120173  0.49823289  0.88193576  1
  La3+  La61  1  -0.00136653  0.83127074  0.86524433  1
  La3+  La62  1  0.50299184  0.50427449  0.62950391  1
  La3+  La63  1  0.50001093  0.49983414  0.38622491  1
  La3+  La64  1  -0.00067779  0.16599624  0.11752072  1
  La3+  La65  1  0.50334302  0.16565929  0.88327066  1
  La3+  La66  1  0.49917420  0.49817136  0.86862042  1
  La3+  La67  1  0.50015081  0.50088988  0.36372996  1
  La3+  La68  1  0.50207980  0.16256732  0.11373594  1
  La3+  La69  1  0.00060846  0.83325440  0.11284172  1
  La3+  La70  1  -0.00059211  0.83380921  0.37044977  1
  La3+  La71  1  0.00393299  0.16641165  0.86922061  1
  La3+  La72  1  0.75006406  0.12293898  0.24635471  1
  La3+  La73  1  0.74974030  0.50195188  0.02015353  1
  La3+  La74  1  0.25001548  0.16403397  -0.03151299  1
  La3+  La75  1  0.75056255  0.50487057  0.25819878  1
  La3+  La76  1  0.74962447  0.16843842  0.00483747  1
  La3+  La77  1  0.24979449  0.87190328  0.02549097  1
  La3+  La78  1  0.74987148  0.80257603  0.71549839  1
  La3+  La79  1  0.74997192  0.16692042  0.76667015  1
  La3+  La80  1  0.75037271  0.16613037  0.46989014  1
  La3+  La81  1  0.25012984  0.80173942  0.76568668  1
  La3+  La82  1  0.75005709  0.80073865  0.21279636  1
  La3+  La83  1  0.25020923  0.46656679  0.46707294  1
  Ru4+  Ru84  1  -0.00014685  -0.00003173  -0.00148550  1
  Ru4+  Ru85  1  -0.00328037  0.00029807  0.25707966  1
  Ru4+  Ru86  1  -0.00450458  0.00173877  0.50097944  1
  Ru4+  Ru87  1  -0.00381632  0.00179050  0.74752693  1
  Ru4+  Ru88  1  0.00174822  0.33445445  0.00291820  1
  Ru4+  Ru89  1  -0.00096217  0.33359955  0.24761210  1
  Ru4+  Ru90  1  -0.00210856  0.33241654  0.50172585  1
  Ru4+  Ru91  1  -0.00251201  0.33188210  0.74717706  1
  Ru4+  Ru92  1  0.00127217  0.67536595  0.00021486  1
  Ru4+  Ru93  1  -0.00100670  0.66532679  0.25335409  1
  Ru4+  Ru94  1  0.00015134  0.66580649  0.50191428  1
  Ru4+  Ru95  1  -0.00083426  0.66356964  0.74305566  1
  Ru4+  Ru96  1  0.49655672  0.00437988  -0.00066895  1
  Ru4+  Ru97  1  0.49623967  -0.00569395  0.25200896  1
  Ru4+  Ru98  1  0.50245216  -0.00434448  0.50022789  1
  Ru4+  Ru99  1  0.50476522  -0.00005167  0.75163474  1
  Ru4+  Ru100  1  0.49979975  0.33362551  0.00172908  1
  Ru4+  Ru101  1  0.50073050  0.33605851  0.25078971  1
  Ru4+  Ru102  1  0.49990232  0.33372570  0.50014210  1
  Ru4+  Ru103  1  0.50115735  0.33093426  0.74835872  1
  Ru4+  Ru104  1  0.49888863  0.66535867  0.00281099  1
  Ru4+  Ru105  1  0.49707516  0.66096193  0.24308659  1
  Ru4+  Ru106  1  0.50037679  0.67014365  0.50194396  1
  Ru4+  Ru107  1  0.50077729  0.66835008  0.74767445  1
  Ru4+  Ru108  1  0.11237322  0.16621145  0.00046376  1
  Ru4+  Ru109  1  0.11819789  0.16709256  0.24918545  1
  Ru4+  Ru110  1  0.11395272  0.17002251  0.49884225  1
  Ru4+  Ru111  1  0.11351233  0.16514276  0.74997663  1
  Ru4+  Ru112  1  0.11488517  0.49713210  0.00077388  1
  Ru4+  Ru113  1  0.11426811  0.49922414  0.24992533  1
  Ru4+  Ru114  1  0.11255174  0.50097781  0.49949391  1
  Ru4+  Ru115  1  0.11556318  0.50465023  0.74888145  1
  Ru4+  Ru116  1  0.11131901  0.83400886  -0.00010571  1
  Ru4+  Ru117  1  0.11496115  0.83371612  0.24987211  1
  Ru4+  Ru118  1  0.11681751  0.83092899  0.49962128  1
  Ru4+  Ru119  1  0.11569766  0.83032126  0.75041918  1
  Ru4+  Ru120  1  0.61000691  0.16698366  -0.00074099  1
  Ru4+  Ru121  1  0.61387711  0.16979902  0.25037424  1
  Ru4+  Ru122  1  0.61190347  0.16800542  0.50085112  1
  Ru4+  Ru123  1  0.61027232  0.16594658  0.75115726  1
  Ru4+  Ru124  1  0.61163399  0.50060311  -0.00058774  1
  Ru4+  Ru125  1  0.61035615  0.50073825  0.24855574  1
  Ru4+  Ru126  1  0.61283915  0.50143552  0.49897094  1
  Ru4+  Ru127  1  0.61284187  0.49883773  0.74983871  1
  Ru4+  Ru128  1  0.61704914  0.82945981  0.00072878  1
  Ru4+  Ru129  1  0.61426319  0.83584200  0.25033525  1
  Ru4+  Ru130  1  0.61100530  0.83218569  0.49909103  1
  Ru4+  Ru131  1  0.61028598  0.83190627  0.74906978  1
  Ru4+  Ru132  1  0.38905798  0.16585525  -0.00013697  1
  Ru4+  Ru133  1  0.38539217  0.16368808  0.25020209  1
  Ru4+  Ru134  1  0.38466893  0.17102532  0.50065911  1
  Ru4+  Ru135  1  0.38530264  0.16719378  0.74926637  1
  Ru4+  Ru136  1  0.38777622  0.49830254  0.00013072  1
  Ru4+  Ru137  1  0.38735959  0.50101137  0.24956471  1
  Ru4+  Ru138  1  0.38892888  0.49889308  0.49950791  1
  Ru4+  Ru139  1  0.38596446  0.50262634  0.75035668  1
  Ru4+  Ru140  1  0.38857830  0.83425341  0.00046559  1
  Ru4+  Ru141  1  0.38662753  0.83553381  0.25065537  1
  Ru4+  Ru142  1  0.38579711  0.83492656  0.49957477  1
  Ru4+  Ru143  1  0.38624822  0.82918089  0.74973026  1
  Ru4+  Ru144  1  0.88762495  0.16436313  0.00092721  1
  Ru4+  Ru145  1  0.89063538  0.16479318  0.24985738  1
  Ru4+  Ru146  1  0.88863368  0.16713205  0.49956473  1
  Ru4+  Ru147  1  0.88572040  0.16744013  0.74914924  1
  Ru4+  Ru148  1  0.88420308  0.49735532  -0.00011673  1
  Ru4+  Ru149  1  0.88911646  0.50009532  0.24930959  1
  Ru4+  Ru150  1  0.88866171  0.49962973  0.50040656  1
  Ru4+  Ru151  1  0.88705982  0.50046588  0.75078720  1
  Ru4+  Ru152  1  0.88840879  0.83182016  0.00052431  1
  Ru4+  Ru153  1  0.88757876  0.83409960  0.25019511  1
  Ru4+  Ru154  1  0.88700574  0.83347466  0.49986917  1
  Ru4+  Ru155  1  0.88823700  0.83311298  0.75002365  1
  Ru4+  Ru156  1  0.24971021  0.24606152  0.74187723  1
  Ru4+  Ru157  1  0.74994153  0.03744001  -0.00065519  1
  Ru4+  Ru158  1  0.24996950  0.75333171  0.50114944  1
  Ru4+  Ru159  1  0.25012960  0.41873840  0.24801017  1
  Ru4+  Ru160  1  0.74993900  0.91377184  0.50635090  1
  Ru4+  Ru161  1  0.75005053  0.93534596  0.24182772  1
  Ru4+  Ru162  1  0.25014260  0.94189437  0.75282221  1
  Ru4+  Ru163  1  0.75023826  0.41517441  0.74365783  1
  Ru4+  Ru164  1  0.74993617  0.25856553  0.24353357  1
  Ru4+  Ru165  1  0.25020399  0.25008423  0.24971133  1
  Ru4+  Ru166  1  0.25037515  0.41432241  0.74883937  1
  Ru4+  Ru167  1  0.74992048  0.75034806  0.50375355  1
  Ru4+  Ru168  1  0.75001096  0.58155913  0.74583737  1
  Ru4+  Ru169  1  0.25018275  0.60553684  0.49722282  1
  Ru4+  Ru170  1  0.24991818  0.73644945  0.00090022  1
  Ru4+  Ru171  1  0.75009656  0.91198999  0.00414519  1
  Ru4+  Ru172  1  0.24980172  0.57305474  0.00528654  1
  Ru4+  Ru173  1  0.75010691  0.38257748  0.23995358  1
  Ru4+  Ru174  1  0.24992563  0.75405953  0.24946102  1
  Ru4+  Ru175  1  0.25002184  0.08431926  0.49550047  1
  Ru4+  Ru176  1  0.74995859  0.62935354  0.25882592  1
  Ru4+  Ru177  1  0.75015260  0.41784301  0.50200003  1
  Ru4+  Ru178  1  0.75005162  0.29938733  -0.00043957  1
  Ru4+  Ru179  1  0.74999670  0.93508444  0.76084184  1
  O2-  O180  1  0.16654496  0.08150433  -0.00034545  1
  O2-  O181  1  0.16737310  0.08331580  0.25080836  1
  O2-  O182  1  0.16866295  0.08036915  0.50157279  1
  O2-  O183  1  0.16564211  0.08144900  0.75062405  1
  O2-  O184  1  0.16750314  0.41501725  -0.00038360  1
  O2-  O185  1  0.16752857  0.41553598  0.24991638  1
  O2-  O186  1  0.16664654  0.41381206  0.50069168  1
  O2-  O187  1  0.16728004  0.41439236  0.74999662  1
  O2-  O188  1  0.16769920  0.74621169  0.00035743  1
  O2-  O189  1  0.16867112  0.74774868  0.25031346  1
  O2-  O190  1  0.16783713  0.74827988  0.49964214  1
  O2-  O191  1  0.16632420  0.74686290  0.74806349  1
  O2-  O192  1  0.66712757  0.07826716  -0.00020622  1
  O2-  O193  1  0.66511570  0.07848735  0.24976383  1
  O2-  O194  1  0.66799836  0.08012177  0.50111927  1
  O2-  O195  1  0.66799364  0.08014910  0.74903655  1
  O2-  O196  1  0.66752134  0.41259257  0.00065659  1
  O2-  O197  1  0.66597681  0.41220378  0.25003696  1
  O2-  O198  1  0.66790822  0.41400016  0.49934421  1
  O2-  O199  1  0.66849980  0.41423174  0.74979037  1
  O2-  O200  1  0.66744886  0.74896678  0.00066736  1
  O2-  O201  1  0.66877622  0.74659166  0.25109997  1
  O2-  O202  1  0.66713713  0.74758540  0.49995565  1
  O2-  O203  1  0.66743767  0.74667083  0.75048625  1
  O2-  O204  1  0.33161896  0.25405898  -0.00002202  1
  O2-  O205  1  0.33267570  0.25298403  0.24936872  1
  O2-  O206  1  0.33441949  0.25090474  0.50045130  1
  O2-  O207  1  0.33293271  0.25194789  0.75051899  1
  O2-  O208  1  0.33327800  0.58547060  -0.00085392  1
  O2-  O209  1  0.33409435  0.58480622  0.24979353  1
  O2-  O210  1  0.33236255  0.58782590  0.49988410  1
  O2-  O211  1  0.33428850  0.58461664  0.74957823  1
  O2-  O212  1  0.33552555  0.92032023  -0.00013305  1
  O2-  O213  1  0.33391420  0.91643488  0.24999283  1
  O2-  O214  1  0.33335761  0.91785106  0.49964164  1
  O2-  O215  1  0.33278938  0.92049125  0.75125745  1
  O2-  O216  1  0.83155849  0.25432969  -0.00081987  1
  O2-  O217  1  0.83357910  0.25320844  0.24972282  1
  O2-  O218  1  0.83182483  0.25230684  0.49924784  1
  O2-  O219  1  0.83161441  0.25263892  0.75082205  1
  O2-  O220  1  0.83093927  0.58539279  0.00176480  1
  O2-  O221  1  0.83429873  0.58840300  0.25059896  1
  O2-  O222  1  0.83376942  0.58496101  0.49930396  1
  O2-  O223  1  0.83350917  0.58570671  0.74918955  1
  O2-  O224  1  0.83248889  0.92045504  0.00039892  1
  O2-  O225  1  0.83248320  0.92028284  0.24896090  1
  O2-  O226  1  0.83319630  0.91859211  0.49937307  1
  O2-  O227  1  0.83325900  0.91987541  0.75112541  1
  O2-  O228  1  0.16914928  0.25336622  -0.00038291  1
  O2-  O229  1  0.16649745  0.25347928  0.25002122  1
  O2-  O230  1  0.16568554  0.25061997  0.50016645  1
  O2-  O231  1  0.16860367  0.25296446  0.75032128  1
  O2-  O232  1  0.16816193  0.58551698  -0.00015412  1
  O2-  O233  1  0.16765477  0.58472434  0.25048201  1
  O2-  O234  1  0.16594691  0.58647111  0.49963384  1
  O2-  O235  1  0.16644884  0.58415194  0.74885141  1
  O2-  O236  1  0.16442091  0.91995198  -0.00016121  1
  O2-  O237  1  0.16552542  0.91739509  0.25033091  1
  O2-  O238  1  0.16740207  0.91871415  0.50055767  1
  O2-  O239  1  0.16640609  0.91969044  0.75038585  1
  O2-  O240  1  0.66639303  0.25481129  -0.00041204  1
  O2-  O241  1  0.66636031  0.25387958  0.24991554  1
  O2-  O242  1  0.66653234  0.25250004  0.49923692  1
  O2-  O243  1  0.66789006  0.25302200  0.74942005  1
  O2-  O244  1  0.66701132  0.58546209  0.00027134  1
  O2-  O245  1  0.66668148  0.58757599  0.25153184  1
  O2-  O246  1  0.66832292  0.58525138  0.50020143  1
  O2-  O247  1  0.66646818  0.58553142  0.74990444  1
  O2-  O248  1  0.66698971  0.91887487  0.00083032  1
  O2-  O249  1  0.66665430  0.92069839  0.24925912  1
  O2-  O250  1  0.66616164  0.91848816  0.50077746  1
  O2-  O251  1  0.66623830  0.92061034  0.75036586  1
  O2-  O252  1  0.33308535  0.08053249  -0.00003787  1
  O2-  O253  1  0.33369898  0.08312638  0.25006369  1
  O2-  O254  1  0.33106813  0.08018656  0.50034850  1
  O2-  O255  1  0.33247283  0.08196724  0.75186033  1
  O2-  O256  1  0.33326103  0.41442289  -0.00006981  1
  O2-  O257  1  0.33083073  0.41419925  0.24949204  1
  O2-  O258  1  0.33483761  0.41415758  0.50088685  1
  O2-  O259  1  0.33148765  0.41372358  0.74964096  1
  O2-  O260  1  0.33374071  0.74558385  -0.00015017  1
  O2-  O261  1  0.33198135  0.74802701  0.24965226  1
  O2-  O262  1  0.33237828  0.74785114  0.49995260  1
  O2-  O263  1  0.33535372  0.74633591  0.74914970  1
  O2-  O264  1  0.83437098  0.07985310  -0.00008395  1
  O2-  O265  1  0.83518519  0.07875376  0.24975140  1
  O2-  O266  1  0.83225961  0.08134685  0.49951403  1
  O2-  O267  1  0.83211196  0.08083655  0.75088326  1
  O2-  O268  1  0.83073027  0.41258975  0.00041957  1
  O2-  O269  1  0.83451895  0.41260008  0.25009836  1
  O2-  O270  1  0.83108256  0.41464723  0.49861145  1
  O2-  O271  1  0.83078317  0.41341476  0.74998211  1
  O2-  O272  1  0.83319314  0.74748874  0.00118028  1
  O2-  O273  1  0.83373544  0.74569577  0.25098329  1
  O2-  O274  1  0.83307907  0.74729507  0.49958627  1
  O2-  O275  1  0.83364040  0.74617319  0.75002916  1
  O2-  O276  1  0.54534869  0.56798759  0.76471924  1
  O2-  O277  1  0.95450896  0.76567184  0.26249804  1
  O2-  O278  1  0.95229707  0.76231374  0.73569222  1
  O2-  O279  1  0.44845158  0.08700916  0.46871505  1
  O2-  O280  1  0.04565237  0.23492247  0.48604679  1
  O2-  O281  1  0.04228812  0.10878728  0.25766407  1
  O2-  O282  1  0.46109900  0.22573796  0.22036833  1
  O2-  O283  1  0.53130482  0.78981104  0.25365029  1
  O2-  O284  1  0.54689748  0.09621421  0.23449844  1
  O2-  O285  1  0.95062743  0.43316524  0.51486206  1
  O2-  O286  1  0.96527538  0.21885705  -0.00219890  1
  O2-  O287  1  0.45621781  0.10788563  0.77931264  1
  O2-  O288  1  0.53911956  0.11156777  0.53396810  1
  O2-  O289  1  0.04780721  0.89919085  0.48077649  1
  O2-  O290  1  0.04540658  0.89992577  0.26113818  1
  O2-  O291  1  0.04163622  0.10242918  0.52503411  1
  O2-  O292  1  0.04641622  0.42927987  0.77158666  1
  O2-  O293  1  0.95499108  0.23574250  0.23514821  1
  O2-  O294  1  0.95197258  0.57095841  0.99082586  1
  O2-  O295  1  0.95413717  0.76220079  0.51351026  1
  O2-  O296  1  0.95111209  0.90160997  0.73694691  1
  O2-  O297  1  0.54292213  0.10494640  0.76070460  1
  O2-  O298  1  0.95100277  0.90432390  0.51085498  1
  O2-  O299  1  0.04320398  0.43250950  0.73290444  1
  O2-  O300  1  0.04770816  0.90384355  0.51985257  1
  O2-  O301  1  0.04511152  0.42900774  0.23433347  1
  O2-  O302  1  0.54942856  0.09402434  0.73699382  1
  O2-  O303  1  0.04469778  0.56858114  0.73681479  1
  O2-  O304  1  0.54762882  0.90185850  0.98621774  1
  O2-  O305  1  0.94876581  0.09571381  0.26530412  1
  O2-  O306  1  0.04851498  0.90475588  0.76931206  1
  O2-  O307  1  0.04415060  0.55780707  0.02858388  1
  O2-  O308  1  0.54635165  0.76651236  0.48621449  1
  O2-  O309  1  0.04278930  0.77103316  0.72302772  1
  O2-  O310  1  0.94479367  0.24772482  0.79776024  1
  O2-  O311  1  0.96067737  0.22503670  0.98100470  1
  O2-  O312  1  0.03975240  0.56033794  0.27565990  1
  O2-  O313  1  0.53247744  0.78616663  0.24868512  1
  O2-  O314  1  0.45319552  0.90197253  0.72989743  1
  O2-  O315  1  0.45468926  0.43290296  0.01471596  1
  O2-  O316  1  0.95778870  0.55813208  0.01369623  1
  O2-  O317  1  0.54904260  0.90038595  0.76476208  1
  O2-  O318  1  0.96152207  0.10501503  0.77543863  1
  O2-  O319  1  0.45334603  0.90498812  0.76886664  1
  O2-  O320  1  0.04750575  0.90568683  0.73005008  1
  O2-  O321  1  0.04231499  0.10890740  0.25764640  1
  O2-  O322  1  0.04324741  0.44049686  0.52520522  1
  O2-  O323  1  0.46026025  0.44144093  0.72047572  1
  O2-  O324  1  0.93023496  0.59731129  0.94161364  1
  O2-  O325  1  0.91659968  0.28669703  0.04808721  1
  O2-  O326  1  0.06455278  0.26364834  0.78305498  1
  O2-  O327  1  0.42854498  0.27538695  0.30379366  1
  O2-  O328  1  0.06502551  0.26537675  0.94202526  1
  O2-  O329  1  0.43603817  0.40361216  0.21690598  1
  O2-  O330  1  0.56530803  0.59273316  0.47081125  1
  O2-  O331  1  0.07375259  0.60082917  0.95580597  1
  O2-  O332  1  0.56466736  0.59083227  0.22318130  1
  O2-  O333  1  0.56386713  0.06991113  0.03292465  1
  O2-  O334  1  0.56517547  0.73823342  0.72326177  1
  O2-  O335  1  0.43705366  0.92985669  0.28185449  1
  O2-  O336  1  0.06574448  0.74111701  0.22010812  1
  O2-  O337  1  0.06972578  0.59923283  0.21057315  1
  O2-  O338  1  0.93492608  0.26207776  0.47329933  1
  O2-  O339  1  0.42583918  0.39507603  0.79450035  1
  O2-  O340  1  0.07083753  0.06505218  0.45947724  1
  O2-  O341  1  0.92721153  0.06354107  0.70590360  1
  O2-  O342  1  0.43467609  0.73515464  0.21704573  1
  O2-  O343  1  0.93518281  0.93050526  0.28334119  1
  O2-  O344  1  0.56346584  0.40223519  0.21801089  1
  O2-  O345  1  0.93481470  0.07282942  0.52776723  1
  O2-  O346  1  0.43576053  0.59396621  0.47231706  1
  O2-  O347  1  0.44460444  0.08260847  0.46516201  1
  O2-  O348  1  0.56662805  0.74132659  0.05008503  1
  O2-  O349  1  0.06489221  0.74119807  0.97086827  1
  O2-  O350  1  0.42932747  0.05852314  0.69844139  1
  O2-  O351  1  0.93329637  0.59443807  0.04684632  1
  O2-  O352  1  0.56497106  0.40344112  0.71574560  1
  O2-  O353  1  0.93587470  0.40393210  0.78343057  1
  O2-  O354  1  0.43634005  0.07034753  0.21584016  1
  O2-  O355  1  0.93616843  0.40413631  0.96622290  1
  O2-  O356  1  0.06387163  0.26234094  0.05839896  1
  O2-  O357  1  0.56158309  0.07221679  0.21623997  1
  O2-  O358  1  0.06305974  0.40478732  0.03223814  1
  O2-  O359  1  0.57842666  0.72188375  0.18731591  1
  O2-  O360  1  0.56448141  0.25999165  0.77864829  1
  O2-  O361  1  0.43320432  0.06579030  0.55204614  1
  O2-  O362  1  0.07017091  0.39895813  0.46134774  1
  O2-  O363  1  0.95162217  0.24453641  0.79245787  1
  O2-  O364  1  0.57904446  0.72258778  0.31000541  1
  O2-  O365  1  0.07258636  0.73227850  0.79148080  1
  O2-  O366  1  0.56891766  0.06542574  0.78053102  1
  O2-  O367  1  0.07596170  0.05644029  0.20873219  1
  O2-  O368  1  0.92978542  0.27440107  0.67264854  1
  O2-  O369  1  0.56979351  0.05631720  0.44869569  1
  O2-  O370  1  0.56389433  0.92646197  0.97242016  1
  O2-  O371  1  0.56334528  0.73502478  0.94432301  1
  O2-  O372  1  0.25004800  0.66346130  0.09873160  1
  O2-  O373  1  0.75007339  0.33208402  0.35454571  1
  O2-  O374  1  0.24979173  0.33576308  0.32944266  1
  O2-  O375  1  0.25019899  0.33490201  0.60046084  1
  O2-  O376  1  0.24980307  0.00126713  0.65397967  1
  O2-  O377  1  0.25014208  0.65946090  0.91499826  1
  O2-  O378  1  0.25008849  0.00195872  0.34948956  1
  O2-  O379  1  0.25002330  0.66694369  0.82476241  1
  O2-  O380  1  0.24988820  0.33386396  0.42161831  1
  O2-  O381  1  0.25002104  0.66916778  0.34375457  1
  O2-  O382  1  0.74994130  0.00760550  0.33237413  1
  O2-  O383  1  0.75013626  0.66954899  0.66999209  1
  O2-  O384  1  0.74964451  0.00675548  0.66961414  1
  O2-  O385  1  0.75006780  0.66487329  0.91924234  1
  O2-  O386  1  0.25014135  -0.00000397  0.90291448  1
  O2-  O387  1  0.74981253  0.33655372  0.59281133  1
  O2-  O388  1  0.75011996  0.66375121  0.57861817  1
  O2-  O389  1  0.25009493  0.33212136  0.84317895  1
  O2-  O390  1  0.75028657  0.67040845  0.14911778  1
  O2-  O391  1  0.74968208  0.00298235  0.57655278  1
  O2-  O392  1  0.74990229  0.00207562  0.42564617  1
  O2-  O393  1  0.25005743  -0.00106204  0.15329501  1
  O2-  O394  1  0.25014020  0.67006068  0.59831314  1
  O2-  O395  1  0.75002535  0.66910590  0.82934786  1
  O2-  O396  1  0.75008285  0.17494431  0.35596703  1
  O2-  O397  1  0.74992284  0.49788919  0.81884257  1
  O2-  O398  1  0.24998494  0.16926545  0.41973220  1
  O2-  O399  1  0.74999053  0.16615931  0.58122801  1
  O2-  O400  1  0.25003997  0.83483565  0.63482931  1
  O2-  O401  1  0.74987664  0.50028982  0.38051273  1
  O2-  O402  1  0.24995304  0.50408748  0.59571690  1
  O2-  O403  1  0.25009715  0.50182945  0.08848534  1
  O2-  O404  1  0.25003117  0.17076350  0.66403448  1
  O2-  O405  1  0.75002911  0.83894765  0.84547144  1
  O2-  O406  1  0.24997744  0.16803719  0.09598426  1
  O2-  O407  1  0.24998838  0.82938926  0.89623958  1
  O2-  O408  1  0.75007045  0.49889621  0.90204115  1
  O2-  O409  1  0.74999453  0.83254990  0.42847281  1
  O2-  O410  1  0.74981457  0.49738045  0.13581844  1
  O2-  O411  1  0.74999988  0.82902863  0.93142848  1
  O2-  O412  1  0.75009283  0.17591280  0.13205129  1
  O2-  O413  1  0.25005237  0.82843896  0.16503147  1
  O2-  O414  1  0.25003488  0.16245992  0.18129996  1
  O2-  O415  1  0.25009484  0.16340705  0.33207170  1
  O2-  O416  1  0.75001594  0.83730313  0.34088253  1
  O2-  O417  1  0.75035264  0.16701173  0.65465311  1
  O2-  O418  1  0.75002968  0.16657648  0.88073815  1
  O2-  O419  1  0.24996602  0.50335558  0.68265887  1
  O2-  O420  1  0.96607291  0.67247137  0.13276567  1
  O2-  O421  1  0.96609044  0.66517173  0.37560379  1
  O2-  O422  1  0.02806013  0.33041808  0.62354513  1
  O2-  O423  1  0.52858205  0.66177275  0.37728489  1
  O2-  O424  1  0.02831955  0.33066352  0.36822300  1
  O2-  O425  1  0.97480951  0.33920903  0.13103126  1
  O2-  O426  1  0.02447774  -0.00481273  0.37275516  1
  O2-  O427  1  0.97782862  -0.00463151  0.62323419  1
  O2-  O428  1  0.02691378  0.66698921  0.62169266  1
  O2-  O429  1  0.52864183  0.33385781  0.37516677  1
  O2-  O430  1  0.97117564  0.33657322  0.37084910  1
  O2-  O431  1  0.03360298  0.66872941  0.37698170  1
  O2-  O432  1  0.96745800  0.67399553  0.86719688  1
  O2-  O433  1  0.97245911  -0.00077983  0.87665387  1
  O2-  O434  1  0.02706132  0.66338605  0.87321093  1
  O2-  O435  1  0.96076810  -0.00031837  0.12526421  1
  O2-  O436  1  0.46557299  0.32651468  0.88207938  1
  O2-  O437  1  0.03157962  0.66974923  0.11652320  1
  O2-  O438  1  0.52022486  0.66053965  0.12124888  1
  O2-  O439  1  0.53553650  0.33707669  0.87975014  1
  O2-  O440  1  0.46719560  0.66881508  0.36980669  1
  O2-  O441  1  0.52536642  0.66170932  0.62023156  1
  O2-  O442  1  0.52407721  0.00185168  0.87801534  1
  O2-  O443  1  0.03613889  -0.00564193  0.11488706  1
