# generated using pymatgen
data_La7(Ru4O11)2
_symmetry_space_group_name_H-M   'P 1'
_cell_length_a   23.98921245
_cell_length_b   16.82902670
_cell_length_c   15.42633186
_cell_angle_alpha   90.00005781
_cell_angle_beta   90.00068997
_cell_angle_gamma   89.99935054
_symmetry_Int_Tables_number   1
_chemical_formula_structural   La7(Ru4O11)2
_chemical_formula_sum   'La84 Ru96 O264'
_cell_volume   6227.84306049
_cell_formula_units_Z   12
loop_
 _symmetry_equiv_pos_site_id
 _symmetry_equiv_pos_as_xyz
  1  'x, y, z'
loop_
 _atom_type_symbol
 _atom_type_oxidation_number
  La3+  3.0
  Ru4+  4.0
  O2-  -2.0
loop_
 _atom_site_type_symbol
 _atom_site_label
 _atom_site_symmetry_multiplicity
 _atom_site_fract_x
 _atom_site_fract_y
 _atom_site_fract_z
 _atom_site_occupancy
  La3+  La0  1  0.13822225  -0.00190597  0.12705892  1
  La3+  La1  1  0.13974465  -0.00095954  0.37375383  1
  La3+  La2  1  0.13666920  0.00042056  0.62624035  1
  La3+  La3  1  0.13655156  -0.00111588  0.87214332  1
  La3+  La4  1  0.13804868  0.33449146  0.12360298  1
  La3+  La5  1  0.13939244  0.33330721  0.37594894  1
  La3+  La6  1  0.14029555  0.33309985  0.62523081  1
  La3+  La7  1  0.13769266  0.33495732  0.87522626  1
  La3+  La8  1  0.14119403  0.66766933  0.12600209  1
  La3+  La9  1  0.13760222  0.66712464  0.37244339  1
  La3+  La10  1  0.13933714  0.66545951  0.62490969  1
  La3+  La11  1  0.13960383  0.66688078  0.87616527  1
  La3+  La12  1  0.63356766  0.00235452  0.12709454  1
  La3+  La13  1  0.63367988  0.00287200  0.36935270  1
  La3+  La14  1  0.63477843  -0.00239819  0.62970096  1
  La3+  La15  1  0.63366232  -0.00270156  0.87328340  1
  La3+  La16  1  0.63784682  0.33348419  0.12494398  1
  La3+  La17  1  0.63853323  0.33404843  0.37578194  1
  La3+  La18  1  0.64024957  0.33428141  0.62623824  1
  La3+  La19  1  0.63851922  0.33372870  0.87377290  1
  La3+  La20  1  0.63959824  0.66875287  0.12415864  1
  La3+  La21  1  0.63920578  0.66761511  0.37442969  1
  La3+  La22  1  0.63761745  0.66497706  0.62680250  1
  La3+  La23  1  0.64086926  0.66675255  0.87501240  1
  La3+  La24  1  0.36352253  -0.00139049  0.12835606  1
  La3+  La25  1  0.36037324  0.00061099  0.37405270  1
  La3+  La26  1  0.36209924  0.00105091  0.62435533  1
  La3+  La27  1  0.36120320  -0.00073992  0.87365956  1
  La3+  La28  1  0.36103297  0.33483459  0.12418710  1
  La3+  La29  1  0.36066444  0.33265638  0.37801707  1
  La3+  La30  1  0.36034634  0.33247026  0.62406723  1
  La3+  La31  1  0.36102931  0.33433507  0.87404971  1
  La3+  La32  1  0.35905099  0.66653114  0.12371009  1
  La3+  La33  1  0.36029536  0.66538937  0.37331269  1
  La3+  La34  1  0.36064732  0.66475570  0.62544594  1
  La3+  La35  1  0.36002381  0.66644120  0.87725952  1
  La3+  La36  1  0.86324929  -0.00013515  0.12449407  1
  La3+  La37  1  0.86592480  0.00261168  0.37686741  1
  La3+  La38  1  0.86868972  0.00690343  0.62524006  1
  La3+  La39  1  0.86442704  0.00282072  0.87261695  1
  La3+  La40  1  0.86253543  0.33376866  0.12389266  1
  La3+  La41  1  0.86216669  0.33443411  0.37632851  1
  La3+  La42  1  0.86032769  0.33404909  0.62590278  1
  La3+  La43  1  0.86160077  0.33371275  0.87379347  1
  La3+  La44  1  0.86261031  0.66849376  0.12405778  1
  La3+  La45  1  0.86161542  0.66835068  0.37330439  1
  La3+  La46  1  0.86148826  0.66525619  0.62596759  1
  La3+  La47  1  0.85986634  0.66662491  0.87699500  1
  La3+  La48  1  0.50468647  0.83287793  0.63529527  1
  La3+  La49  1  0.49969449  0.16488207  0.86784631  1
  La3+  La50  1  -0.00253117  0.16894016  0.86788617  1
  La3+  La51  1  0.50032720  0.83395690  0.87016162  1
  La3+  La52  1  0.49806900  0.16954885  0.62135614  1
  La3+  La53  1  -0.00351298  0.17112352  0.38249645  1
  La3+  La54  1  0.50175576  0.16535192  0.11961655  1
  La3+  La55  1  0.00009302  0.83148178  0.38232196  1
  La3+  La56  1  -0.00389266  0.16110882  0.63146767  1
  La3+  La57  1  0.49882255  0.83535617  0.36319958  1
  La3+  La58  1  -0.00097006  0.16188877  0.88335707  1
  La3+  La59  1  0.00190928  0.16774509  0.13324708  1
  La3+  La60  1  0.00179020  0.49437671  0.87107405  1
  La3+  La61  1  0.50425109  0.83436868  0.61814674  1
  La3+  La62  1  0.49953575  0.49900793  0.36783727  1
  La3+  La63  1  -0.00019749  0.50089382  0.13554389  1
  La3+  La64  1  0.49925558  0.83783186  0.38003409  1
  La3+  La65  1  0.50397223  0.49824338  0.88271456  1
  La3+  La66  1  0.50059417  0.16280861  0.36685600  1
  La3+  La67  1  0.49671746  0.49846386  0.86325261  1
  La3+  La68  1  0.50517999  0.16039850  0.13878716  1
  La3+  La69  1  0.00024906  0.50339312  0.89105275  1
  La3+  La70  1  0.00114732  0.83370441  0.13432191  1
  La3+  La71  1  0.00036576  0.83419351  0.61794699  1
  La3+  La72  1  0.75020014  0.79473399  0.72065461  1
  La3+  La73  1  0.25008858  0.16879709  0.72443611  1
  La3+  La74  1  0.24993448  0.16700556  -0.02014762  1
  La3+  La75  1  0.75010288  0.19396433  -0.00223470  1
  La3+  La76  1  0.25009233  0.50358276  0.04320518  1
  La3+  La77  1  0.74974875  0.16183914  0.27783115  1
  La3+  La78  1  0.24981001  0.87192912  0.48827286  1
  La3+  La79  1  0.75022442  0.53727279  0.01008824  1
  La3+  La80  1  0.74980474  0.45638068  0.24296315  1
  La3+  La81  1  0.25003917  0.49931773  0.74217340  1
  La3+  La82  1  0.75014855  0.20543806  0.46862852  1
  La3+  La83  1  0.75015598  0.79574733  0.53067785  1
  Ru4+  Ru84  1  -0.00099468  -0.00041236  -0.00222367  1
  Ru4+  Ru85  1  0.00271950  -0.00378933  0.24996360  1
  Ru4+  Ru86  1  -0.00526432  -0.00420498  0.50342133  1
  Ru4+  Ru87  1  -0.00282950  -0.00473507  0.75110345  1
  Ru4+  Ru88  1  -0.00305726  0.32702156  0.00602633  1
  Ru4+  Ru89  1  -0.00004558  0.33336594  0.25328568  1
  Ru4+  Ru90  1  -0.00070644  0.33609214  0.49769281  1
  Ru4+  Ru91  1  -0.00145463  0.33439132  0.74915812  1
  Ru4+  Ru92  1  0.00264976  0.67410502  -0.00271083  1
  Ru4+  Ru93  1  -0.00003294  0.65667468  0.25236233  1
  Ru4+  Ru94  1  0.00029416  0.66510416  0.50032261  1
  Ru4+  Ru95  1  0.00171086  0.66982336  0.75103843  1
  Ru4+  Ru96  1  0.49855884  -0.00778580  0.00260169  1
  Ru4+  Ru97  1  0.50392091  -0.00382867  0.25224083  1
  Ru4+  Ru98  1  0.50007283  -0.00693998  0.49855738  1
  Ru4+  Ru99  1  0.50036242  0.00436018  0.75204498  1
  Ru4+  Ru100  1  0.50001418  0.33133261  0.00139755  1
  Ru4+  Ru101  1  0.50213047  0.33706482  0.25356655  1
  Ru4+  Ru102  1  0.50276969  0.33785504  0.49807641  1
  Ru4+  Ru103  1  0.49995522  0.33363739  0.74772826  1
  Ru4+  Ru104  1  0.50127262  0.67660185  -0.00038321  1
  Ru4+  Ru105  1  0.49981217  0.66604526  0.24986819  1
  Ru4+  Ru106  1  0.49984309  0.66426179  0.50125995  1
  Ru4+  Ru107  1  0.49987385  0.66857437  0.74756508  1
  Ru4+  Ru108  1  0.11100336  0.16667661  0.00113795  1
  Ru4+  Ru109  1  0.11246540  0.16595852  0.25024447  1
  Ru4+  Ru110  1  0.11677567  0.17002168  0.50106779  1
  Ru4+  Ru111  1  0.11580099  0.17043370  0.74973948  1
  Ru4+  Ru112  1  0.11521103  0.50351456  0.00137738  1
  Ru4+  Ru113  1  0.11302096  0.50176782  0.25031266  1
  Ru4+  Ru114  1  0.11206252  0.50280827  0.49921132  1
  Ru4+  Ru115  1  0.11220451  0.50133603  0.74915201  1
  Ru4+  Ru116  1  0.11331957  0.83216160  0.00043236  1
  Ru4+  Ru117  1  0.11604774  0.83618631  0.24922423  1
  Ru4+  Ru118  1  0.11142966  0.83381358  0.49981606  1
  Ru4+  Ru119  1  0.11271007  0.83414676  0.75019162  1
  Ru4+  Ru120  1  0.61410871  0.17038717  -0.00029726  1
  Ru4+  Ru121  1  0.61144086  0.16534061  0.25097299  1
  Ru4+  Ru122  1  0.61295655  0.16935175  0.49901226  1
  Ru4+  Ru123  1  0.61203580  0.16510331  0.75009771  1
  Ru4+  Ru124  1  0.61361904  0.49855343  0.00094989  1
  Ru4+  Ru125  1  0.61107431  0.49886901  0.25048012  1
  Ru4+  Ru126  1  0.61285793  0.50000643  0.50015075  1
  Ru4+  Ru127  1  0.61471594  0.49906329  0.74963332  1
  Ru4+  Ru128  1  0.61130001  0.83164677  0.00044533  1
  Ru4+  Ru129  1  0.61301447  0.83373754  0.25073649  1
  Ru4+  Ru130  1  0.61116190  0.83548083  0.50051254  1
  Ru4+  Ru131  1  0.61187528  0.83281625  0.74849715  1
  Ru4+  Ru132  1  0.38820098  0.16808144  -0.00161288  1
  Ru4+  Ru133  1  0.38233427  0.16909159  0.25136532  1
  Ru4+  Ru134  1  0.38273013  0.16745216  0.49944075  1
  Ru4+  Ru135  1  0.38766038  0.16634477  0.75049758  1
  Ru4+  Ru136  1  0.38551845  0.49748624  0.00126520  1
  Ru4+  Ru137  1  0.38630484  0.50177680  0.25037617  1
  Ru4+  Ru138  1  0.38767637  0.50105593  0.50015763  1
  Ru4+  Ru139  1  0.38741407  0.50060076  0.74846725  1
  Ru4+  Ru140  1  0.38807602  0.83121429  -0.00019115  1
  Ru4+  Ru141  1  0.38418041  0.83217129  0.25049225  1
  Ru4+  Ru142  1  0.38831734  0.83559434  0.50007677  1
  Ru4+  Ru143  1  0.38580844  0.83275642  0.75066527  1
  Ru4+  Ru144  1  0.88897723  0.16694699  -0.00027109  1
  Ru4+  Ru145  1  0.88672049  0.17071595  0.25052557  1
  Ru4+  Ru146  1  0.89059317  0.16561857  0.50059040  1
  Ru4+  Ru147  1  0.88767612  0.16609214  0.74983188  1
  Ru4+  Ru148  1  0.88500661  0.49666557  0.00127200  1
  Ru4+  Ru149  1  0.88856118  0.49912156  0.25012356  1
  Ru4+  Ru150  1  0.88862574  0.49931763  0.49950755  1
  Ru4+  Ru151  1  0.88386087  0.49859844  0.74844027  1
  Ru4+  Ru152  1  0.88685156  0.83131890  -0.00051239  1
  Ru4+  Ru153  1  0.88415815  0.83533788  0.25047478  1
  Ru4+  Ru154  1  0.88989107  0.83379007  0.49991977  1
  Ru4+  Ru155  1  0.88869937  0.83287591  0.74968207  1
  Ru4+  Ru156  1  0.25005951  0.42372402  0.25453581  1
  Ru4+  Ru157  1  0.24997111  0.29094441  0.00237400  1
  Ru4+  Ru158  1  0.75020664  0.28951509  0.26529315  1
  Ru4+  Ru159  1  0.24998504  0.08596411  0.49894695  1
  Ru4+  Ru160  1  0.25010155  0.41318679  0.49234715  1
  Ru4+  Ru161  1  0.75006510  0.92935292  0.48523623  1
  Ru4+  Ru162  1  0.74996829  0.05689072  0.00079702  1
  Ru4+  Ru163  1  0.75013692  0.03825041  0.24532934  1
  Ru4+  Ru164  1  0.25001012  0.04155365  -0.00631141  1
  Ru4+  Ru165  1  0.75030000  0.92834386  0.75935831  1
  Ru4+  Ru166  1  0.75001605  0.58592827  0.50900778  1
  Ru4+  Ru167  1  0.24969308  0.24419259  0.24985325  1
  Ru4+  Ru168  1  0.74991873  0.41288019  0.50724429  1
  Ru4+  Ru169  1  0.75005446  0.91234649  0.24639609  1
  Ru4+  Ru170  1  0.75015795  0.60042794  0.24557245  1
  Ru4+  Ru171  1  0.24997518  0.90992063  -0.00070821  1
  Ru4+  Ru172  1  0.74969576  0.25546050  0.75093443  1
  Ru4+  Ru173  1  0.24995479  0.09108156  0.25017372  1
  Ru4+  Ru174  1  0.74948197  0.07083492  0.49109289  1
  Ru4+  Ru175  1  0.74992982  0.40056111  -0.01590011  1
  Ru4+  Ru176  1  0.24999751  0.74937355  0.75250373  1
  Ru4+  Ru177  1  0.74988474  0.91582624  0.00321162  1
  Ru4+  Ru178  1  0.74986390  0.08535891  0.75843646  1
  Ru4+  Ru179  1  0.24997570  0.72742794  0.49586845  1
  O2-  O180  1  0.16540801  0.07885967  -0.00117581  1
  O2-  O181  1  0.16785489  0.08171683  0.24935920  1
  O2-  O182  1  0.16804018  0.08229037  0.50032400  1
  O2-  O183  1  0.16836177  0.08002940  0.74982840  1
  O2-  O184  1  0.16778609  0.41407476  0.00050334  1
  O2-  O185  1  0.16723768  0.41388443  0.24909894  1
  O2-  O186  1  0.16648657  0.41508150  0.50029801  1
  O2-  O187  1  0.16686923  0.41366306  0.75059578  1
  O2-  O188  1  0.16554396  0.74977366  -0.00020708  1
  O2-  O189  1  0.16667842  0.74824482  0.25049437  1
  O2-  O190  1  0.16787970  0.74596431  0.49981217  1
  O2-  O191  1  0.16673673  0.74853468  0.74987204  1
  O2-  O192  1  0.66767174  0.07936208  -0.00011126  1
  O2-  O193  1  0.66643478  0.07915438  0.25084183  1
  O2-  O194  1  0.66767784  0.07914442  0.49999743  1
  O2-  O195  1  0.66670055  0.08030468  0.74956003  1
  O2-  O196  1  0.66616809  0.41308132  -0.00026379  1
  O2-  O197  1  0.66456386  0.41219142  0.25034974  1
  O2-  O198  1  0.66812807  0.41336196  0.49983526  1
  O2-  O199  1  0.66606249  0.41479203  0.75067268  1
  O2-  O200  1  0.66650065  0.74832426  0.00048486  1
  O2-  O201  1  0.66642933  0.74805745  0.25073543  1
  O2-  O202  1  0.66680937  0.74498605  0.49997759  1
  O2-  O203  1  0.66685646  0.74665282  0.74987014  1
  O2-  O204  1  0.33277305  0.25387249  0.00050185  1
  O2-  O205  1  0.33126152  0.25248297  0.24994375  1
  O2-  O206  1  0.33344694  0.25077305  0.49987107  1
  O2-  O207  1  0.33166263  0.25265891  0.74997511  1
  O2-  O208  1  0.33319514  0.58467245  -0.00029224  1
  O2-  O209  1  0.33429295  0.58518564  0.25083778  1
  O2-  O210  1  0.33409082  0.58492454  0.49875473  1
  O2-  O211  1  0.33225849  0.58619839  0.74998405  1
  O2-  O212  1  0.33231653  0.91871680  -0.00054823  1
  O2-  O213  1  0.33210955  0.91844759  0.24910547  1
  O2-  O214  1  0.33497688  0.92144092  0.50154207  1
  O2-  O215  1  0.33158675  0.91962347  0.74934502  1
  O2-  O216  1  0.83405146  0.25385365  -0.00044711  1
  O2-  O217  1  0.83395246  0.25394259  0.25050560  1
  O2-  O218  1  0.83483394  0.25327178  0.50075934  1
  O2-  O219  1  0.83247331  0.25219883  0.74994121  1
  O2-  O220  1  0.83480078  0.58702134  -0.00046273  1
  O2-  O221  1  0.83349609  0.58689882  0.25038725  1
  O2-  O222  1  0.83322332  0.58540213  0.49995975  1
  O2-  O223  1  0.83169460  0.58522621  0.74975043  1
  O2-  O224  1  0.83218599  0.91922121  0.00072429  1
  O2-  O225  1  0.83296679  0.91908403  0.25025516  1
  O2-  O226  1  0.83326508  0.92140621  0.50008764  1
  O2-  O227  1  0.83301314  0.92108427  0.74915054  1
  O2-  O228  1  0.16699848  0.25472640  -0.00001588  1
  O2-  O229  1  0.16882828  0.25311109  0.24930773  1
  O2-  O230  1  0.16788599  0.25174779  0.50098449  1
  O2-  O231  1  0.16760138  0.25259177  0.75024754  1
  O2-  O232  1  0.16663094  0.58517541  -0.00001921  1
  O2-  O233  1  0.16600943  0.58517530  0.25027040  1
  O2-  O234  1  0.16634294  0.58484813  0.49956697  1
  O2-  O235  1  0.16816419  0.58607872  0.74913401  1
  O2-  O236  1  0.16857309  0.91913110  -0.00079153  1
  O2-  O237  1  0.16725903  0.91826539  0.24968749  1
  O2-  O238  1  0.16457998  0.92175926  0.50121951  1
  O2-  O239  1  0.16746163  0.91953735  0.75057322  1
  O2-  O240  1  0.66639982  0.25427975  -0.00072109  1
  O2-  O241  1  0.66623852  0.25419476  0.25082350  1
  O2-  O242  1  0.66597438  0.25321389  0.50066485  1
  O2-  O243  1  0.66757091  0.25287725  0.75059593  1
  O2-  O244  1  0.66599407  0.58776322  0.00023449  1
  O2-  O245  1  0.66668531  0.58698550  0.25029551  1
  O2-  O246  1  0.66645151  0.58564750  0.49991613  1
  O2-  O247  1  0.66696884  0.58577571  0.74901498  1
  O2-  O248  1  0.66813280  0.91931225  -0.00016392  1
  O2-  O249  1  0.66742649  0.91930532  0.24940375  1
  O2-  O250  1  0.66684827  0.92050565  0.50036613  1
  O2-  O251  1  0.66660146  0.92049633  0.75040614  1
  O2-  O252  1  0.33428065  0.07896349  0.00011394  1
  O2-  O253  1  0.33199479  0.08166886  0.24923556  1
  O2-  O254  1  0.33251373  0.08194044  0.50094258  1
  O2-  O255  1  0.33249273  0.07988500  0.74963659  1
  O2-  O256  1  0.33291907  0.41509202  0.00041322  1
  O2-  O257  1  0.33226028  0.41331715  0.24962937  1
  O2-  O258  1  0.33294749  0.41467766  0.49979425  1
  O2-  O259  1  0.33202559  0.41452164  0.75054691  1
  O2-  O260  1  0.33399007  0.74935071  -0.00039490  1
  O2-  O261  1  0.33366667  0.74754069  0.25076103  1
  O2-  O262  1  0.33280497  0.74581359  0.49924204  1
  O2-  O263  1  0.33301980  0.74756836  0.75008410  1
  O2-  O264  1  0.83161246  0.07933105  0.00019949  1
  O2-  O265  1  0.83414269  0.07944064  0.25062104  1
  O2-  O266  1  0.83187966  0.07897569  0.49968195  1
  O2-  O267  1  0.83254484  0.08078388  0.74886128  1
  O2-  O268  1  0.83267469  0.41321487  -0.00013883  1
  O2-  O269  1  0.83578129  0.41151256  0.25071894  1
  O2-  O270  1  0.83280498  0.41369575  0.49971929  1
  O2-  O271  1  0.83405582  0.41532395  0.75053903  1
  O2-  O272  1  0.83292012  0.74908372  0.00072405  1
  O2-  O273  1  0.83307700  0.74852251  0.25085535  1
  O2-  O274  1  0.83337944  0.74532322  0.49964339  1
  O2-  O275  1  0.83436613  0.74695228  0.74954111  1
  O2-  O276  1  0.04572700  0.56780574  0.48475286  1
  O2-  O277  1  0.95510415  0.09608362  0.27199080  1
  O2-  O278  1  0.04439315  0.89941877  0.75493191  1
  O2-  O279  1  0.04736120  0.43074866  0.76036401  1
  O2-  O280  1  0.45450626  0.90344385  0.01020868  1
  O2-  O281  1  0.54961842  0.90519634  0.76470595  1
  O2-  O282  1  0.95163977  0.09487202  0.51547607  1
  O2-  O283  1  0.54588319  0.56829068  0.26447112  1
  O2-  O284  1  0.54708226  0.76534928  0.48573446  1
  O2-  O285  1  0.44994853  0.09781985  0.23810547  1
  O2-  O286  1  0.04579008  0.90082723  0.74290615  1
  O2-  O287  1  0.03899936  0.22557449  0.52910073  1
  O2-  O288  1  0.45212020  0.76321330  0.01163958  1
  O2-  O289  1  0.54217565  0.10784809  0.52667733  1
  O2-  O290  1  0.54890127  0.09818546  0.01456081  1
  O2-  O291  1  0.45184343  0.23772327  0.51447457  1
  O2-  O292  1  0.95314779  0.56800352  0.01679561  1
  O2-  O293  1  0.45375506  0.57356441  0.98137146  1
  O2-  O294  1  0.54704897  0.56751531  0.76182330  1
  O2-  O295  1  0.45400103  0.43372958  0.51486124  1
  O2-  O296  1  0.45893142  0.89621928  0.21100892  1
  O2-  O297  1  0.04872767  0.76591735  0.26718774  1
  O2-  O298  1  0.45432228  0.56644000  0.01982373  1
  O2-  O299  1  0.95860605  0.56057123  0.77558018  1
  O2-  O300  1  0.45420711  0.43241916  0.26325366  1
  O2-  O301  1  0.54515677  0.23424216  0.76164928  1
  O2-  O302  1  0.05010918  0.09671602  0.72960469  1
  O2-  O303  1  0.95266895  0.76377680  0.23640404  1
  O2-  O304  1  0.04918960  0.09492403  0.76881573  1
  O2-  O305  1  0.04675454  0.43100749  0.98709754  1
  O2-  O306  1  0.95213897  0.23835356  0.23442973  1
  O2-  O307  1  0.94935412  0.09555042  0.73463338  1
  O2-  O308  1  0.95447016  0.43084851  0.48506972  1
  O2-  O309  1  0.54815661  0.76652187  0.01301282  1
  O2-  O310  1  0.45312902  0.43123513  0.98754211  1
  O2-  O311  1  0.04711082  0.23604271  0.76220545  1
  O2-  O312  1  0.45805653  0.89046901  0.71959605  1
  O2-  O313  1  0.95756956  0.10392014  0.48998194  1
  O2-  O314  1  0.04789304  0.23304299  0.26342659  1
  O2-  O315  1  0.04434337  0.56802486  0.26441935  1
  O2-  O316  1  0.05469697  0.08367251  0.46494170  1
  O2-  O317  1  0.45267650  0.76466496  0.48571204  1
  O2-  O318  1  0.54890961  0.09403907  0.26346311  1
  O2-  O319  1  0.95498776  0.10588939  0.75926787  1
  O2-  O320  1  0.45196314  0.09672131  0.00898727  1
  O2-  O321  1  0.44873480  0.09674363  0.51447324  1
  O2-  O322  1  0.54513864  0.76573605  0.26540154  1
  O2-  O323  1  0.95367593  0.09467111  0.23264742  1
  O2-  O324  1  0.93619313  0.73660777  0.96733697  1
  O2-  O325  1  0.56521556  0.06731002  0.21417677  1
  O2-  O326  1  0.93379818  0.26104507  0.77834740  1
  O2-  O327  1  0.06339013  0.93049079  0.03273062  1
  O2-  O328  1  0.07081690  0.26829560  0.45801334  1
  O2-  O329  1  0.93577810  0.92658022  0.80723446  1
  O2-  O330  1  0.56522740  0.73954151  0.72033494  1
  O2-  O331  1  0.43368996  0.25904424  0.30072545  1
  O2-  O332  1  0.06334654  0.26380839  0.03340459  1
  O2-  O333  1  0.06370443  0.41036881  0.96840559  1
  O2-  O334  1  0.93266000  0.06694725  0.78433738  1
  O2-  O335  1  0.93567634  0.40149448  0.03333547  1
  O2-  O336  1  0.43240188  0.26011438  0.19988334  1
  O2-  O337  1  0.56434736  0.40217006  0.55743899  1
  O2-  O338  1  0.44065511  0.92004678  0.20701079  1
  O2-  O339  1  0.43788426  0.06893894  0.53314178  1
  O2-  O340  1  0.43619659  0.59825938  0.71848378  1
  O2-  O341  1  0.43800830  0.26303667  0.53236736  1
  O2-  O342  1  0.43347294  0.25708623  0.80031841  1
  O2-  O343  1  0.56228301  0.07342056  0.03425429  1
  O2-  O344  1  0.43644391  0.26414132  0.69358804  1
  O2-  O345  1  0.56246380  0.92315132  0.77219015  1
  O2-  O346  1  0.43545614  0.07360671  0.21951833  1
  O2-  O347  1  0.42946370  0.94370548  0.80328047  1
  O2-  O348  1  0.07042365  0.06949111  0.55237052  1
  O2-  O349  1  0.92716288  0.60377904  0.70671122  1
  O2-  O350  1  0.93588550  0.59223119  0.02771381  1
  O2-  O351  1  0.06623587  0.59564481  0.77924263  1
  O2-  O352  1  0.56464681  0.93074024  0.03124325  1
  O2-  O353  1  0.93685303  0.07083165  0.03229874  1
  O2-  O354  1  0.93614742  0.74003778  0.22201633  1
  O2-  O355  1  0.43388423  0.26018536  0.97041582  1
  O2-  O356  1  0.93309322  0.06560047  0.46696925  1
  O2-  O357  1  0.06352856  0.73639546  0.46685206  1
  O2-  O358  1  0.93656587  0.92803116  0.03363893  1
  O2-  O359  1  0.43517513  0.40672472  0.77761778  1
  O2-  O360  1  0.56189935  0.07746068  0.27278872  1
  O2-  O361  1  0.43055054  0.94266599  0.32473485  1
  O2-  O362  1  0.56588706  0.59296552  0.04662198  1
  O2-  O363  1  0.56371767  0.40245187  0.44272991  1
  O2-  O364  1  0.56573576  0.26175236  0.22178108  1
  O2-  O365  1  0.56511243  0.93056098  0.71288549  1
  O2-  O366  1  0.56651831  0.59541473  0.95333184  1
  O2-  O367  1  0.05474214  0.08392803  0.46518716  1
  O2-  O368  1  0.57258143  0.06367684  0.45657037  1
  O2-  O369  1  0.06185471  0.73761997  0.28047245  1
  O2-  O370  1  0.93568181  0.92919347  0.69209437  1
  O2-  O371  1  0.06238232  0.93025750  0.21821641  1
  O2-  O372  1  0.74987341  0.32455605  0.07588526  1
  O2-  O373  1  0.25002678  0.66443521  0.09407037  1
  O2-  O374  1  0.24975355  0.33209231  0.57944090  1
  O2-  O375  1  0.75011567  -0.00305108  0.58258828  1
  O2-  O376  1  0.24976428  0.33734956  0.89825944  1
  O2-  O377  1  0.75002866  0.66883523  0.42515315  1
  O2-  O378  1  0.74995445  0.34605818  0.16318675  1
  O2-  O379  1  0.24987537  0.66581825  0.59628390  1
  O2-  O380  1  0.75003953  0.33117157  0.65706155  1
  O2-  O381  1  0.74995538  0.67454016  0.33277934  1
  O2-  O382  1  0.25006436  0.66704856  0.91958626  1
  O2-  O383  1  0.75003844  0.00703645  0.67256977  1
  O2-  O384  1  0.24997253  0.33983393  0.10529995  1
  O2-  O385  1  0.25010209  -0.00615341  0.10288171  1
  O2-  O386  1  0.75005749  0.00480007  0.85095525  1
  O2-  O387  1  0.74998709  0.66856572  0.15244525  1
  O2-  O388  1  0.25012371  0.66430912  0.82894657  1
  O2-  O389  1  0.25004510  0.00129259  0.42143117  1
  O2-  O390  1  0.75000745  0.33329160  0.40586420  1
  O2-  O391  1  0.75004047  0.66681024  0.91930429  1
  O2-  O392  1  0.75006074  0.66773495  0.82999481  1
  O2-  O393  1  0.24978804  0.33382320  0.67028976  1
  O2-  O394  1  0.24995214  -0.00003984  0.32887363  1
  O2-  O395  1  0.24998469  0.33488204  0.40479462  1
  O2-  O396  1  0.24999604  0.49986801  0.85394601  1
  O2-  O397  1  0.74990498  0.16243585  0.59251658  1
  O2-  O398  1  0.74999528  0.16764348  0.67914020  1
  O2-  O399  1  0.74987811  0.50590941  0.13283179  1
  O2-  O400  1  0.24994958  0.50672642  0.55091043  1
  O2-  O401  1  0.75007692  0.83868035  0.84533062  1
  O2-  O402  1  0.25001387  0.49526203  0.33936718  1
  O2-  O403  1  0.25004080  0.82638160  0.60585336  1
  O2-  O404  1  0.74994453  0.51133148  0.35310092  1
  O2-  O405  1  0.25000122  0.49694209  0.16755059  1
  O2-  O406  1  0.74988805  0.83894272  0.40444806  1
  O2-  O407  1  0.25005416  0.50010282  0.92824333  1
  O2-  O408  1  0.25011441  0.82375224  0.37493570  1
  O2-  O409  1  0.24998286  0.16731739  0.11743667  1
  O2-  O410  1  0.74991509  0.49115976  0.88864632  1
  O2-  O411  1  0.25000271  0.83857214  0.68925160  1
  O2-  O412  1  0.75011232  0.83037528  0.93245451  1
  O2-  O413  1  0.74996770  0.82908937  0.31775445  1
  O2-  O414  1  0.25006075  0.16546372  0.85109481  1
  O2-  O415  1  0.74999691  0.50011851  0.58951284  1
  O2-  O416  1  0.74998573  0.49889390  0.43634600  1
  O2-  O417  1  0.25002935  0.49931173  0.62889879  1
  O2-  O418  1  0.75002088  0.16822332  0.84263686  1
  O2-  O419  1  0.75002716  0.16639851  0.13903803  1
  O2-  O420  1  0.52668488  0.00281510  0.87770928  1
  O2-  O421  1  0.47243883  0.33708036  0.88004514  1
  O2-  O422  1  0.53578611  0.33389919  0.87696408  1
  O2-  O423  1  0.02579660  -0.00420257  0.62593278  1
  O2-  O424  1  0.53098810  0.33773662  0.12159549  1
  O2-  O425  1  0.52870448  0.66998411  0.13156888  1
  O2-  O426  1  0.47530809  0.00267645  0.11854256  1
  O2-  O427  1  0.96327585  0.33716677  0.87829852  1
  O2-  O428  1  0.96797021  0.66585721  0.12431767  1
  O2-  O429  1  0.03616560  0.66714385  0.12323734  1
  O2-  O430  1  0.52555032  -0.00825601  0.37414140  1
  O2-  O431  1  0.52603146  0.66472994  0.62158486  1
  O2-  O432  1  0.96775203  0.33257335  0.62410733  1
  O2-  O433  1  0.52456469  0.67206119  0.87187534  1
  O2-  O434  1  0.47479797  0.33530123  0.37978244  1
  O2-  O435  1  0.02614551  0.66962474  0.87869089  1
  O2-  O436  1  0.47073463  0.33839332  0.11891845  1
  O2-  O437  1  0.03381878  0.66766900  0.62620170  1
  O2-  O438  1  0.03642497  0.32867648  0.87004177  1
  O2-  O439  1  0.02855767  0.00150166  0.87950077  1
  O2-  O440  1  0.96929948  0.67202316  0.61902199  1
  O2-  O441  1  0.03189499  0.33505601  0.62590012  1
  O2-  O442  1  0.46866066  0.66654722  0.12746787  1
  O2-  O443  1  0.02448534  0.33863820  0.37104642  1
