# generated using pymatgen
data_La7(Ru4O11)2
_symmetry_space_group_name_H-M   'P 1'
_cell_length_a   23.99559275
_cell_length_b   16.83664064
_cell_length_c   15.43385873
_cell_angle_alpha   90.00096232
_cell_angle_beta   90.00203562
_cell_angle_gamma   90.00334471
_symmetry_Int_Tables_number   1
_chemical_formula_structural   La7(Ru4O11)2
_chemical_formula_sum   'La84 Ru96 O264'
_cell_volume   6235.35873396
_cell_formula_units_Z   12
loop_
 _symmetry_equiv_pos_site_id
 _symmetry_equiv_pos_as_xyz
  1  'x, y, z'
loop_
 _atom_type_symbol
 _atom_type_oxidation_number
  La3+  3.0
  Ru4+  4.0
  O2-  -2.0
loop_
 _atom_site_type_symbol
 _atom_site_label
 _atom_site_symmetry_multiplicity
 _atom_site_fract_x
 _atom_site_fract_y
 _atom_site_fract_z
 _atom_site_occupancy
  La3+  La0  1  0.12694736  0.00077216  0.13348271  1
  La3+  La1  1  0.13132688  -0.00159903  0.37151057  1
  La3+  La2  1  0.14481599  -0.00911253  0.62721918  1
  La3+  La3  1  0.13801934  -0.00981392  0.87001624  1
  La3+  La4  1  0.14781116  0.34180458  0.12447485  1
  La3+  La5  1  0.13909196  0.32879305  0.37332701  1
  La3+  La6  1  0.13536707  0.33193423  0.61703045  1
  La3+  La7  1  0.13281067  0.33177735  0.86745380  1
  La3+  La8  1  0.14441441  0.67802709  0.12104543  1
  La3+  La9  1  0.15069880  0.66059977  0.37175946  1
  La3+  La10  1  0.14083778  0.67004227  0.62150840  1
  La3+  La11  1  0.14275429  0.67100236  0.87252053  1
  La3+  La12  1  0.63307786  -0.00291157  0.11509718  1
  La3+  La13  1  0.63679002  -0.00617115  0.38268662  1
  La3+  La14  1  0.63382642  -0.00119354  0.62263458  1
  La3+  La15  1  0.64303580  -0.00853936  0.87667999  1
  La3+  La16  1  0.63960171  0.33926301  0.12263505  1
  La3+  La17  1  0.64314413  0.33187278  0.38004750  1
  La3+  La18  1  0.64179645  0.33049505  0.62894736  1
  La3+  La19  1  0.63663959  0.32987617  0.86018408  1
  La3+  La20  1  0.64894354  0.67592457  0.13177394  1
  La3+  La21  1  0.64317792  0.66858892  0.37558642  1
  La3+  La22  1  0.63928824  0.66857149  0.62916651  1
  La3+  La23  1  0.64384144  0.66684340  0.86130248  1
  La3+  La24  1  0.36366875  -0.00376877  0.12566622  1
  La3+  La25  1  0.35270256  0.00420065  0.37745383  1
  La3+  La26  1  0.36034879  -0.00371003  0.62535127  1
  La3+  La27  1  0.35117547  -0.00687778  0.87683232  1
  La3+  La28  1  0.36232365  0.32224765  0.13033468  1
  La3+  La29  1  0.35387500  0.32529905  0.37286267  1
  La3+  La30  1  0.36701200  0.32456904  0.61966935  1
  La3+  La31  1  0.36892963  0.33663243  0.87366917  1
  La3+  La32  1  0.35756369  0.67654064  0.12388223  1
  La3+  La33  1  0.35614538  0.66736919  0.37521380  1
  La3+  La34  1  0.35893699  0.67035393  0.62260042  1
  La3+  La35  1  0.35981478  0.67375678  0.87239427  1
  La3+  La36  1  0.85684950  -0.00491875  0.12553532  1
  La3+  La37  1  0.86555390  -0.00142857  0.38130873  1
  La3+  La38  1  0.85535917  0.00335584  0.62291510  1
  La3+  La39  1  0.85720770  0.00018661  0.87062805  1
  La3+  La40  1  0.86141358  0.33860333  0.12050633  1
  La3+  La41  1  0.86063405  0.33843366  0.37507425  1
  La3+  La42  1  0.85078202  0.33349368  0.62768000  1
  La3+  La43  1  0.86166748  0.33429496  0.86573897  1
  La3+  La44  1  0.84985201  0.66968896  0.12550293  1
  La3+  La45  1  0.85831814  0.67100274  0.37679165  1
  La3+  La46  1  0.84867987  0.67067774  0.62665221  1
  La3+  La47  1  0.85864896  0.66225873  0.86492463  1
  La3+  La48  1  0.50673661  0.16950667  0.87743557  1
  La3+  La49  1  -0.00154247  0.50751348  0.12589017  1
  La3+  La50  1  0.00433695  0.83411794  0.87547383  1
  La3+  La51  1  0.00030727  0.47602087  0.38429414  1
  La3+  La52  1  0.50582717  0.16950396  0.86052905  1
  La3+  La53  1  -0.00220397  0.85418971  0.63757530  1
  La3+  La54  1  -0.00678938  0.84849351  0.65117465  1
  La3+  La55  1  0.49933611  0.49635994  0.36585281  1
  La3+  La56  1  0.50773748  0.82608593  0.88976089  1
  La3+  La57  1  0.50280520  0.15898504  0.38401501  1
  La3+  La58  1  0.49607701  0.84177028  0.38026381  1
  La3+  La59  1  0.00770384  0.84122620  0.14229068  1
  La3+  La60  1  0.00708052  0.82804468  0.37946637  1
  La3+  La61  1  0.00193535  0.83453144  0.12302162  1
  La3+  La62  1  0.50535862  0.50913564  0.84939896  1
  La3+  La63  1  0.50482626  0.84206634  0.36227224  1
  La3+  La64  1  0.00578555  0.49253009  0.88145647  1
  La3+  La65  1  -0.01943123  0.19895811  0.39626606  1
  La3+  La66  1  0.50454788  0.83416356  0.86987048  1
  La3+  La67  1  0.50408061  0.82658728  0.63384804  1
  La3+  La68  1  -0.00322104  0.50581986  0.63728828  1
  La3+  La69  1  0.00365756  0.15563835  0.62217142  1
  La3+  La70  1  0.50077423  0.16906432  0.36447891  1
  La3+  La71  1  0.49940190  0.52118019  0.10330792  1
  La3+  La72  1  0.24971926  0.16950962  0.46575148  1
  La3+  La73  1  0.74884108  0.14561296  0.23053231  1
  La3+  La74  1  0.25315855  0.42971253  0.50187474  1
  La3+  La75  1  0.24838330  0.45892820  0.79873193  1
  La3+  La76  1  0.24905501  0.17040405  0.07311950  1
  La3+  La77  1  0.25110706  0.19506384  0.81106065  1
  La3+  La78  1  0.24856863  0.88125850  0.26163631  1
  La3+  La79  1  0.74925355  0.82826583  0.52603841  1
  La3+  La80  1  0.75132381  0.11496590  -0.00164405  1
  La3+  La81  1  0.74909590  0.17762271  0.47302242  1
  La3+  La82  1  0.24987854  0.83320767  0.75527305  1
  La3+  La83  1  0.25154574  0.53803118  0.18994615  1
  Ru4+  Ru84  1  -0.01496230  -0.00440004  -0.01644566  1
  Ru4+  Ru85  1  -0.00827626  0.01680272  0.25642019  1
  Ru4+  Ru86  1  0.00380684  0.00824051  0.50246499  1
  Ru4+  Ru87  1  -0.00363937  0.00969525  0.74868654  1
  Ru4+  Ru88  1  -0.00132727  0.32699155  -0.00937843  1
  Ru4+  Ru89  1  0.01214309  0.32059570  0.23776836  1
  Ru4+  Ru90  1  0.00370206  0.33539284  0.50462516  1
  Ru4+  Ru91  1  0.00280771  0.32789556  0.74682271  1
  Ru4+  Ru92  1  0.00238243  0.65981412  -0.00380469  1
  Ru4+  Ru93  1  -0.00124581  0.64716741  0.25008398  1
  Ru4+  Ru94  1  -0.00561936  0.66656180  0.50200635  1
  Ru4+  Ru95  1  0.00137219  0.66263571  0.75633514  1
  Ru4+  Ru96  1  0.50749070  0.00560745  0.02874852  1
  Ru4+  Ru97  1  0.49520931  -0.00180857  0.23285364  1
  Ru4+  Ru98  1  0.49687996  0.00747864  0.51116347  1
  Ru4+  Ru99  1  0.49924919  0.00857774  0.73283899  1
  Ru4+  Ru100  1  0.48826985  0.33977160  0.00269493  1
  Ru4+  Ru101  1  0.50058204  0.35154534  0.25768708  1
  Ru4+  Ru102  1  0.49988453  0.33710364  0.50788109  1
  Ru4+  Ru103  1  0.49164497  0.33561977  0.74411246  1
  Ru4+  Ru104  1  0.51110234  0.67453284  0.01488523  1
  Ru4+  Ru105  1  0.50241006  0.66664688  0.24672708  1
  Ru4+  Ru106  1  0.50039810  0.66023593  0.50694867  1
  Ru4+  Ru107  1  0.49665477  0.66111414  0.75241558  1
  Ru4+  Ru108  1  0.11122419  0.16563267  0.00044092  1
  Ru4+  Ru109  1  0.10323353  0.17840687  0.23451147  1
  Ru4+  Ru110  1  0.11011780  0.15847616  0.50163479  1
  Ru4+  Ru111  1  0.10244945  0.17241836  0.75138295  1
  Ru4+  Ru112  1  0.10922334  0.50403183  -0.00072236  1
  Ru4+  Ru113  1  0.11007817  0.50750399  0.24301155  1
  Ru4+  Ru114  1  0.11031488  0.50261041  0.50263550  1
  Ru4+  Ru115  1  0.11196432  0.49922636  0.75170729  1
  Ru4+  Ru116  1  0.11608832  0.83368434  -0.00262610  1
  Ru4+  Ru117  1  0.11472680  0.82797459  0.25309664  1
  Ru4+  Ru118  1  0.11384370  0.82207510  0.49941503  1
  Ru4+  Ru119  1  0.11504200  0.82242601  0.75083399  1
  Ru4+  Ru120  1  0.60627604  0.16440150  0.00107718  1
  Ru4+  Ru121  1  0.61078527  0.16774453  0.24786242  1
  Ru4+  Ru122  1  0.60968908  0.16445667  0.49995194  1
  Ru4+  Ru123  1  0.61692473  0.16109197  0.74584844  1
  Ru4+  Ru124  1  0.61174257  0.50835004  -0.00074391  1
  Ru4+  Ru125  1  0.60812732  0.49663183  0.25711527  1
  Ru4+  Ru126  1  0.61165048  0.50018030  0.50032119  1
  Ru4+  Ru127  1  0.61344573  0.49883487  0.74619822  1
  Ru4+  Ru128  1  0.60885857  0.82301507  0.00550004  1
  Ru4+  Ru129  1  0.61542627  0.83089320  0.24505801  1
  Ru4+  Ru130  1  0.61612703  0.82640437  0.50402627  1
  Ru4+  Ru131  1  0.62338569  0.83363762  0.74160068  1
  Ru4+  Ru132  1  0.39018736  0.16660417  0.00315068  1
  Ru4+  Ru133  1  0.38683838  0.17208583  0.23989080  1
  Ru4+  Ru134  1  0.39057271  0.16176765  0.50621192  1
  Ru4+  Ru135  1  0.38981425  0.17067540  0.75072554  1
  Ru4+  Ru136  1  0.39137327  0.49011964  0.00615214  1
  Ru4+  Ru137  1  0.39040338  0.49829026  0.25647890  1
  Ru4+  Ru138  1  0.39513527  0.50475113  0.50578023  1
  Ru4+  Ru139  1  0.38632149  0.50020668  0.74148262  1
  Ru4+  Ru140  1  0.38419672  0.83130704  0.00204025  1
  Ru4+  Ru141  1  0.39605652  0.84166096  0.24180304  1
  Ru4+  Ru142  1  0.38686090  0.82892384  0.49997565  1
  Ru4+  Ru143  1  0.38765573  0.83417685  0.74193241  1
  Ru4+  Ru144  1  0.89533075  0.16772215  -0.00155742  1
  Ru4+  Ru145  1  0.89499980  0.15639489  0.23489139  1
  Ru4+  Ru146  1  0.88627898  0.16586882  0.50512060  1
  Ru4+  Ru147  1  0.88504135  0.16560438  0.74768698  1
  Ru4+  Ru148  1  0.88831215  0.49720154  0.00447324  1
  Ru4+  Ru149  1  0.88927431  0.49861465  0.24596695  1
  Ru4+  Ru150  1  0.88833488  0.50019100  0.50021561  1
  Ru4+  Ru151  1  0.88593289  0.50603935  0.74404751  1
  Ru4+  Ru152  1  0.88882795  0.83917572  -0.00131931  1
  Ru4+  Ru153  1  0.88545038  0.83310883  0.25481221  1
  Ru4+  Ru154  1  0.88723724  0.83139638  0.49802315  1
  Ru4+  Ru155  1  0.88140905  0.83422044  0.74993863  1
  Ru4+  Ru156  1  0.74870993  0.40955593  -0.02314615  1
  Ru4+  Ru157  1  0.24894497  0.29443227  -0.01105786  1
  Ru4+  Ru158  1  0.74933428  0.44444777  0.26682426  1
  Ru4+  Ru159  1  0.24944968  0.39117758  0.23764573  1
  Ru4+  Ru160  1  0.74979287  0.58770177  0.26836747  1
  Ru4+  Ru161  1  0.24987753  0.43114895  0.02442040  1
  Ru4+  Ru162  1  0.74978545  0.57441681  0.50229883  1
  Ru4+  Ru163  1  0.25037586  0.31366813  0.71668476  1
  Ru4+  Ru164  1  0.24997917  0.05423295  0.72883185  1
  Ru4+  Ru165  1  0.24957492  0.90095360  0.49385082  1
  Ru4+  Ru166  1  0.25027423  0.61391104  0.49838523  1
  Ru4+  Ru167  1  0.25031306  0.61387056  0.73822388  1
  Ru4+  Ru168  1  0.75098994  0.76430294  -0.02483095  1
  Ru4+  Ru169  1  0.74919867  0.26105745  -0.04478477  1
  Ru4+  Ru170  1  0.74870464  0.00457136  0.24458580  1
  Ru4+  Ru171  1  0.25122702  0.59454611  -0.00009167  1
  Ru4+  Ru172  1  0.24762364  0.02620094  0.04557910  1
  Ru4+  Ru173  1  0.25296220  0.73412874  0.23212373  1
  Ru4+  Ru174  1  0.74975365  0.42601760  0.51486937  1
  Ru4+  Ru175  1  0.75153039  0.58848614  -0.02026807  1
  Ru4+  Ru176  1  0.75356433  0.27497973  0.25336143  1
  Ru4+  Ru177  1  0.74827204  0.90754322  -0.01017369  1
  Ru4+  Ru178  1  0.74800234  0.87385100  0.26251011  1
  Ru4+  Ru179  1  0.24851526  0.07634006  0.23562516  1
  O2-  O180  1  0.16201383  0.07775967  0.00789370  1
  O2-  O181  1  0.16260391  0.08294733  0.24686539  1
  O2-  O182  1  0.17036008  0.08201783  0.49057333  1
  O2-  O183  1  0.16464825  0.08024487  0.75319312  1
  O2-  O184  1  0.16675811  0.41785557  -0.00939862  1
  O2-  O185  1  0.16451074  0.41555954  0.25229045  1
  O2-  O186  1  0.16199165  0.41219971  0.49625725  1
  O2-  O187  1  0.16460529  0.41040412  0.74421086  1
  O2-  O188  1  0.16283093  0.74586576  -0.00666007  1
  O2-  O189  1  0.17064057  0.74602883  0.24998167  1
  O2-  O190  1  0.17197710  0.75271881  0.51128587  1
  O2-  O191  1  0.16840149  0.74110336  0.74483366  1
  O2-  O192  1  0.66105731  0.07712932  0.00254244  1
  O2-  O193  1  0.66510122  0.07563001  0.24871267  1
  O2-  O194  1  0.66866211  0.07781089  0.49659385  1
  O2-  O195  1  0.66525754  0.07803546  0.74299576  1
  O2-  O196  1  0.66113392  0.41497635  -0.00466284  1
  O2-  O197  1  0.66725584  0.41808788  0.25189058  1
  O2-  O198  1  0.66852333  0.41999792  0.50324480  1
  O2-  O199  1  0.66531383  0.41424275  0.74458141  1
  O2-  O200  1  0.66939286  0.75216897  -0.00174288  1
  O2-  O201  1  0.67117462  0.75412219  0.25863019  1
  O2-  O202  1  0.66776038  0.74203089  0.49912110  1
  O2-  O203  1  0.66776603  0.74597227  0.74394197  1
  O2-  O204  1  0.32988486  0.25766299  -0.00408271  1
  O2-  O205  1  0.33370225  0.24780430  0.25061912  1
  O2-  O206  1  0.33327768  0.25065932  0.50289075  1
  O2-  O207  1  0.33496309  0.25658471  0.74812054  1
  O2-  O208  1  0.33897851  0.58325102  0.00110933  1
  O2-  O209  1  0.33473630  0.58480712  0.24751936  1
  O2-  O210  1  0.33510874  0.58899900  0.50110725  1
  O2-  O211  1  0.33238445  0.58700794  0.75014316  1
  O2-  O212  1  0.34038283  0.91937083  0.00312348  1
  O2-  O213  1  0.33551018  0.92169783  0.24376475  1
  O2-  O214  1  0.33383344  0.91718055  0.50284682  1
  O2-  O215  1  0.33603504  0.91732076  0.74686018  1
  O2-  O216  1  0.83564424  0.25102426  -0.00463883  1
  O2-  O217  1  0.83929732  0.25113441  0.24990036  1
  O2-  O218  1  0.83787234  0.25276752  0.49615635  1
  O2-  O219  1  0.83955782  0.25374823  0.74848712  1
  O2-  O220  1  0.83829459  0.58607319  -0.00557167  1
  O2-  O221  1  0.83460585  0.58595208  0.25631879  1
  O2-  O222  1  0.83030246  0.58368526  0.49554524  1
  O2-  O223  1  0.82931697  0.58618227  0.75207615  1
  O2-  O224  1  0.82938388  0.91693153  -0.00083924  1
  O2-  O225  1  0.82654833  0.91660373  0.25595371  1
  O2-  O226  1  0.83450644  0.92052391  0.49827679  1
  O2-  O227  1  0.83517837  0.92347835  0.74874753  1
  O2-  O228  1  0.16512694  0.25621577  -0.00427690  1
  O2-  O229  1  0.16208501  0.24779101  0.25289122  1
  O2-  O230  1  0.16605780  0.24765726  0.49782790  1
  O2-  O231  1  0.17171900  0.25163953  0.75147249  1
  O2-  O232  1  0.16459490  0.58793655  -0.00006842  1
  O2-  O233  1  0.17143047  0.58388700  0.24905174  1
  O2-  O234  1  0.16469186  0.59045516  0.50442661  1
  O2-  O235  1  0.16904959  0.58619381  0.74684256  1
  O2-  O236  1  0.16068993  0.92224297  0.00635330  1
  O2-  O237  1  0.16160091  0.92807980  0.24718416  1
  O2-  O238  1  0.16435358  0.91468253  0.49468473  1
  O2-  O239  1  0.16302905  0.91373583  0.75277937  1
  O2-  O240  1  0.66354728  0.24983627  -0.00495588  1
  O2-  O241  1  0.66888041  0.25502460  0.24552051  1
  O2-  O242  1  0.66180859  0.25032054  0.50228776  1
  O2-  O243  1  0.66354346  0.25009941  0.74636490  1
  O2-  O244  1  0.67144430  0.58861045  -0.01149681  1
  O2-  O245  1  0.66523218  0.58170074  0.25781142  1
  O2-  O246  1  0.66743526  0.58244766  0.49763302  1
  O2-  O247  1  0.66607646  0.58383670  0.73897685  1
  O2-  O248  1  0.66367513  0.90832004  0.00296886  1
  O2-  O249  1  0.66972933  0.91862130  0.25035385  1
  O2-  O250  1  0.66762615  0.92022448  0.50337870  1
  O2-  O251  1  0.66317051  0.92688568  0.74333322  1
  O2-  O252  1  0.33728974  0.07995224  0.00422575  1
  O2-  O253  1  0.33318811  0.07952642  0.24620728  1
  O2-  O254  1  0.33550290  0.08119351  0.50670880  1
  O2-  O255  1  0.33322223  0.07670210  0.74872876  1
  O2-  O256  1  0.33032320  0.41640995  -0.00261430  1
  O2-  O257  1  0.33269275  0.41134896  0.23741079  1
  O2-  O258  1  0.34718583  0.40863806  0.50129224  1
  O2-  O259  1  0.33212828  0.41138546  0.75013938  1
  O2-  O260  1  0.33854840  0.74428272  -0.00420538  1
  O2-  O261  1  0.33707322  0.75250348  0.25261032  1
  O2-  O262  1  0.33549431  0.74825647  0.50313201  1
  O2-  O263  1  0.33288376  0.74699809  0.74699076  1
  O2-  O264  1  0.84521360  0.07877985  0.00071117  1
  O2-  O265  1  0.83154097  0.07669157  0.26066644  1
  O2-  O266  1  0.82466038  0.07931085  0.48898448  1
  O2-  O267  1  0.83792242  0.08046348  0.74825069  1
  O2-  O268  1  0.83303890  0.41144692  -0.00734185  1
  O2-  O269  1  0.83168765  0.41989422  0.25431325  1
  O2-  O270  1  0.83295669  0.41850779  0.49958562  1
  O2-  O271  1  0.83646038  0.41934608  0.74933023  1
  O2-  O272  1  0.83540983  0.75407430  -0.00720782  1
  O2-  O273  1  0.83695538  0.74907783  0.25323070  1
  O2-  O274  1  0.82928924  0.74849398  0.49632743  1
  O2-  O275  1  0.83540070  0.74686488  0.75087233  1
  O2-  O276  1  0.55188427  0.75564696  0.24700344  1
  O2-  O277  1  0.52768069  0.78752869  0.04308312  1
  O2-  O278  1  0.03869088  0.90660883  0.26015772  1
  O2-  O279  1  0.05661532  0.07249670  0.22108542  1
  O2-  O280  1  0.55355678  0.43219644  0.18476243  1
  O2-  O281  1  0.46318125  0.45175192  0.96235015  1
  O2-  O282  1  0.95231614  0.76063041  0.76029722  1
  O2-  O283  1  0.02888000  0.21202444  0.26513168  1
  O2-  O284  1  0.46937241  0.86580532  0.20477300  1
  O2-  O285  1  0.55570812  0.41831067  0.76123750  1
  O2-  O286  1  0.95460989  0.76387871  0.98973658  1
  O2-  O287  1  0.45092093  0.23602187  0.49716237  1
  O2-  O288  1  0.53914807  0.89006580  0.51332816  1
  O2-  O289  1  0.04870547  0.42206438  1.00314338  1
  O2-  O290  1  0.04972813  0.89657624  0.76431269  1
  O2-  O291  1  0.95815552  0.90257723  0.49367073  1
  O2-  O292  1  0.95673638  0.76433518  0.24298278  1
  O2-  O293  1  0.53779784  0.56423064  0.96646029  1
  O2-  O294  1  0.05073435  0.08972306  0.75858956  1
  O2-  O295  1  0.54889391  0.09921482  0.25029920  1
  O2-  O296  1  0.95025874  0.54780004  0.29301402  1
  O2-  O297  1  0.04588308  0.90690968  0.99349919  1
  O2-  O298  1  0.54868432  0.09886278  0.73873941  1
  O2-  O299  1  0.55482611  0.24036158  0.76421713  1
  O2-  O300  1  0.05227483  0.55986819  0.30507821  1
  O2-  O301  1  0.45600091  0.43722139  0.48819460  1
  O2-  O302  1  0.95427644  0.23599132  0.99539167  1
  O2-  O303  1  0.44548761  0.09046829  0.76931757  1
  O2-  O304  1  0.94840774  0.90815595  0.76435777  1
  O2-  O305  1  0.03360737  0.21674939  0.27493370  1
  O2-  O306  1  0.55950354  0.58748662  0.75835495  1
  O2-  O307  1  0.45388991  0.45053692  0.20315462  1
  O2-  O308  1  0.55082855  0.90420679  0.48196134  1
  O2-  O309  1  0.54733628  0.77250518  0.75614340  1
  O2-  O310  1  0.95037815  0.56730690  0.48646160  1
  O2-  O311  1  0.04531262  0.42857343  0.22586851  1
  O2-  O312  1  0.54374235  0.10355097  0.04812096  1
  O2-  O313  1  0.03628245  0.78383905  0.53391850  1
  O2-  O314  1  0.55374911  0.91158276  0.97939520  1
  O2-  O315  1  0.44740822  0.43331424  0.79328800  1
  O2-  O316  1  0.54872330  0.25437266  0.98316747  1
  O2-  O317  1  0.94873384  0.57417162  0.80007580  1
  O2-  O318  1  0.00929373  0.21768187  0.76200761  1
  O2-  O319  1  0.44715787  0.09487389  0.26702629  1
  O2-  O320  1  0.44319009  0.58066854  0.74553659  1
  O2-  O321  1  0.04998083  0.57692470  0.52230549  1
  O2-  O322  1  0.94868506  0.10192562  0.30856774  1
  O2-  O323  1  0.03725938  0.11930387  0.46126674  1
  O2-  O324  1  0.93388006  0.61666903  0.16810847  1
  O2-  O325  1  0.06178763  0.58490918  0.76840636  1
  O2-  O326  1  0.42631701  0.93468606  0.31062733  1
  O2-  O327  1  0.93858290  0.40472713  0.04080325  1
  O2-  O328  1  0.91377802  0.56908024  0.64474748  1
  O2-  O329  1  0.05816040  0.41404020  0.78919131  1
  O2-  O330  1  0.94032347  0.40934665  0.71821836  1
  O2-  O331  1  0.44194649  0.59492720  0.28938392  1
  O2-  O332  1  0.55315603  0.09761513  0.05972769  1
  O2-  O333  1  0.94253774  0.58783356  0.81086800  1
  O2-  O334  1  0.42089720  0.40936023  0.32527162  1
  O2-  O335  1  0.56004553  0.25933955  0.27723449  1
  O2-  O336  1  0.56077773  0.26044195  0.79534141  1
  O2-  O337  1  0.07628722  0.27898575  0.16070374  1
  O2-  O338  1  0.06247891  0.91751201  0.26551689  1
  O2-  O339  1  0.56090256  0.92950716  0.94720154  1
  O2-  O340  1  0.06097272  0.92104994  0.78711969  1
  O2-  O341  1  0.06684965  0.40980737  0.48156655  1
  O2-  O342  1  0.59286483  0.58830351  0.07486071  1
  O2-  O343  1  0.93600985  0.74459817  0.47469819  1
  O2-  O344  1  0.44299887  0.92295112  0.71410686  1
  O2-  O345  1  0.08193275  0.28121067  0.71894736  1
  O2-  O346  1  0.44379379  0.26423601  0.22061294  1
  O2-  O347  1  0.08760582  0.74013126  0.42628117  1
  O2-  O348  1  0.56462069  0.40567471  0.52640119  1
  O2-  O349  1  0.56010580  0.59220341  0.46702220  1
  O2-  O350  1  0.44187015  0.73739788  0.46300889  1
  O2-  O351  1  0.06166285  0.25043746  0.53424009  1
  O2-  O352  1  0.93617273  0.07931208  0.51310839  1
  O2-  O353  1  0.55481166  0.75862760  0.23850970  1
  O2-  O354  1  0.93407830  0.06740970  0.16991137  1
  O2-  O355  1  0.43673249  0.59713192  0.53397638  1
  O2-  O356  1  0.07726226  0.59475371  0.17239045  1
  O2-  O357  1  0.56940706  0.07232589  0.89192277  1
  O2-  O358  1  0.92995410  0.91353913  0.92485251  1
  O2-  O359  1  0.56439967  0.58868608  0.24345102  1
  O2-  O360  1  0.42373857  0.39675857  0.68730137  1
  O2-  O361  1  0.56852143  0.40783138  0.33096368  1
  O2-  O362  1  0.44225555  0.75000290  0.76695248  1
  O2-  O363  1  0.93507130  0.39260985  0.27969694  1
  O2-  O364  1  0.94170924  0.93148790  0.07381860  1
  O2-  O365  1  0.93966597  0.92340131  0.24012307  1
  O2-  O366  1  0.42683713  0.39239269  0.07035565  1
  O2-  O367  1  0.05466161  0.42001404  0.21447315  1
  O2-  O368  1  0.55851153  0.75051944  0.78200793  1
  O2-  O369  1  0.43990094  0.24701860  0.02755947  1
  O2-  O370  1  0.08207925  0.07195179  0.56892149  1
  O2-  O371  1  0.57273766  0.71864566  0.93817275  1
  O2-  O372  1  0.25025462  0.66929832  0.61901510  1
  O2-  O373  1  0.24859782  0.31802636  0.41661014  1
  O2-  O374  1  0.25017338  0.65805214  0.85455120  1
  O2-  O375  1  0.24998643  0.31004605  0.32572402  1
  O2-  O376  1  0.25021038  -0.00753920  0.40432999  1
  O2-  O377  1  0.25047941  -0.01543351  0.94259008  1
  O2-  O378  1  0.75037576  0.67033696  0.19370555  1
  O2-  O379  1  0.75035915  0.36569437  0.17707799  1
  O2-  O380  1  0.24951756  0.33081791  0.85967496  1
  O2-  O381  1  0.74912580  0.34375658  0.86454707  1
  O2-  O382  1  0.75111414  0.67799478  0.05733748  1
  O2-  O383  1  0.74987485  0.65666295  0.37066977  1
  O2-  O384  1  0.75000563  -0.00381635  0.09900506  1
  O2-  O385  1  0.75111794  0.66992583  0.88269980  1
  O2-  O386  1  0.25000005  0.65842791  0.10574303  1
  O2-  O387  1  0.74860949  0.65475444  0.59138791  1
  O2-  O388  1  0.75080548  -0.00042780  0.90646524  1
  O2-  O389  1  0.25206276  0.67901770  0.39011626  1
  O2-  O390  1  0.24967105  -0.02238601  0.81013772  1
  O2-  O391  1  0.74984314  0.34377586  0.60476409  1
  O2-  O392  1  0.74937628  0.32487565  0.45910001  1
  O2-  O393  1  0.74910329  0.32021815  0.05873508  1
  O2-  O394  1  0.25235636  -0.00762078  0.62440799  1
  O2-  O395  1  0.75158785  0.35572182  0.34054951  1
  O2-  O396  1  0.75096222  0.17864278  0.87052822  1
  O2-  O397  1  0.25123564  0.15356918  0.67725065  1
  O2-  O398  1  0.24833853  0.53337967  0.58484824  1
  O2-  O399  1  0.75065341  0.16197146  0.60786536  1
  O2-  O400  1  0.25079902  0.83496043  0.40322874  1
  O2-  O401  1  0.25100889  0.47011487  0.31519914  1
  O2-  O402  1  0.74916310  0.50057227  0.82113291  1
  O2-  O403  1  0.75156015  0.16710236  0.69123497  1
  O2-  O404  1  0.25026239  0.15178613  0.33223783  1
  O2-  O405  1  0.24879311  0.53669693  0.41711857  1
  O2-  O406  1  0.25063168  0.80631110  0.13858761  1
  O2-  O407  1  0.25012343  0.50999973  0.92657062  1
  O2-  O408  1  0.25218772  0.51401909  0.67043490  1
  O2-  O409  1  0.24960997  0.18506306  0.24345120  1
  O2-  O410  1  0.24974945  0.14447715  0.93658229  1
  O2-  O411  1  0.24996579  0.84599282  0.59263418  1
  O2-  O412  1  0.24803461  0.17847115  0.59541767  1
  O2-  O413  1  0.25118002  0.82791160  0.88120958  1
  O2-  O414  1  0.74963947  0.83818528  0.88473294  1
  O2-  O415  1  0.75054639  0.49783187  0.04996915  1
  O2-  O416  1  0.75059997  0.51401033  0.17639953  1
  O2-  O417  1  0.74999716  0.83709743  0.65192272  1
  O2-  O418  1  0.74951050  0.84637597  0.37263099  1
  O2-  O419  1  0.75015995  0.50058502  0.90403727  1
  O2-  O420  1  0.48550369  0.31980765  0.62176710  1
  O2-  O421  1  0.52542132  0.67709656  0.62850431  1
  O2-  O422  1  0.02126542  0.33170717  0.37686231  1
  O2-  O423  1  0.47165521  0.66676800  0.89031654  1
  O2-  O424  1  0.01696338  0.35664719  0.62398491  1
  O2-  O425  1  0.45047631  0.02605491  0.41903009  1
  O2-  O426  1  0.48519879  0.31302148  0.38121238  1
  O2-  O427  1  0.97958430  0.02917322  0.87119059  1
  O2-  O428  1  0.53241982  0.66855210  0.13039228  1
  O2-  O429  1  0.02808736  0.67926360  0.88105538  1
  O2-  O430  1  0.97125047  0.34064914  0.86845293  1
  O2-  O431  1  0.04405611  -0.03129357  0.63801602  1
  O2-  O432  1  0.54377002  -0.01252018  0.35303813  1
  O2-  O433  1  0.01928035  0.68686846  0.11296424  1
  O2-  O434  1  0.96515640  0.66853471  0.36219848  1
  O2-  O435  1  0.02467345  -0.00837465  0.38265713  1
  O2-  O436  1  0.54604281  -0.03416320  0.15080711  1
  O2-  O437  1  0.95074580  -0.00325931  0.63857012  1
  O2-  O438  1  0.02391120  0.66753289  0.37403768  1
  O2-  O439  1  0.46841627  0.31871205  0.87323146  1
  O2-  O440  1  0.44457356  0.65440799  0.09649874  1
  O2-  O441  1  0.53100942  -0.00561134  0.61996458  1
  O2-  O442  1  0.98440297  0.67920703  0.62572284  1
  O2-  O443  1  0.45324938  0.01344663  0.11794013  1
