# generated using pymatgen
data_La7(Ru4O11)2
_symmetry_space_group_name_H-M   'P 1'
_cell_length_a   23.98943508
_cell_length_b   16.82924632
_cell_length_c   15.42591523
_cell_angle_alpha   89.99912752
_cell_angle_beta   90.00032240
_cell_angle_gamma   89.99958746
_symmetry_Int_Tables_number   1
_chemical_formula_structural   La7(Ru4O11)2
_chemical_formula_sum   'La84 Ru96 O264'
_cell_volume   6227.81392616
_cell_formula_units_Z   12
loop_
 _symmetry_equiv_pos_site_id
 _symmetry_equiv_pos_as_xyz
  1  'x, y, z'
loop_
 _atom_type_symbol
 _atom_type_oxidation_number
  La3+  3.0
  Ru4+  4.0
  O2-  -2.0
loop_
 _atom_site_type_symbol
 _atom_site_label
 _atom_site_symmetry_multiplicity
 _atom_site_fract_x
 _atom_site_fract_y
 _atom_site_fract_z
 _atom_site_occupancy
  La3+  La0  1  0.13929303  -0.00129225  0.12241400  1
  La3+  La1  1  0.13809624  -0.00147880  0.37427442  1
  La3+  La2  1  0.13735986  0.00053015  0.62574020  1
  La3+  La3  1  0.13990608  0.00062947  0.87782523  1
  La3+  La4  1  0.13939635  0.33429648  0.12002153  1
  La3+  La5  1  0.13714228  0.33341949  0.37867022  1
  La3+  La6  1  0.13945380  0.33326672  0.62368994  1
  La3+  La7  1  0.13853701  0.33476861  0.87757700  1
  La3+  La8  1  0.14120014  0.66733055  0.12642766  1
  La3+  La9  1  0.13727384  0.66786991  0.37281300  1
  La3+  La10  1  0.13984637  0.66719652  0.62522562  1
  La3+  La11  1  0.13873165  0.66664712  0.87556913  1
  La3+  La12  1  0.63942428  -0.00162387  0.12665893  1
  La3+  La13  1  0.63957847  -0.00189004  0.37438183  1
  La3+  La14  1  0.64067447  -0.00221449  0.62722128  1
  La3+  La15  1  0.63913061  -0.00249859  0.87093322  1
  La3+  La16  1  0.63706587  0.33328352  0.12936849  1
  La3+  La17  1  0.63661355  0.33550780  0.37689429  1
  La3+  La18  1  0.63611266  0.33687536  0.62151688  1
  La3+  La19  1  0.63679767  0.33443357  0.87184797  1
  La3+  La20  1  0.63853378  0.66779211  0.12628691  1
  La3+  La21  1  0.63993214  0.66624791  0.37345715  1
  La3+  La22  1  0.63966963  0.66726154  0.62446031  1
  La3+  La23  1  0.63884047  0.66867363  0.87366224  1
  La3+  La24  1  0.36057412  -0.00150698  0.12372694  1
  La3+  La25  1  0.36251195  -0.00067560  0.37567035  1
  La3+  La26  1  0.36195171  0.00160761  0.62406669  1
  La3+  La27  1  0.35910150  0.00038334  0.87782170  1
  La3+  La28  1  0.36091628  0.33373239  0.12286762  1
  La3+  La29  1  0.36117247  0.33375562  0.37792774  1
  La3+  La30  1  0.35937694  0.33340559  0.62393069  1
  La3+  La31  1  0.35988316  0.33365609  0.87612265  1
  La3+  La32  1  0.36134355  0.66570667  0.12530946  1
  La3+  La33  1  0.36339897  0.66637973  0.37436647  1
  La3+  La34  1  0.36147306  0.66646895  0.62333400  1
  La3+  La35  1  0.36290220  0.66535770  0.87766546  1
  La3+  La36  1  0.86110447  -0.00157662  0.12661004  1
  La3+  La37  1  0.86100008  -0.00098505  0.37395156  1
  La3+  La38  1  0.86043472  -0.00185034  0.62512838  1
  La3+  La39  1  0.86279104  -0.00253216  0.87372231  1
  La3+  La40  1  0.86268184  0.33405834  0.12756888  1
  La3+  La41  1  0.85961918  0.33463798  0.37567894  1
  La3+  La42  1  0.86353731  0.33492734  0.62480144  1
  La3+  La43  1  0.86325841  0.33466823  0.87202600  1
  La3+  La44  1  0.86134194  0.66705333  0.12562701  1
  La3+  La45  1  0.86011901  0.66588084  0.37484951  1
  La3+  La46  1  0.86089832  0.66678841  0.62506384  1
  La3+  La47  1  0.86170706  0.66812446  0.87318235  1
  La3+  La48  1  0.49965406  0.49809152  0.61395105  1
  La3+  La49  1  0.00391406  0.16775312  0.86370414  1
  La3+  La50  1  0.00075205  0.16651759  0.13286543  1
  La3+  La51  1  0.00485469  0.16765610  0.38394495  1
  La3+  La52  1  -0.00308493  0.16485612  0.36522847  1
  La3+  La53  1  0.50109353  0.83402951  0.11758232  1
  La3+  La54  1  0.50150738  0.49798933  0.88360732  1
  La3+  La55  1  0.50042317  0.83332948  0.88197804  1
  La3+  La56  1  0.50257148  0.82952994  0.63134012  1
  La3+  La57  1  0.50017908  0.50005303  0.13994417  1
  La3+  La58  1  -0.00204834  0.16669045  0.88413096  1
  La3+  La59  1  -0.00215076  0.83432798  0.11956079  1
  La3+  La60  1  0.50008833  0.83344379  0.38537528  1
  La3+  La61  1  0.50178330  0.17143378  0.87520364  1
  La3+  La62  1  0.50030253  0.16533857  0.61715659  1
  La3+  La63  1  -0.00016938  0.83234437  0.13555269  1
  La3+  La64  1  0.00046524  0.16643186  0.11171355  1
  La3+  La65  1  0.00004977  0.49905725  0.13382641  1
  La3+  La66  1  -0.00157281  0.50138962  0.36856085  1
  La3+  La67  1  0.50048231  0.50009456  0.63156122  1
  La3+  La68  1  0.49965428  0.17100469  0.37978574  1
  La3+  La69  1  -0.00016530  0.50084816  0.88331251  1
  La3+  La70  1  0.00003035  0.83419180  0.63644899  1
  La3+  La71  1  0.49599135  0.16913609  0.36350835  1
  La3+  La72  1  0.75114063  0.15207472  0.02470363  1
  La3+  La73  1  0.74985476  0.12890537  0.70970069  1
  La3+  La74  1  0.75012325  0.50748330  0.05391345  1
  La3+  La75  1  0.24997061  0.16642465  0.31070622  1
  La3+  La76  1  0.25002580  0.80355658  0.52357361  1
  La3+  La77  1  0.75012087  0.50028461  0.46834110  1
  La3+  La78  1  0.24972888  0.16715741  -0.02006105  1
  La3+  La79  1  0.74978842  0.19740388  0.53019533  1
  La3+  La80  1  0.24986739  0.47093846  0.74705790  1
  La3+  La81  1  0.25008528  0.54335792  0.25391219  1
  La3+  La82  1  0.24991543  0.49868754  0.01218335  1
  La3+  La83  1  0.24992437  0.83243926  0.26187957  1
  Ru4+  Ru84  1  -0.00436093  -0.00595295  0.00097067  1
  Ru4+  Ru85  1  0.00065029  -0.00318680  0.25300055  1
  Ru4+  Ru86  1  0.00344003  -0.00493004  0.50087228  1
  Ru4+  Ru87  1  0.00143686  -0.00166082  0.74758623  1
  Ru4+  Ru88  1  -0.00210782  0.32989741  -0.00052530  1
  Ru4+  Ru89  1  -0.00306258  0.33357689  0.25139653  1
  Ru4+  Ru90  1  -0.00270316  0.34042024  0.50234038  1
  Ru4+  Ru91  1  -0.00054934  0.33447359  0.74577636  1
  Ru4+  Ru92  1  -0.00392380  0.66117728  0.00099990  1
  Ru4+  Ru93  1  0.00112280  0.66928169  0.24999910  1
  Ru4+  Ru94  1  -0.00258066  0.66744239  0.50042830  1
  Ru4+  Ru95  1  -0.00092975  0.66608851  0.74599350  1
  Ru4+  Ru96  1  0.50397780  -0.00734159  0.00017901  1
  Ru4+  Ru97  1  0.49980097  -0.00110741  0.24998144  1
  Ru4+  Ru98  1  0.50213504  -0.00944535  0.49698886  1
  Ru4+  Ru99  1  0.50170850  0.00278846  0.74873754  1
  Ru4+  Ru100  1  0.49879711  0.33447558  0.00022754  1
  Ru4+  Ru101  1  0.49742640  0.33748904  0.24853851  1
  Ru4+  Ru102  1  0.49908535  0.33450863  0.50003986  1
  Ru4+  Ru103  1  0.49977687  0.33240039  0.74875880  1
  Ru4+  Ru104  1  0.50267894  0.67197003  0.00003871  1
  Ru4+  Ru105  1  0.50245184  0.66156167  0.25129517  1
  Ru4+  Ru106  1  0.50271917  0.67159139  0.49849627  1
  Ru4+  Ru107  1  0.50021212  0.66665892  0.75128421  1
  Ru4+  Ru108  1  0.11588370  0.17080186  -0.00004551  1
  Ru4+  Ru109  1  0.11202452  0.16500315  0.24943218  1
  Ru4+  Ru110  1  0.11553263  0.16399296  0.50133003  1
  Ru4+  Ru111  1  0.11266974  0.16676357  0.75023837  1
  Ru4+  Ru112  1  0.11428941  0.50146099  0.00107222  1
  Ru4+  Ru113  1  0.11352720  0.50345407  0.24979915  1
  Ru4+  Ru114  1  0.11340195  0.49734994  0.50051372  1
  Ru4+  Ru115  1  0.11043113  0.49873797  0.74918320  1
  Ru4+  Ru116  1  0.11653297  0.83715694  -0.00193171  1
  Ru4+  Ru117  1  0.11120272  0.83204049  0.25195948  1
  Ru4+  Ru118  1  0.11065184  0.83335674  0.50053348  1
  Ru4+  Ru119  1  0.11238612  0.83414100  0.74957443  1
  Ru4+  Ru120  1  0.61327602  0.16631816  -0.00047103  1
  Ru4+  Ru121  1  0.61463267  0.16361838  0.24925434  1
  Ru4+  Ru122  1  0.61357322  0.16883977  0.50078627  1
  Ru4+  Ru123  1  0.61180358  0.16558274  0.75020353  1
  Ru4+  Ru124  1  0.61074093  0.50010079  0.00049540  1
  Ru4+  Ru125  1  0.61378193  0.50116477  0.25110365  1
  Ru4+  Ru126  1  0.61280615  0.49851495  0.49975407  1
  Ru4+  Ru127  1  0.61271044  0.49981010  0.74928534  1
  Ru4+  Ru128  1  0.61285050  0.83193748  -0.00011730  1
  Ru4+  Ru129  1  0.61375968  0.83438222  0.24967913  1
  Ru4+  Ru130  1  0.61310363  0.83492318  0.49993487  1
  Ru4+  Ru131  1  0.61396142  0.83355735  0.74989144  1
  Ru4+  Ru132  1  0.38389961  0.17101434  0.00067646  1
  Ru4+  Ru133  1  0.38874934  0.16669988  0.24992565  1
  Ru4+  Ru134  1  0.38377474  0.17124605  0.49921569  1
  Ru4+  Ru135  1  0.38766190  0.16672879  0.75025584  1
  Ru4+  Ru136  1  0.38434268  0.49738993  0.00078609  1
  Ru4+  Ru137  1  0.38793409  0.50082885  0.24815805  1
  Ru4+  Ru138  1  0.38495227  0.49535804  0.49998821  1
  Ru4+  Ru139  1  0.38863466  0.49929210  0.74995990  1
  Ru4+  Ru140  1  0.38547381  0.83491766  -0.00033494  1
  Ru4+  Ru141  1  0.38577241  0.83587949  0.25019093  1
  Ru4+  Ru142  1  0.38877714  0.83312042  0.49992379  1
  Ru4+  Ru143  1  0.38594621  0.83126015  0.75083681  1
  Ru4+  Ru144  1  0.88880467  0.16688427  0.00048680  1
  Ru4+  Ru145  1  0.88680000  0.16820724  0.24992016  1
  Ru4+  Ru146  1  0.88401287  0.16998404  0.49973546  1
  Ru4+  Ru147  1  0.88842588  0.16751259  0.74910360  1
  Ru4+  Ru148  1  0.88963710  0.50060102  0.00068454  1
  Ru4+  Ru149  1  0.88595125  0.50033995  0.24987731  1
  Ru4+  Ru150  1  0.88982808  0.49973559  0.50012460  1
  Ru4+  Ru151  1  0.88786884  0.49932722  0.75064765  1
  Ru4+  Ru152  1  0.88687077  0.83218743  -0.00107434  1
  Ru4+  Ru153  1  0.88687826  0.83608671  0.25127651  1
  Ru4+  Ru154  1  0.88595432  0.83314806  0.49865458  1
  Ru4+  Ru155  1  0.88620377  0.83367126  0.75010181  1
  Ru4+  Ru156  1  0.74985763  0.03448177  -0.00588181  1
  Ru4+  Ru157  1  0.74996457  0.91057065  0.00154943  1
  Ru4+  Ru158  1  0.25003242  0.27899899  0.23176540  1
  Ru4+  Ru159  1  0.25002122  0.94186580  0.49801824  1
  Ru4+  Ru160  1  0.24990630  0.24716311  0.74816106  1
  Ru4+  Ru161  1  0.74995616  0.26727748  0.73918289  1
  Ru4+  Ru162  1  0.24992704  0.40703435  0.24470798  1
  Ru4+  Ru163  1  0.74988395  0.75483682  0.50785039  1
  Ru4+  Ru164  1  0.25001828  0.08452085  0.50059623  1
  Ru4+  Ru165  1  0.75000681  0.27051908  0.00472241  1
  Ru4+  Ru166  1  0.25006851  0.08577284  0.75415820  1
  Ru4+  Ru167  1  0.24999328  0.75307326  0.00611166  1
  Ru4+  Ru168  1  0.24996991  0.57728088  0.50332339  1
  Ru4+  Ru169  1  0.25018952  0.60871137  0.75074481  1
  Ru4+  Ru170  1  0.75003168  0.25156177  0.24657820  1
  Ru4+  Ru171  1  0.74991465  0.75537531  0.24734794  1
  Ru4+  Ru172  1  0.24997942  0.75048010  0.75105753  1
  Ru4+  Ru173  1  0.75001375  0.62081075  0.00057136  1
  Ru4+  Ru174  1  0.75026658  0.07841827  0.24706654  1
  Ru4+  Ru175  1  0.74973470  0.05896319  0.50005114  1
  Ru4+  Ru176  1  0.74996117  0.39623533  -0.00048006  1
  Ru4+  Ru177  1  0.25016679  0.04799882  0.24449434  1
  Ru4+  Ru178  1  0.24997559  0.91770803  0.75474407  1
  Ru4+  Ru179  1  0.75004839  0.58352248  0.74708743  1
  O2-  O180  1  0.16716322  0.08094293  0.00202193  1
  O2-  O181  1  0.16660544  0.07957232  0.24978496  1
  O2-  O182  1  0.16818824  0.08169917  0.50017763  1
  O2-  O183  1  0.16766700  0.08033406  0.75039369  1
  O2-  O184  1  0.16796850  0.41476014  -0.00074819  1
  O2-  O185  1  0.16700835  0.41347985  0.24973011  1
  O2-  O186  1  0.16631057  0.41478205  0.49949164  1
  O2-  O187  1  0.16625726  0.41400644  0.75036539  1
  O2-  O188  1  0.16930840  0.74756223  -0.00002253  1
  O2-  O189  1  0.16728788  0.74729484  0.25087635  1
  O2-  O190  1  0.16569136  0.74643808  0.49893474  1
  O2-  O191  1  0.16713190  0.74751196  0.75034289  1
  O2-  O192  1  0.66669415  0.07976627  0.00065351  1
  O2-  O193  1  0.66699908  0.08157237  0.24938487  1
  O2-  O194  1  0.66821617  0.07990340  0.50017455  1
  O2-  O195  1  0.66717000  0.08124336  0.75152152  1
  O2-  O196  1  0.66512870  0.41226938  -0.00000763  1
  O2-  O197  1  0.66626296  0.41437676  0.24803922  1
  O2-  O198  1  0.66823073  0.41454118  0.50104897  1
  O2-  O199  1  0.66684178  0.41387715  0.74954236  1
  O2-  O200  1  0.66625351  0.74802406  -0.00070528  1
  O2-  O201  1  0.66853514  0.74789371  0.24989140  1
  O2-  O202  1  0.66779377  0.74744094  0.49914512  1
  O2-  O203  1  0.66733177  0.74835263  0.75058748  1
  O2-  O204  1  0.33346364  0.25259428  -0.00019440  1
  O2-  O205  1  0.33374702  0.25411097  0.24980368  1
  O2-  O206  1  0.33193859  0.25195443  0.49946377  1
  O2-  O207  1  0.33286460  0.25254178  0.75059368  1
  O2-  O208  1  0.33114208  0.58688570  -0.00084127  1
  O2-  O209  1  0.33520617  0.58719605  0.25191361  1
  O2-  O210  1  0.33196567  0.58668326  0.49898541  1
  O2-  O211  1  0.33309759  0.58744353  0.75044835  1
  O2-  O212  1  0.33372312  0.91756467  0.00055060  1
  O2-  O213  1  0.33370805  0.91897900  0.25073588  1
  O2-  O214  1  0.33162385  0.92089057  0.50052301  1
  O2-  O215  1  0.33216618  0.91915686  0.74918146  1
  O2-  O216  1  0.83474721  0.25503396  -0.00092437  1
  O2-  O217  1  0.83230276  0.25269147  0.24929276  1
  O2-  O218  1  0.83349227  0.25333736  0.50067527  1
  O2-  O219  1  0.83222141  0.25350021  0.74986889  1
  O2-  O220  1  0.83315601  0.58757745  -0.00030972  1
  O2-  O221  1  0.83426459  0.58531447  0.24888732  1
  O2-  O222  1  0.83289002  0.58592627  0.49942732  1
  O2-  O223  1  0.83246606  0.58571631  0.74945920  1
  O2-  O224  1  0.83040823  0.91999608  -0.00004160  1
  O2-  O225  1  0.83326263  0.91722051  0.24934448  1
  O2-  O226  1  0.83250735  0.91819461  0.50078377  1
  O2-  O227  1  0.83304808  0.91793601  0.75141366  1
  O2-  O228  1  0.16758009  0.25204014  0.00025476  1
  O2-  O229  1  0.16671229  0.25389629  0.25020392  1
  O2-  O230  1  0.16760587  0.25138316  0.49961525  1
  O2-  O231  1  0.16734920  0.25261035  0.75041967  1
  O2-  O232  1  0.16646735  0.58618574  -0.00029684  1
  O2-  O233  1  0.16528848  0.58737380  0.25015422  1
  O2-  O234  1  0.16829730  0.58544567  0.49863789  1
  O2-  O235  1  0.16711344  0.58708487  0.75022961  1
  O2-  O236  1  0.16668622  0.91842235  0.00066203  1
  O2-  O237  1  0.16703056  0.91938606  0.24981893  1
  O2-  O238  1  0.16752565  0.92073237  0.50001829  1
  O2-  O239  1  0.16823984  0.91940745  0.75001959  1
  O2-  O240  1  0.66593361  0.25446089  0.00072623  1
  O2-  O241  1  0.66763910  0.25207742  0.24861100  1
  O2-  O242  1  0.66689176  0.25307027  0.50083096  1
  O2-  O243  1  0.66722893  0.25347819  0.74952659  1
  O2-  O244  1  0.66671948  0.58763949  -0.00072423  1
  O2-  O245  1  0.66615660  0.58470674  0.24862847  1
  O2-  O246  1  0.66771824  0.58466497  0.49974069  1
  O2-  O247  1  0.66676063  0.58587759  0.75016331  1
  O2-  O248  1  0.66858266  0.91967819  0.00021209  1
  O2-  O249  1  0.66519014  0.91789295  0.25033456  1
  O2-  O250  1  0.66654408  0.91852448  0.49910000  1
  O2-  O251  1  0.66739353  0.91711981  0.75079123  1
  O2-  O252  1  0.33179335  0.08177997  0.00097372  1
  O2-  O253  1  0.33338714  0.07941503  0.25001319  1
  O2-  O254  1  0.33144819  0.08122820  0.50041168  1
  O2-  O255  1  0.33228863  0.08049846  0.75022885  1
  O2-  O256  1  0.33492494  0.41504339  -0.00033954  1
  O2-  O257  1  0.33330598  0.41351072  0.25015144  1
  O2-  O258  1  0.33393618  0.41479893  0.49987299  1
  O2-  O259  1  0.33360250  0.41310648  0.75063105  1
  O2-  O260  1  0.33153965  0.74737835  -0.00056900  1
  O2-  O261  1  0.33327839  0.74712620  0.25196684  1
  O2-  O262  1  0.33463088  0.74584140  0.49918152  1
  O2-  O263  1  0.33251781  0.74782906  0.74979133  1
  O2-  O264  1  0.83309805  0.07803403  -0.00073572  1
  O2-  O265  1  0.83231117  0.08079228  0.24918084  1
  O2-  O266  1  0.83163712  0.08066845  0.50132314  1
  O2-  O267  1  0.83395556  0.08026543  0.75184886  1
  O2-  O268  1  0.83486816  0.41207563  -0.00074675  1
  O2-  O269  1  0.83370475  0.41368167  0.24876755  1
  O2-  O270  1  0.83289741  0.41416812  0.50048069  1
  O2-  O271  1  0.83384406  0.41454299  0.75013918  1
  O2-  O272  1  0.83387682  0.74857147  0.00008297  1
  O2-  O273  1  0.83261782  0.74746727  0.24977617  1
  O2-  O274  1  0.83232151  0.74852279  0.49940132  1
  O2-  O275  1  0.83352253  0.74825048  0.74986700  1
  O2-  O276  1  0.45547702  0.10498088  -0.00464409  1
  O2-  O277  1  0.04983099  0.23687239  0.48767149  1
  O2-  O278  1  0.54639168  0.09753725  0.26270389  1
  O2-  O279  1  0.95378172  0.09796018  0.76255956  1
  O2-  O280  1  0.05340579  0.75437350  0.26989873  1
  O2-  O281  1  0.95742254  0.10210559  0.52138749  1
  O2-  O282  1  0.04203752  0.44185379  0.01311918  1
  O2-  O283  1  0.54746580  0.23879085  0.26641771  1
  O2-  O284  1  0.45566529  0.10515522  0.99661845  1
  O2-  O285  1  0.45559767  0.76278285  0.01380921  1
  O2-  O286  1  0.46026697  0.89100652  0.72338510  1
  O2-  O287  1  0.95524540  0.76633429  0.76450048  1
  O2-  O288  1  0.04663088  0.09736862  0.98648884  1
  O2-  O289  1  0.54493589  0.42574929  0.48824511  1
  O2-  O290  1  0.45496881  0.90143337  0.98663721  1
  O2-  O291  1  0.95356885  0.09773300  0.23606584  1
  O2-  O292  1  0.95297063  0.76573463  0.26357013  1
  O2-  O293  1  0.95772232  0.10488727  0.50179538  1
  O2-  O294  1  0.04805329  0.42916366  0.48536941  1
  O2-  O295  1  0.54449559  0.43376989  0.76566143  1
  O2-  O296  1  0.54180734  0.10746637  0.47298795  1
  O2-  O297  1  0.95439901  0.43270546  0.76729024  1
  O2-  O298  1  0.04547377  0.56788877  0.73575271  1
  O2-  O299  1  0.53560362  0.55121053  0.49507358  1
  O2-  O300  1  0.94355708  0.91079337  0.97964969  1
  O2-  O301  1  0.54431063  0.43869872  0.51337918  1
  O2-  O302  1  0.05637010  0.41910626  0.29019271  1
  O2-  O303  1  0.05012467  0.09661404  0.51335282  1
  O2-  O304  1  0.45109147  0.09959946  0.51505777  1
  O2-  O305  1  0.45452887  0.76599025  0.26943541  1
  O2-  O306  1  0.96321698  0.88520776  0.49352183  1
  O2-  O307  1  0.04900238  0.90005131  0.51441957  1
  O2-  O308  1  0.04690903  0.90086190  0.01598171  1
  O2-  O309  1  0.45187290  0.24089972  0.98267673  1
  O2-  O310  1  0.95195729  0.24009929  0.48486975  1
  O2-  O311  1  0.04389320  0.43147174  0.98228641  1
  O2-  O312  1  0.04881034  0.75062474  0.04744509  1
  O2-  O313  1  0.03778751  0.55639267  0.50898751  1
  O2-  O314  1  0.95249453  0.43001940  0.51317156  1
  O2-  O315  1  0.04652250  0.23474081  0.26160539  1
  O2-  O316  1  0.54485753  0.56674723  0.26196637  1
  O2-  O317  1  0.54271375  0.23219543  0.03050084  1
  O2-  O318  1  0.45547309  0.56879920  0.98316327  1
  O2-  O319  1  0.54212375  0.11076793  0.99673456  1
  O2-  O320  1  0.44749620  0.56630493  0.48400035  1
  O2-  O321  1  0.45494357  0.76538166  0.23001845  1
  O2-  O322  1  0.45818865  0.56138902  0.00780639  1
  O2-  O323  1  0.95052971  0.57077227  0.48326285  1
  O2-  O324  1  0.93497491  0.59357725  0.02909901  1
  O2-  O325  1  0.56556137  0.92543556  0.77989655  1
  O2-  O326  1  0.07286607  0.61363177  0.53960506  1
  O2-  O327  1  0.06760885  0.39824885  0.03737823  1
  O2-  O328  1  0.06505585  0.92724539  0.72144582  1
  O2-  O329  1  0.42676579  0.93657292  0.79391893  1
  O2-  O330  1  0.42263691  0.05423753  0.04326734  1
  O2-  O331  1  0.43606724  0.73566087  0.78389976  1
  O2-  O332  1  0.05601458  0.76044117  0.03597498  1
  O2-  O333  1  0.56425729  0.07368291  0.72055637  1
  O2-  O334  1  0.56298843  0.59780419  0.03235899  1
  O2-  O335  1  0.92441040  0.93985869  0.46403870  1
  O2-  O336  1  0.43877108  0.59743453  0.46938988  1
  O2-  O337  1  0.43673225  0.40274095  0.21705711  1
  O2-  O338  1  0.93386931  0.59457389  0.78037341  1
  O2-  O339  1  0.06339694  0.59583061  0.28297983  1
  O2-  O340  1  0.06438849  0.40077200  0.71812170  1
  O2-  O341  1  0.05727213  0.74855164  0.27432865  1
  O2-  O342  1  0.94443575  0.91575497  0.97871148  1
  O2-  O343  1  0.56701514  0.39823276  0.53699113  1
  O2-  O344  1  0.06354203  0.93151266  0.28134904  1
  O2-  O345  1  0.93703314  0.73436897  0.46842584  1
  O2-  O346  1  0.56222313  0.26269634  0.28451340  1
  O2-  O347  1  0.56373213  0.26419001  0.78257700  1
  O2-  O348  1  0.92352703  0.06078977  0.45568991  1
  O2-  O349  1  0.56382575  0.73558804  0.21732984  1
  O2-  O350  1  0.43042101  0.60486389  0.03943000  1
  O2-  O351  1  0.93457442  0.07247048  0.02939659  1
  O2-  O352  1  0.06382719  0.07537496  0.97123629  1
  O2-  O353  1  0.56805419  0.27268270  0.95524701  1
  O2-  O354  1  0.93592962  0.93130939  0.71598629  1
  O2-  O355  1  0.56455119  0.26328542  0.46744574  1
  O2-  O356  1  0.93430960  0.92815390  0.27721517  1
  O2-  O357  1  0.06368254  0.26214958  0.47000552  1
  O2-  O358  1  0.43673924  0.40241055  0.71670073  1
  O2-  O359  1  0.06529996  0.26025602  0.96984957  1
  O2-  O360  1  0.43522111  0.92664667  0.47109894  1
  O2-  O361  1  0.06999385  0.39325748  0.18178073  1
  O2-  O362  1  0.43706972  0.26599050  0.46783887  1
  O2-  O363  1  0.07363625  0.73084379  0.93944227  1
  O2-  O364  1  0.57675919  0.61340968  0.46349335  1
  O2-  O365  1  0.56486606  0.73955066  0.72181097  1
  O2-  O366  1  0.57746787  0.05484179  0.96389269  1
  O2-  O367  1  0.93467711  0.26225651  0.72295637  1
  O2-  O368  1  0.04931477  0.42835662  0.28452309  1
  O2-  O369  1  0.43551921  0.07432341  0.52887173  1
  O2-  O370  1  0.43638290  0.59743659  0.21765888  1
  O2-  O371  1  0.57254565  0.06233648  0.54419633  1
  O2-  O372  1  0.25016429  0.33211712  0.91998323  1
  O2-  O373  1  0.25006067  0.33308847  0.35182063  1
  O2-  O374  1  0.25009390  0.33304848  0.09888388  1
  O2-  O375  1  0.75020863  0.00465432  0.65198196  1
  O2-  O376  1  0.75000938  0.68175893  0.90907896  1
  O2-  O377  1  0.74990911  0.34497069  0.81926589  1
  O2-  O378  1  0.24976522  0.66660572  0.15299833  1
  O2-  O379  1  0.74984557  0.00204591  0.15514415  1
  O2-  O380  1  0.25003625  0.33144285  0.65947916  1
  O2-  O381  1  0.25008489  0.33464477  0.82900890  1
  O2-  O382  1  0.74978302  0.00307698  0.34271787  1
  O2-  O383  1  0.74999679  0.33216205  0.42035047  1
  O2-  O384  1  0.24984589  -0.00433163  0.14610113  1
  O2-  O385  1  0.75007910  0.32830479  0.90351756  1
  O2-  O386  1  0.25001887  0.00110440  0.89817407  1
  O2-  O387  1  0.25000169  -0.00339576  0.35033973  1
  O2-  O388  1  0.75011967  0.67119711  0.34224520  1
  O2-  O389  1  0.25010551  0.66595985  0.59294091  1
  O2-  O390  1  0.75004675  0.66930474  0.82286697  1
  O2-  O391  1  0.74996863  0.66781989  0.59159731  1
  O2-  O392  1  0.25017978  0.00011153  0.65727906  1
  O2-  O393  1  0.74990052  0.67152028  0.10307243  1
  O2-  O394  1  0.74974271  0.33296666  0.11030648  1
  O2-  O395  1  0.75005642  0.33442062  0.32888588  1
  O2-  O396  1  0.24998282  0.50210720  0.88539036  1
  O2-  O397  1  0.74996754  0.82829482  0.16406882  1
  O2-  O398  1  0.25002279  0.49088962  0.13822243  1
  O2-  O399  1  0.74992601  0.82921020  0.58453327  1
  O2-  O400  1  0.74992620  0.49623850  0.81857616  1
  O2-  O401  1  0.74997043  0.50008904  0.90577600  1
  O2-  O402  1  0.24998746  0.83656250  0.39395530  1
  O2-  O403  1  0.25005511  0.16625219  0.09657755  1
  O2-  O404  1  0.74985705  0.16929663  0.14221878  1
  O2-  O405  1  0.24997766  0.16700746  0.85989890  1
  O2-  O406  1  0.25002066  0.83156722  0.13347454  1
  O2-  O407  1  0.74997805  0.17367002  0.82520451  1
  O2-  O408  1  0.75002750  0.49996017  0.34176728  1
  O2-  O409  1  0.24998494  0.49607070  0.37488364  1
  O2-  O410  1  0.24999952  0.16593678  0.65985409  1
  O2-  O411  1  0.24994972  0.16645720  0.17657202  1
  O2-  O412  1  0.75005398  0.16183740  0.40724326  1
  O2-  O413  1  0.25007550  0.83209036  0.84108125  1
  O2-  O414  1  0.25004705  0.50270153  0.58767936  1
  O2-  O415  1  0.74995095  0.16667623  0.31936121  1
  O2-  O416  1  0.25000358  0.83440005  0.66231310  1
  O2-  O417  1  0.74996743  0.49552397  0.68019854  1
  O2-  O418  1  0.74959955  0.16780040  0.90361449  1
  O2-  O419  1  0.75002089  0.50007531  0.59615414  1
  O2-  O420  1  0.02576472  0.00259565  0.62435703  1
  O2-  O421  1  0.97240982  0.66739537  0.62620013  1
  O2-  O422  1  0.46891854  -0.00170768  0.62815144  1
  O2-  O423  1  0.46826983  -0.00481325  0.13245008  1
  O2-  O424  1  0.97416303  -0.00308263  0.12746825  1
  O2-  O425  1  0.53412103  -0.00086011  0.12464418  1
  O2-  O426  1  0.53618570  0.66338465  0.62002768  1
  O2-  O427  1  0.52813196  -0.00780793  0.62653293  1
  O2-  O428  1  0.97007284  0.66764060  0.87955502  1
  O2-  O429  1  0.46177836  0.66726586  0.62432935  1
  O2-  O430  1  0.02267998  0.33043340  0.37542876  1
  O2-  O431  1  0.03088657  -0.00243270  0.86946817  1
  O2-  O432  1  0.97119341  0.33334427  0.12430058  1
  O2-  O433  1  0.97404587  0.33432538  0.62219003  1
  O2-  O434  1  0.52549004  0.67313075  0.37322123  1
  O2-  O435  1  0.97350616  0.66940095  0.12827849  1
  O2-  O436  1  0.02601153  0.33488236  0.87113723  1
  O2-  O437  1  0.97876027  0.00419608  0.37192080  1
  O2-  O438  1  0.52791296  -0.00135796  0.87319648  1
  O2-  O439  1  0.47054656  0.00461913  0.87784940  1
  O2-  O440  1  0.53761609  -0.00281884  0.37572746  1
  O2-  O441  1  0.46426023  0.00283866  0.37017775  1
  O2-  O442  1  0.96893790  0.00335983  0.87184975  1
  O2-  O443  1  0.02860976  0.66071917  0.86987415  1
