# generated using pymatgen
data_La7(Ru4O11)2
_symmetry_space_group_name_H-M   'P 1'
_cell_length_a   23.99173943
_cell_length_b   16.83182337
_cell_length_c   15.42804410
_cell_angle_alpha   90.00120262
_cell_angle_beta   89.99903224
_cell_angle_gamma   90.00141019
_symmetry_Int_Tables_number   1
_chemical_formula_structural   La7(Ru4O11)2
_chemical_formula_sum   'La84 Ru96 O264'
_cell_volume   6230.22558813
_cell_formula_units_Z   12
loop_
 _symmetry_equiv_pos_site_id
 _symmetry_equiv_pos_as_xyz
  1  'x, y, z'
loop_
 _atom_type_symbol
 _atom_type_oxidation_number
  La3+  3.0
  Ru4+  4.0
  O2-  -2.0
loop_
 _atom_site_type_symbol
 _atom_site_label
 _atom_site_symmetry_multiplicity
 _atom_site_fract_x
 _atom_site_fract_y
 _atom_site_fract_z
 _atom_site_occupancy
  La3+  La0  1  0.14462200  -0.00776523  0.12594950  1
  La3+  La1  1  0.13440681  -0.00170443  0.37685160  1
  La3+  La2  1  0.14133174  -0.00153226  0.62736643  1
  La3+  La3  1  0.13833819  -0.00570684  0.87743013  1
  La3+  La4  1  0.13566512  0.33425562  0.12466296  1
  La3+  La5  1  0.13975718  0.33723681  0.37954160  1
  La3+  La6  1  0.14055649  0.33824984  0.62433989  1
  La3+  La7  1  0.14068570  0.33702484  0.87057055  1
  La3+  La8  1  0.14384891  0.66647841  0.12549568  1
  La3+  La9  1  0.13993184  0.66173216  0.38438138  1
  La3+  La10  1  0.13251601  0.65587956  0.61814814  1
  La3+  La11  1  0.13869386  0.67340733  0.86892386  1
  La3+  La12  1  0.63846391  -0.00110141  0.12655684  1
  La3+  La13  1  0.63192487  -0.00135074  0.38145219  1
  La3+  La14  1  0.64357426  0.00130695  0.62163010  1
  La3+  La15  1  0.63495726  0.00375788  0.87317570  1
  La3+  La16  1  0.63892593  0.33587086  0.12664801  1
  La3+  La17  1  0.64366253  0.33493066  0.37393470  1
  La3+  La18  1  0.63879248  0.33252007  0.62158170  1
  La3+  La19  1  0.64007203  0.33331797  0.87444231  1
  La3+  La20  1  0.64840301  0.66571314  0.12411173  1
  La3+  La21  1  0.63691833  0.66302763  0.37324140  1
  La3+  La22  1  0.63828452  0.66243260  0.62382359  1
  La3+  La23  1  0.64006204  0.66124160  0.87753381  1
  La3+  La24  1  0.36252740  -0.00065097  0.12364648  1
  La3+  La25  1  0.36321348  -0.00771769  0.37379303  1
  La3+  La26  1  0.36251145  0.00158709  0.62321985  1
  La3+  La27  1  0.35978794  -0.00153941  0.87592076  1
  La3+  La28  1  0.36919157  0.33567758  0.12357491  1
  La3+  La29  1  0.35909086  0.33499494  0.38304114  1
  La3+  La30  1  0.35397894  0.33225700  0.63531130  1
  La3+  La31  1  0.35985410  0.34007190  0.87449377  1
  La3+  La32  1  0.36050739  0.67608274  0.12599891  1
  La3+  La33  1  0.36052828  0.66593006  0.37367248  1
  La3+  La34  1  0.35532995  0.66348150  0.63134350  1
  La3+  La35  1  0.36271408  0.67286494  0.87732615  1
  La3+  La36  1  0.87001137  -0.00380052  0.12446975  1
  La3+  La37  1  0.86791235  -0.00086718  0.37432163  1
  La3+  La38  1  0.85585257  0.00551074  0.62226078  1
  La3+  La39  1  0.86436622  0.00307475  0.87623004  1
  La3+  La40  1  0.86468752  0.33432364  0.12315944  1
  La3+  La41  1  0.85829708  0.33504262  0.37335454  1
  La3+  La42  1  0.86118598  0.32932857  0.62260692  1
  La3+  La43  1  0.85759043  0.33614022  0.87426507  1
  La3+  La44  1  0.86319975  0.66243913  0.11726377  1
  La3+  La45  1  0.86083284  0.66235467  0.37549664  1
  La3+  La46  1  0.85834676  0.66314971  0.62523841  1
  La3+  La47  1  0.86216985  0.66082673  0.88232590  1
  La3+  La48  1  0.00237425  0.51000000  0.60561231  1
  La3+  La49  1  0.49483295  0.49339646  0.86182172  1
  La3+  La50  1  0.00255382  0.49968902  0.86994697  1
  La3+  La51  1  0.50126030  0.82865626  0.87947804  1
  La3+  La52  1  0.49919253  0.82972641  0.14127906  1
  La3+  La53  1  0.49305593  0.16967646  0.36662329  1
  La3+  La54  1  0.49909198  0.16233920  0.10751980  1
  La3+  La55  1  0.49704730  0.50670256  0.62172899  1
  La3+  La56  1  0.00261786  0.15779186  0.13001267  1
  La3+  La57  1  0.49925443  0.16616908  0.12977348  1
  La3+  La58  1  0.00085140  0.16809987  0.63385433  1
  La3+  La59  1  0.00055947  0.49215197  0.89038076  1
  La3+  La60  1  0.49686572  0.83256765  0.62641030  1
  La3+  La61  1  0.00285377  0.83869646  0.86971081  1
  La3+  La62  1  0.50639838  0.17054669  0.62226201  1
  La3+  La63  1  -0.00116351  0.16901390  0.36633847  1
  La3+  La64  1  0.49305817  0.83085707  0.12087993  1
  La3+  La65  1  -0.00247703  0.83654678  0.38459608  1
  La3+  La66  1  0.00242463  0.83194483  0.12699662  1
  La3+  La67  1  0.50469051  0.50595816  0.10627954  1
  La3+  La68  1  -0.00459736  0.48938081  0.11843644  1
  La3+  La69  1  0.50478234  0.50627244  0.12316445  1
  La3+  La70  1  0.00601618  0.50240170  0.61981778  1
  La3+  La71  1  0.00282087  0.82742235  0.63483395  1
  La3+  La72  1  0.24993715  0.12556962  0.30522827  1
  La3+  La73  1  0.25020766  0.87238239  0.47941941  1
  La3+  La74  1  0.24995792  0.15978281  0.73382865  1
  La3+  La75  1  0.74982973  0.84963507  0.72282716  1
  La3+  La76  1  0.24997535  0.17259286  -0.07297938  1
  La3+  La77  1  0.75063568  0.17878648  0.32279860  1
  La3+  La78  1  0.75033690  0.87320230  0.49724458  1
  La3+  La79  1  0.74943275  0.23202763  -0.00786317  1
  La3+  La80  1  0.75044292  0.77742144  -0.00981155  1
  La3+  La81  1  0.25002137  0.83363827  0.76383350  1
  La3+  La82  1  0.25126736  0.54856081  0.20999346  1
  La3+  La83  1  0.25061777  0.79395359  0.28148478  1
  Ru4+  Ru84  1  -0.00629528  0.00445028  0.00331899  1
  Ru4+  Ru85  1  0.00091867  0.00967162  0.25478896  1
  Ru4+  Ru86  1  -0.00023537  0.00338803  0.50103543  1
  Ru4+  Ru87  1  -0.00080361  0.00536612  0.74443413  1
  Ru4+  Ru88  1  -0.00693129  0.32156242  -0.00150447  1
  Ru4+  Ru89  1  -0.00234542  0.33473182  0.25590526  1
  Ru4+  Ru90  1  0.00011324  0.33512637  0.48706503  1
  Ru4+  Ru91  1  0.00113333  0.32916816  0.74390114  1
  Ru4+  Ru92  1  0.00916827  0.67016782  0.01147336  1
  Ru4+  Ru93  1  0.00605138  0.65828375  0.24950898  1
  Ru4+  Ru94  1  0.00067171  0.66576656  0.49469189  1
  Ru4+  Ru95  1  -0.00144842  0.66174738  0.75063528  1
  Ru4+  Ru96  1  0.50605187  -0.00188757  -0.00378049  1
  Ru4+  Ru97  1  0.50017295  -0.00040325  0.24339858  1
  Ru4+  Ru98  1  0.49599202  0.00174446  0.51437548  1
  Ru4+  Ru99  1  0.49801829  0.00274219  0.75246866  1
  Ru4+  Ru100  1  0.50307873  0.32958303  0.00238453  1
  Ru4+  Ru101  1  0.49878759  0.33730251  0.24749930  1
  Ru4+  Ru102  1  0.48907175  0.34521396  0.50431842  1
  Ru4+  Ru103  1  0.50369273  0.33595925  0.74616837  1
  Ru4+  Ru104  1  0.50434895  0.65868034  -0.00463209  1
  Ru4+  Ru105  1  0.50820515  0.66725132  0.25548037  1
  Ru4+  Ru106  1  0.50256359  0.66876529  0.49842160  1
  Ru4+  Ru107  1  0.50032592  0.66660864  0.75054598  1
  Ru4+  Ru108  1  0.11080426  0.16638160  -0.00063119  1
  Ru4+  Ru109  1  0.10913515  0.16275703  0.25137517  1
  Ru4+  Ru110  1  0.11063448  0.16380522  0.49959351  1
  Ru4+  Ru111  1  0.11009123  0.16766035  0.74579618  1
  Ru4+  Ru112  1  0.11286349  0.50129509  -0.00218844  1
  Ru4+  Ru113  1  0.10532977  0.50785495  0.25583943  1
  Ru4+  Ru114  1  0.11619089  0.49927492  0.49970220  1
  Ru4+  Ru115  1  0.11592936  0.49834371  0.74726811  1
  Ru4+  Ru116  1  0.11747371  0.83261541  -0.00148226  1
  Ru4+  Ru117  1  0.11015205  0.82839369  0.24817286  1
  Ru4+  Ru118  1  0.10939785  0.83323359  0.49753626  1
  Ru4+  Ru119  1  0.11520405  0.83824009  0.75126582  1
  Ru4+  Ru120  1  0.61169427  0.16477802  -0.00082443  1
  Ru4+  Ru121  1  0.61025748  0.16485685  0.25114724  1
  Ru4+  Ru122  1  0.61561476  0.16263201  0.49983763  1
  Ru4+  Ru123  1  0.61531711  0.16733567  0.75286580  1
  Ru4+  Ru124  1  0.61362534  0.50542402  -0.00064149  1
  Ru4+  Ru125  1  0.61445250  0.49851227  0.25268416  1
  Ru4+  Ru126  1  0.61238099  0.50304508  0.49644369  1
  Ru4+  Ru127  1  0.61319696  0.50199865  0.75004865  1
  Ru4+  Ru128  1  0.61212207  0.83792014  -0.00243320  1
  Ru4+  Ru129  1  0.61046183  0.82825409  0.25315122  1
  Ru4+  Ru130  1  0.61199305  0.82610694  0.49711886  1
  Ru4+  Ru131  1  0.60969947  0.83628565  0.75210734  1
  Ru4+  Ru132  1  0.38474142  0.17230092  -0.00294128  1
  Ru4+  Ru133  1  0.38594420  0.16597410  0.25284131  1
  Ru4+  Ru134  1  0.39039030  0.15925679  0.49628242  1
  Ru4+  Ru135  1  0.39037236  0.16506965  0.75268358  1
  Ru4+  Ru136  1  0.38225865  0.50919032  -0.00076563  1
  Ru4+  Ru137  1  0.38973097  0.49701688  0.25536499  1
  Ru4+  Ru138  1  0.38647800  0.48816892  0.50097053  1
  Ru4+  Ru139  1  0.38420194  0.50071929  0.74993324  1
  Ru4+  Ru140  1  0.38108588  0.83400069  -0.00545340  1
  Ru4+  Ru141  1  0.38579793  0.83796706  0.25498413  1
  Ru4+  Ru142  1  0.39268775  0.83332238  0.49733535  1
  Ru4+  Ru143  1  0.38845437  0.83171898  0.74791247  1
  Ru4+  Ru144  1  0.89052317  0.16839413  -0.00678470  1
  Ru4+  Ru145  1  0.89171788  0.16655400  0.25308009  1
  Ru4+  Ru146  1  0.88460119  0.16684608  0.50063239  1
  Ru4+  Ru147  1  0.88694020  0.16403794  0.74708095  1
  Ru4+  Ru148  1  0.88220911  0.49616373  0.00283026  1
  Ru4+  Ru149  1  0.88565168  0.49530504  0.25047851  1
  Ru4+  Ru150  1  0.88766295  0.50452297  0.49945437  1
  Ru4+  Ru151  1  0.88417436  0.49848635  0.75015225  1
  Ru4+  Ru152  1  0.88711259  0.84091219  -0.00133825  1
  Ru4+  Ru153  1  0.88366355  0.82573005  0.25216941  1
  Ru4+  Ru154  1  0.89094284  0.82913210  0.50043145  1
  Ru4+  Ru155  1  0.88929437  0.83038789  0.74658390  1
  Ru4+  Ru156  1  0.75021218  0.24841121  0.72951931  1
  Ru4+  Ru157  1  0.75016661  0.06999357  -0.00979477  1
  Ru4+  Ru158  1  0.24965884  0.24117154  0.50044095  1
  Ru4+  Ru159  1  0.75052450  0.58433234  0.24402005  1
  Ru4+  Ru160  1  0.24937037  0.28415970  0.02656235  1
  Ru4+  Ru161  1  0.24907735  0.57415534  -0.00636019  1
  Ru4+  Ru162  1  0.24966395  0.08793613  0.50301762  1
  Ru4+  Ru163  1  0.74850916  0.40648844  0.75731755  1
  Ru4+  Ru164  1  0.74945457  0.97912559  0.78035536  1
  Ru4+  Ru165  1  0.74971051  0.71388620  0.75602537  1
  Ru4+  Ru166  1  0.24940085  0.26161971  0.23406567  1
  Ru4+  Ru167  1  0.25065169  0.05633139  0.01513230  1
  Ru4+  Ru168  1  0.25013381  0.72512871  0.52745356  1
  Ru4+  Ru169  1  0.24921445  0.94136396  0.23960550  1
  Ru4+  Ru170  1  0.24878044  0.40865845  0.24286787  1
  Ru4+  Ru171  1  0.74877049  0.43183482  0.00032503  1
  Ru4+  Ru172  1  0.75002330  0.05073813  0.24612254  1
  Ru4+  Ru173  1  0.75015218  0.42159535  0.49842664  1
  Ru4+  Ru174  1  0.75053661  0.29383709  0.22007732  1
  Ru4+  Ru175  1  0.75049272  0.73682259  0.25087529  1
  Ru4+  Ru176  1  0.74973523  0.72823169  0.48681667  1
  Ru4+  Ru177  1  0.25004971  0.43413517  -0.01825341  1
  Ru4+  Ru178  1  0.74919618  0.93084323  -0.00078061  1
  Ru4+  Ru179  1  0.75039416  0.91240121  0.27191489  1
  O2-  O180  1  0.17004141  0.08116109  -0.00412513  1
  O2-  O181  1  0.16508291  0.08044290  0.25258346  1
  O2-  O182  1  0.16530597  0.08140330  0.49760745  1
  O2-  O183  1  0.16582285  0.08139547  0.74789346  1
  O2-  O184  1  0.16960029  0.41475262  0.00041823  1
  O2-  O185  1  0.16248719  0.41606715  0.24848568  1
  O2-  O186  1  0.16514896  0.41465582  0.50312606  1
  O2-  O187  1  0.16692709  0.41217955  0.74806621  1
  O2-  O188  1  0.16292386  0.74602320  -0.00180153  1
  O2-  O189  1  0.16533806  0.74851284  0.25121315  1
  O2-  O190  1  0.16469758  0.74782665  0.50637853  1
  O2-  O191  1  0.16547034  0.74870242  0.74989755  1
  O2-  O192  1  0.66769242  0.07942696  -0.00134425  1
  O2-  O193  1  0.66620327  0.07654119  0.25389486  1
  O2-  O194  1  0.66592567  0.08213075  0.49448917  1
  O2-  O195  1  0.66644620  0.08160847  0.75088694  1
  O2-  O196  1  0.66518564  0.41527481  -0.00149272  1
  O2-  O197  1  0.66712695  0.41723239  0.24969881  1
  O2-  O198  1  0.66915255  0.41590429  0.50566254  1
  O2-  O199  1  0.66866445  0.41272701  0.74988968  1
  O2-  O200  1  0.65848857  0.74385206  -0.00262961  1
  O2-  O201  1  0.66714016  0.74714508  0.25539845  1
  O2-  O202  1  0.66745181  0.74690845  0.49871433  1
  O2-  O203  1  0.66582171  0.74300687  0.74977607  1
  O2-  O204  1  0.33107279  0.25490033  0.00047396  1
  O2-  O205  1  0.33214480  0.25345268  0.25026703  1
  O2-  O206  1  0.33441196  0.24710173  0.50235161  1
  O2-  O207  1  0.32725741  0.24822964  0.75531310  1
  O2-  O208  1  0.32929697  0.58849226  -0.00153774  1
  O2-  O209  1  0.34035855  0.58657592  0.25209800  1
  O2-  O210  1  0.34118480  0.58290565  0.49985414  1
  O2-  O211  1  0.33420771  0.58535722  0.75511209  1
  O2-  O212  1  0.33630162  0.92047999  0.00014107  1
  O2-  O213  1  0.32892321  0.91958487  0.24804466  1
  O2-  O214  1  0.33655810  0.92118500  0.50138600  1
  O2-  O215  1  0.33655309  0.91932402  0.74848783  1
  O2-  O216  1  0.83929374  0.25605212  0.00102922  1
  O2-  O217  1  0.83409551  0.25582841  0.24878727  1
  O2-  O218  1  0.83848715  0.25409419  0.50149154  1
  O2-  O219  1  0.83397312  0.25434013  0.74651657  1
  O2-  O220  1  0.83639104  0.58563515  -0.00103647  1
  O2-  O221  1  0.83459830  0.58675335  0.24797293  1
  O2-  O222  1  0.83569117  0.58471900  0.49930631  1
  O2-  O223  1  0.83617929  0.58447576  0.74927370  1
  O2-  O224  1  0.83167734  0.92075628  -0.00190083  1
  O2-  O225  1  0.83279270  0.91886163  0.25400509  1
  O2-  O226  1  0.83728919  0.92281529  0.49628294  1
  O2-  O227  1  0.83545419  0.92314039  0.75199191  1
  O2-  O228  1  0.16472894  0.25254654  0.00023988  1
  O2-  O229  1  0.16549029  0.25383894  0.24956654  1
  O2-  O230  1  0.16596766  0.25071765  0.50199393  1
  O2-  O231  1  0.16913145  0.25344090  0.74984878  1
  O2-  O232  1  0.16775192  0.58475302  -0.00311553  1
  O2-  O233  1  0.16632590  0.58695660  0.24846566  1
  O2-  O234  1  0.17008146  0.58153337  0.50425353  1
  O2-  O235  1  0.16183131  0.58788196  0.75163324  1
  O2-  O236  1  0.16453405  0.91745205  -0.00067312  1
  O2-  O237  1  0.16574934  0.91826186  0.25601461  1
  O2-  O238  1  0.16453392  0.92309646  0.49928477  1
  O2-  O239  1  0.16852555  0.91978533  0.74567671  1
  O2-  O240  1  0.65880322  0.25686124  -0.00028446  1
  O2-  O241  1  0.66826385  0.25617041  0.24857500  1
  O2-  O242  1  0.66132289  0.25242905  0.50147444  1
  O2-  O243  1  0.66729587  0.25258593  0.74718964  1
  O2-  O244  1  0.66607246  0.58293990  -0.00487424  1
  O2-  O245  1  0.66823664  0.58551405  0.25108948  1
  O2-  O246  1  0.66413136  0.58502677  0.49964413  1
  O2-  O247  1  0.66304915  0.58433734  0.74936350  1
  O2-  O248  1  0.66652300  0.92068860  -0.00076325  1
  O2-  O249  1  0.66759299  0.91681349  0.25532535  1
  O2-  O250  1  0.66436744  0.91837726  0.49431816  1
  O2-  O251  1  0.66561226  0.92087257  0.75150710  1
  O2-  O252  1  0.33366627  0.07904074  -0.00267915  1
  O2-  O253  1  0.33075260  0.07863410  0.25103128  1
  O2-  O254  1  0.32975597  0.08195358  0.49893588  1
  O2-  O255  1  0.33394443  0.08325964  0.74821753  1
  O2-  O256  1  0.33154624  0.41618555  0.00041602  1
  O2-  O257  1  0.33002596  0.41383215  0.24456596  1
  O2-  O258  1  0.32806536  0.42077339  0.49859265  1
  O2-  O259  1  0.33177887  0.41523271  0.75401880  1
  O2-  O260  1  0.33414510  0.74687489  -0.00019639  1
  O2-  O261  1  0.33676882  0.74654847  0.25057832  1
  O2-  O262  1  0.33391864  0.74712248  0.50033400  1
  O2-  O263  1  0.33225738  0.74715922  0.75507139  1
  O2-  O264  1  0.83358583  0.07994487  -0.00184275  1
  O2-  O265  1  0.83406868  0.07578080  0.25175781  1
  O2-  O266  1  0.83912499  0.07944192  0.49695910  1
  O2-  O267  1  0.83782392  0.08063034  0.75207096  1
  O2-  O268  1  0.83017818  0.41345160  0.00046037  1
  O2-  O269  1  0.83139235  0.41718179  0.24990189  1
  O2-  O270  1  0.83346070  0.41373102  0.50297307  1
  O2-  O271  1  0.82810184  0.41468116  0.74634582  1
  O2-  O272  1  0.84263696  0.74405717  -0.00164215  1
  O2-  O273  1  0.83297333  0.74577274  0.24996466  1
  O2-  O274  1  0.83366910  0.74747866  0.49946485  1
  O2-  O275  1  0.83233200  0.74506690  0.75232038  1
  O2-  O276  1  0.44518582  0.75724069  0.23517499  1
  O2-  O277  1  0.44726835  0.90965244  0.48817822  1
  O2-  O278  1  0.44859578  0.76125330  0.98665643  1
  O2-  O279  1  0.02909923  0.11188396  -0.00903970  1
  O2-  O280  1  0.46639003  0.22234050  0.76034166  1
  O2-  O281  1  0.04799472  0.57280598  0.52599352  1
  O2-  O282  1  0.55604481  0.43030803  0.54456918  1
  O2-  O283  1  0.95112643  0.90556677  0.26894225  1
  O2-  O284  1  0.44924511  0.43212840  0.01833667  1
  O2-  O285  1  0.95485203  0.90189658  0.73708006  1
  O2-  O286  1  0.95565529  0.75998378  0.01483771  1
  O2-  O287  1  0.54723324  0.91277138  0.51824368  1
  O2-  O288  1  0.95341051  0.56790732  0.75237445  1
  O2-  O289  1  0.95194981  0.76707290  0.97653221  1
  O2-  O290  1  0.55237188  0.90356288  0.48145789  1
  O2-  O291  1  0.44957770  0.75290222  0.48816511  1
  O2-  O292  1  0.04904576  0.76573273  0.76384544  1
  O2-  O293  1  0.46249891  0.45133920  0.22259544  1
  O2-  O294  1  0.54658177  0.76538817  0.00954717  1
  O2-  O295  1  0.95318684  0.56862912  0.01182757  1
  O2-  O296  1  0.04940393  0.90080203  0.98653436  1
  O2-  O297  1  0.44688511  0.09970028  0.98463352  1
  O2-  O298  1  0.44736717  0.09261265  0.54756894  1
  O2-  O299  1  0.03967937  0.79025004  0.27940984  1
  O2-  O300  1  0.94251719  0.23612417  0.04636755  1
  O2-  O301  1  0.54053499  0.78347832  0.30115358  1
  O2-  O302  1  0.04373606  0.23291938  0.24456288  1
  O2-  O303  1  0.53577232  0.55324388  0.96273431  1
  O2-  O304  1  0.04719014  0.57299013  0.19910086  1
  O2-  O305  1  0.44913247  0.43203834  0.97917359  1
  O2-  O306  1  0.45135723  0.09271127  0.74034973  1
  O2-  O307  1  0.45594807  0.23633945  0.50441970  1
  O2-  O308  1  0.04176222  0.22754716  0.49198807  1
  O2-  O309  1  0.95277270  0.43325255  0.51047057  1
  O2-  O310  1  0.55232867  0.75943456  0.51556543  1
  O2-  O311  1  0.46307158  0.45214682  0.46796600  1
  O2-  O312  1  0.46444826  0.46030936  0.48617823  1
  O2-  O313  1  0.04831986  0.55944016  0.50166182  1
  O2-  O314  1  0.54547132  0.57662414  0.48508447  1
  O2-  O315  1  0.94951293  0.90026474  0.23013735  1
  O2-  O316  1  0.54467001  0.12532064  0.45903186  1
  O2-  O317  1  0.04127195  0.11226511  0.95701992  1
  O2-  O318  1  0.94900070  0.91210115  0.01715284  1
  O2-  O319  1  0.95391859  0.90130172  0.49959931  1
  O2-  O320  1  0.45336322  0.90326481  0.98460155  1
  O2-  O321  1  0.54676620  0.76772950  0.74183107  1
  O2-  O322  1  0.95049799  0.57376167  0.97319628  1
  O2-  O323  1  0.55294228  0.42184029  0.01599609  1
  O2-  O324  1  0.56416741  0.08009631  0.79724510  1
  O2-  O325  1  0.43786390  0.08040320  0.22720568  1
  O2-  O326  1  0.43608702  0.25465041  0.22443238  1
  O2-  O327  1  0.41838043  0.08645795  0.40882950  1
  O2-  O328  1  0.07161180  0.72543576  0.18078176  1
  O2-  O329  1  0.43804850  0.41476009  0.72523633  1
  O2-  O330  1  0.57418714  0.40000705  0.45499937  1
  O2-  O331  1  0.06222257  0.40242563  0.78511982  1
  O2-  O332  1  0.57048264  0.61290891  0.06837100  1
  O2-  O333  1  0.43752549  0.25802322  0.02329734  1
  O2-  O334  1  0.41228311  0.37150125  0.54995603  1
  O2-  O335  1  0.43662031  0.06821557  0.97379170  1
  O2-  O336  1  0.93235573  0.07329369  0.02565447  1
  O2-  O337  1  0.93632389  0.40591000  0.78480049  1
  O2-  O338  1  0.56199539  0.59370033  0.28310603  1
  O2-  O339  1  0.06263900  0.92924891  0.46431577  1
  O2-  O340  1  0.93465529  0.40847889  0.02354595  1
  O2-  O341  1  0.94417729  0.91655358  0.02054623  1
  O2-  O342  1  0.43428373  0.92347723  0.27249126  1
  O2-  O343  1  0.93555985  0.73707034  0.71295737  1
  O2-  O344  1  0.94821656  0.23979651  0.04741770  1
  O2-  O345  1  0.07264584  0.59864895  0.48187961  1
  O2-  O346  1  0.56826820  0.05322776  0.56070385  1
  O2-  O347  1  0.05952301  0.92814720  0.96634998  1
  O2-  O348  1  0.06240018  0.93001717  0.78378154  1
  O2-  O349  1  0.06313659  0.40177873  0.54085324  1
  O2-  O350  1  0.43698910  0.73349875  0.96978022  1
  O2-  O351  1  0.56402065  0.26617963  0.78114456  1
  O2-  O352  1  0.56632420  0.07234788  0.69790029  1
  O2-  O353  1  0.41813174  0.39471052  0.30450119  1
  O2-  O354  1  0.56103532  0.25819448  0.21590735  1
  O2-  O355  1  0.93691131  0.27954031  0.90473868  1
  O2-  O356  1  0.93666871  0.41376649  0.22901648  1
  O2-  O357  1  0.56217627  0.25902812  0.03323090  1
  O2-  O358  1  0.43713371  0.74197279  0.71446259  1
  O2-  O359  1  0.07787288  0.04112704  0.06595571  1
  O2-  O360  1  0.56621954  0.92402070  0.22723661  1
  O2-  O361  1  0.56514640  0.07591623  0.97472392  1
  O2-  O362  1  0.43968205  0.58981997  0.71886932  1
  O2-  O363  1  0.57067564  0.72480854  0.18360286  1
  O2-  O364  1  0.06222202  0.40249717  0.96656185  1
  O2-  O365  1  0.07915145  0.58560154  0.32983077  1
  O2-  O366  1  0.05192912  0.57538459  0.19253665  1
  O2-  O367  1  0.56248388  0.40981113  0.21319616  1
  O2-  O368  1  0.44022308  0.08299156  0.55701411  1
  O2-  O369  1  0.43833464  0.73405126  0.20709637  1
  O2-  O370  1  0.42680169  0.27811086  0.79090942  1
  O2-  O371  1  0.06109072  0.73862025  0.78192257  1
  O2-  O372  1  0.75053737  0.63446522  0.84071798  1
  O2-  O373  1  0.25037157  -0.01458581  0.91526866  1
  O2-  O374  1  0.75014473  0.66366595  0.92645615  1
  O2-  O375  1  0.25012588  0.33410432  0.89938907  1
  O2-  O376  1  0.25112416  0.66345129  0.14358477  1
  O2-  O377  1  0.74861534  0.33928376  0.89623113  1
  O2-  O378  1  0.74936321  0.34009067  0.33394068  1
  O2-  O379  1  0.24994544  0.33110859  0.32796601  1
  O2-  O380  1  0.75185607  0.67006935  0.11637367  1
  O2-  O381  1  0.74952760  0.63848253  0.66443022  1
  O2-  O382  1  0.75063543  -0.00669368  0.13923652  1
  O2-  O383  1  0.25074991  0.66450531  0.32797727  1
  O2-  O384  1  0.25034240  -0.01032601  0.11651255  1
  O2-  O385  1  0.74988077  0.66348197  0.35087664  1
  O2-  O386  1  0.74988333  0.33330201  0.09858652  1
  O2-  O387  1  0.75004813  -0.01175968  0.57477842  1
  O2-  O388  1  0.25078030  0.66083903  0.42181114  1
  O2-  O389  1  0.24948194  0.00238503  0.59227943  1
  O2-  O390  1  0.75105006  0.01695834  0.66424140  1
  O2-  O391  1  0.75041354  0.65509601  0.56990431  1
  O2-  O392  1  0.25038833  0.67301693  0.63712319  1
  O2-  O393  1  0.25016589  0.01031092  0.82742632  1
  O2-  O394  1  0.74972882  0.32922525  0.42591552  1
  O2-  O395  1  0.25036313  0.33408325  0.44887988  1
  O2-  O396  1  0.74977251  0.83008170  0.18992817  1
  O2-  O397  1  0.24978909  0.83494501  0.06623752  1
  O2-  O398  1  0.25033527  0.82395550  0.60764745  1
  O2-  O399  1  0.24997923  0.49703292  0.43150587  1
  O2-  O400  1  0.75013969  0.14075189  0.89005181  1
  O2-  O401  1  0.74998697  0.85453180  0.86883603  1
  O2-  O402  1  0.24942934  0.16884819  0.59885029  1
  O2-  O403  1  0.75034651  0.18441970  0.61675241  1
  O2-  O404  1  0.75058687  0.15990279  0.79188604  1
  O2-  O405  1  0.75039182  0.13092402  0.08302933  1
  O2-  O406  1  0.24952281  0.50119295  0.87747738  1
  O2-  O407  1  0.24979328  0.82852597  0.89541892  1
  O2-  O408  1  0.24941769  0.49897431  0.65809433  1
  O2-  O409  1  0.75036232  0.16099200  0.44112027  1
  O2-  O410  1  0.74982616  0.18228700  0.18382598  1
  O2-  O411  1  0.75020736  0.50852021  0.41749241  1
  O2-  O412  1  0.75017169  0.49658593  0.33058490  1
  O2-  O413  1  0.74998488  0.85705159  0.09787208  1
  O2-  O414  1  0.25018286  0.49637839  0.34570745  1
  O2-  O415  1  0.24987038  0.16608152  0.16691764  1
  O2-  O416  1  0.25001487  0.16727959  0.07572589  1
  O2-  O417  1  0.74990531  0.49234279  0.90676401  1
  O2-  O418  1  0.24935263  0.84212449  0.15092108  1
  O2-  O419  1  0.74964188  0.49464790  0.09011769  1
  O2-  O420  1  0.47880351  0.33987592  0.12701169  1
  O2-  O421  1  0.52582797  0.65959916  0.62796233  1
  O2-  O422  1  0.97077645  0.32624501  0.62354641  1
  O2-  O423  1  0.96910540  0.33152106  0.14409125  1
  O2-  O424  1  0.47593255  -0.02364849  0.63717261  1
  O2-  O425  1  0.95108598  0.66601745  0.37828797  1
  O2-  O426  1  0.53174731  0.32126483  0.36655129  1
  O2-  O427  1  0.47921969  -0.00268864  0.36800623  1
  O2-  O428  1  0.47268541  0.31439454  0.38000469  1
  O2-  O429  1  0.97377768  0.01045053  0.37557053  1
  O2-  O430  1  0.04756906  0.33965473  0.12171121  1
  O2-  O431  1  0.53725846  0.00394007  0.36267580  1
  O2-  O432  1  0.97021006  0.66969732  0.13225839  1
  O2-  O433  1  0.03283409  0.69010271  0.38296227  1
  O2-  O434  1  0.45666687  -0.00773821  0.11462566  1
  O2-  O435  1  0.48496297  0.32327591  0.63049205  1
  O2-  O436  1  0.54395221  0.01355447  0.11804983  1
  O2-  O437  1  0.95390813  0.32355564  0.37581325  1
  O2-  O438  1  0.02686085  0.67465499  0.62540691  1
  O2-  O439  1  0.02759119  0.00077677  0.62185286  1
  O2-  O440  1  0.97893508  0.00635645  0.14077656  1
  O2-  O441  1  0.52879851  0.66762281  0.86697985  1
  O2-  O442  1  0.04575394  0.33958346  0.37205664  1
  O2-  O443  1  0.52180715  -0.02183115  0.87433691  1
