# generated using pymatgen
data_La7(Ru4O11)2
_symmetry_space_group_name_H-M   'P 1'
_cell_length_a   23.99089484
_cell_length_b   16.83163833
_cell_length_c   15.42817965
_cell_angle_alpha   89.99731326
_cell_angle_beta   90.00103478
_cell_angle_gamma   89.99976426
_symmetry_Int_Tables_number   1
_chemical_formula_structural   La7(Ru4O11)2
_chemical_formula_sum   'La84 Ru96 O264'
_cell_volume   6229.99251022
_cell_formula_units_Z   12
loop_
 _symmetry_equiv_pos_site_id
 _symmetry_equiv_pos_as_xyz
  1  'x, y, z'
loop_
 _atom_type_symbol
 _atom_type_oxidation_number
  La3+  3.0
  Ru4+  4.0
  O2-  -2.0
loop_
 _atom_site_type_symbol
 _atom_site_label
 _atom_site_symmetry_multiplicity
 _atom_site_fract_x
 _atom_site_fract_y
 _atom_site_fract_z
 _atom_site_occupancy
  La3+  La0  1  0.14602496  -0.00035028  0.12339317  1
  La3+  La1  1  0.14092508  -0.00272694  0.37205326  1
  La3+  La2  1  0.13747016  -0.00156032  0.62751930  1
  La3+  La3  1  0.14710633  -0.00000347  0.87554798  1
  La3+  La4  1  0.14348023  0.33466082  0.12372343  1
  La3+  La5  1  0.13766277  0.33264471  0.36996212  1
  La3+  La6  1  0.14114638  0.33296225  0.62899583  1
  La3+  La7  1  0.14739395  0.33152260  0.87222915  1
  La3+  La8  1  0.14332430  0.67184070  0.12356767  1
  La3+  La9  1  0.13356510  0.66820345  0.36921004  1
  La3+  La10  1  0.13923762  0.66879014  0.62679983  1
  La3+  La11  1  0.14231396  0.66930289  0.87573331  1
  La3+  La12  1  0.63616745  -0.00107523  0.12089681  1
  La3+  La13  1  0.63626934  0.00168838  0.37770866  1
  La3+  La14  1  0.63936976  0.00051242  0.61781251  1
  La3+  La15  1  0.63927200  -0.00479834  0.88088381  1
  La3+  La16  1  0.63681857  0.33716277  0.12326884  1
  La3+  La17  1  0.64271871  0.33331289  0.37277180  1
  La3+  La18  1  0.63740068  0.33303960  0.62574569  1
  La3+  La19  1  0.64075041  0.33573242  0.88301692  1
  La3+  La20  1  0.63804731  0.66395382  0.12188858  1
  La3+  La21  1  0.63717233  0.66639213  0.37561663  1
  La3+  La22  1  0.63887675  0.66320968  0.62686328  1
  La3+  La23  1  0.63366611  0.65984943  0.87553619  1
  La3+  La24  1  0.36347150  -0.01028205  0.13203710  1
  La3+  La25  1  0.36442771  -0.00755646  0.36350518  1
  La3+  La26  1  0.35882058  0.00259846  0.62887340  1
  La3+  La27  1  0.35631217  0.00014259  0.87586966  1
  La3+  La28  1  0.35491164  0.33169349  0.12633799  1
  La3+  La29  1  0.36404974  0.33384967  0.36961198  1
  La3+  La30  1  0.35893017  0.33373046  0.62976054  1
  La3+  La31  1  0.35386468  0.33223351  0.87131924  1
  La3+  La32  1  0.35971628  0.66989337  0.12487433  1
  La3+  La33  1  0.36202240  0.66736273  0.37185049  1
  La3+  La34  1  0.36121025  0.66446727  0.62889283  1
  La3+  La35  1  0.35918518  0.66769425  0.87367152  1
  La3+  La36  1  0.86172871  -0.00047641  0.12244867  1
  La3+  La37  1  0.86188710  -0.00264880  0.37933836  1
  La3+  La38  1  0.86170551  -0.00141655  0.61820629  1
  La3+  La39  1  0.86042560  -0.00259263  0.87771803  1
  La3+  La40  1  0.86349753  0.33579900  0.12284867  1
  La3+  La41  1  0.86070012  0.33513807  0.37412197  1
  La3+  La42  1  0.86104888  0.33407732  0.62289668  1
  La3+  La43  1  0.86436262  0.33246375  0.87870088  1
  La3+  La44  1  0.86281834  0.66665862  0.12562713  1
  La3+  La45  1  0.86237463  0.66660898  0.37577975  1
  La3+  La46  1  0.86717914  0.65946870  0.63240111  1
  La3+  La47  1  0.87155710  0.65586656  0.86291604  1
  La3+  La48  1  0.00291090  0.17260172  0.62418904  1
  La3+  La49  1  0.49792537  0.84009792  0.37476456  1
  La3+  La50  1  -0.00161231  0.16659215  0.38027053  1
  La3+  La51  1  0.49660159  0.50714994  0.62823223  1
  La3+  La52  1  0.49976521  0.50020605  0.38214048  1
  La3+  La53  1  -0.00526954  0.49775170  0.63578796  1
  La3+  La54  1  0.00144965  0.16535560  0.88304788  1
  La3+  La55  1  0.00174997  0.17005419  0.64055806  1
  La3+  La56  1  -0.00148800  0.50571069  0.13675503  1
  La3+  La57  1  0.49931297  0.17176568  0.12198704  1
  La3+  La58  1  0.50173370  0.84171798  0.87304595  1
  La3+  La59  1  0.49748519  0.84213091  0.13984578  1
  La3+  La60  1  0.49377593  0.16060398  0.62956157  1
  La3+  La61  1  -0.00351960  0.49349939  0.37342929  1
  La3+  La62  1  0.50282243  0.82994166  0.61433296  1
  La3+  La63  1  0.50429615  0.16018756  0.35776457  1
  La3+  La64  1  0.50229302  0.83778774  0.88990639  1
  La3+  La65  1  0.50613432  0.15710968  0.37467070  1
  La3+  La66  1  -0.00457718  0.82519494  0.12563012  1
  La3+  La67  1  0.50302607  0.49759343  0.86601307  1
  La3+  La68  1  0.50109048  0.50778194  0.88491282  1
  La3+  La69  1  -0.00093711  0.49928595  0.86839294  1
  La3+  La70  1  -0.00975070  0.50635900  0.61644024  1
  La3+  La71  1  0.49960304  0.83868478  0.63402997  1
  La3+  La72  1  0.24956364  0.78337812  0.47128829  1
  La3+  La73  1  0.25051913  0.49430400  0.45741851  1
  La3+  La74  1  0.75049843  0.22152450  0.22509679  1
  La3+  La75  1  0.75041046  0.81608215  0.75897960  1
  La3+  La76  1  0.74921331  0.82671759  0.24089389  1
  La3+  La77  1  0.24991845  0.45755679  0.03660609  1
  La3+  La78  1  0.75024822  0.12947817  -0.02382561  1
  La3+  La79  1  0.24979662  0.16107152  0.31093185  1
  La3+  La80  1  0.24936363  0.83563167  0.23355262  1
  La3+  La81  1  0.25020141  0.83374121  0.77993650  1
  La3+  La82  1  0.25057349  0.16292352  -0.01329060  1
  La3+  La83  1  0.75102016  0.18960777  0.70316372  1
  Ru4+  Ru84  1  -0.00461729  -0.00188841  0.00714678  1
  Ru4+  Ru85  1  -0.00038837  0.00480858  0.25082221  1
  Ru4+  Ru86  1  -0.00585239  -0.00180170  0.49693054  1
  Ru4+  Ru87  1  -0.00327706  -0.00264780  0.74356474  1
  Ru4+  Ru88  1  0.00454588  0.34014499  0.00002236  1
  Ru4+  Ru89  1  -0.00082722  0.32992673  0.25509622  1
  Ru4+  Ru90  1  -0.00234748  0.33275112  0.49601389  1
  Ru4+  Ru91  1  -0.00200344  0.33603456  0.75322953  1
  Ru4+  Ru92  1  -0.00013762  0.66399950  -0.00031443  1
  Ru4+  Ru93  1  0.00239976  0.66577699  0.25099547  1
  Ru4+  Ru94  1  0.00081353  0.67190333  0.49888058  1
  Ru4+  Ru95  1  -0.00385257  0.66413744  0.75025075  1
  Ru4+  Ru96  1  0.49387241  0.00452359  0.00222098  1
  Ru4+  Ru97  1  0.49747043  -0.00573935  0.24945069  1
  Ru4+  Ru98  1  0.50081663  0.00308084  0.50131020  1
  Ru4+  Ru99  1  0.49810654  0.00336436  0.74815232  1
  Ru4+  Ru100  1  0.50159183  0.33320230  -0.00148525  1
  Ru4+  Ru101  1  0.50041956  0.33476675  0.25120020  1
  Ru4+  Ru102  1  0.49789309  0.33493831  0.50254714  1
  Ru4+  Ru103  1  0.49882966  0.33217937  0.74897889  1
  Ru4+  Ru104  1  0.49703083  0.67273733  0.00606998  1
  Ru4+  Ru105  1  0.49679082  0.66938091  0.25269112  1
  Ru4+  Ru106  1  0.50297751  0.66357611  0.49598802  1
  Ru4+  Ru107  1  0.49933741  0.67603364  0.75316701  1
  Ru4+  Ru108  1  0.11184523  0.16738459  0.00054397  1
  Ru4+  Ru109  1  0.11206039  0.16373310  0.24722325  1
  Ru4+  Ru110  1  0.11241421  0.16798060  0.49921832  1
  Ru4+  Ru111  1  0.11685288  0.16636082  0.75108170  1
  Ru4+  Ru112  1  0.10708122  0.49493669  -0.00057210  1
  Ru4+  Ru113  1  0.11366199  0.50147309  0.24758089  1
  Ru4+  Ru114  1  0.11289566  0.49952192  0.49873982  1
  Ru4+  Ru115  1  0.11612498  0.49758176  0.75187755  1
  Ru4+  Ru116  1  0.11720663  0.83352928  -0.00172287  1
  Ru4+  Ru117  1  0.11130496  0.83027195  0.24883396  1
  Ru4+  Ru118  1  0.10998236  0.82642754  0.50211455  1
  Ru4+  Ru119  1  0.11193762  0.83394082  0.75274124  1
  Ru4+  Ru120  1  0.61156144  0.16624545  -0.00394505  1
  Ru4+  Ru121  1  0.61456436  0.17188826  0.24864524  1
  Ru4+  Ru122  1  0.61293854  0.16396085  0.49917149  1
  Ru4+  Ru123  1  0.61482648  0.16305967  0.75171131  1
  Ru4+  Ru124  1  0.61568818  0.49391494  0.00422514  1
  Ru4+  Ru125  1  0.61342705  0.49810614  0.24807060  1
  Ru4+  Ru126  1  0.61148934  0.50037633  0.49894518  1
  Ru4+  Ru127  1  0.61795525  0.49715237  0.74807492  1
  Ru4+  Ru128  1  0.61761296  0.83097314  0.00075804  1
  Ru4+  Ru129  1  0.60884981  0.83598939  0.25005032  1
  Ru4+  Ru130  1  0.61642992  0.83640913  0.49956178  1
  Ru4+  Ru131  1  0.61283305  0.83623804  0.75204529  1
  Ru4+  Ru132  1  0.38909212  0.16379947  0.00024583  1
  Ru4+  Ru133  1  0.38853897  0.16449725  0.25116332  1
  Ru4+  Ru134  1  0.38704150  0.16748104  0.50198381  1
  Ru4+  Ru135  1  0.38628496  0.16753730  0.75019460  1
  Ru4+  Ru136  1  0.38794356  0.50112956  0.00115712  1
  Ru4+  Ru137  1  0.38576413  0.49966605  0.24925677  1
  Ru4+  Ru138  1  0.39189205  0.50012379  0.49937887  1
  Ru4+  Ru139  1  0.38280647  0.49359651  0.74800293  1
  Ru4+  Ru140  1  0.38473486  0.83477432  0.00167174  1
  Ru4+  Ru141  1  0.38973062  0.83409386  0.25060166  1
  Ru4+  Ru142  1  0.38716901  0.83341655  0.49613486  1
  Ru4+  Ru143  1  0.38667428  0.83681071  0.75064462  1
  Ru4+  Ru144  1  0.88789734  0.16313763  -0.00104829  1
  Ru4+  Ru145  1  0.89159035  0.16687847  0.25065800  1
  Ru4+  Ru146  1  0.88540061  0.16394888  0.49884263  1
  Ru4+  Ru147  1  0.89051034  0.16670093  0.74988689  1
  Ru4+  Ru148  1  0.88745068  0.49903572  -0.00253074  1
  Ru4+  Ru149  1  0.88806691  0.49681033  0.24997054  1
  Ru4+  Ru150  1  0.88735040  0.50165592  0.50060690  1
  Ru4+  Ru151  1  0.88740207  0.50075713  0.75139760  1
  Ru4+  Ru152  1  0.88640859  0.83563972  -0.00018242  1
  Ru4+  Ru153  1  0.89073020  0.83228016  0.24848282  1
  Ru4+  Ru154  1  0.88693392  0.83689634  0.49787936  1
  Ru4+  Ru155  1  0.89221622  0.83486649  0.75198726  1
  Ru4+  Ru156  1  0.75020061  0.06748432  0.75156851  1
  Ru4+  Ru157  1  0.75060990  0.95388640  0.26789510  1
  Ru4+  Ru158  1  0.25065097  0.36709798  0.49400986  1
  Ru4+  Ru159  1  0.25016406  0.57577584  0.74054319  1
  Ru4+  Ru160  1  0.74996899  0.08125647  0.25705623  1
  Ru4+  Ru161  1  0.74996527  0.68343302  0.78411145  1
  Ru4+  Ru162  1  0.75029663  0.93970025  0.70998756  1
  Ru4+  Ru163  1  0.75067710  0.30670316  0.77278354  1
  Ru4+  Ru164  1  0.75017930  0.56820299  0.24816981  1
  Ru4+  Ru165  1  0.75033627  0.75881694  0.48904809  1
  Ru4+  Ru166  1  0.25009762  0.60012609  0.00027452  1
  Ru4+  Ru167  1  0.75029124  0.43231946  0.74765948  1
  Ru4+  Ru168  1  0.75031936  0.69664381  0.27383906  1
  Ru4+  Ru169  1  0.75003004  0.57755167  0.00698254  1
  Ru4+  Ru170  1  0.75006316  0.27406332  0.00509189  1
  Ru4+  Ru171  1  0.25001019  0.08911101  0.50730912  1
  Ru4+  Ru172  1  0.75030164  0.57382201  0.49510121  1
  Ru4+  Ru173  1  0.75034772  0.42503643  0.50057743  1
  Ru4+  Ru174  1  0.75059948  0.75810471  0.00183196  1
  Ru4+  Ru175  1  0.25009518  0.94018678  0.48756869  1
  Ru4+  Ru176  1  0.24990895  0.57973955  0.24750322  1
  Ru4+  Ru177  1  0.24988881  0.22978144  0.51550625  1
  Ru4+  Ru178  1  0.74961452  0.24993065  0.50077448  1
  Ru4+  Ru179  1  0.25051777  0.61683058  0.50229248  1
  O2-  O180  1  0.16760603  0.08193910  0.00226287  1
  O2-  O181  1  0.16799308  0.08308515  0.25264414  1
  O2-  O182  1  0.16595074  0.08177893  0.49854622  1
  O2-  O183  1  0.16477822  0.08115110  0.74823388  1
  O2-  O184  1  0.16575802  0.41255776  -0.00109313  1
  O2-  O185  1  0.16377795  0.41725793  0.25164597  1
  O2-  O186  1  0.16552639  0.41133045  0.49803919  1
  O2-  O187  1  0.16539419  0.41544024  0.74793505  1
  O2-  O188  1  0.16376927  0.74882889  -0.00244397  1
  O2-  O189  1  0.16862431  0.74640108  0.25180957  1
  O2-  O190  1  0.16157319  0.74526868  0.50190909  1
  O2-  O191  1  0.16292701  0.74893934  0.74943789  1
  O2-  O192  1  0.66372841  0.07945445  0.00541088  1
  O2-  O193  1  0.66579226  0.08061749  0.25049299  1
  O2-  O194  1  0.66325152  0.08152349  0.49828948  1
  O2-  O195  1  0.66561231  0.07874942  0.74989280  1
  O2-  O196  1  0.66901494  0.41556350  0.00080829  1
  O2-  O197  1  0.66550565  0.41577509  0.24871288  1
  O2-  O198  1  0.66759142  0.41557581  0.50353446  1
  O2-  O199  1  0.66962349  0.41438034  0.74769771  1
  O2-  O200  1  0.66790314  0.74475231  0.00086638  1
  O2-  O201  1  0.66468750  0.74347239  0.24913537  1
  O2-  O202  1  0.66770313  0.74768810  0.49906379  1
  O2-  O203  1  0.66520762  0.74418603  0.75024956  1
  O2-  O204  1  0.33603023  0.25150551  -0.00134099  1
  O2-  O205  1  0.33054537  0.25219339  0.25337970  1
  O2-  O206  1  0.33003414  0.25080123  0.49706398  1
  O2-  O207  1  0.33527120  0.25106973  0.74899420  1
  O2-  O208  1  0.33432234  0.58670362  0.00032306  1
  O2-  O209  1  0.33257629  0.58442851  0.25216637  1
  O2-  O210  1  0.33481719  0.58955146  0.49936198  1
  O2-  O211  1  0.33393589  0.58638008  0.74908334  1
  O2-  O212  1  0.33469665  0.91623558  -0.00069934  1
  O2-  O213  1  0.33050531  0.91876704  0.24957147  1
  O2-  O214  1  0.33313989  0.92126958  0.49871723  1
  O2-  O215  1  0.33353522  0.92000358  0.74753813  1
  O2-  O216  1  0.83187158  0.25509023  0.00043908  1
  O2-  O217  1  0.83750992  0.25700287  0.24864308  1
  O2-  O218  1  0.83355454  0.25231433  0.50036855  1
  O2-  O219  1  0.83331613  0.25729525  0.75000786  1
  O2-  O220  1  0.83293917  0.58686991  -0.00316741  1
  O2-  O221  1  0.83277022  0.58513044  0.24950428  1
  O2-  O222  1  0.83372710  0.58606111  0.50035224  1
  O2-  O223  1  0.82914231  0.58616344  0.75445379  1
  O2-  O224  1  0.83552913  0.91750990  0.00171189  1
  O2-  O225  1  0.83609207  0.92081189  0.24991341  1
  O2-  O226  1  0.83212303  0.91525086  0.50115559  1
  O2-  O227  1  0.83233250  0.91991908  0.74846282  1
  O2-  O228  1  0.16509457  0.25104440  0.00006734  1
  O2-  O229  1  0.16881845  0.24993165  0.25553175  1
  O2-  O230  1  0.16967816  0.25235860  0.49935719  1
  O2-  O231  1  0.16498752  0.25154556  0.74756656  1
  O2-  O232  1  0.16624530  0.58542699  -0.00200865  1
  O2-  O233  1  0.16953473  0.58693650  0.25332098  1
  O2-  O234  1  0.16537722  0.58879074  0.49946208  1
  O2-  O235  1  0.16619697  0.58683794  0.74919751  1
  O2-  O236  1  0.16717477  0.91591632  0.00182016  1
  O2-  O237  1  0.16328087  0.91902421  0.25013716  1
  O2-  O238  1  0.16656945  0.91957228  0.49725298  1
  O2-  O239  1  0.16940292  0.91812338  0.74619918  1
  O2-  O240  1  0.66895207  0.25214037  0.00144183  1
  O2-  O241  1  0.66459143  0.25746910  0.24969531  1
  O2-  O242  1  0.66493838  0.25446122  0.50191453  1
  O2-  O243  1  0.66789751  0.25512003  0.74740440  1
  O2-  O244  1  0.66752015  0.58601611  -0.00250898  1
  O2-  O245  1  0.66940363  0.58486170  0.24985412  1
  O2-  O246  1  0.66744729  0.58368307  0.50042731  1
  O2-  O247  1  0.66724991  0.58534574  0.75160776  1
  O2-  O248  1  0.66540034  0.91728791  0.00304257  1
  O2-  O249  1  0.66462283  0.92168723  0.25047229  1
  O2-  O250  1  0.66812748  0.91800165  0.49800415  1
  O2-  O251  1  0.66739558  0.92029435  0.74792397  1
  O2-  O252  1  0.33323163  0.08184080  0.00093857  1
  O2-  O253  1  0.33452195  0.08127927  0.25019942  1
  O2-  O254  1  0.33423209  0.08310063  0.49859490  1
  O2-  O255  1  0.33644235  0.08143692  0.74939539  1
  O2-  O256  1  0.33654908  0.41118751  -0.00169904  1
  O2-  O257  1  0.33256008  0.41622595  0.25395196  1
  O2-  O258  1  0.33485994  0.41030580  0.49779613  1
  O2-  O259  1  0.33368651  0.41370604  0.74910220  1
  O2-  O260  1  0.33739104  0.74690245  -0.00074470  1
  O2-  O261  1  0.33616045  0.74695433  0.25021566  1
  O2-  O262  1  0.33813052  0.74484812  0.50215556  1
  O2-  O263  1  0.33502608  0.74569249  0.74943013  1
  O2-  O264  1  0.83793997  0.07837254  0.00348717  1
  O2-  O265  1  0.83440151  0.08116976  0.24927064  1
  O2-  O266  1  0.83264647  0.08251114  0.50020631  1
  O2-  O267  1  0.83562389  0.07901816  0.74883720  1
  O2-  O268  1  0.83420123  0.41392354  -0.00000115  1
  O2-  O269  1  0.83412468  0.41352646  0.24737174  1
  O2-  O270  1  0.83076843  0.41370505  0.50137675  1
  O2-  O271  1  0.83307212  0.41604829  0.75100646  1
  O2-  O272  1  0.83339829  0.74588669  -0.00054439  1
  O2-  O273  1  0.83289674  0.74323267  0.25114595  1
  O2-  O274  1  0.83209621  0.74875102  0.49870313  1
  O2-  O275  1  0.83664656  0.74505024  0.75111438  1
  O2-  O276  1  0.45172537  0.76667445  0.76719323  1
  O2-  O277  1  0.45101955  0.56848868  0.73069520  1
  O2-  O278  1  0.46442507  0.21815900  0.47011245  1
  O2-  O279  1  0.55183304  0.56717577  0.76188516  1
  O2-  O280  1  0.04500069  0.09792788  0.74183181  1
  O2-  O281  1  0.46788721  0.45130207  0.24542884  1
  O2-  O282  1  0.94789264  0.23923966  0.26340246  1
  O2-  O283  1  0.54876266  0.76616818  0.76729563  1
  O2-  O284  1  0.45568068  0.09671863  0.75882562  1
  O2-  O285  1  0.94609969  0.57594271  0.76785752  1
  O2-  O286  1  0.55080727  0.57432107  0.98894147  1
  O2-  O287  1  0.03815965  0.10974756  0.02974142  1
  O2-  O288  1  0.04737051  0.23593648  0.74167067  1
  O2-  O289  1  0.04913480  0.42806750  0.74375991  1
  O2-  O290  1  0.44968248  0.90575952  0.22998398  1
  O2-  O291  1  0.54215987  0.09390625  0.25725257  1
  O2-  O292  1  0.54847359  0.24466198  0.98215128  1
  O2-  O293  1  0.45366970  0.90170176  0.51014794  1
  O2-  O294  1  0.45393930  0.42638290  0.98852679  1
  O2-  O295  1  0.95347848  0.56956703  0.00745463  1
  O2-  O296  1  0.96441208  0.10988121  0.52740703  1
  O2-  O297  1  0.54223647  0.22204802  0.71592483  1
  O2-  O298  1  0.04716788  0.42975019  0.50756223  1
  O2-  O299  1  0.04622779  0.89304218  0.02823183  1
  O2-  O300  1  0.04801481  0.76365977  0.51701811  1
  O2-  O301  1  0.94977368  0.43068214  0.01368285  1
  O2-  O302  1  0.53798080  0.21105869  0.75236101  1
  O2-  O303  1  0.05032914  0.42284827  0.05829475  1
  O2-  O304  1  0.04929269  0.56793138  0.29035233  1
  O2-  O305  1  0.54140136  0.10504663  0.02739697  1
  O2-  O306  1  0.44620523  0.24335567  0.76775011  1
  O2-  O307  1  0.03567783  0.88145819  0.75627184  1
  O2-  O308  1  0.53628631  0.44329283  0.53190421  1
  O2-  O309  1  0.55068034  0.76752322  0.48714162  1
  O2-  O310  1  0.05011997  0.90024363  0.51793024  1
  O2-  O311  1  0.04734199  0.57519800  0.51157018  1
  O2-  O312  1  0.45546571  0.89755885  0.25573175  1
  O2-  O313  1  0.95011996  0.23642347  0.98576777  1
  O2-  O314  1  0.95099075  0.90086839  0.01178414  1
  O2-  O315  1  0.95410545  0.56502959  0.74523977  1
  O2-  O316  1  0.54545598  0.76602204  0.25810822  1
  O2-  O317  1  0.45163497  0.75792435  0.48528530  1
  O2-  O318  1  0.05308887  0.57573437  0.73820262  1
  O2-  O319  1  0.45118314  0.57106499  0.76967800  1
  O2-  O320  1  0.04317123  0.91053574  0.48228318  1
  O2-  O321  1  0.54739066  0.90018626  0.98991858  1
  O2-  O322  1  0.03999041  0.21622297  0.24196744  1
  O2-  O323  1  0.95275978  0.09805776  0.26186249  1
  O2-  O324  1  0.56219144  0.93010006  0.78352704  1
  O2-  O325  1  0.93149765  0.92064529  0.47149432  1
  O2-  O326  1  0.06362307  0.59725729  0.02465647  1
  O2-  O327  1  0.42190393  0.27450130  0.55004438  1
  O2-  O328  1  0.06922259  0.24970416  0.43479060  1
  O2-  O329  1  0.43548292  0.07487070  0.06833957  1
  O2-  O330  1  0.43825054  0.92571427  0.03419479  1
  O2-  O331  1  0.94085663  0.26693514  0.97059202  1
  O2-  O332  1  0.93648066  0.26186185  0.78111061  1
  O2-  O333  1  0.92773705  0.60058858  0.72094253  1
  O2-  O334  1  0.07531672  0.40744173  0.92010490  1
  O2-  O335  1  0.07166209  0.07376725  0.95881495  1
  O2-  O336  1  0.55768939  0.25662757  0.97517274  1
  O2-  O337  1  0.56893277  0.06323119  0.94652906  1
  O2-  O338  1  0.07157556  0.28311117  0.20731870  1
  O2-  O339  1  0.07630475  0.93907315  0.78106089  1
  O2-  O340  1  0.93582481  0.26008284  0.53491361  1
  O2-  O341  1  0.92365145  0.06283658  0.44415542  1
  O2-  O342  1  0.93322330  0.92361694  0.77571323  1
  O2-  O343  1  0.05375387  0.41795091  0.04989786  1
  O2-  O344  1  0.56503615  0.92377554  0.52795418  1
  O2-  O345  1  0.43627614  0.59592386  0.28319390  1
  O2-  O346  1  0.55876017  0.59479975  0.78438503  1
  O2-  O347  1  0.56472628  0.59419674  0.19744595  1
  O2-  O348  1  0.93389241  0.41030912  0.47830296  1
  O2-  O349  1  0.56084012  0.08284969  0.28062119  1
  O2-  O350  1  0.55927650  0.91837073  0.96135302  1
  O2-  O351  1  0.56125307  0.26397937  0.21729492  1
  O2-  O352  1  0.56431227  0.40622410  0.03474540  1
  O2-  O353  1  0.93293637  0.74281407  0.54319566  1
  O2-  O354  1  0.06481767  0.74406268  0.27403411  1
  O2-  O355  1  0.93405773  0.74006327  0.44770171  1
  O2-  O356  1  0.06826007  0.25362956  0.56678657  1
  O2-  O357  1  0.56607431  0.58939521  0.29721682  1
  O2-  O358  1  0.56286145  0.59489846  0.96261415  1
  O2-  O359  1  0.42676055  0.38703671  0.20958153  1
  O2-  O360  1  0.57596450  0.30864759  0.80716603  1
  O2-  O361  1  0.07122176  0.93089088  0.95672220  1
  O2-  O362  1  0.06429559  0.06569026  0.21817615  1
  O2-  O363  1  0.56746125  0.58914524  0.56417407  1
  O2-  O364  1  0.43711313  0.25431992  0.27815209  1
  O2-  O365  1  0.07148256  0.60839463  0.16816541  1
  O2-  O366  1  0.05493536  0.57380991  0.29769588  1
  O2-  O367  1  0.93680201  0.74128502  0.22710572  1
  O2-  O368  1  0.42922148  0.93333840  0.27696907  1
  O2-  O369  1  0.43400399  0.07818214  0.94316867  1
  O2-  O370  1  0.56741878  0.58599756  0.43613087  1
  O2-  O371  1  0.57235499  0.38414226  0.43938836  1
  O2-  O372  1  0.24948257  0.00205656  0.09892344  1
  O2-  O373  1  0.75000960  -0.00108383  0.60518645  1
  O2-  O374  1  0.24995125  0.67475013  0.68265420  1
  O2-  O375  1  0.75015503  -0.00005904  0.93593005  1
  O2-  O376  1  0.74998938  0.65186129  0.67636633  1
  O2-  O377  1  0.25033674  0.66961844  0.38427121  1
  O2-  O378  1  0.25077880  0.66638127  0.10197341  1
  O2-  O379  1  0.24998954  0.66686120  0.81541935  1
  O2-  O380  1  0.25125334  0.33210112  0.85231778  1
  O2-  O381  1  0.24972569  0.32494902  0.60875484  1
  O2-  O382  1  0.25023975  0.32788294  0.07818716  1
  O2-  O383  1  0.24919629  0.00408698  0.36026989  1
  O2-  O384  1  0.25000976  0.67894120  0.92455709  1
  O2-  O385  1  0.24975989  0.00307942  0.59849858  1
  O2-  O386  1  0.74990579  0.00356208  0.14503397  1
  O2-  O387  1  0.24981432  0.00179323  0.91963764  1
  O2-  O388  1  0.74958239  0.33511620  0.59542369  1
  O2-  O389  1  0.25019420  0.33406639  0.16973607  1
  O2-  O390  1  0.24977964  -0.00110365  0.83002507  1
  O2-  O391  1  0.75007230  0.33358312  0.40622725  1
  O2-  O392  1  0.24970852  0.69083578  0.59149649  1
  O2-  O393  1  0.75024798  -0.00696683  0.84518916  1
  O2-  O394  1  0.74984935  0.66940204  0.55652813  1
  O2-  O395  1  0.74969920  0.66176454  0.14223820  1
  O2-  O396  1  0.25003542  0.82831682  0.65460180  1
  O2-  O397  1  0.25021351  0.84992319  0.36415834  1
  O2-  O398  1  0.75012919  0.50116257  0.40210541  1
  O2-  O399  1  0.24987454  0.83285738  0.89917576  1
  O2-  O400  1  0.25020908  0.85644964  0.57451857  1
  O2-  O401  1  0.74972957  0.17086750  0.84729640  1
  O2-  O402  1  0.25008757  0.49277173  0.81640313  1
  O2-  O403  1  0.75030699  0.82722510  0.10294109  1
  O2-  O404  1  0.24985073  0.50916686  0.61319769  1
  O2-  O405  1  0.75002015  0.15826194  0.34880830  1
  O2-  O406  1  0.74998179  0.82657578  0.91017796  1
  O2-  O407  1  0.24983513  0.16801048  0.10547579  1
  O2-  O408  1  0.75009475  0.82816484  0.38878896  1
  O2-  O409  1  0.25010153  0.50517548  0.16907809  1
  O2-  O410  1  0.25003162  0.16697354  0.78807387  1
  O2-  O411  1  0.24993448  0.16764354  0.18671272  1
  O2-  O412  1  0.24984874  0.16740854  0.63094334  1
  O2-  O413  1  0.25013247  0.50990560  0.90489419  1
  O2-  O414  1  0.24936542  0.16662737  0.86822308  1
  O2-  O415  1  0.75003071  0.15707411  0.43520390  1
  O2-  O416  1  0.74994328  0.17023928  0.10489619  1
  O2-  O417  1  0.75017082  0.50624980  0.08836626  1
  O2-  O418  1  0.74991776  0.16503174  0.57572311  1
  O2-  O419  1  0.24994302  0.83253589  0.11178559  1
  O2-  O420  1  0.54354243  -0.00985196  0.38728508  1
  O2-  O421  1  0.54191092  0.01015292  0.63322618  1
  O2-  O422  1  0.47125771  0.67124060  0.12507027  1
  O2-  O423  1  0.04288859  0.00394223  0.62437743  1
  O2-  O424  1  0.45414854  0.00076384  0.62503635  1
  O2-  O425  1  0.02299098  0.00675078  0.86912862  1
  O2-  O426  1  0.52263112  0.67823822  0.62919455  1
  O2-  O427  1  0.52887345  -0.00292001  0.12730717  1
  O2-  O428  1  0.97481020  0.66583043  0.12354396  1
  O2-  O429  1  0.95831934  0.32926269  0.37431281  1
  O2-  O430  1  0.04183451  0.34915741  0.35857216  1
  O2-  O431  1  0.47760749  0.34489520  0.63310879  1
  O2-  O432  1  0.47433375  0.34318926  0.37939145  1
  O2-  O433  1  0.98203919  -0.00620655  0.36460471  1
  O2-  O434  1  0.02107230  0.67194429  0.38529000  1
  O2-  O435  1  0.95630172  -0.00014188  0.62932513  1
  O2-  O436  1  0.96574491  0.00770165  0.87883119  1
  O2-  O437  1  0.02159517  0.32178422  0.86684379  1
  O2-  O438  1  0.98019842  0.66610866  0.62564109  1
  O2-  O439  1  0.51633789  0.67857713  0.37428370  1
  O2-  O440  1  0.97264682  -0.00173702  0.12528373  1
  O2-  O441  1  0.45721436  0.01489443  0.38598467  1
  O2-  O442  1  0.01868849  0.34153570  0.63042453  1
  O2-  O443  1  0.47401597  -0.01487736  0.86856449  1
