# generated using pymatgen
data_La7(Ru4O11)2
_symmetry_space_group_name_H-M   'P 1'
_cell_length_a   23.98979899
_cell_length_b   16.83010539
_cell_length_c   15.42693079
_cell_angle_alpha   89.99816676
_cell_angle_beta   90.00038193
_cell_angle_gamma   89.99919699
_symmetry_Int_Tables_number   1
_chemical_formula_structural   La7(Ru4O11)2
_chemical_formula_sum   'La84 Ru96 O264'
_cell_volume   6228.63634088
_cell_formula_units_Z   12
loop_
 _symmetry_equiv_pos_site_id
 _symmetry_equiv_pos_as_xyz
  1  'x, y, z'
loop_
 _atom_type_symbol
 _atom_type_oxidation_number
  La3+  3.0
  Ru4+  4.0
  O2-  -2.0
loop_
 _atom_site_type_symbol
 _atom_site_label
 _atom_site_symmetry_multiplicity
 _atom_site_fract_x
 _atom_site_fract_y
 _atom_site_fract_z
 _atom_site_occupancy
  La3+  La0  1  0.13943549  0.00124375  0.12304151  1
  La3+  La1  1  0.13639993  0.00389206  0.37408398  1
  La3+  La2  1  0.13936290  0.00176497  0.62466299  1
  La3+  La3  1  0.14288587  0.00121251  0.87759640  1
  La3+  La4  1  0.13797531  0.33235592  0.12774927  1
  La3+  La5  1  0.13944568  0.33275961  0.37439213  1
  La3+  La6  1  0.13974218  0.33080062  0.62219534  1
  La3+  La7  1  0.13789669  0.33230675  0.87369863  1
  La3+  La8  1  0.13740913  0.66796376  0.12542964  1
  La3+  La9  1  0.13983690  0.66532898  0.37352362  1
  La3+  La10  1  0.14016102  0.66576240  0.62496397  1
  La3+  La11  1  0.13829236  0.66960112  0.87254985  1
  La3+  La12  1  0.63799675  -0.00191557  0.12509585  1
  La3+  La13  1  0.63872053  0.00081242  0.37410480  1
  La3+  La14  1  0.63508217  0.00239571  0.62818146  1
  La3+  La15  1  0.64059847  -0.00038263  0.87253403  1
  La3+  La16  1  0.63628747  0.33745947  0.12632131  1
  La3+  La17  1  0.63835843  0.33413545  0.37172477  1
  La3+  La18  1  0.63837378  0.33283326  0.62672014  1
  La3+  La19  1  0.63671528  0.33427718  0.87399962  1
  La3+  La20  1  0.63992038  0.66793059  0.12295954  1
  La3+  La21  1  0.63903020  0.66791618  0.37429235  1
  La3+  La22  1  0.63755127  0.66501348  0.62758992  1
  La3+  La23  1  0.64008149  0.66642782  0.87705499  1
  La3+  La24  1  0.36093500  0.00011726  0.12237533  1
  La3+  La25  1  0.36306527  0.00138190  0.37480769  1
  La3+  La26  1  0.36206499  0.00254526  0.62640938  1
  La3+  La27  1  0.35883678  -0.00005361  0.87559899  1
  La3+  La28  1  0.36274806  0.33096813  0.12752927  1
  La3+  La29  1  0.36086366  0.33346303  0.37530103  1
  La3+  La30  1  0.36186072  0.33210275  0.62281998  1
  La3+  La31  1  0.36508245  0.33061270  0.87508215  1
  La3+  La32  1  0.36156129  0.66749767  0.12612650  1
  La3+  La33  1  0.36131796  0.66580069  0.37462993  1
  La3+  La34  1  0.36000169  0.66772400  0.62838759  1
  La3+  La35  1  0.36076575  0.66875771  0.87098973  1
  La3+  La36  1  0.86235144  -0.00140611  0.12369608  1
  La3+  La37  1  0.86315753  -0.00081181  0.37524160  1
  La3+  La38  1  0.86365523  -0.00011298  0.62630390  1
  La3+  La39  1  0.85718213  -0.00331269  0.87495969  1
  La3+  La40  1  0.86160617  0.33522364  0.12469984  1
  La3+  La41  1  0.86194968  0.33491264  0.37358631  1
  La3+  La42  1  0.86190394  0.33363002  0.62676180  1
  La3+  La43  1  0.86307650  0.33456499  0.87547932  1
  La3+  La44  1  0.86037455  0.66766114  0.12295010  1
  La3+  La45  1  0.86344336  0.66778534  0.37502340  1
  La3+  La46  1  0.86309216  0.66684211  0.62541673  1
  La3+  La47  1  0.86209489  0.66718535  0.87747019  1
  La3+  La48  1  -0.00068355  0.16407151  0.36767211  1
  La3+  La49  1  0.49794507  0.49699588  0.36244940  1
  La3+  La50  1  0.00174241  0.83122644  0.38138773  1
  La3+  La51  1  0.49624923  0.83552546  0.36326142  1
  La3+  La52  1  0.00142015  0.82982283  0.61608947  1
  La3+  La53  1  -0.00208328  0.16515937  0.62712420  1
  La3+  La54  1  0.49998390  0.16990663  0.38186543  1
  La3+  La55  1  0.50156027  0.49701826  0.11233243  1
  La3+  La56  1  0.00063700  0.50134706  0.13421248  1
  La3+  La57  1  0.50048682  0.17107190  0.11838951  1
  La3+  La58  1  0.50234553  0.83649021  0.86711617  1
  La3+  La59  1  0.50426500  0.49800211  0.38291561  1
  La3+  La60  1  0.00213069  0.16789138  0.12002896  1
  La3+  La61  1  0.49945156  0.16551629  0.61631068  1
  La3+  La62  1  -0.00167730  0.50099962  0.62937299  1
  La3+  La63  1  0.00220432  0.16784786  0.13725560  1
  La3+  La64  1  -0.00151559  0.83835438  0.87084163  1
  La3+  La65  1  0.00326622  0.50533623  0.37550557  1
  La3+  La66  1  0.49992685  0.16638871  0.86425206  1
  La3+  La67  1  0.49717225  0.83784926  0.12505016  1
  La3+  La68  1  -0.00080706  0.49906947  0.11182276  1
  La3+  La69  1  0.49988531  0.17168300  0.13546215  1
  La3+  La70  1  0.50084525  0.49931293  0.12918609  1
  La3+  La71  1  0.49661439  0.83537082  0.38048741  1
  La3+  La72  1  0.74981587  0.12251580  0.50268988  1
  La3+  La73  1  0.74994686  0.88184021  0.77151787  1
  La3+  La74  1  0.75028793  0.16631321  -0.05403306  1
  La3+  La75  1  0.25011182  0.82497555  0.51202793  1
  La3+  La76  1  0.25038405  0.16568728  0.74709663  1
  La3+  La77  1  0.74997209  0.52928569  0.74765228  1
  La3+  La78  1  0.74988807  0.83611189  0.43540081  1
  La3+  La79  1  0.24988201  0.50423229  0.06888581  1
  La3+  La80  1  0.74989443  0.12418420  0.27782171  1
  La3+  La81  1  0.25014009  0.54095578  0.70606499  1
  La3+  La82  1  0.74974496  0.16484113  0.75242129  1
  La3+  La83  1  0.24995248  0.79328582  0.19911348  1
  Ru4+  Ru84  1  -0.00060004  -0.00001919  -0.00158740  1
  Ru4+  Ru85  1  -0.00269206  -0.00751337  0.25096963  1
  Ru4+  Ru86  1  0.00198469  0.00443656  0.50023529  1
  Ru4+  Ru87  1  -0.00112652  -0.00053977  0.74911393  1
  Ru4+  Ru88  1  -0.00127422  0.33347097  -0.00109603  1
  Ru4+  Ru89  1  -0.00281649  0.33823404  0.25158795  1
  Ru4+  Ru90  1  0.00177206  0.33404870  0.50006436  1
  Ru4+  Ru91  1  -0.00026865  0.33426048  0.74554175  1
  Ru4+  Ru92  1  0.00124173  0.66544380  -0.00242294  1
  Ru4+  Ru93  1  0.00019694  0.66547858  0.24968207  1
  Ru4+  Ru94  1  0.00104586  0.66277447  0.50187309  1
  Ru4+  Ru95  1  0.00294391  0.66284814  0.75234996  1
  Ru4+  Ru96  1  0.50072924  -0.00229851  -0.00166055  1
  Ru4+  Ru97  1  0.50376426  0.00616425  0.24797800  1
  Ru4+  Ru98  1  0.50005809  0.00169187  0.50246342  1
  Ru4+  Ru99  1  0.49732591  -0.00510561  0.75144474  1
  Ru4+  Ru100  1  0.50243928  0.33862894  -0.00179059  1
  Ru4+  Ru101  1  0.50251901  0.33153752  0.24789025  1
  Ru4+  Ru102  1  0.50209926  0.32362981  0.50684471  1
  Ru4+  Ru103  1  0.49911354  0.33989387  0.75018615  1
  Ru4+  Ru104  1  0.50017806  0.66568936  0.00064330  1
  Ru4+  Ru105  1  0.49886016  0.66987956  0.24916399  1
  Ru4+  Ru106  1  0.50209541  0.66605685  0.50369997  1
  Ru4+  Ru107  1  0.50226483  0.66041581  0.74495348  1
  Ru4+  Ru108  1  0.11368717  0.16408449  0.00018178  1
  Ru4+  Ru109  1  0.11841825  0.16622801  0.25002693  1
  Ru4+  Ru110  1  0.11488651  0.16707389  0.50063521  1
  Ru4+  Ru111  1  0.11390465  0.16708889  0.75085471  1
  Ru4+  Ru112  1  0.11075180  0.49949288  0.00000434  1
  Ru4+  Ru113  1  0.11386378  0.50006769  0.25006883  1
  Ru4+  Ru114  1  0.11289403  0.49809986  0.49996067  1
  Ru4+  Ru115  1  0.11188728  0.49787131  0.74976243  1
  Ru4+  Ru116  1  0.11550742  0.83433617  -0.00025110  1
  Ru4+  Ru117  1  0.11104178  0.83250822  0.24996531  1
  Ru4+  Ru118  1  0.11079265  0.83261586  0.49879562  1
  Ru4+  Ru119  1  0.11648435  0.83357451  0.74897646  1
  Ru4+  Ru120  1  0.61158509  0.16648792  -0.00030819  1
  Ru4+  Ru121  1  0.61058290  0.16562827  0.25098139  1
  Ru4+  Ru122  1  0.60983446  0.16649957  0.49926861  1
  Ru4+  Ru123  1  0.61433963  0.17125719  0.75135409  1
  Ru4+  Ru124  1  0.61430649  0.50027418  0.00035250  1
  Ru4+  Ru125  1  0.61857693  0.50189426  0.24986710  1
  Ru4+  Ru126  1  0.61480381  0.50090821  0.50098467  1
  Ru4+  Ru127  1  0.60923017  0.50000363  0.75202782  1
  Ru4+  Ru128  1  0.61460563  0.83289693  0.00005062  1
  Ru4+  Ru129  1  0.61262005  0.83199925  0.24969487  1
  Ru4+  Ru130  1  0.61184247  0.83315538  0.50097644  1
  Ru4+  Ru131  1  0.61070257  0.83304235  0.74980490  1
  Ru4+  Ru132  1  0.38232702  0.16186605  -0.00098615  1
  Ru4+  Ru133  1  0.38464256  0.16251098  0.25082469  1
  Ru4+  Ru134  1  0.38555932  0.16684230  0.49995738  1
  Ru4+  Ru135  1  0.38759363  0.16574193  0.74887436  1
  Ru4+  Ru136  1  0.38991603  0.49907503  -0.00007498  1
  Ru4+  Ru137  1  0.38369287  0.50191669  0.24900252  1
  Ru4+  Ru138  1  0.38300121  0.50284237  0.50232835  1
  Ru4+  Ru139  1  0.39240697  0.50070263  0.74871680  1
  Ru4+  Ru140  1  0.38530830  0.83364223  0.00065086  1
  Ru4+  Ru141  1  0.38622620  0.82933005  0.24884481  1
  Ru4+  Ru142  1  0.38691164  0.83858269  0.50216375  1
  Ru4+  Ru143  1  0.38458464  0.83519779  0.74797241  1
  Ru4+  Ru144  1  0.88800411  0.16748015  -0.00077302  1
  Ru4+  Ru145  1  0.88732245  0.16796999  0.24985880  1
  Ru4+  Ru146  1  0.88952669  0.16505578  0.49992416  1
  Ru4+  Ru147  1  0.88860810  0.16740118  0.75133107  1
  Ru4+  Ru148  1  0.88553172  0.49862995  -0.00068902  1
  Ru4+  Ru149  1  0.88575252  0.50042510  0.25023020  1
  Ru4+  Ru150  1  0.88844905  0.49948652  0.49953747  1
  Ru4+  Ru151  1  0.88891239  0.50011516  0.74914090  1
  Ru4+  Ru152  1  0.88524313  0.83332826  0.00023484  1
  Ru4+  Ru153  1  0.88633821  0.83231966  0.24994785  1
  Ru4+  Ru154  1  0.88282865  0.83346703  0.50016774  1
  Ru4+  Ru155  1  0.88613088  0.83723681  0.75083281  1
  Ru4+  Ru156  1  0.74991109  0.29436833  0.00722340  1
  Ru4+  Ru157  1  0.24999391  0.93848551  0.25850672  1
  Ru4+  Ru158  1  0.25008410  0.61747632  -0.00232948  1
  Ru4+  Ru159  1  0.74982100  0.26817987  0.51416387  1
  Ru4+  Ru160  1  0.74979136  0.26940356  0.23822162  1
  Ru4+  Ru161  1  0.24998181  0.95322027  0.49173074  1
  Ru4+  Ru162  1  0.75018992  0.58051440  0.24918407  1
  Ru4+  Ru163  1  0.24973484  0.41951525  0.50000500  1
  Ru4+  Ru164  1  0.24974890  0.23713824  0.00141291  1
  Ru4+  Ru165  1  0.24976756  0.69940195  0.49444085  1
  Ru4+  Ru166  1  0.75003214  0.39171563  0.75503700  1
  Ru4+  Ru167  1  0.25021905  0.39029694  0.00041555  1
  Ru4+  Ru168  1  0.24987953  0.57543227  0.50158550  1
  Ru4+  Ru169  1  0.74984038  0.71447064  0.51881775  1
  Ru4+  Ru170  1  0.24999185  0.40798663  0.74891881  1
  Ru4+  Ru171  1  0.25072353  0.24776687  0.25403540  1
  Ru4+  Ru172  1  0.75036615  0.57972178  0.50075396  1
  Ru4+  Ru173  1  0.24980446  0.92202789  0.76245437  1
  Ru4+  Ru174  1  0.74985740  0.91021840  0.24555412  1
  Ru4+  Ru175  1  0.75020725  0.41851049  0.50549262  1
  Ru4+  Ru176  1  0.74959798  0.73207703  0.75723143  1
  Ru4+  Ru177  1  0.75004143  0.03855992  0.00433939  1
  Ru4+  Ru178  1  0.74989136  0.95925730  0.50797540  1
  Ru4+  Ru179  1  0.25018147  0.09082619  0.25185501  1
  O2-  O180  1  0.16454878  0.08235760  0.00079793  1
  O2-  O181  1  0.16775502  0.08010941  0.25082643  1
  O2-  O182  1  0.16519426  0.08117205  0.49898650  1
  O2-  O183  1  0.16807081  0.08151651  0.75103733  1
  O2-  O184  1  0.16660982  0.41213433  0.00045965  1
  O2-  O185  1  0.16570384  0.41389239  0.24803377  1
  O2-  O186  1  0.16804320  0.41455842  0.49856099  1
  O2-  O187  1  0.16768772  0.41428075  0.75116048  1
  O2-  O188  1  0.16837939  0.74926823  0.00201376  1
  O2-  O189  1  0.16577722  0.74660243  0.24930275  1
  O2-  O190  1  0.16701436  0.74526177  0.49944940  1
  O2-  O191  1  0.16752316  0.75028389  0.75066602  1
  O2-  O192  1  0.66715765  0.07900344  0.00017681  1
  O2-  O193  1  0.66413861  0.07850586  0.24817734  1
  O2-  O194  1  0.66344611  0.07673999  0.49998655  1
  O2-  O195  1  0.66748379  0.08136479  0.74829961  1
  O2-  O196  1  0.66826062  0.41379253  -0.00108890  1
  O2-  O197  1  0.66750264  0.41531835  0.24967153  1
  O2-  O198  1  0.66730753  0.41461120  0.50159227  1
  O2-  O199  1  0.66705756  0.41418784  0.75008800  1
  O2-  O200  1  0.66814746  0.74849214  0.00260403  1
  O2-  O201  1  0.66659775  0.74671902  0.25011703  1
  O2-  O202  1  0.66761010  0.74617396  0.49976370  1
  O2-  O203  1  0.66751662  0.74636153  0.75014918  1
  O2-  O204  1  0.33311523  0.25185710  0.00069361  1
  O2-  O205  1  0.33187941  0.25239374  0.24943191  1
  O2-  O206  1  0.33442808  0.25235107  0.49943510  1
  O2-  O207  1  0.33368889  0.25266601  0.75053923  1
  O2-  O208  1  0.33413676  0.58809309  0.00017145  1
  O2-  O209  1  0.33412266  0.58540360  0.24811592  1
  O2-  O210  1  0.33206161  0.58536387  0.49998797  1
  O2-  O211  1  0.33412389  0.58483268  0.75211518  1
  O2-  O212  1  0.33428905  0.91681615  0.00079543  1
  O2-  O213  1  0.33266924  0.92109272  0.25036296  1
  O2-  O214  1  0.33350580  0.92091489  0.49929585  1
  O2-  O215  1  0.33183624  0.91934716  0.74970056  1
  O2-  O216  1  0.83355271  0.25306491  -0.00140773  1
  O2-  O217  1  0.83187806  0.25302587  0.25038069  1
  O2-  O218  1  0.83327808  0.25433250  0.50040507  1
  O2-  O219  1  0.83224340  0.25228839  0.75044050  1
  O2-  O220  1  0.83267609  0.58596694  -0.00163340  1
  O2-  O221  1  0.83317718  0.58609402  0.24979600  1
  O2-  O222  1  0.83336114  0.58685787  0.50081583  1
  O2-  O223  1  0.83461988  0.58768108  0.75123649  1
  O2-  O224  1  0.83346728  0.91855528  0.00212058  1
  O2-  O225  1  0.83289384  0.91992623  0.25011772  1
  O2-  O226  1  0.83320959  0.92108660  0.50091550  1
  O2-  O227  1  0.83631067  0.92060075  0.74607121  1
  O2-  O228  1  0.16713731  0.25343430  0.00035230  1
  O2-  O229  1  0.16762089  0.25228170  0.24918857  1
  O2-  O230  1  0.16572491  0.25143206  0.49826989  1
  O2-  O231  1  0.16810668  0.25124051  0.75039043  1
  O2-  O232  1  0.16568553  0.58788196  0.00048929  1
  O2-  O233  1  0.16530394  0.58596695  0.24786551  1
  O2-  O234  1  0.16818144  0.58583615  0.49878035  1
  O2-  O235  1  0.16563991  0.58467549  0.75086750  1
  O2-  O236  1  0.16492502  0.91702191  0.00112955  1
  O2-  O237  1  0.16662458  0.92120823  0.25045372  1
  O2-  O238  1  0.16498002  0.92131120  0.49965377  1
  O2-  O239  1  0.16672970  0.91914411  0.75040565  1
  O2-  O240  1  0.66703092  0.25373425  0.00004384  1
  O2-  O241  1  0.66823284  0.25378061  0.24905847  1
  O2-  O242  1  0.66685243  0.25454041  0.50123318  1
  O2-  O243  1  0.66901416  0.25232204  0.75065004  1
  O2-  O244  1  0.66635902  0.58564739  0.00010362  1
  O2-  O245  1  0.66744522  0.58704843  0.24976179  1
  O2-  O246  1  0.66728475  0.58530080  0.50059210  1
  O2-  O247  1  0.66760341  0.58533474  0.75009759  1
  O2-  O248  1  0.66590417  0.91867691  0.00032689  1
  O2-  O249  1  0.66759109  0.92039276  0.25047507  1
  O2-  O250  1  0.66629616  0.92046915  0.50059800  1
  O2-  O251  1  0.66283546  0.92137705  0.74792492  1
  O2-  O252  1  0.33309767  0.08319830  0.00193503  1
  O2-  O253  1  0.33264754  0.07993207  0.25159891  1
  O2-  O254  1  0.33478155  0.08109578  0.49921521  1
  O2-  O255  1  0.33157832  0.08133838  0.75052302  1
  O2-  O256  1  0.33441596  0.41224819  0.00042989  1
  O2-  O257  1  0.33352868  0.41365023  0.24791354  1
  O2-  O258  1  0.33300419  0.41490239  0.50045155  1
  O2-  O259  1  0.33436236  0.41314764  0.75043328  1
  O2-  O260  1  0.33401926  0.74830071  0.00000101  1
  O2-  O261  1  0.33351236  0.74605920  0.24860399  1
  O2-  O262  1  0.33429070  0.74582935  0.49885836  1
  O2-  O263  1  0.33384737  0.75026583  0.75179522  1
  O2-  O264  1  0.83179779  0.07864575  0.00165923  1
  O2-  O265  1  0.83557298  0.07801236  0.24878406  1
  O2-  O266  1  0.83666739  0.07738966  0.50050771  1
  O2-  O267  1  0.83144048  0.08216281  0.74626610  1
  O2-  O268  1  0.83169410  0.41419843  -0.00110195  1
  O2-  O269  1  0.83192076  0.41455676  0.25046402  1
  O2-  O270  1  0.83306502  0.41347691  0.50021735  1
  O2-  O271  1  0.83212480  0.41318365  0.75103227  1
  O2-  O272  1  0.83404752  0.74721984  -0.00029260  1
  O2-  O273  1  0.83371600  0.74698805  0.25065636  1
  O2-  O274  1  0.83316778  0.74550742  0.50053484  1
  O2-  O275  1  0.83306270  0.74601794  0.75028114  1
  O2-  O276  1  0.02993459  0.45484221  0.75504698  1
  O2-  O277  1  0.95145733  0.24018454  0.76291647  1
  O2-  O278  1  0.03711585  0.77740763  1.00155630  1
  O2-  O279  1  0.04627164  0.10249806  0.78220198  1
  O2-  O280  1  0.54758056  0.76773868  0.73788083  1
  O2-  O281  1  0.95457293  0.90420693  0.48149935  1
  O2-  O282  1  0.45088276  0.23478222  0.98458621  1
  O2-  O283  1  0.95512722  0.76083354  0.72910600  1
  O2-  O284  1  0.95517550  0.23317091  0.48790016  1
  O2-  O285  1  0.54135025  0.56188683  0.53033212  1
  O2-  O286  1  0.95006421  0.76313412  0.76759624  1
  O2-  O287  1  0.96067052  0.11279408  0.75459510  1
  O2-  O288  1  0.45500933  0.90005991  0.01262833  1
  O2-  O289  1  0.96239020  0.44567195  0.28131592  1
  O2-  O290  1  0.54831719  0.09918612  0.73531313  1
  O2-  O291  1  0.45270814  0.43203431  0.73551690  1
  O2-  O292  1  0.45624373  0.56861581  0.98657686  1
  O2-  O293  1  0.95304963  0.09741040  0.23597480  1
  O2-  O294  1  0.05153727  0.75950927  0.79460204  1
  O2-  O295  1  0.45851255  0.10868777  0.03071624  1
  O2-  O296  1  0.54583571  0.57004705  0.23420133  1
  O2-  O297  1  0.53793233  0.77653415  0.03262029  1
  O2-  O298  1  0.94546701  0.08385290  0.04863968  1
  O2-  O299  1  0.04561434  0.56370458  0.98757424  1
  O2-  O300  1  0.54651733  0.09656145  0.98372174  1
  O2-  O301  1  0.95445141  0.90545256  0.76064188  1
  O2-  O302  1  0.44787337  0.91078413  0.76775277  1
  O2-  O303  1  0.05575021  0.57529584  0.51786520  1
  O2-  O304  1  0.04361464  0.22941127  0.72472132  1
  O2-  O305  1  0.44416773  0.57785056  0.45311129  1
  O2-  O306  1  0.03888590  0.77944002  0.02108895  1
  O2-  O307  1  0.54766592  0.43233453  0.23614743  1
  O2-  O308  1  0.95311588  0.90368526  0.52087163  1
  O2-  O309  1  0.54121937  0.43582384  0.53198018  1
  O2-  O310  1  0.53190630  0.54663508  0.75261272  1
  O2-  O311  1  0.54588437  0.90360521  0.48420776  1
  O2-  O312  1  0.04950753  0.09603398  0.26326135  1
  O2-  O313  1  0.04502947  0.23477312  0.26604204  1
  O2-  O314  1  0.45355701  0.90236545  0.26464866  1
  O2-  O315  1  0.45252374  0.23486472  0.23496107  1
  O2-  O316  1  0.44558114  0.75025397  0.78527825  1
  O2-  O317  1  0.04718024  0.23803614  0.22748143  1
  O2-  O318  1  0.45024057  0.76625714  0.48497086  1
  O2-  O319  1  0.55649882  0.74908268  0.45386503  1
  O2-  O320  1  0.54665791  0.23622645  0.98498471  1
  O2-  O321  1  0.44989415  0.43127525  0.48458395  1
  O2-  O322  1  0.45235418  0.43086056  0.23278404  1
  O2-  O323  1  0.95249031  0.76210748  0.48743475  1
  O2-  O324  1  0.57562938  0.61894073  0.79270600  1
  O2-  O325  1  0.93085801  0.05712343  0.92626204  1
  O2-  O326  1  0.06424861  0.73915842  0.46505658  1
  O2-  O327  1  0.43597956  0.07213952  0.71495032  1
  O2-  O328  1  0.06243689  0.07038819  0.28176487  1
  O2-  O329  1  0.43569665  0.26194647  0.97434785  1
  O2-  O330  1  0.44167504  0.91859428  0.77264280  1
  O2-  O331  1  0.92600614  0.39562051  0.19995358  1
  O2-  O332  1  0.57011983  0.60457590  0.45224432  1
  O2-  O333  1  0.43501257  0.40575590  0.46954317  1
  O2-  O334  1  0.56542581  0.40378184  0.78256896  1
  O2-  O335  1  0.06545655  0.59141791  0.70316427  1
  O2-  O336  1  0.57084144  0.72030689  0.94425715  1
  O2-  O337  1  0.43099231  0.60730787  0.57189616  1
  O2-  O338  1  0.54766086  0.76113981  0.45371663  1
  O2-  O339  1  0.06467818  0.40622256  0.52764923  1
  O2-  O340  1  0.07457592  0.73556201  0.67712206  1
  O2-  O341  1  0.43520461  0.93099147  0.53124693  1
  O2-  O342  1  0.56269020  0.26072324  0.78252051  1
  O2-  O343  1  0.95179079  0.09235078  0.04167185  1
  O2-  O344  1  0.93513562  0.40236106  0.71671998  1
  O2-  O345  1  0.43498342  0.59563524  0.72038406  1
  O2-  O346  1  0.44548918  0.75017269  0.78624596  1
  O2-  O347  1  0.08131245  0.38593080  0.70971912  1
  O2-  O348  1  0.05477334  0.75545808  0.79222836  1
  O2-  O349  1  0.57394381  0.39897873  0.46105752  1
  O2-  O350  1  0.56362843  0.40679048  0.02824374  1
  O2-  O351  1  0.93711950  0.59836132  0.03347836  1
  O2-  O352  1  0.05457929  0.58206507  0.52373375  1
  O2-  O353  1  0.92594502  0.04955589  0.78904577  1
  O2-  O354  1  0.42602013  0.06245830  0.95449074  1
  O2-  O355  1  0.06586388  0.59154411  0.79569813  1
  O2-  O356  1  0.93430168  0.40716030  0.97331126  1
  O2-  O357  1  0.56521542  0.25835883  0.27774352  1
  O2-  O358  1  0.43822673  0.25813379  0.21466897  1
  O2-  O359  1  0.93401818  0.25761527  0.21964346  1
  O2-  O360  1  0.44567189  0.57785389  0.46538916  1
  O2-  O361  1  0.93508948  0.73995128  0.47243257  1
  O2-  O362  1  0.57389233  0.73042310  0.56863908  1
  O2-  O363  1  0.07199120  0.26632682  0.79168445  1
  O2-  O364  1  0.07078636  0.06417797  0.70933124  1
  O2-  O365  1  0.56241649  0.07094038  0.72477579  1
  O2-  O366  1  0.43807621  0.73790306  0.47002428  1
  O2-  O367  1  0.08064977  0.71829187  0.95531774  1
  O2-  O368  1  0.44043512  0.92335075  0.28950565  1
  O2-  O369  1  0.56321911  0.40839687  0.22027288  1
  O2-  O370  1  0.43397137  0.73446182  0.69561929  1
  O2-  O371  1  0.06446458  0.40228452  0.03482019  1
  O2-  O372  1  0.24981692  0.00177994  0.67818234  1
  O2-  O373  1  0.74990272  -0.00337263  0.34423522  1
  O2-  O374  1  0.24995751  0.00828599  0.39183051  1
  O2-  O375  1  0.25015899  0.32326459  0.66631455  1
  O2-  O376  1  0.25003735  0.32554532  0.10462353  1
  O2-  O377  1  0.74994429  0.66413925  0.39816183  1
  O2-  O378  1  0.25005113  0.00653549  0.16600932  1
  O2-  O379  1  0.24994048  0.67301703  0.10565259  1
  O2-  O380  1  0.75001359  0.34132628  0.32448940  1
  O2-  O381  1  0.24996121  -0.00061758  0.07604409  1
  O2-  O382  1  0.24958711  -0.00412482  0.89605036  1
  O2-  O383  1  0.25019984  0.68532686  0.90760356  1
  O2-  O384  1  0.74986035  0.33103603  0.65182597  1
  O2-  O385  1  0.25003554  0.32939365  0.34153621  1
  O2-  O386  1  0.75016454  0.33820788  0.42022797  1
  O2-  O387  1  0.24988183  0.66473727  0.64719065  1
  O2-  O388  1  0.75045785  0.66348112  0.65272226  1
  O2-  O389  1  0.25001485  0.33224324  0.57539425  1
  O2-  O390  1  0.24997816  0.66409991  0.82229177  1
  O2-  O391  1  0.24983183  0.01257732  0.58750915  1
  O2-  O392  1  0.24956035  0.31760182  0.91243235  1
  O2-  O393  1  0.74937616  0.00434673  0.84842187  1
  O2-  O394  1  0.24987344  0.66976427  0.35142824  1
  O2-  O395  1  0.24997083  0.31990234  0.82134159  1
  O2-  O396  1  0.24997378  0.84026567  0.31497295  1
  O2-  O397  1  0.75001625  0.50216252  0.08377305  1
  O2-  O398  1  0.24982228  0.82583012  0.70717606  1
  O2-  O399  1  0.75005564  0.83879370  0.16435507  1
  O2-  O400  1  0.74979525  0.81957117  0.65946357  1
  O2-  O401  1  0.25009676  0.50091814  0.33125638  1
  O2-  O402  1  0.25003138  0.83297386  0.39249814  1
  O2-  O403  1  0.75007233  0.18331388  0.38944671  1
  O2-  O404  1  0.24994150  0.49968955  0.92054250  1
  O2-  O405  1  0.24988214  0.16722587  0.15908048  1
  O2-  O406  1  0.75002832  0.50081394  0.59339199  1
  O2-  O407  1  0.75013123  0.17632009  0.62260490  1
  O2-  O408  1  0.74974292  0.83378703  0.57287770  1
  O2-  O409  1  0.25004568  0.83771689  0.62845207  1
  O2-  O410  1  0.74993018  0.49707878  0.16760924  1
  O2-  O411  1  0.74982589  0.50017147  0.41884510  1
  O2-  O412  1  0.75011492  0.17645575  0.16429774  1
  O2-  O413  1  0.24991041  0.16704490  0.59470025  1
  O2-  O414  1  0.74994792  0.16536218  0.07965939  1
  O2-  O415  1  0.75002347  0.81794836  0.87911093  1
  O2-  O416  1  0.24995012  0.49362097  0.83113132  1
  O2-  O417  1  0.25002961  0.49931739  0.41650598  1
  O2-  O418  1  0.25001655  0.16925409  0.91129450  1
  O2-  O419  1  0.74989690  0.49860370  0.32859676  1
  O2-  O420  1  0.52675074  -0.00281294  0.61967662  1
  O2-  O421  1  0.47875341  0.00055027  0.87424100  1
  O2-  O422  1  0.47178395  0.66622752  0.12542869  1
  O2-  O423  1  0.01640199  0.66122689  0.87911474  1
  O2-  O424  1  0.02709038  0.66281853  0.12790488  1
  O2-  O425  1  0.01762931  0.67023953  0.61863241  1
  O2-  O426  1  0.45903918  0.00069791  0.12687640  1
  O2-  O427  1  0.97084222  0.33062094  0.87243207  1
  O2-  O428  1  0.53239885  0.33117705  0.37689157  1
  O2-  O429  1  0.47301979  0.32949002  0.62444801  1
  O2-  O430  1  0.95978597  0.33330264  0.37636372  1
  O2-  O431  1  0.97421097  0.66129410  0.36936353  1
  O2-  O432  1  0.02587731  -0.00465240  0.61789346  1
  O2-  O433  1  0.52400456  0.32479684  0.12461169  1
  O2-  O434  1  0.02050347  0.32538970  0.62118822  1
  O2-  O435  1  0.46368347  0.32761544  0.36734761  1
  O2-  O436  1  0.54198548  -0.00063756  0.12438453  1
  O2-  O437  1  0.97723782  0.33225518  0.11657484  1
  O2-  O438  1  0.47531205  0.66966446  0.36288424  1
  O2-  O439  1  0.47408190  0.33575684  0.87034621  1
  O2-  O440  1  0.97192315  0.00115492  0.37525672  1
  O2-  O441  1  0.52531558  0.66099006  0.63291572  1
  O2-  O442  1  0.03986397  0.33539184  0.37633846  1
  O2-  O443  1  0.02919907  0.33776105  0.88184165  1
