# generated using pymatgen
data_La7(Ru4O11)2
_symmetry_space_group_name_H-M   'P 1'
_cell_length_a   23.99385286
_cell_length_b   16.83396629
_cell_length_c   15.42909964
_cell_angle_alpha   89.99787727
_cell_angle_beta   90.00225098
_cell_angle_gamma   90.00115340
_symmetry_Int_Tables_number   1
_chemical_formula_structural   La7(Ru4O11)2
_chemical_formula_sum   'La84 Ru96 O264'
_cell_volume   6231.99401082
_cell_formula_units_Z   12
loop_
 _symmetry_equiv_pos_site_id
 _symmetry_equiv_pos_as_xyz
  1  'x, y, z'
loop_
 _atom_type_symbol
 _atom_type_oxidation_number
  La3+  3.0
  Ru4+  4.0
  O2-  -2.0
loop_
 _atom_site_type_symbol
 _atom_site_label
 _atom_site_symmetry_multiplicity
 _atom_site_fract_x
 _atom_site_fract_y
 _atom_site_fract_z
 _atom_site_occupancy
  La3+  La0  1  0.14729385  0.00120698  0.12226509  1
  La3+  La1  1  0.14640325  0.00510520  0.37509146  1
  La3+  La2  1  0.13268873  -0.00153874  0.62928332  1
  La3+  La3  1  0.13522158  -0.00351323  0.87268121  1
  La3+  La4  1  0.14984702  0.33836605  0.12465857  1
  La3+  La5  1  0.13509386  0.33510075  0.36418444  1
  La3+  La6  1  0.14045885  0.33042126  0.62430470  1
  La3+  La7  1  0.14006560  0.33237789  0.88200958  1
  La3+  La8  1  0.15290901  0.66747093  0.12391500  1
  La3+  La9  1  0.13662044  0.66107952  0.36871100  1
  La3+  La10  1  0.13888442  0.66665781  0.62308251  1
  La3+  La11  1  0.14415584  0.66340012  0.88245598  1
  La3+  La12  1  0.63369894  0.00283647  0.12214942  1
  La3+  La13  1  0.63864179  -0.00233452  0.37627334  1
  La3+  La14  1  0.64030540  -0.00333086  0.62254743  1
  La3+  La15  1  0.64414320  -0.00530592  0.87315556  1
  La3+  La16  1  0.64732236  0.32410890  0.13290521  1
  La3+  La17  1  0.64069575  0.33438819  0.37217930  1
  La3+  La18  1  0.64186386  0.33994251  0.63098285  1
  La3+  La19  1  0.62766632  0.33721177  0.87929707  1
  La3+  La20  1  0.64103739  0.67345718  0.11739476  1
  La3+  La21  1  0.64305909  0.67296953  0.37556588  1
  La3+  La22  1  0.63310596  0.66873554  0.62438899  1
  La3+  La23  1  0.63799975  0.66607797  0.87028162  1
  La3+  La24  1  0.35777351  0.00253538  0.12549838  1
  La3+  La25  1  0.35469711  -0.00113220  0.37764936  1
  La3+  La26  1  0.36984495  0.00555933  0.62802416  1
  La3+  La27  1  0.36018891  0.00310675  0.87696591  1
  La3+  La28  1  0.35208668  0.33526073  0.12226224  1
  La3+  La29  1  0.35525738  0.34009426  0.36525667  1
  La3+  La30  1  0.36407843  0.32810008  0.61894928  1
  La3+  La31  1  0.35910139  0.33448612  0.88386258  1
  La3+  La32  1  0.35432820  0.66609163  0.12405268  1
  La3+  La33  1  0.36674559  0.66336020  0.36356636  1
  La3+  La34  1  0.36080779  0.66607515  0.62415697  1
  La3+  La35  1  0.36140640  0.66459735  0.88231436  1
  La3+  La36  1  0.85625908  0.00469405  0.12522403  1
  La3+  La37  1  0.85406386  0.00182686  0.37431421  1
  La3+  La38  1  0.85719585  -0.00409494  0.62741002  1
  La3+  La39  1  0.85821510  0.00400703  0.87431091  1
  La3+  La40  1  0.86346894  0.32564793  0.13089523  1
  La3+  La41  1  0.86879717  0.32722639  0.37469378  1
  La3+  La42  1  0.86031381  0.32941401  0.62546751  1
  La3+  La43  1  0.86549348  0.33063147  0.87862010  1
  La3+  La44  1  0.86104838  0.67488822  0.12443096  1
  La3+  La45  1  0.85648345  0.66899492  0.37952677  1
  La3+  La46  1  0.86124081  0.67407006  0.62178776  1
  La3+  La47  1  0.86390058  0.66190357  0.87890327  1
  La3+  La48  1  0.49743016  0.83840936  0.86889333  1
  La3+  La49  1  0.50166675  0.15811773  0.88327825  1
  La3+  La50  1  0.50581337  0.19419039  0.13605479  1
  La3+  La51  1  0.00020611  0.16025630  0.13807185  1
  La3+  La52  1  -0.00128614  0.50321878  0.63219932  1
  La3+  La53  1  0.50479586  0.16540906  0.86260273  1
  La3+  La54  1  0.00093755  0.49960250  0.37260504  1
  La3+  La55  1  -0.00056444  0.83003623  0.36560122  1
  La3+  La56  1  0.49769780  0.51023801  0.87330439  1
  La3+  La57  1  0.49956261  0.50736610  0.37630493  1
  La3+  La58  1  -0.00349584  0.16716980  0.61735180  1
  La3+  La59  1  0.49814012  0.83886047  0.37817676  1
  La3+  La60  1  0.00613534  0.50771503  0.12790253  1
  La3+  La61  1  0.49146101  0.16557835  0.37185240  1
  La3+  La62  1  0.50064662  0.83997900  0.62457590  1
  La3+  La63  1  -0.00325773  0.16426876  0.11676130  1
  La3+  La64  1  0.00023688  0.49280635  0.61320973  1
  La3+  La65  1  0.00548644  0.84306024  0.62842810  1
  La3+  La66  1  -0.00017718  0.49063185  0.86455241  1
  La3+  La67  1  0.49960246  0.84113738  0.36137430  1
  La3+  La68  1  0.00211249  0.83768876  0.88984282  1
  La3+  La69  1  0.00033097  0.82911002  0.86930848  1
  La3+  La70  1  0.49713478  0.49899389  0.63304183  1
  La3+  La71  1  0.00261239  0.49545336  0.11019562  1
  La3+  La72  1  0.25068396  0.84299932  0.53388182  1
  La3+  La73  1  0.25069724  0.11486208  0.75114678  1
  La3+  La74  1  0.25063167  0.82599793  0.00403557  1
  La3+  La75  1  0.74976763  0.53760197  0.52980142  1
  La3+  La76  1  0.25131076  0.50397439  0.04257953  1
  La3+  La77  1  0.74896412  0.48933898  0.24919323  1
  La3+  La78  1  0.25097320  0.43637510  0.75644245  1
  La3+  La79  1  0.74941268  0.52798482  -0.00519212  1
  La3+  La80  1  0.24738653  0.42361314  0.45040097  1
  La3+  La81  1  0.74930031  0.16352552  0.75386022  1
  La3+  La82  1  0.75079380  0.20282189  0.46271535  1
  La3+  La83  1  0.75020027  0.83907025  0.06995847  1
  Ru4+  Ru84  1  -0.00000346  0.00520158  0.00704478  1
  Ru4+  Ru85  1  -0.00040513  -0.00847361  0.22974295  1
  Ru4+  Ru86  1  0.00080161  0.00079641  0.50737856  1
  Ru4+  Ru87  1  -0.00137718  0.01233695  0.75700012  1
  Ru4+  Ru88  1  -0.00118861  0.32883829  -0.01621883  1
  Ru4+  Ru89  1  0.00371517  0.32900831  0.25752072  1
  Ru4+  Ru90  1  -0.00290488  0.32874902  0.50053409  1
  Ru4+  Ru91  1  0.00044681  0.32845117  0.74249441  1
  Ru4+  Ru92  1  0.00083430  0.66763687  -0.00822371  1
  Ru4+  Ru93  1  0.00189573  0.67248356  0.24773604  1
  Ru4+  Ru94  1  0.00016181  0.66632811  0.49787606  1
  Ru4+  Ru95  1  0.00077314  0.66658659  0.74951907  1
  Ru4+  Ru96  1  0.49507267  0.00119503  0.01345460  1
  Ru4+  Ru97  1  0.50319458  0.00801788  0.24985314  1
  Ru4+  Ru98  1  0.49930095  0.01274239  0.49935818  1
  Ru4+  Ru99  1  0.50218000  -0.01064275  0.74160645  1
  Ru4+  Ru100  1  0.50100906  0.33424418  0.00529064  1
  Ru4+  Ru101  1  0.49927657  0.34484972  0.24410834  1
  Ru4+  Ru102  1  0.49895868  0.31786018  0.50816171  1
  Ru4+  Ru103  1  0.49623458  0.32890962  0.75568028  1
  Ru4+  Ru104  1  0.50444039  0.66276789  0.00943862  1
  Ru4+  Ru105  1  0.50153349  0.65772062  0.24228585  1
  Ru4+  Ru106  1  0.50000132  0.66754400  0.50650995  1
  Ru4+  Ru107  1  0.49563236  0.67871055  0.74542729  1
  Ru4+  Ru108  1  0.11530675  0.16603698  0.00163805  1
  Ru4+  Ru109  1  0.11230852  0.16442360  0.24811243  1
  Ru4+  Ru110  1  0.11061925  0.16517064  0.49806761  1
  Ru4+  Ru111  1  0.10697502  0.16570850  0.75178538  1
  Ru4+  Ru112  1  0.11530261  0.50002877  -0.00144089  1
  Ru4+  Ru113  1  0.12068479  0.50826518  0.25373578  1
  Ru4+  Ru114  1  0.10858271  0.49929895  0.50007412  1
  Ru4+  Ru115  1  0.11193817  0.50723401  0.74829021  1
  Ru4+  Ru116  1  0.10750613  0.82986286  0.00846669  1
  Ru4+  Ru117  1  0.11106473  0.83266396  0.25210350  1
  Ru4+  Ru118  1  0.11066087  0.83552388  0.50017432  1
  Ru4+  Ru119  1  0.11735051  0.82768233  0.74625218  1
  Ru4+  Ru120  1  0.61475053  0.16026296  0.00216635  1
  Ru4+  Ru121  1  0.61766645  0.16282130  0.25484760  1
  Ru4+  Ru122  1  0.61272309  0.16941349  0.51551814  1
  Ru4+  Ru123  1  0.61348818  0.16704979  0.74932984  1
  Ru4+  Ru124  1  0.60846900  0.50864769  0.00605907  1
  Ru4+  Ru125  1  0.60340258  0.50653700  0.24882726  1
  Ru4+  Ru126  1  0.60784545  0.49568090  0.49652350  1
  Ru4+  Ru127  1  0.61871737  0.50205804  0.74737600  1
  Ru4+  Ru128  1  0.61262996  0.82718690  -0.00164265  1
  Ru4+  Ru129  1  0.61652441  0.83377724  0.24764740  1
  Ru4+  Ru130  1  0.61768591  0.83126893  0.50280181  1
  Ru4+  Ru131  1  0.61248519  0.83523355  0.74504762  1
  Ru4+  Ru132  1  0.38345880  0.16173949  0.00545157  1
  Ru4+  Ru133  1  0.38531351  0.15596245  0.25064354  1
  Ru4+  Ru134  1  0.38628981  0.16690221  0.49690962  1
  Ru4+  Ru135  1  0.38731684  0.17630121  0.74889592  1
  Ru4+  Ru136  1  0.38981775  0.49951990  0.00023602  1
  Ru4+  Ru137  1  0.38473123  0.50036640  0.24930525  1
  Ru4+  Ru138  1  0.39418281  0.49286257  0.50161780  1
  Ru4+  Ru139  1  0.38923212  0.50570145  0.75208576  1
  Ru4+  Ru140  1  0.38966969  0.82942418  -0.00062395  1
  Ru4+  Ru141  1  0.38000212  0.83188315  0.25043324  1
  Ru4+  Ru142  1  0.38985393  0.83072119  0.50341653  1
  Ru4+  Ru143  1  0.38936446  0.83046819  0.74870217  1
  Ru4+  Ru144  1  0.88703950  0.16173831  -0.00461021  1
  Ru4+  Ru145  1  0.88067618  0.16362199  0.25123684  1
  Ru4+  Ru146  1  0.89037385  0.16651459  0.49928682  1
  Ru4+  Ru147  1  0.88834112  0.16484268  0.74684419  1
  Ru4+  Ru148  1  0.88996432  0.50701538  -0.00147187  1
  Ru4+  Ru149  1  0.88638610  0.50116909  0.25478192  1
  Ru4+  Ru150  1  0.89163144  0.50451109  0.50041570  1
  Ru4+  Ru151  1  0.88682319  0.50424918  0.74614991  1
  Ru4+  Ru152  1  0.89115065  0.83500420  -0.00152684  1
  Ru4+  Ru153  1  0.88933958  0.83212856  0.24827486  1
  Ru4+  Ru154  1  0.88628460  0.83622089  0.50327119  1
  Ru4+  Ru155  1  0.88677926  0.83635010  0.74687968  1
  Ru4+  Ru156  1  0.75150921  0.57952301  0.74666275  1
  Ru4+  Ru157  1  0.24872041  0.90769025  0.24446375  1
  Ru4+  Ru158  1  0.24941169  0.25624159  0.78002952  1
  Ru4+  Ru159  1  0.25089403  0.72403907  0.44934111  1
  Ru4+  Ru160  1  0.25058413  0.91712394  0.75739410  1
  Ru4+  Ru161  1  0.74985595  0.37864550  0.00213031  1
  Ru4+  Ru162  1  0.75168393  0.05943619  0.50846260  1
  Ru4+  Ru163  1  0.24873484  0.75876802  0.24790082  1
  Ru4+  Ru164  1  0.25038846  0.60887098  0.76638075  1
  Ru4+  Ru165  1  0.24966192  0.25207939  0.24153773  1
  Ru4+  Ru166  1  0.75183434  0.42936852  0.74876702  1
  Ru4+  Ru167  1  0.75120230  0.72099882  -0.01803715  1
  Ru4+  Ru168  1  0.25109827  0.58048375  0.47538364  1
  Ru4+  Ru169  1  0.25100831  0.99432603  0.52440368  1
  Ru4+  Ru170  1  0.75058667  0.39674696  0.49766193  1
  Ru4+  Ru171  1  0.75015762  0.22933455  0.01951760  1
  Ru4+  Ru172  1  0.75155646  0.77549733  0.26102217  1
  Ru4+  Ru173  1  0.75010150  0.76264597  0.72509970  1
  Ru4+  Ru174  1  0.75066461  0.91379088  0.24830749  1
  Ru4+  Ru175  1  0.75175906  0.33900161  0.26432905  1
  Ru4+  Ru176  1  0.25127074  0.75533626  0.77406612  1
  Ru4+  Ru177  1  0.75070656  0.96572378  -0.01016846  1
  Ru4+  Ru178  1  0.24898414  0.24068382  0.49380671  1
  Ru4+  Ru179  1  0.74974579  0.63672951  0.23506620  1
  O2-  O180  1  0.16146239  0.07872385  -0.00229796  1
  O2-  O181  1  0.16114378  0.08136460  0.25052250  1
  O2-  O182  1  0.16432422  0.08092888  0.50419453  1
  O2-  O183  1  0.16121972  0.07767039  0.74708156  1
  O2-  O184  1  0.16917263  0.41536014  -0.00007120  1
  O2-  O185  1  0.16261614  0.41473877  0.25234135  1
  O2-  O186  1  0.15498194  0.40843085  0.50026932  1
  O2-  O187  1  0.15505090  0.40901181  0.75058081  1
  O2-  O188  1  0.16875793  0.75182754  0.00345689  1
  O2-  O189  1  0.16595906  0.74957702  0.25184243  1
  O2-  O190  1  0.16366067  0.74637511  0.49721065  1
  O2-  O191  1  0.16743617  0.74456527  0.75101691  1
  O2-  O192  1  0.66952832  0.08183348  0.00890285  1
  O2-  O193  1  0.66406214  0.07794587  0.24678011  1
  O2-  O194  1  0.66871130  0.07732949  0.49814431  1
  O2-  O195  1  0.66588164  0.07937637  0.74805579  1
  O2-  O196  1  0.66985819  0.41631032  -0.00456773  1
  O2-  O197  1  0.66480649  0.41892994  0.24813238  1
  O2-  O198  1  0.67032801  0.41410127  0.50359176  1
  O2-  O199  1  0.66995695  0.41802402  0.75541889  1
  O2-  O200  1  0.67079103  0.74930406  -0.00504452  1
  O2-  O201  1  0.67356376  0.75239176  0.24851267  1
  O2-  O202  1  0.66549122  0.74392167  0.50741651  1
  O2-  O203  1  0.66645140  0.74540216  0.74338761  1
  O2-  O204  1  0.33793054  0.25283673  -0.00219813  1
  O2-  O205  1  0.33594792  0.25028358  0.24572009  1
  O2-  O206  1  0.33044331  0.24828851  0.50262846  1
  O2-  O207  1  0.33255971  0.25242881  0.75303759  1
  O2-  O208  1  0.33499906  0.58437862  0.00078697  1
  O2-  O209  1  0.33295505  0.58369255  0.24572882  1
  O2-  O210  1  0.34056221  0.58312886  0.49607756  1
  O2-  O211  1  0.33436937  0.59048577  0.75108383  1
  O2-  O212  1  0.33614888  0.91818080  -0.00078646  1
  O2-  O213  1  0.33180435  0.91727674  0.24757897  1
  O2-  O214  1  0.33509407  0.91898797  0.50827005  1
  O2-  O215  1  0.33239653  0.91980645  0.75046475  1
  O2-  O216  1  0.83140286  0.25209560  0.00456195  1
  O2-  O217  1  0.83335990  0.25618457  0.25199962  1
  O2-  O218  1  0.83564591  0.25677145  0.50442788  1
  O2-  O219  1  0.83438329  0.25342877  0.75326088  1
  O2-  O220  1  0.83202567  0.58922014  -0.00023057  1
  O2-  O221  1  0.83217736  0.58953716  0.25004957  1
  O2-  O222  1  0.83677390  0.59084421  0.50286462  1
  O2-  O223  1  0.83328487  0.58776847  0.74555488  1
  O2-  O224  1  0.83214628  0.92276490  0.00051581  1
  O2-  O225  1  0.83086783  0.91898089  0.25114056  1
  O2-  O226  1  0.83451179  0.91634745  0.49621395  1
  O2-  O227  1  0.83744446  0.92017425  0.75057987  1
  O2-  O228  1  0.16085607  0.25243911  -0.00010812  1
  O2-  O229  1  0.16469118  0.25405747  0.24956000  1
  O2-  O230  1  0.16451086  0.25066106  0.49536089  1
  O2-  O231  1  0.16456659  0.25009332  0.75201918  1
  O2-  O232  1  0.16938044  0.58282514  -0.00174414  1
  O2-  O233  1  0.17044741  0.58675890  0.25056525  1
  O2-  O234  1  0.16730739  0.58657195  0.49621005  1
  O2-  O235  1  0.16457142  0.59036830  0.75007980  1
  O2-  O236  1  0.16751710  0.91468742  0.00063464  1
  O2-  O237  1  0.16559698  0.91685352  0.25156924  1
  O2-  O238  1  0.17018003  0.92191437  0.50224349  1
  O2-  O239  1  0.16723262  0.91886483  0.74955505  1
  O2-  O240  1  0.66858731  0.24936925  -0.00107305  1
  O2-  O241  1  0.66680977  0.24928048  0.25404568  1
  O2-  O242  1  0.66595231  0.25154951  0.50024674  1
  O2-  O243  1  0.66645831  0.25551333  0.75666525  1
  O2-  O244  1  0.66505108  0.58610033  -0.00150406  1
  O2-  O245  1  0.67298490  0.58862602  0.24964064  1
  O2-  O246  1  0.66059090  0.58685461  0.50421131  1
  O2-  O247  1  0.66918613  0.58735080  0.74556827  1
  O2-  O248  1  0.66807570  0.92076353  0.00376694  1
  O2-  O249  1  0.67027324  0.92093730  0.24936330  1
  O2-  O250  1  0.66528547  0.91655968  0.49953220  1
  O2-  O251  1  0.66234803  0.91750488  0.74587190  1
  O2-  O252  1  0.33166029  0.08042432  -0.00050276  1
  O2-  O253  1  0.33042485  0.08477850  0.24436468  1
  O2-  O254  1  0.32823243  0.07779603  0.50924347  1
  O2-  O255  1  0.34214918  0.07708400  0.74769038  1
  O2-  O256  1  0.33276413  0.41604974  0.00035919  1
  O2-  O257  1  0.33425571  0.41957617  0.24289977  1
  O2-  O258  1  0.33739101  0.41088525  0.50495677  1
  O2-  O259  1  0.34784525  0.40952030  0.74844740  1
  O2-  O260  1  0.33335169  0.74865091  -0.00262555  1
  O2-  O261  1  0.33058678  0.74640570  0.24732619  1
  O2-  O262  1  0.33206572  0.74540019  0.50038583  1
  O2-  O263  1  0.33623160  0.74737574  0.75457819  1
  O2-  O264  1  0.83373557  0.08207891  0.00179677  1
  O2-  O265  1  0.83572488  0.07557807  0.25107488  1
  O2-  O266  1  0.83636296  0.07921108  0.50117163  1
  O2-  O267  1  0.83041214  0.08066739  0.75171365  1
  O2-  O268  1  0.83007904  0.41250133  0.00254751  1
  O2-  O269  1  0.83214055  0.41003201  0.25168452  1
  O2-  O270  1  0.83129936  0.41290991  0.50265847  1
  O2-  O271  1  0.83116631  0.41246223  0.74959236  1
  O2-  O272  1  0.83346918  0.74601411  0.00025985  1
  O2-  O273  1  0.83328681  0.75220849  0.25391304  1
  O2-  O274  1  0.83740470  0.74649670  0.49831967  1
  O2-  O275  1  0.83310568  0.74537762  0.74573313  1
  O2-  O276  1  0.94905757  0.90003054  0.24140880  1
  O2-  O277  1  0.04586817  0.09203370  0.50533357  1
  O2-  O278  1  0.54036638  0.19202605  0.49597458  1
  O2-  O279  1  0.94985059  0.42290453  0.98517317  1
  O2-  O280  1  0.04749823  0.43573429  0.73533513  1
  O2-  O281  1  0.55207076  0.23693334  0.26563398  1
  O2-  O282  1  0.05141461  0.42912355  0.26826155  1
  O2-  O283  1  0.54950012  0.56392379  0.04987144  1
  O2-  O284  1  0.45471551  0.10897865  0.20077232  1
  O2-  O285  1  0.53567716  0.11968269  0.03557817  1
  O2-  O286  1  0.04338794  0.89955581  0.76063547  1
  O2-  O287  1  0.54239349  0.90883058  0.01535318  1
  O2-  O288  1  0.55479075  0.43379012  0.73556623  1
  O2-  O289  1  0.95041504  0.23398940  0.23190594  1
  O2-  O290  1  0.43897647  0.41221118  0.97868265  1
  O2-  O291  1  0.05053710  0.90604789  0.27112379  1
  O2-  O292  1  0.44694856  0.22365460  0.53374560  1
  O2-  O293  1  0.45718389  0.76387305  0.25250083  1
  O2-  O294  1  0.04753383  0.54670263  0.96406907  1
  O2-  O295  1  0.54338695  0.42908657  0.77027810  1
  O2-  O296  1  0.44241116  0.58291413  0.27746569  1
  O2-  O297  1  0.54850258  0.44310447  0.95774374  1
  O2-  O298  1  0.55279089  0.90420306  0.97994587  1
  O2-  O299  1  0.55328918  0.09496801  0.26831010  1
  O2-  O300  1  0.52330830  0.54101698  0.21622996  1
  O2-  O301  1  0.94711873  0.42416156  0.23351019  1
  O2-  O302  1  0.04853497  0.23913511  0.50845015  1
  O2-  O303  1  0.55227045  0.41931755  0.26961110  1
  O2-  O304  1  0.02982134  0.78932605  0.04697383  1
  O2-  O305  1  0.04358036  0.23139082  0.73306148  1
  O2-  O306  1  0.45595896  0.90872697  0.25549062  1
  O2-  O307  1  0.44371221  0.76443504  0.28531970  1
  O2-  O308  1  0.54020670  0.80673238  0.24337265  1
  O2-  O309  1  0.44615014  0.58312556  0.97924157  1
  O2-  O310  1  0.54802096  0.57767216  0.77123905  1
  O2-  O311  1  0.44859484  0.09328062  0.77029035  1
  O2-  O312  1  0.54241198  0.88986329  0.48661632  1
  O2-  O313  1  0.45611385  0.10067361  0.73364301  1
  O2-  O314  1  0.94586286  0.58468337  0.94866222  1
  O2-  O315  1  0.94814136  0.42874564  0.74915844  1
  O2-  O316  1  0.04345476  0.77128962  0.49485394  1
  O2-  O317  1  0.54131211  0.19668954  0.49341600  1
  O2-  O318  1  0.45377625  0.23333774  0.00291354  1
  O2-  O319  1  0.95230891  0.57323071  0.25783967  1
  O2-  O320  1  0.53203378  0.44123611  -0.01308690  1
  O2-  O321  1  0.45160806  0.22878234  0.53760852  1
  O2-  O322  1  0.05392241  0.42958926  0.22921472  1
  O2-  O323  1  0.55165239  0.57500102  0.73238382  1
  O2-  O324  1  0.06398328  0.59263534  0.27623582  1
  O2-  O325  1  0.57513667  0.36086372  0.07501863  1
  O2-  O326  1  0.56812317  0.05961624  0.53488040  1
  O2-  O327  1  0.58044430  0.58361162  0.33712358  1
  O2-  O328  1  0.43519038  0.06811247  0.03732731  1
  O2-  O329  1  0.93925437  0.25347472  0.20354409  1
  O2-  O330  1  0.07753531  0.74118523  0.94075785  1
  O2-  O331  1  0.93878927  0.07135865  0.97005816  1
  O2-  O332  1  0.94013317  0.41639513  0.47804708  1
  O2-  O333  1  0.43306236  0.07131197  0.47801817  1
  O2-  O334  1  0.94158242  0.41275276  0.98403276  1
  O2-  O335  1  0.58139167  0.27378502  0.57407483  1
  O2-  O336  1  0.56424436  0.74292450  0.02392394  1
  O2-  O337  1  0.44004015  0.59549743  0.78344096  1
  O2-  O338  1  0.06299875  0.91691358  0.77641061  1
  O2-  O339  1  0.43689094  0.40448923  0.27443392  1
  O2-  O340  1  0.56426599  0.93097849  0.28383827  1
  O2-  O341  1  0.93690633  0.25102210  0.98460878  1
  O2-  O342  1  0.56109038  0.27015595  0.27091178  1
  O2-  O343  1  0.06447275  0.92705494  0.97691772  1
  O2-  O344  1  0.06282162  0.58983431  0.47595764  1
  O2-  O345  1  0.93654456  0.07184782  0.71801141  1
  O2-  O346  1  0.91939727  0.57777773  0.09606828  1
  O2-  O347  1  0.43543647  0.59831697  0.28182619  1
  O2-  O348  1  0.06599866  0.40151652  0.98422839  1
  O2-  O349  1  0.56715210  0.43171228  0.57526101  1
  O2-  O350  1  0.06520369  0.07472662  0.77509548  1
  O2-  O351  1  0.56139880  0.28519477  0.41377863  1
  O2-  O352  1  0.58081727  0.71733769  0.22002421  1
  O2-  O353  1  0.56883758  0.42338792  0.42546193  1
  O2-  O354  1  0.56378846  0.25090454  0.97058387  1
  O2-  O355  1  0.56365701  0.61015919  0.92428147  1
  O2-  O356  1  0.55366486  0.91134328  0.46037044  1
  O2-  O357  1  0.42321711  0.28063558  0.41194958  1
  O2-  O358  1  0.94067884  0.92489785  0.53432292  1
  O2-  O359  1  0.43677550  0.40976149  0.57935085  1
  O2-  O360  1  0.43847025  0.73752379  0.02533927  1
  O2-  O361  1  0.43749667  0.74173213  0.46797181  1
  O2-  O362  1  0.07089254  0.61238179  0.07913629  1
  O2-  O363  1  0.42008114  0.06289957  0.31293020  1
  O2-  O364  1  0.58796437  0.58710884  0.17601112  1
  O2-  O365  1  0.43758266  0.91877296  0.72655009  1
  O2-  O366  1  0.43653088  0.91188317  0.28021263  1
  O2-  O367  1  0.93619495  0.25245893  0.47562130  1
  O2-  O368  1  0.94077028  0.57974192  0.94639190  1
  O2-  O369  1  0.06304493  0.92510269  0.52339108  1
  O2-  O370  1  0.43523244  0.42582273  0.43059643  1
  O2-  O371  1  0.58041771  0.06999056  0.93480428  1
  O2-  O372  1  0.75284009  0.33773835  0.13543808  1
  O2-  O373  1  0.25235230  0.67597162  0.11470864  1
  O2-  O374  1  0.75115013  0.00709177  0.87798734  1
  O2-  O375  1  0.75019943  -0.00466584  0.60426545  1
  O2-  O376  1  0.24983777  -0.00459230  0.65299365  1
  O2-  O377  1  0.75039360  0.65244069  0.10380472  1
  O2-  O378  1  0.25060607  -0.01089338  0.15445010  1
  O2-  O379  1  0.24930661  0.67456377  0.33903750  1
  O2-  O380  1  0.24889427  -0.00017720  0.84413048  1
  O2-  O381  1  0.75077177  -0.00158733  0.40070479  1
  O2-  O382  1  0.25023756  0.32469128  0.68199802  1
  O2-  O383  1  0.24928076  0.33159826  0.55339215  1
  O2-  O384  1  0.75186767  0.33174275  0.39099893  1
  O2-  O385  1  0.25036225  0.66518712  0.55727634  1
  O2-  O386  1  0.24728472  0.32426063  0.34708779  1
  O2-  O387  1  0.24902866  0.01151776  0.41056590  1
  O2-  O388  1  0.25194826  0.67660711  0.87852610  1
  O2-  O389  1  0.25071519  0.68904049  0.67897618  1
  O2-  O390  1  0.24930075  0.00049750  0.31247592  1
  O2-  O391  1  0.75211249  0.67177767  0.36119549  1
  O2-  O392  1  0.74920222  -0.00714430  0.11561563  1
  O2-  O393  1  0.74906114  0.65223073  0.87977001  1
  O2-  O394  1  0.24886128  0.32693206  0.12364498  1
  O2-  O395  1  0.25043746  0.33667837  0.86555559  1
  O2-  O396  1  0.24980354  0.16329528  0.41381838  1
  O2-  O397  1  0.25008286  0.47120261  0.90811461  1
  O2-  O398  1  0.24973947  0.18018178  0.87639894  1
  O2-  O399  1  0.25024969  0.53028916  0.36876302  1
  O2-  O400  1  0.75050384  0.18057076  0.91332470  1
  O2-  O401  1  0.75028732  0.49486101  0.39381531  1
  O2-  O402  1  0.24953763  0.16960379  0.08502732  1
  O2-  O403  1  0.74988215  0.83738978  0.79868608  1
  O2-  O404  1  0.25019657  0.84172584  0.85728829  1
  O2-  O405  1  0.24898905  0.53625880  0.85263314  1
  O2-  O406  1  0.75045531  0.81104839  0.62519031  1
  O2-  O407  1  0.24940512  0.83202126  0.15108208  1
  O2-  O408  1  0.75049977  0.82514613  0.92430088  1
  O2-  O409  1  0.24946566  0.82497012  0.36640613  1
  O2-  O410  1  0.75044776  0.49844484  0.84771217  1
  O2-  O411  1  0.75079309  0.15978930  0.34329231  1
  O2-  O412  1  0.24861085  0.49946301  0.16835029  1
  O2-  O413  1  0.25024041  0.83175929  0.67483112  1
  O2-  O414  1  0.75041657  0.15482573  0.60832249  1
  O2-  O415  1  0.74996926  0.18291041  0.12023792  1
  O2-  O416  1  0.25010820  0.16629781  0.32339484  1
  O2-  O417  1  0.24915497  0.16464404  0.16825558  1
  O2-  O418  1  0.24919947  0.54229645  0.67462839  1
  O2-  O419  1  0.25054271  0.50376505  0.56173631  1
  O2-  O420  1  0.51158644  0.32799834  0.64589573  1
  O2-  O421  1  0.45528347  -0.00221930  0.89346164  1
  O2-  O422  1  0.02616262  0.66230161  0.62772851  1
  O2-  O423  1  0.95314180  0.01388908  0.12308206  1
  O2-  O424  1  0.47120855  0.33159299  0.12709747  1
  O2-  O425  1  0.95333781  0.32998179  0.62727921  1
  O2-  O426  1  0.98010634  0.33408983  0.37552018  1
  O2-  O427  1  0.47690401  -0.00335351  0.61867424  1
  O2-  O428  1  0.96057188  0.32321579  0.85382264  1
  O2-  O429  1  0.04315758  0.65075831  0.84947210  1
  O2-  O430  1  0.52735030  -0.00122573  0.13209008  1
  O2-  O431  1  0.51925890  0.32681749  0.87386649  1
  O2-  O432  1  0.97967693  0.68532042  0.13646774  1
  O2-  O433  1  0.54566277  -0.01691732  0.83630813  1
  O2-  O434  1  0.50475439  0.66808742  0.12365405  1
  O2-  O435  1  0.95262292  0.70154185  0.84975982  1
  O2-  O436  1  0.52205992  0.68654414  0.38784053  1
  O2-  O437  1  0.04809087  0.00994144  0.12296709  1
  O2-  O438  1  0.01354521  0.68238635  0.37330691  1
  O2-  O439  1  0.48709462  -0.01097670  0.38012550  1
  O2-  O440  1  0.04464233  0.34870302  0.61607434  1
  O2-  O441  1  0.04361822  0.32919800  0.86239307  1
  O2-  O442  1  0.02335369  0.00417936  0.63707528  1
  O2-  O443  1  0.01099263  0.00265466  0.87887442  1
