# generated using pymatgen
data_La7(Ru4O11)2
_symmetry_space_group_name_H-M   'P 1'
_cell_length_a   23.99808950
_cell_length_b   16.83832264
_cell_length_c   15.43278132
_cell_angle_alpha   90.00360564
_cell_angle_beta   90.00155849
_cell_angle_gamma   89.99554344
_symmetry_Int_Tables_number   1
_chemical_formula_structural   La7(Ru4O11)2
_chemical_formula_sum   'La84 Ru96 O264'
_cell_volume   6236.19513033
_cell_formula_units_Z   12
loop_
 _symmetry_equiv_pos_site_id
 _symmetry_equiv_pos_as_xyz
  1  'x, y, z'
loop_
 _atom_type_symbol
 _atom_type_oxidation_number
  La3+  3.0
  Ru4+  4.0
  O2-  -2.0
loop_
 _atom_site_type_symbol
 _atom_site_label
 _atom_site_symmetry_multiplicity
 _atom_site_fract_x
 _atom_site_fract_y
 _atom_site_fract_z
 _atom_site_occupancy
  La3+  La0  1  0.13829778  0.00690923  0.12301386  1
  La3+  La1  1  0.14044698  0.00788251  0.37292845  1
  La3+  La2  1  0.14349004  -0.00283185  0.62876149  1
  La3+  La3  1  0.14937569  0.00203072  0.86701951  1
  La3+  La4  1  0.14223894  0.33467903  0.12879697  1
  La3+  La5  1  0.13958530  0.34187954  0.37735421  1
  La3+  La6  1  0.14676703  0.34216870  0.62562155  1
  La3+  La7  1  0.13388948  0.33208319  0.86852980  1
  La3+  La8  1  0.13696856  0.66113242  0.12671010  1
  La3+  La9  1  0.14036444  0.66529039  0.37287109  1
  La3+  La10  1  0.15355383  0.67185923  0.63593808  1
  La3+  La11  1  0.14768618  0.66390185  0.86318484  1
  La3+  La12  1  0.63191714  0.00390363  0.12488669  1
  La3+  La13  1  0.64514010  0.00001132  0.37654563  1
  La3+  La14  1  0.63517388  -0.00231517  0.62489760  1
  La3+  La15  1  0.64501533  -0.00042400  0.88142270  1
  La3+  La16  1  0.64973387  0.32850180  0.12716444  1
  La3+  La17  1  0.64380839  0.33020198  0.37654519  1
  La3+  La18  1  0.63332536  0.33638307  0.62730212  1
  La3+  La19  1  0.64445722  0.34185191  0.88108172  1
  La3+  La20  1  0.64105388  0.67038917  0.12317467  1
  La3+  La21  1  0.63790667  0.67318621  0.37164749  1
  La3+  La22  1  0.63992098  0.67325232  0.62310937  1
  La3+  La23  1  0.63491956  0.66317769  0.87890987  1
  La3+  La24  1  0.36014434  -0.00094333  0.13027601  1
  La3+  La25  1  0.35505615  0.01242800  0.36799707  1
  La3+  La26  1  0.35668544  -0.00023904  0.62658250  1
  La3+  La27  1  0.35508878  0.00435365  0.87215368  1
  La3+  La28  1  0.35311887  0.33387258  0.12803099  1
  La3+  La29  1  0.36523397  0.33402005  0.37387199  1
  La3+  La30  1  0.36117665  0.33800327  0.62211137  1
  La3+  La31  1  0.36931045  0.33222215  0.87326342  1
  La3+  La32  1  0.36013927  0.65673511  0.12809886  1
  La3+  La33  1  0.36474369  0.65803156  0.37255231  1
  La3+  La34  1  0.35111811  0.66534893  0.62700454  1
  La3+  La35  1  0.34845763  0.66346674  0.86725236  1
  La3+  La36  1  0.86180309  0.00579209  0.12559631  1
  La3+  La37  1  0.85830918  -0.00542007  0.37273059  1
  La3+  La38  1  0.85989172  -0.00708697  0.62421809  1
  La3+  La39  1  0.86171576  -0.00313397  0.88415596  1
  La3+  La40  1  0.85237788  0.33034463  0.12771961  1
  La3+  La41  1  0.85516871  0.33097957  0.37814766  1
  La3+  La42  1  0.85783751  0.34155163  0.61859481  1
  La3+  La43  1  0.85894755  0.33742597  0.87960672  1
  La3+  La44  1  0.85749401  0.66836757  0.12545076  1
  La3+  La45  1  0.84190723  0.65933825  0.38067311  1
  La3+  La46  1  0.86471671  0.66948866  0.62096632  1
  La3+  La47  1  0.86633936  0.66530231  0.87608318  1
  La3+  La48  1  0.00426555  0.81676950  0.86238847  1
  La3+  La49  1  0.49884676  0.82787792  0.14521794  1
  La3+  La50  1  -0.00048016  0.82386045  0.62329497  1
  La3+  La51  1  -0.00074693  0.17708521  0.61736416  1
  La3+  La52  1  0.50906426  0.17565459  0.86188955  1
  La3+  La53  1  0.49738088  0.15506050  0.61184315  1
  La3+  La54  1  -0.00077202  0.17792807  0.63998622  1
  La3+  La55  1  -0.00414000  0.83416142  0.12401978  1
  La3+  La56  1  0.50777938  0.49739689  0.86818685  1
  La3+  La57  1  0.51034362  0.84047369  0.38147262  1
  La3+  La58  1  -0.00281234  0.49073924  0.84176151  1
  La3+  La59  1  0.00042382  0.82929688  0.37040250  1
  La3+  La60  1  0.50248597  0.83335733  0.89824698  1
  La3+  La61  1  -0.01513598  0.16600724  0.11286191  1
  La3+  La62  1  -0.00293627  0.83170684  0.12320150  1
  La3+  La63  1  -0.00345479  0.83833280  0.38997690  1
  La3+  La64  1  0.00056629  0.17828206  0.36181228  1
  La3+  La65  1  0.00417467  0.15684469  0.90238533  1
  La3+  La66  1  0.50911849  0.82421603  0.64202691  1
  La3+  La67  1  0.50354061  0.84459793  0.87967553  1
  La3+  La68  1  0.00408490  0.48971574  0.12130363  1
  La3+  La69  1  0.50436182  0.49655474  0.63074174  1
  La3+  La70  1  0.50113933  0.50589749  0.12176527  1
  La3+  La71  1  0.50532757  0.81476050  0.62313473  1
  La3+  La72  1  0.25039363  0.77837731  0.24437987  1
  La3+  La73  1  0.25182312  0.84504471  -0.04055610  1
  La3+  La74  1  0.24798367  0.18114332  0.51556743  1
  La3+  La75  1  0.75065821  0.79898514  0.80375934  1
  La3+  La76  1  0.24991383  0.76065995  0.48128129  1
  La3+  La77  1  0.24951168  0.51261064  0.28456309  1
  La3+  La78  1  0.75312864  0.50381310  0.66870627  1
  La3+  La79  1  0.74836462  0.43656008  0.25792315  1
  La3+  La80  1  0.74998130  0.11564201  0.76186320  1
  La3+  La81  1  0.74911828  0.20683686  0.48189628  1
  La3+  La82  1  0.74783916  0.79405848  0.20205025  1
  La3+  La83  1  0.25046297  0.42210612  -0.05870584  1
  Ru4+  Ru84  1  -0.00065658  -0.00393760  -0.01333657  1
  Ru4+  Ru85  1  0.00974407  0.01229694  0.25304127  1
  Ru4+  Ru86  1  -0.00466703  0.00862069  0.49877409  1
  Ru4+  Ru87  1  0.01652065  -0.00374384  0.76082629  1
  Ru4+  Ru88  1  -0.00277438  0.34062816  -0.01023391  1
  Ru4+  Ru89  1  0.00197008  0.33885211  0.25418001  1
  Ru4+  Ru90  1  0.00183179  0.34856977  0.49603262  1
  Ru4+  Ru91  1  -0.00156064  0.33739184  0.74857048  1
  Ru4+  Ru92  1  -0.00447061  0.65425052  0.00218350  1
  Ru4+  Ru93  1  0.00210409  0.66072665  0.24799956  1
  Ru4+  Ru94  1  0.00160260  0.64706217  0.51038665  1
  Ru4+  Ru95  1  0.00557754  0.66235184  0.75310401  1
  Ru4+  Ru96  1  0.49526819  0.01392962  -0.00236296  1
  Ru4+  Ru97  1  0.49151100  0.00513904  0.23582702  1
  Ru4+  Ru98  1  0.50078917  -0.00119038  0.50626644  1
  Ru4+  Ru99  1  0.50159050  0.00302559  0.76253896  1
  Ru4+  Ru100  1  0.49316248  0.33894632  -0.00220109  1
  Ru4+  Ru101  1  0.50299718  0.33847610  0.25990918  1
  Ru4+  Ru102  1  0.49678944  0.33471667  0.49671411  1
  Ru4+  Ru103  1  0.50456471  0.32226275  0.74686220  1
  Ru4+  Ru104  1  0.49678256  0.67112281  -0.00643247  1
  Ru4+  Ru105  1  0.50189087  0.65076006  0.26389694  1
  Ru4+  Ru106  1  0.49528793  0.64942819  0.49484559  1
  Ru4+  Ru107  1  0.50366826  0.65941118  0.73774273  1
  Ru4+  Ru108  1  0.11308256  0.16977893  0.00364713  1
  Ru4+  Ru109  1  0.11341617  0.17800150  0.25753166  1
  Ru4+  Ru110  1  0.10472242  0.16710920  0.49285285  1
  Ru4+  Ru111  1  0.11329555  0.16087811  0.74778372  1
  Ru4+  Ru112  1  0.11057128  0.50331833  -0.00025753  1
  Ru4+  Ru113  1  0.10880037  0.49653589  0.25303896  1
  Ru4+  Ru114  1  0.09564572  0.50771203  0.50137034  1
  Ru4+  Ru115  1  0.11244430  0.49185176  0.74691347  1
  Ru4+  Ru116  1  0.11346738  0.83631186  -0.00707778  1
  Ru4+  Ru117  1  0.11605660  0.84217239  0.24414644  1
  Ru4+  Ru118  1  0.10823162  0.83647083  0.50993395  1
  Ru4+  Ru119  1  0.11193593  0.84334446  0.74693403  1
  Ru4+  Ru120  1  0.60953884  0.16561773  0.00427887  1
  Ru4+  Ru121  1  0.60927769  0.16608131  0.24801064  1
  Ru4+  Ru122  1  0.60670998  0.17090237  0.50326856  1
  Ru4+  Ru123  1  0.60754543  0.17294174  0.75342435  1
  Ru4+  Ru124  1  0.61162770  0.50228290  -0.00262844  1
  Ru4+  Ru125  1  0.60250571  0.51044891  0.24620550  1
  Ru4+  Ru126  1  0.61333839  0.49757792  0.49977827  1
  Ru4+  Ru127  1  0.61968813  0.50588330  0.74891099  1
  Ru4+  Ru128  1  0.61388174  0.83070428  -0.00164775  1
  Ru4+  Ru129  1  0.61240837  0.83633897  0.24964172  1
  Ru4+  Ru130  1  0.62251452  0.83189538  0.49432121  1
  Ru4+  Ru131  1  0.61242182  0.83842164  0.75466042  1
  Ru4+  Ru132  1  0.39225887  0.16314734  -0.00179470  1
  Ru4+  Ru133  1  0.38540323  0.16288607  0.24945612  1
  Ru4+  Ru134  1  0.39299083  0.16741123  0.49784799  1
  Ru4+  Ru135  1  0.38510564  0.16807903  0.75235984  1
  Ru4+  Ru136  1  0.39683628  0.49785775  -0.00131504  1
  Ru4+  Ru137  1  0.39328697  0.49550004  0.25178257  1
  Ru4+  Ru138  1  0.39884334  0.50925100  0.49755997  1
  Ru4+  Ru139  1  0.38444368  0.49806334  0.75289130  1
  Ru4+  Ru140  1  0.38920652  0.82621205  -0.00072326  1
  Ru4+  Ru141  1  0.38829265  0.83242891  0.24595976  1
  Ru4+  Ru142  1  0.38978715  0.83971590  0.48940532  1
  Ru4+  Ru143  1  0.38225808  0.83542975  0.75506801  1
  Ru4+  Ru144  1  0.88633140  0.16861136  0.00061849  1
  Ru4+  Ru145  1  0.88841992  0.17285099  0.24929507  1
  Ru4+  Ru146  1  0.89289336  0.16196875  0.49832556  1
  Ru4+  Ru147  1  0.88623594  0.17221308  0.74273935  1
  Ru4+  Ru148  1  0.89154727  0.50468740  -0.00312187  1
  Ru4+  Ru149  1  0.89504544  0.50274468  0.25612498  1
  Ru4+  Ru150  1  0.89447156  0.50335580  0.49822384  1
  Ru4+  Ru151  1  0.89168586  0.50257245  0.75292197  1
  Ru4+  Ru152  1  0.88446688  0.83894270  -0.00454827  1
  Ru4+  Ru153  1  0.88367958  0.82468839  0.26296761  1
  Ru4+  Ru154  1  0.88341931  0.82795742  0.50546286  1
  Ru4+  Ru155  1  0.89172832  0.83170403  0.75172852  1
  Ru4+  Ru156  1  0.75079433  0.40006978  0.78411054  1
  Ru4+  Ru157  1  0.75109601  0.05714974  0.52397825  1
  Ru4+  Ru158  1  0.24938399  0.57987009  0.50610054  1
  Ru4+  Ru159  1  0.24861508  0.90441833  0.51038928  1
  Ru4+  Ru160  1  0.74942470  0.93606946  0.23561569  1
  Ru4+  Ru161  1  0.74896005  0.59524288  0.24051641  1
  Ru4+  Ru162  1  0.25083433  0.57780197  -0.01308199  1
  Ru4+  Ru163  1  0.25229921  0.30418670  0.44080778  1
  Ru4+  Ru164  1  0.74816076  0.26287716  0.74527801  1
  Ru4+  Ru165  1  0.24974813  0.25392443  -0.00040113  1
  Ru4+  Ru166  1  0.24969049  0.03871212  0.48810986  1
  Ru4+  Ru167  1  0.75189799  0.62416923  0.76360479  1
  Ru4+  Ru168  1  0.25049842  0.42702591  0.52007372  1
  Ru4+  Ru169  1  0.25124046  0.98219765  -0.00000585  1
  Ru4+  Ru170  1  0.24959481  0.11952863  0.00310865  1
  Ru4+  Ru171  1  0.24973877  0.23958455  0.74872466  1
  Ru4+  Ru172  1  0.74945189  0.09272408  0.00088521  1
  Ru4+  Ru173  1  0.74762690  0.58395516  0.50854694  1
  Ru4+  Ru174  1  0.24958378  0.71639405  0.02742772  1
  Ru4+  Ru175  1  0.75020484  0.58790378  -0.00192040  1
  Ru4+  Ru176  1  0.75112009  0.10866914  0.24256770  1
  Ru4+  Ru177  1  0.25093364  0.93289143  0.25977617  1
  Ru4+  Ru178  1  0.74975119  0.24073229  -0.00138350  1
  Ru4+  Ru179  1  0.75103903  0.93217994  0.74035510  1
  O2-  O180  1  0.17046003  0.08640283  0.00254653  1
  O2-  O181  1  0.15845743  0.08373997  0.24521934  1
  O2-  O182  1  0.16340521  0.07824780  0.50155997  1
  O2-  O183  1  0.16861290  0.08393210  0.74659437  1
  O2-  O184  1  0.15960550  0.40809267  0.00087230  1
  O2-  O185  1  0.16913482  0.41429328  0.25121669  1
  O2-  O186  1  0.16479723  0.42574307  0.50058253  1
  O2-  O187  1  0.17041240  0.41377989  0.75324008  1
  O2-  O188  1  0.16683296  0.74641298  0.00030596  1
  O2-  O189  1  0.15847620  0.74584487  0.24431664  1
  O2-  O190  1  0.15391288  0.74517405  0.49736104  1
  O2-  O191  1  0.16229964  0.75786292  0.75605024  1
  O2-  O192  1  0.66759170  0.08081993  0.00578834  1
  O2-  O193  1  0.66954975  0.08884322  0.24048424  1
  O2-  O194  1  0.66333853  0.08165632  0.50485735  1
  O2-  O195  1  0.65874615  0.08175277  0.74951279  1
  O2-  O196  1  0.66079895  0.41920558  0.00588622  1
  O2-  O197  1  0.65023477  0.41155014  0.25210381  1
  O2-  O198  1  0.66149221  0.41464257  0.50621342  1
  O2-  O199  1  0.66829710  0.41352110  0.75155619  1
  O2-  O200  1  0.66645467  0.74671305  -0.00874474  1
  O2-  O201  1  0.66551016  0.74840069  0.24517909  1
  O2-  O202  1  0.66700106  0.74473986  0.49981419  1
  O2-  O203  1  0.67011488  0.74253053  0.75578697  1
  O2-  O204  1  0.33370944  0.24925075  -0.00418393  1
  O2-  O205  1  0.34014859  0.25295894  0.24914037  1
  O2-  O206  1  0.33640167  0.25600561  0.49911754  1
  O2-  O207  1  0.33124727  0.25496286  0.75346423  1
  O2-  O208  1  0.33810963  0.58257911  -0.00481302  1
  O2-  O209  1  0.33479828  0.58001970  0.25106583  1
  O2-  O210  1  0.33029657  0.57902139  0.49528405  1
  O2-  O211  1  0.33735492  0.58236748  0.74602382  1
  O2-  O212  1  0.33496733  0.92521647  0.00011507  1
  O2-  O213  1  0.33051147  0.91529214  0.25374861  1
  O2-  O214  1  0.32961481  0.91713011  0.50725335  1
  O2-  O215  1  0.33812648  0.92470336  0.74696670  1
  O2-  O216  1  0.83307708  0.25161253  -0.00090728  1
  O2-  O217  1  0.83389113  0.24882843  0.25311583  1
  O2-  O218  1  0.83545659  0.25377594  0.50393524  1
  O2-  O219  1  0.82723678  0.24927286  0.75474217  1
  O2-  O220  1  0.83013536  0.58867876  -0.00729651  1
  O2-  O221  1  0.83373894  0.58168738  0.24434156  1
  O2-  O222  1  0.83180831  0.58003563  0.51675929  1
  O2-  O223  1  0.83167446  0.58882804  0.74786361  1
  O2-  O224  1  0.82875027  0.91804326  -0.00313565  1
  O2-  O225  1  0.83352641  0.91851077  0.24602035  1
  O2-  O226  1  0.84216975  0.92047349  0.50194956  1
  O2-  O227  1  0.83651429  0.91917314  0.75242920  1
  O2-  O228  1  0.16694705  0.25345972  -0.00276116  1
  O2-  O229  1  0.16840452  0.25051121  0.24428102  1
  O2-  O230  1  0.16208165  0.25567812  0.49877009  1
  O2-  O231  1  0.16787845  0.24720550  0.75570141  1
  O2-  O232  1  0.16423753  0.58690038  -0.00209604  1
  O2-  O233  1  0.16517365  0.58295439  0.24880982  1
  O2-  O234  1  0.16970296  0.58481114  0.49843572  1
  O2-  O235  1  0.16457714  0.57895504  0.74536510  1
  O2-  O236  1  0.17039513  0.92325401  0.00578407  1
  O2-  O237  1  0.17148947  0.92559349  0.24877440  1
  O2-  O238  1  0.16631068  0.91642946  0.49451069  1
  O2-  O239  1  0.16858230  0.91978420  0.74533546  1
  O2-  O240  1  0.66561653  0.24813863  -0.00230938  1
  O2-  O241  1  0.66191898  0.24575174  0.25529198  1
  O2-  O242  1  0.66328498  0.25555672  0.50647982  1
  O2-  O243  1  0.66635508  0.25126140  0.74704952  1
  O2-  O244  1  0.66726011  0.58827733  -0.00062846  1
  O2-  O245  1  0.66461479  0.58554022  0.25098915  1
  O2-  O246  1  0.66175421  0.58669360  0.50259313  1
  O2-  O247  1  0.67384562  0.58643564  0.75153986  1
  O2-  O248  1  0.66544440  0.91961803  0.00678401  1
  O2-  O249  1  0.66581288  0.92248717  0.24055259  1
  O2-  O250  1  0.66283607  0.92324903  0.50466236  1
  O2-  O251  1  0.66719025  0.92343664  0.75347131  1
  O2-  O252  1  0.32746106  0.08917285  0.00073579  1
  O2-  O253  1  0.32624263  0.08512947  0.24113769  1
  O2-  O254  1  0.33435822  0.08024500  0.50201200  1
  O2-  O255  1  0.33542602  0.08376874  0.74728845  1
  O2-  O256  1  0.34461882  0.40867267  -0.00352632  1
  O2-  O257  1  0.33418071  0.41346079  0.25425445  1
  O2-  O258  1  0.33543400  0.42238019  0.50456041  1
  O2-  O259  1  0.33835744  0.40885642  0.75033701  1
  O2-  O260  1  0.33375605  0.74329576  0.00223009  1
  O2-  O261  1  0.34020944  0.73995610  0.25279450  1
  O2-  O262  1  0.34585657  0.74655580  0.49497010  1
  O2-  O263  1  0.33831233  0.74810617  0.74823704  1
  O2-  O264  1  0.82952304  0.08097464  0.00237880  1
  O2-  O265  1  0.83764723  0.08256220  0.25410550  1
  O2-  O266  1  0.83562211  0.07967494  0.50156127  1
  O2-  O267  1  0.84354958  0.07564442  0.75242555  1
  O2-  O268  1  0.83970992  0.42085066  0.00160490  1
  O2-  O269  1  0.84319962  0.40922187  0.25118690  1
  O2-  O270  1  0.83701474  0.41899184  0.49844814  1
  O2-  O271  1  0.83271255  0.41481459  0.75325680  1
  O2-  O272  1  0.83517320  0.75099520  -0.00763497  1
  O2-  O273  1  0.82983788  0.74673456  0.24284280  1
  O2-  O274  1  0.83180499  0.74871868  0.50968773  1
  O2-  O275  1  0.83126665  0.74424974  0.75267652  1
  O2-  O276  1  0.45440399  0.41954593  0.25549195  1
  O2-  O277  1  0.94957307  0.41885296  0.22555314  1
  O2-  O278  1  0.54218268  0.43005009  0.99676941  1
  O2-  O279  1  0.54089989  0.23116844  0.70302769  1
  O2-  O280  1  0.53510616  0.10378468  0.24978476  1
  O2-  O281  1  0.44672699  0.08154641  0.50751109  1
  O2-  O282  1  0.05233350  0.41962559  0.42937249  1
  O2-  O283  1  0.05182261  0.09256994  0.02251201  1
  O2-  O284  1  0.55964968  0.74529148  0.27345867  1
  O2-  O285  1  0.05860410  0.75510171  0.22078685  1
  O2-  O286  1  0.45075713  0.89640669  0.55084926  1
  O2-  O287  1  0.54227779  0.54263119  0.30361160  1
  O2-  O288  1  0.04651494  0.89793095  0.03219449  1
  O2-  O289  1  0.54204970  0.23907678  0.27899066  1
  O2-  O290  1  0.95098760  0.91122616  0.27204393  1
  O2-  O291  1  0.02380211  0.53176991  0.52796860  1
  O2-  O292  1  0.95174680  0.19081157  0.79799397  1
  O2-  O293  1  0.04765434  0.44205747  0.98269669  1
  O2-  O294  1  0.44548003  0.79135369  0.30221216  1
  O2-  O295  1  0.45186375  0.56693514  0.76392771  1
  O2-  O296  1  0.94918217  0.91259171  0.23301315  1
  O2-  O297  1  0.95102718  0.75953900  0.00301097  1
  O2-  O298  1  0.48134213  0.53086670  0.49188065  1
  O2-  O299  1  0.95170474  0.75797675  0.49921333  1
  O2-  O300  1  0.05039869  0.21400098  0.79457511  1
  O2-  O301  1  0.04117329  0.19093755  0.21512519  1
  O2-  O302  1  0.55273141  0.09488147  0.02085123  1
  O2-  O303  1  0.44953165  0.90239956  0.99511299  1
  O2-  O304  1  0.54906230  0.90345957  0.02004093  1
  O2-  O305  1  0.93655805  0.58062252  0.56902272  1
  O2-  O306  1  0.45119663  0.10427470  0.75219537  1
  O2-  O307  1  0.54558809  0.91132325  0.25511374  1
  O2-  O308  1  0.45324408  0.76391270  0.77865331  1
  O2-  O309  1  0.55403689  0.08924266  0.74147703  1
  O2-  O310  1  0.55349477  0.43222249  0.74454280  1
  O2-  O311  1  0.95134975  0.57056927  0.20115115  1
  O2-  O312  1  0.94961072  0.76138415  0.22862519  1
  O2-  O313  1  0.05622212  0.58003163  0.22573718  1
  O2-  O314  1  0.44704880  0.57354777  0.24855840  1
  O2-  O315  1  0.94487485  0.42567633  0.50900055  1
  O2-  O316  1  0.46001971  0.11607754  0.95094004  1
  O2-  O317  1  0.95765644  0.76891389  0.24071309  1
  O2-  O318  1  0.95165210  0.89630930  0.94327056  1
  O2-  O319  1  0.96884819  0.55930696  0.95050517  1
  O2-  O320  1  0.44968306  0.24208106  0.50321897  1
  O2-  O321  1  0.05316505  0.42308771  0.26846745  1
  O2-  O322  1  0.94612974  0.42207108  1.00767512  1
  O2-  O323  1  0.55367978  0.90291077  0.51168618  1
  O2-  O324  1  0.43327596  0.92547656  0.21797675  1
  O2-  O325  1  0.05909109  0.75554440  0.72495752  1
  O2-  O326  1  0.05717583  0.92795484  0.51876861  1
  O2-  O327  1  0.93336674  0.07279949  0.01376543  1
  O2-  O328  1  0.06248329  0.58386999  0.77310733  1
  O2-  O329  1  0.06295636  0.07566664  0.67044761  1
  O2-  O330  1  0.44291119  0.71532618  0.16877254  1
  O2-  O331  1  0.55888135  0.75080720  0.51592392  1
  O2-  O332  1  0.56477833  0.74252027  0.73189968  1
  O2-  O333  1  0.90630375  0.73851382  0.34547255  1
  O2-  O334  1  0.06686922  0.07472995  0.82390256  1
  O2-  O335  1  0.08437814  0.61851103  0.56331621  1
  O2-  O336  1  0.58076062  0.05419850  0.27141932  1
  O2-  O337  1  0.56476187  0.28653450  0.83260175  1
  O2-  O338  1  0.56005313  0.26505795  0.53876006  1
  O2-  O339  1  0.93149808  0.59530921  0.43631238  1
  O2-  O340  1  0.06757772  0.92538152  0.18008535  1
  O2-  O341  1  0.92306830  0.27159331  0.69414948  1
  O2-  O342  1  0.56390386  0.27517874  0.19953294  1
  O2-  O343  1  0.06705065  0.27620965  0.32223963  1
  O2-  O344  1  0.07374798  0.26072650  0.66193194  1
  O2-  O345  1  0.56224715  0.58371132  0.74627398  1
  O2-  O346  1  0.95186002  0.74813980  0.49692222  1
  O2-  O347  1  0.93952153  0.73547333  0.77839683  1
  O2-  O348  1  0.06457426  0.40357109  0.81023710  1
  O2-  O349  1  0.94076388  0.26035622  0.21430791  1
  O2-  O350  1  0.07494092  0.91171387  0.32910520  1
  O2-  O351  1  0.05806967  0.92274672  0.67409043  1
  O2-  O352  1  0.92038893  0.91586945  0.08154760  1
  O2-  O353  1  0.56199370  0.41070857  0.71558395  1
  O2-  O354  1  0.94089168  0.25472123  0.51941156  1
  O2-  O355  1  0.43580363  0.08596310  0.22663191  1
  O2-  O356  1  0.41977988  0.06042543  0.05282801  1
  O2-  O357  1  0.93262261  0.58573055  0.32290508  1
  O2-  O358  1  0.43281101  0.40103086  0.46738507  1
  O2-  O359  1  0.41478514  0.92590815  0.42119967  1
  O2-  O360  1  0.56175481  0.60332729  0.16857548  1
  O2-  O361  1  0.41666007  0.62152483  0.52189427  1
  O2-  O362  1  0.06864773  0.39351802  0.55352056  1
  O2-  O363  1  0.08345737  0.56876230  0.40569768  1
  O2-  O364  1  0.06404915  0.91284923  0.81495123  1
  O2-  O365  1  0.43774934  0.26434666  0.96682336  1
  O2-  O366  1  0.07501893  0.96026025  0.94274246  1
  O2-  O367  1  0.91900093  0.59763648  0.05582701  1
  O2-  O368  1  0.06447098  0.43429655  0.67917872  1
  O2-  O369  1  0.55943225  0.59368896  0.95951123  1
  O2-  O370  1  0.06286998  0.74159313  0.03490107  1
  O2-  O371  1  0.55186255  0.75325874  0.25884768  1
  O2-  O372  1  0.24992076  0.66928271  0.91497533  1
  O2-  O373  1  0.25252459  0.00126614  0.87385244  1
  O2-  O374  1  0.25146931  0.67189705  0.80747230  1
  O2-  O375  1  0.74846923  0.33435261  0.42575890  1
  O2-  O376  1  0.74968815  0.66721365  0.12855577  1
  O2-  O377  1  0.24933624  0.00625529  0.36517794  1
  O2-  O378  1  0.25265341  0.33821977  0.60446976  1
  O2-  O379  1  0.74957625  0.33346219  0.07183280  1
  O2-  O380  1  0.25127188  0.66811696  0.59475055  1
  O2-  O381  1  0.74895037  0.32934029  0.90060321  1
  O2-  O382  1  0.25242496  0.00414514  0.61216037  1
  O2-  O383  1  0.25028329  0.66154426  0.36926892  1
  O2-  O384  1  0.75018473  0.65230074  0.62291845  1
  O2-  O385  1  0.74925244  0.33658073  0.64033343  1
  O2-  O386  1  0.75044439  0.01644976  0.64418225  1
  O2-  O387  1  0.75053733  0.01235010  0.89600775  1
  O2-  O388  1  0.75049595  0.01705440  0.31771046  1
  O2-  O389  1  0.74966979  -0.01913311  0.44809369  1
  O2-  O390  1  0.74880193  0.31975769  0.33445061  1
  O2-  O391  1  0.24870365  0.66376705  0.13583880  1
  O2-  O392  1  0.74618890  0.67129554  0.44739464  1
  O2-  O393  1  0.74786225  0.68333636  0.30975420  1
  O2-  O394  1  0.25180820  0.32355569  0.09894556  1
  O2-  O395  1  0.74962563  0.32522870  0.16395949  1
  O2-  O396  1  0.24969596  0.84560017  0.61055236  1
  O2-  O397  1  0.74981837  0.84123517  0.57781034  1
  O2-  O398  1  0.25027138  0.49417580  0.42170470  1
  O2-  O399  1  0.25296080  0.82858252  0.83551667  1
  O2-  O400  1  0.24989192  0.85774770  0.37306151  1
  O2-  O401  1  0.74987254  0.84222532  0.66432211  1
  O2-  O402  1  0.74947645  0.16937479  0.89862261  1
  O2-  O403  1  0.75114453  0.15943909  0.34582640  1
  O2-  O404  1  0.74937461  0.49229189  0.06092645  1
  O2-  O405  1  0.75016636  0.83285410  0.42431418  1
  O2-  O406  1  0.74995311  0.50795199  0.83474610  1
  O2-  O407  1  0.25079885  0.19179665  0.37459851  1
  O2-  O408  1  0.74985481  0.84368691  0.33929262  1
  O2-  O409  1  0.75087726  0.53188359  0.36139591  1
  O2-  O410  1  0.25077393  0.85740347  0.12817190  1
  O2-  O411  1  0.74812707  0.49122563  0.44876657  1
  O2-  O412  1  0.25234471  0.51907391  0.85951973  1
  O2-  O413  1  0.74932504  0.49795742  0.92358166  1
  O2-  O414  1  0.25099899  0.49832059  0.15170837  1
  O2-  O415  1  0.75159371  0.15318986  0.13223612  1
  O2-  O416  1  0.25101471  0.49242945  0.06374349  1
  O2-  O417  1  0.25089673  0.17157147  0.66373082  1
  O2-  O418  1  0.25099027  0.51125867  0.60674539  1
  O2-  O419  1  0.74997318  0.51896350  0.14394317  1
  O2-  O420  1  0.02633318  0.68813361  0.37418183  1
  O2-  O421  1  0.54481384  0.65180752  0.40647052  1
  O2-  O422  1  0.49426792  -0.01157972  0.11551916  1
  O2-  O423  1  -0.00032171  0.67815519  0.63213553  1
  O2-  O424  1  0.46784678  0.34371532  0.63301105  1
  O2-  O425  1  0.01947940  0.02780366  0.37708621  1
  O2-  O426  1  0.45599634  0.67358129  0.37753136  1
  O2-  O427  1  0.02859910  0.33788637  0.11782651  1
  O2-  O428  1  0.96908625  0.01320190  0.86028162  1
  O2-  O429  1  0.45083707  -0.02245007  0.85674890  1
  O2-  O430  1  0.47971322  0.00933237  0.36115553  1
  O2-  O431  1  0.98679167  0.02138207  0.13960629  1
  O2-  O432  1  0.53419993  -0.00499781  0.39483477  1
  O2-  O433  1  0.54633670  -0.00647248  0.88119231  1
  O2-  O434  1  0.95565370  0.34394208  0.86422104  1
  O2-  O435  1  0.45098747  0.69470897  0.64436742  1
  O2-  O436  1  0.02601387  0.67928800  0.88276757  1
  O2-  O437  1  0.52405388  0.00011149  0.62849786  1
  O2-  O438  1  0.53930419  0.63496405  0.60803071  1
  O2-  O439  1  0.52792843  0.34212186  0.38591337  1
  O2-  O440  1  0.98635759  0.34643904  0.62496491  1
  O2-  O441  1  0.04807207  0.30209521  0.91415862  1
  O2-  O442  1  0.96916912  0.32219323  0.37495957  1
  O2-  O443  1  0.98784580  0.67597948  0.12202964  1
