# generated using pymatgen
data_La7(Ru4O11)2
_symmetry_space_group_name_H-M   'P 1'
_cell_length_a   23.99168396
_cell_length_b   16.83271686
_cell_length_c   15.42886685
_cell_angle_alpha   89.99843211
_cell_angle_beta   90.00054035
_cell_angle_gamma   90.00266073
_symmetry_Int_Tables_number   1
_chemical_formula_structural   La7(Ru4O11)2
_chemical_formula_sum   'La84 Ru96 O264'
_cell_volume   6230.87416745
_cell_formula_units_Z   12
loop_
 _symmetry_equiv_pos_site_id
 _symmetry_equiv_pos_as_xyz
  1  'x, y, z'
loop_
 _atom_type_symbol
 _atom_type_oxidation_number
  La3+  3.0
  Ru4+  4.0
  O2-  -2.0
loop_
 _atom_site_type_symbol
 _atom_site_label
 _atom_site_symmetry_multiplicity
 _atom_site_fract_x
 _atom_site_fract_y
 _atom_site_fract_z
 _atom_site_occupancy
  La3+  La0  1  0.14427058  -0.00635902  0.12993855  1
  La3+  La1  1  0.14539021  -0.00658683  0.37125005  1
  La3+  La2  1  0.13534413  -0.00601877  0.62529745  1
  La3+  La3  1  0.13615462  -0.00059547  0.87128990  1
  La3+  La4  1  0.13782044  0.33457214  0.12690977  1
  La3+  La5  1  0.13707496  0.33298562  0.37491420  1
  La3+  La6  1  0.13846175  0.33786230  0.62132491  1
  La3+  La7  1  0.13492084  0.33409499  0.87342862  1
  La3+  La8  1  0.14095631  0.66850285  0.12494385  1
  La3+  La9  1  0.13909902  0.66977089  0.36901340  1
  La3+  La10  1  0.14543767  0.66740040  0.63109462  1
  La3+  La11  1  0.14544780  0.66297593  0.87397289  1
  La3+  La12  1  0.64179411  0.00109400  0.12733532  1
  La3+  La13  1  0.63801527  -0.00405477  0.37607716  1
  La3+  La14  1  0.62973732  0.00555422  0.63700075  1
  La3+  La15  1  0.63283978  0.00461698  0.86582389  1
  La3+  La16  1  0.63847452  0.33455016  0.12852781  1
  La3+  La17  1  0.63427367  0.33070496  0.37036784  1
  La3+  La18  1  0.64011319  0.33725551  0.62723353  1
  La3+  La19  1  0.63107769  0.33269605  0.87719252  1
  La3+  La20  1  0.63938956  0.66922234  0.13224281  1
  La3+  La21  1  0.64557745  0.66845719  0.37389637  1
  La3+  La22  1  0.64229807  0.66794014  0.61946377  1
  La3+  La23  1  0.63923128  0.67140048  0.87072854  1
  La3+  La24  1  0.35845316  -0.00169619  0.12951146  1
  La3+  La25  1  0.35695639  -0.00630386  0.37221855  1
  La3+  La26  1  0.36224158  -0.00540334  0.62397423  1
  La3+  La27  1  0.36385095  -0.00304084  0.87327053  1
  La3+  La28  1  0.36062513  0.33765897  0.12630112  1
  La3+  La29  1  0.36113201  0.33332798  0.37162854  1
  La3+  La30  1  0.36207363  0.33445693  0.62570864  1
  La3+  La31  1  0.36392109  0.33580894  0.87794883  1
  La3+  La32  1  0.36780176  0.67859901  0.11149468  1
  La3+  La33  1  0.35944958  0.66794181  0.37394552  1
  La3+  La34  1  0.35531730  0.66613726  0.62795978  1
  La3+  La35  1  0.36278617  0.67520365  0.88272671  1
  La3+  La36  1  0.86244771  -0.00131513  0.12538640  1
  La3+  La37  1  0.86257785  -0.00260874  0.37764676  1
  La3+  La38  1  0.86214726  -0.00297751  0.62574217  1
  La3+  La39  1  0.86548147  -0.00254508  0.87154994  1
  La3+  La40  1  0.86337738  0.33228520  0.12711959  1
  La3+  La41  1  0.86570834  0.33478223  0.37679287  1
  La3+  La42  1  0.86095047  0.33756928  0.62529016  1
  La3+  La43  1  0.86623040  0.33357104  0.87254182  1
  La3+  La44  1  0.86268697  0.67476966  0.12889513  1
  La3+  La45  1  0.85401519  0.66951314  0.37306682  1
  La3+  La46  1  0.85842268  0.66777603  0.62225673  1
  La3+  La47  1  0.86443140  0.67279459  0.87626278  1
  La3+  La48  1  0.50232176  0.17164004  0.10753524  1
  La3+  La49  1  0.49942972  0.50015659  0.88346821  1
  La3+  La50  1  0.00371301  0.16554178  0.35926929  1
  La3+  La51  1  -0.00573588  0.16438529  0.87812486  1
  La3+  La52  1  -0.00068766  0.50144035  0.36607236  1
  La3+  La53  1  0.50027572  0.15926342  0.86514904  1
  La3+  La54  1  -0.00182556  0.84002872  0.61883681  1
  La3+  La55  1  0.00119896  0.82363998  0.36210134  1
  La3+  La56  1  -0.00501386  0.15936353  0.86179243  1
  La3+  La57  1  -0.00145436  0.82953479  0.63827301  1
  La3+  La58  1  0.50612839  0.16185948  0.64153862  1
  La3+  La59  1  0.00121497  0.15772562  0.12198451  1
  La3+  La60  1  0.00058824  0.49611055  0.61248388  1
  La3+  La61  1  0.49306743  0.15940738  0.34973642  1
  La3+  La62  1  0.49286565  0.82307070  0.87607446  1
  La3+  La63  1  0.00599760  0.49260489  0.86795897  1
  La3+  La64  1  0.00040962  0.82849206  0.12589651  1
  La3+  La65  1  0.50131502  0.49386104  0.13265313  1
  La3+  La66  1  0.00409936  0.15575479  0.37887830  1
  La3+  La67  1  -0.00152086  0.50569280  0.11272497  1
  La3+  La68  1  0.49893360  0.50164441  0.64139668  1
  La3+  La69  1  0.49677950  0.83567057  0.11379650  1
  La3+  La70  1  0.49763161  0.16229387  0.37065165  1
  La3+  La71  1  0.49431561  0.82583394  0.13330204  1
  La3+  La72  1  0.75056176  0.54205536  0.78855619  1
  La3+  La73  1  0.24933684  0.54288201  0.50855523  1
  La3+  La74  1  0.24930576  0.16659278  0.05695305  1
  La3+  La75  1  0.24927204  0.16024733  0.74308087  1
  La3+  La76  1  0.24999059  0.10441574  0.44918067  1
  La3+  La77  1  0.75105013  0.14604704  0.02240244  1
  La3+  La78  1  0.25009695  0.16618854  0.29260049  1
  La3+  La79  1  0.74981363  0.15669550  0.51666657  1
  La3+  La80  1  0.74918324  0.51006480  0.02942012  1
  La3+  La81  1  0.24992592  0.50610905  -0.00354685  1
  La3+  La82  1  0.75027423  0.54860413  0.25909321  1
  La3+  La83  1  0.74915393  0.20769898  0.76081123  1
  Ru4+  Ru84  1  -0.00658538  -0.00361442  -0.00572092  1
  Ru4+  Ru85  1  0.00064142  -0.00191450  0.24766277  1
  Ru4+  Ru86  1  -0.00052488  0.00013795  0.50744221  1
  Ru4+  Ru87  1  0.00036750  -0.00031801  0.75111418  1
  Ru4+  Ru88  1  -0.00200254  0.33618934  -0.00091602  1
  Ru4+  Ru89  1  -0.00093722  0.33383175  0.25257312  1
  Ru4+  Ru90  1  0.00051570  0.33170171  0.50619693  1
  Ru4+  Ru91  1  -0.00205512  0.33581735  0.75043176  1
  Ru4+  Ru92  1  -0.00085579  0.67638727  -0.00557867  1
  Ru4+  Ru93  1  0.00073233  0.65717818  0.25559930  1
  Ru4+  Ru94  1  0.00001844  0.66252911  0.49437589  1
  Ru4+  Ru95  1  0.00177605  0.66755617  0.75339856  1
  Ru4+  Ru96  1  0.49851764  -0.00000455  -0.00547165  1
  Ru4+  Ru97  1  0.50405315  -0.00890721  0.25273525  1
  Ru4+  Ru98  1  0.49668166  -0.00486606  0.50059943  1
  Ru4+  Ru99  1  0.50268723  0.00011659  0.74821085  1
  Ru4+  Ru100  1  0.49397991  0.32827562  0.00124799  1
  Ru4+  Ru101  1  0.49672697  0.33958448  0.25341780  1
  Ru4+  Ru102  1  0.50518163  0.33992196  0.49706532  1
  Ru4+  Ru103  1  0.49735017  0.33238550  0.75203634  1
  Ru4+  Ru104  1  0.49700000  0.66887687  -0.00150852  1
  Ru4+  Ru105  1  0.49553515  0.66950087  0.24512035  1
  Ru4+  Ru106  1  0.50289686  0.66439943  0.49961911  1
  Ru4+  Ru107  1  0.50099655  0.67255853  0.75878067  1
  Ru4+  Ru108  1  0.11423844  0.16593962  0.00770106  1
  Ru4+  Ru109  1  0.11251423  0.16386447  0.24706491  1
  Ru4+  Ru110  1  0.11543461  0.15939786  0.50138545  1
  Ru4+  Ru111  1  0.11369575  0.16941237  0.74106440  1
  Ru4+  Ru112  1  0.11478142  0.49509751  0.00100046  1
  Ru4+  Ru113  1  0.11267309  0.50098234  0.25033258  1
  Ru4+  Ru114  1  0.11003747  0.50265436  0.50068998  1
  Ru4+  Ru115  1  0.11343908  0.50426186  0.75023858  1
  Ru4+  Ru116  1  0.10999350  0.82527375  -0.00338210  1
  Ru4+  Ru117  1  0.11670701  0.83640460  0.24916344  1
  Ru4+  Ru118  1  0.11639185  0.83696130  0.49844592  1
  Ru4+  Ru119  1  0.11599381  0.82682111  0.75368118  1
  Ru4+  Ru120  1  0.61319223  0.16311743  -0.00119664  1
  Ru4+  Ru121  1  0.61846882  0.16536056  0.24794368  1
  Ru4+  Ru122  1  0.61161631  0.16847621  0.50665527  1
  Ru4+  Ru123  1  0.60980087  0.16704948  0.74872290  1
  Ru4+  Ru124  1  0.61325414  0.50434870  -0.00347767  1
  Ru4+  Ru125  1  0.61312441  0.49403253  0.24757686  1
  Ru4+  Ru126  1  0.60948395  0.50088871  0.49835927  1
  Ru4+  Ru127  1  0.60959026  0.50130183  0.75062032  1
  Ru4+  Ru128  1  0.61480902  0.83544682  -0.00043371  1
  Ru4+  Ru129  1  0.61264625  0.83706369  0.25021226  1
  Ru4+  Ru130  1  0.61722661  0.83508914  0.49967204  1
  Ru4+  Ru131  1  0.61421985  0.83361021  0.74712017  1
  Ru4+  Ru132  1  0.38893669  0.16953591  0.00162235  1
  Ru4+  Ru133  1  0.38846246  0.16628553  0.24860991  1
  Ru4+  Ru134  1  0.38739478  0.16865259  0.50083664  1
  Ru4+  Ru135  1  0.39319311  0.16674117  0.74799309  1
  Ru4+  Ru136  1  0.38804798  0.49991441  0.00032349  1
  Ru4+  Ru137  1  0.38750572  0.50040252  0.24839752  1
  Ru4+  Ru138  1  0.38699210  0.49574992  0.50137993  1
  Ru4+  Ru139  1  0.38723438  0.50322194  0.75137555  1
  Ru4+  Ru140  1  0.38590060  0.82860840  -0.00263028  1
  Ru4+  Ru141  1  0.38513769  0.83176739  0.24753528  1
  Ru4+  Ru142  1  0.38794565  0.83871444  0.49866511  1
  Ru4+  Ru143  1  0.38549875  0.83126605  0.75316751  1
  Ru4+  Ru144  1  0.88919332  0.17049665  0.00176931  1
  Ru4+  Ru145  1  0.88370053  0.16705138  0.24783423  1
  Ru4+  Ru146  1  0.88816526  0.16763064  0.50378494  1
  Ru4+  Ru147  1  0.88488617  0.17268313  0.74815919  1
  Ru4+  Ru148  1  0.89000715  0.50154120  0.00237689  1
  Ru4+  Ru149  1  0.89108750  0.50072193  0.24874693  1
  Ru4+  Ru150  1  0.88376633  0.50671960  0.49987595  1
  Ru4+  Ru151  1  0.89013029  0.50179555  0.74978912  1
  Ru4+  Ru152  1  0.88764033  0.83090805  -0.00109740  1
  Ru4+  Ru153  1  0.88307337  0.83545623  0.25096389  1
  Ru4+  Ru154  1  0.88407074  0.83296453  0.49943220  1
  Ru4+  Ru155  1  0.88436470  0.83305245  0.75028726  1
  Ru4+  Ru156  1  0.24926701  0.27327442  0.48925332  1
  Ru4+  Ru157  1  0.75131511  0.05628722  0.74036583  1
  Ru4+  Ru158  1  0.25078796  0.58728864  0.24726192  1
  Ru4+  Ru159  1  0.25072263  0.02143627  0.73538101  1
  Ru4+  Ru160  1  0.75028104  0.88967853  0.00779976  1
  Ru4+  Ru161  1  0.25001032  0.43636045  0.74946618  1
  Ru4+  Ru162  1  0.24960480  0.90029627  0.00362512  1
  Ru4+  Ru163  1  0.75018269  0.08577844  0.24089121  1
  Ru4+  Ru164  1  0.74987765  0.39769148  -0.04858746  1
  Ru4+  Ru165  1  0.74988362  0.43064870  0.48724090  1
  Ru4+  Ru166  1  0.25027564  0.30249544  0.00641938  1
  Ru4+  Ru167  1  0.74972364  0.02126138  0.48478224  1
  Ru4+  Ru168  1  0.74941329  0.40094222  0.76311251  1
  Ru4+  Ru169  1  0.25084491  0.40296405  0.49502181  1
  Ru4+  Ru170  1  0.25027644  0.04249675  -0.02819802  1
  Ru4+  Ru171  1  0.74976111  0.28845080  0.46449345  1
  Ru4+  Ru172  1  0.25044308  0.30194987  0.76767387  1
  Ru4+  Ru173  1  0.24976060  0.42192465  0.25349169  1
  Ru4+  Ru174  1  0.75034497  0.26883732  -0.02678115  1
  Ru4+  Ru175  1  0.75034992  0.90162331  0.24856761  1
  Ru4+  Ru176  1  0.75072378  0.40192412  0.25975924  1
  Ru4+  Ru177  1  0.75097670  0.64456304  -0.01135086  1
  Ru4+  Ru178  1  0.24988948  0.75715765  0.50269658  1
  Ru4+  Ru179  1  0.75011705  0.01648539  -0.00979524  1
  O2-  O180  1  0.16940900  0.07606756  -0.00402164  1
  O2-  O181  1  0.16547726  0.08306504  0.25258590  1
  O2-  O182  1  0.16681189  0.07723335  0.50288304  1
  O2-  O183  1  0.16524317  0.07820437  0.74725658  1
  O2-  O184  1  0.16833495  0.41176800  0.00300798  1
  O2-  O185  1  0.16669969  0.41356469  0.24808225  1
  O2-  O186  1  0.16955957  0.41478224  0.49646455  1
  O2-  O187  1  0.16572000  0.41461337  0.75038129  1
  O2-  O188  1  0.16828827  0.75163602  0.00166010  1
  O2-  O189  1  0.16509762  0.75004821  0.25166570  1
  O2-  O190  1  0.16649099  0.74530506  0.49974416  1
  O2-  O191  1  0.16795038  0.75046223  0.74918373  1
  O2-  O192  1  0.66463800  0.07671324  -0.00157304  1
  O2-  O193  1  0.66717101  0.07890200  0.25206089  1
  O2-  O194  1  0.66463807  0.07774127  0.50102617  1
  O2-  O195  1  0.66953161  0.07813292  0.74796067  1
  O2-  O196  1  0.66630312  0.41356515  -0.00137988  1
  O2-  O197  1  0.66861800  0.41475428  0.25356154  1
  O2-  O198  1  0.66872796  0.41679821  0.49896880  1
  O2-  O199  1  0.66540675  0.41421259  0.75360806  1
  O2-  O200  1  0.66496547  0.74875512  -0.00029734  1
  O2-  O201  1  0.66310776  0.75200512  0.25089239  1
  O2-  O202  1  0.66654575  0.74839244  0.50038404  1
  O2-  O203  1  0.66789482  0.75042176  0.75103979  1
  O2-  O204  1  0.33107997  0.25480818  -0.00037237  1
  O2-  O205  1  0.33328044  0.25389415  0.25159529  1
  O2-  O206  1  0.33219138  0.25448174  0.50007604  1
  O2-  O207  1  0.33472410  0.25770130  0.74992840  1
  O2-  O208  1  0.33489415  0.58662538  0.00126944  1
  O2-  O209  1  0.33473742  0.58517190  0.25143034  1
  O2-  O210  1  0.33566935  0.58922815  0.49783970  1
  O2-  O211  1  0.33834127  0.58495861  0.75098102  1
  O2-  O212  1  0.33473074  0.91840672  -0.00064291  1
  O2-  O213  1  0.33756754  0.91808539  0.24974302  1
  O2-  O214  1  0.33488642  0.91957616  0.50247607  1
  O2-  O215  1  0.33490714  0.92149275  0.74840501  1
  O2-  O216  1  0.83515671  0.25483956  -0.00007326  1
  O2-  O217  1  0.83678475  0.25214113  0.25082407  1
  O2-  O218  1  0.83194543  0.25572122  0.49889425  1
  O2-  O219  1  0.83764788  0.25777457  0.75005177  1
  O2-  O220  1  0.83118013  0.58786872  -0.00370718  1
  O2-  O221  1  0.84017193  0.58621309  0.24950756  1
  O2-  O222  1  0.83414121  0.58722072  0.50292855  1
  O2-  O223  1  0.83580600  0.58895954  0.74799977  1
  O2-  O224  1  0.83140442  0.91863690  0.00099898  1
  O2-  O225  1  0.83351537  0.92096617  0.25173996  1
  O2-  O226  1  0.83142280  0.91978289  0.49634545  1
  O2-  O227  1  0.83579820  0.91930648  0.74852821  1
  O2-  O228  1  0.16616603  0.25621197  0.00212460  1
  O2-  O229  1  0.16752060  0.25425424  0.24855418  1
  O2-  O230  1  0.16707924  0.25439885  0.49742618  1
  O2-  O231  1  0.16893326  0.25699978  0.75362498  1
  O2-  O232  1  0.16825438  0.58381378  0.00254146  1
  O2-  O233  1  0.16882797  0.58263331  0.25207457  1
  O2-  O234  1  0.16252916  0.58892366  0.49786845  1
  O2-  O235  1  0.16599495  0.58193159  0.74683817  1
  O2-  O236  1  0.16714570  0.91457481  -0.00157645  1
  O2-  O237  1  0.16808329  0.91498100  0.25410963  1
  O2-  O238  1  0.16827840  0.91877956  0.49986002  1
  O2-  O239  1  0.16601325  0.91913073  0.74837441  1
  O2-  O240  1  0.66686892  0.25240575  -0.00237680  1
  O2-  O241  1  0.66470509  0.24982196  0.24986419  1
  O2-  O242  1  0.66961992  0.25562654  0.49639615  1
  O2-  O243  1  0.65910888  0.25410015  0.75041260  1
  O2-  O244  1  0.66530612  0.58911839  0.00056818  1
  O2-  O245  1  0.66059624  0.58532821  0.25093132  1
  O2-  O246  1  0.66387095  0.58329499  0.49982517  1
  O2-  O247  1  0.66772562  0.58990658  0.74772572  1
  O2-  O248  1  0.66920404  0.91903481  -0.00216086  1
  O2-  O249  1  0.66813832  0.92011631  0.25281432  1
  O2-  O250  1  0.66378990  0.91952617  0.50079682  1
  O2-  O251  1  0.66325004  0.91956381  0.74850017  1
  O2-  O252  1  0.33433685  0.07745718  -0.00182251  1
  O2-  O253  1  0.33580651  0.08144385  0.25069249  1
  O2-  O254  1  0.33489952  0.07827105  0.50449726  1
  O2-  O255  1  0.33432872  0.07603223  0.74848749  1
  O2-  O256  1  0.32970354  0.41548428  -0.00041465  1
  O2-  O257  1  0.33103432  0.41635094  0.25260409  1
  O2-  O258  1  0.33373077  0.41283122  0.49942035  1
  O2-  O259  1  0.33424997  0.41340393  0.74933985  1
  O2-  O260  1  0.32969736  0.74893100  0.00209568  1
  O2-  O261  1  0.33725895  0.74669444  0.24938963  1
  O2-  O262  1  0.33511292  0.74765736  0.49984959  1
  O2-  O263  1  0.33483394  0.74923143  0.75167825  1
  O2-  O264  1  0.83605253  0.07505308  -0.00035145  1
  O2-  O265  1  0.83159201  0.07856377  0.25089886  1
  O2-  O266  1  0.83322906  0.07747595  0.49867562  1
  O2-  O267  1  0.83251384  0.07994613  0.74881701  1
  O2-  O268  1  0.83407113  0.41448531  -0.00091974  1
  O2-  O269  1  0.83436892  0.41276223  0.24980881  1
  O2-  O270  1  0.83245029  0.41516440  0.49803749  1
  O2-  O271  1  0.83111607  0.41359133  0.75383108  1
  O2-  O272  1  0.83225036  0.74912553  -0.00206611  1
  O2-  O273  1  0.83563730  0.75193503  0.25199567  1
  O2-  O274  1  0.83545538  0.74659654  0.50174878  1
  O2-  O275  1  0.83538382  0.74556799  0.74792244  1
  O2-  O276  1  0.44667973  0.76216489  0.75937621  1
  O2-  O277  1  0.04709763  0.10654148  0.95992732  1
  O2-  O278  1  0.53716400  0.22510211  0.47132072  1
  O2-  O279  1  0.55359160  0.56791550  0.23617314  1
  O2-  O280  1  0.95107549  0.09959952  0.99123823  1
  O2-  O281  1  0.05349720  0.89956892  0.73194813  1
  O2-  O282  1  0.04023448  0.23597133  0.78652722  1
  O2-  O283  1  0.95204355  0.76820184  0.23848397  1
  O2-  O284  1  0.05008311  0.23776154  0.23058844  1
  O2-  O285  1  0.05153562  0.56387933  0.98942181  1
  O2-  O286  1  0.95985926  0.54873320  0.96066470  1
  O2-  O287  1  0.45731587  0.56852770  0.01289612  1
  O2-  O288  1  0.05049639  0.77040556  0.23560458  1
  O2-  O289  1  0.45278028  0.76605950  1.00228296  1
  O2-  O290  1  0.44524947  0.90974397  0.98719791  1
  O2-  O291  1  0.55028461  0.09133295  0.98836575  1
  O2-  O292  1  0.05460508  0.23279813  0.48410230  1
  O2-  O293  1  0.45161082  0.57343823  0.23631755  1
  O2-  O294  1  0.54376480  0.89380440  0.95483678  1
  O2-  O295  1  0.54816533  0.08963526  0.52178253  1
  O2-  O296  1  0.95467513  0.09461801  0.75984261  1
  O2-  O297  1  0.95152128  0.23323284  0.23621051  1
  O2-  O298  1  0.55012773  0.76722987  0.48257434  1
  O2-  O299  1  0.55018868  0.09338801  0.73281398  1
  O2-  O300  1  0.45335227  0.90239184  0.49035147  1
  O2-  O301  1  0.44382058  0.75297132  0.02209526  1
  O2-  O302  1  0.44884928  0.08996800  0.98893908  1
  O2-  O303  1  0.53409298  0.44428374  0.54082776  1
  O2-  O304  1  0.55299806  0.75487660  0.01321658  1
  O2-  O305  1  0.54288588  0.42318211  0.98838570  1
  O2-  O306  1  0.44785164  0.56942904  0.51927402  1
  O2-  O307  1  0.54878897  0.57193778  0.48358960  1
  O2-  O308  1  0.54421881  0.10259091  0.75761603  1
  O2-  O309  1  0.04404810  0.43376585  0.25534294  1
  O2-  O310  1  0.55080267  0.22738378  0.95849305  1
  O2-  O311  1  0.03309517  0.89700607  1.00267162  1
  O2-  O312  1  0.95304033  0.22012943  0.46332588  1
  O2-  O313  1  0.54390456  0.90856722  0.73549816  1
  O2-  O314  1  0.04274582  0.90559372  0.76692489  1
  O2-  O315  1  0.45541920  0.22467516  0.96016340  1
  O2-  O316  1  0.04506639  0.76950535  0.50882691  1
  O2-  O317  1  0.01799868  0.78066659  0.97484316  1
  O2-  O318  1  0.53836365  0.77778921  0.74247598  1
  O2-  O319  1  0.95599282  0.42819648  0.48435848  1
  O2-  O320  1  0.54379762  0.22846436  0.23026508  1
  O2-  O321  1  0.44923244  0.09596125  0.49428218  1
  O2-  O322  1  0.04569396  0.24032121  0.51998757  1
  O2-  O323  1  0.54881354  0.23734328  0.26747223  1
  O2-  O324  1  0.07976353  0.26072901  0.66863190  1
  O2-  O325  1  0.57896562  0.39617873  0.45070771  1
  O2-  O326  1  0.05865544  0.59509741  0.97353749  1
  O2-  O327  1  0.92675903  0.28199338  0.56368675  1
  O2-  O328  1  0.56014659  0.73578696  0.47154976  1
  O2-  O329  1  0.07682753  0.72690719  0.92991908  1
  O2-  O330  1  0.56106571  0.59058912  0.78470941  1
  O2-  O331  1  0.07836134  0.93992819  0.95602521  1
  O2-  O332  1  0.56973116  0.06676431  0.78209044  1
  O2-  O333  1  0.56238548  0.25711479  0.94667304  1
  O2-  O334  1  0.43629710  0.26657104  0.47080552  1
  O2-  O335  1  0.06068541  0.58871043  0.78229447  1
  O2-  O336  1  0.56305151  0.92865897  0.32409926  1
  O2-  O337  1  0.56456720  0.27640653  0.09155502  1
  O2-  O338  1  0.58150315  0.26786544  0.56227726  1
  O2-  O339  1  0.06818795  0.72902151  0.07854629  1
  O2-  O340  1  0.93638765  0.41147222  0.77148604  1
  O2-  O341  1  0.42884155  0.73161551  0.96898445  1
  O2-  O342  1  0.05814492  0.73784620  0.22413034  1
  O2-  O343  1  0.06388290  0.92267608  0.23179155  1
  O2-  O344  1  0.57296218  0.71707050  0.70397633  1
  O2-  O345  1  0.06508358  0.41099673  0.52473393  1
  O2-  O346  1  0.92129234  0.60100312  0.05653519  1
  O2-  O347  1  0.93624635  0.06855199  0.46409219  1
  O2-  O348  1  0.06352838  0.58936530  0.27262965  1
  O2-  O349  1  0.55980228  0.59707590  0.21481613  1
  O2-  O350  1  0.43628499  0.40454904  0.21805549  1
  O2-  O351  1  0.93427737  0.74515935  0.03063198  1
  O2-  O352  1  0.92954557  0.92403087  0.97549610  1
  O2-  O353  1  0.93586942  0.07405676  0.22806244  1
  O2-  O354  1  0.43901668  0.60214408  0.52880673  1
  O2-  O355  1  0.56014277  0.74066887  0.21793912  1
  O2-  O356  1  0.93515585  0.40890148  0.02741058  1
  O2-  O357  1  0.42950021  0.27248363  0.07044973  1
  O2-  O358  1  0.43892851  0.41154698  0.03299215  1
  O2-  O359  1  0.93587441  0.08597463  0.78445189  1
  O2-  O360  1  0.93998430  0.73806533  0.22829447  1
  O2-  O361  1  0.57322676  0.94885771  0.05417779  1
  O2-  O362  1  0.93262650  0.41504898  0.47934242  1
  O2-  O363  1  0.06378204  0.92548005  0.52281036  1
  O2-  O364  1  0.05661409  0.08198294  0.93568503  1
  O2-  O365  1  0.08314581  0.07965629  0.08355838  1
  O2-  O366  1  0.93599992  0.92085122  0.52324305  1
  O2-  O367  1  0.06203008  0.74094088  0.77640272  1
  O2-  O368  1  0.56353051  0.92832316  0.18831021  1
  O2-  O369  1  0.56291553  0.40411812  0.21507103  1
  O2-  O370  1  0.05978447  0.24031148  0.81083006  1
  O2-  O371  1  0.56526171  0.41069596  0.97591121  1
  O2-  O372  1  0.74991487  0.65791399  0.17962870  1
  O2-  O373  1  0.74946600  0.00064360  0.85092047  1
  O2-  O374  1  0.74943231  0.31888622  0.68689384  1
  O2-  O375  1  0.75023416  0.33623879  0.08774045  1
  O2-  O376  1  0.74928818  0.69157262  0.09682988  1
  O2-  O377  1  0.25158314  0.65978004  0.15917208  1
  O2-  O378  1  0.25058434  0.00331442  0.17572532  1
  O2-  O379  1  0.24965259  0.33912245  0.88947541  1
  O2-  O380  1  0.74875050  0.65531684  0.34788120  1
  O2-  O381  1  0.74944770  0.67279634  0.87359175  1
  O2-  O382  1  0.25094047  0.33537904  0.64473117  1
  O2-  O383  1  0.25068267  0.66738013  0.83142475  1
  O2-  O384  1  0.75070327  -0.00159572  0.15117110  1
  O2-  O385  1  0.25053139  0.33477827  0.34543379  1
  O2-  O386  1  0.24990579  -0.00493380  0.85546291  1
  O2-  O387  1  0.25082365  0.66420692  0.91937011  1
  O2-  O388  1  0.24985792  0.01142686  0.35335848  1
  O2-  O389  1  0.25043155  0.66942872  0.63238790  1
  O2-  O390  1  0.75019812  0.34699371  0.56992183  1
  O2-  O391  1  0.25112859  0.65828319  0.34710390  1
  O2-  O392  1  0.75026528  0.31690163  0.17898033  1
  O2-  O393  1  0.74992582  0.32809185  0.35254900  1
  O2-  O394  1  0.74928399  -0.00071518  0.60612754  1
  O2-  O395  1  0.25052363  -0.00775456  0.08322182  1
  O2-  O396  1  0.75010684  0.51036499  0.56735282  1
  O2-  O397  1  0.25251027  0.17900321  0.86143771  1
  O2-  O398  1  0.75001056  0.16970807  0.38508622  1
  O2-  O399  1  0.25030294  0.18126120  0.55033664  1
  O2-  O400  1  0.25020410  0.83933863  0.58316504  1
  O2-  O401  1  0.74997808  0.82530939  0.91550099  1
  O2-  O402  1  0.25014544  0.49594638  0.65231738  1
  O2-  O403  1  0.74999087  0.17834571  0.29888119  1
  O2-  O404  1  0.74984727  0.16407635  0.15189996  1
  O2-  O405  1  0.25014117  0.14902497  0.62294990  1
  O2-  O406  1  0.25040989  0.17241411  0.17447316  1
  O2-  O407  1  0.75007695  0.83778340  0.83327176  1
  O2-  O408  1  0.74975816  0.49222921  0.65471569  1
  O2-  O409  1  0.75012171  0.84169549  0.34011767  1
  O2-  O410  1  0.74994151  0.83978180  0.15675614  1
  O2-  O411  1  0.24998467  0.49648201  0.84492088  1
  O2-  O412  1  0.25032842  0.83544249  0.08915896  1
  O2-  O413  1  0.25013069  0.49609041  0.15756793  1
  O2-  O414  1  0.25037074  0.83087726  0.66664892  1
  O2-  O415  1  0.75029182  0.15263984  0.64525341  1
  O2-  O416  1  0.24933500  0.15648283  0.93528540  1
  O2-  O417  1  0.25020660  0.82372158  0.41532836  1
  O2-  O418  1  0.75011862  0.16939278  0.88551146  1
  O2-  O419  1  0.74994323  0.83145104  0.59129834  1
  O2-  O420  1  0.95942882  -0.00924180  0.11531785  1
  O2-  O421  1  0.01493989  0.34757208  0.63273649  1
  O2-  O422  1  0.95657086  0.00447426  0.63511239  1
  O2-  O423  1  0.95286506  0.66489688  0.37649927  1
  O2-  O424  1  0.02551711  0.66227808  0.62410977  1
  O2-  O425  1  0.97815683  0.33010398  0.12757695  1
  O2-  O426  1  0.47254403  0.00203014  0.12902576  1
  O2-  O427  1  0.98500168  0.65629875  0.13693642  1
  O2-  O428  1  0.04217339  0.67455512  0.38244748  1
  O2-  O429  1  0.97776223  -0.00095785  0.87350020  1
  O2-  O430  1  0.45366706  0.33997441  0.86768288  1
  O2-  O431  1  0.04459341  0.33242983  0.37310598  1
  O2-  O432  1  0.96980005  0.66806846  0.87084794  1
  O2-  O433  1  0.04440288  0.35284713  0.89558877  1
  O2-  O434  1  0.54180830  0.34236908  0.84440666  1
  O2-  O435  1  0.51895557  0.33719333  0.63751438  1
  O2-  O436  1  0.47174305  0.00473442  0.36737033  1
  O2-  O437  1  0.95640428  0.33256147  0.36055403  1
  O2-  O438  1  0.04299980  0.00869224  0.63496133  1
  O2-  O439  1  0.02834643  -0.00409846  0.13069002  1
  O2-  O440  1  0.51914533  0.33134693  0.36891305  1
  O2-  O441  1  0.95771997  0.31748784  0.87966970  1
  O2-  O442  1  0.47243317  0.00012337  0.86768624  1
  O2-  O443  1  0.47290704  0.65251303  0.87062030  1
