# generated using pymatgen
data_La7(Ru4O11)2
_symmetry_space_group_name_H-M   'P 1'
_cell_length_a   23.98961957
_cell_length_b   16.82894847
_cell_length_c   15.42632632
_cell_angle_alpha   90.00015187
_cell_angle_beta   90.00019857
_cell_angle_gamma   89.99946928
_symmetry_Int_Tables_number   1
_chemical_formula_structural   La7(Ru4O11)2
_chemical_formula_sum   'La84 Ru96 O264'
_cell_volume   6227.91756678
_cell_formula_units_Z   12
loop_
 _symmetry_equiv_pos_site_id
 _symmetry_equiv_pos_as_xyz
  1  'x, y, z'
loop_
 _atom_type_symbol
 _atom_type_oxidation_number
  La3+  3.0
  Ru4+  4.0
  O2-  -2.0
loop_
 _atom_site_type_symbol
 _atom_site_label
 _atom_site_symmetry_multiplicity
 _atom_site_fract_x
 _atom_site_fract_y
 _atom_site_fract_z
 _atom_site_occupancy
  La3+  La0  1  0.13957107  -0.00006293  0.12575889  1
  La3+  La1  1  0.13934481  0.00040812  0.37405163  1
  La3+  La2  1  0.13762421  0.00078045  0.62528408  1
  La3+  La3  1  0.13746933  0.00075523  0.87408568  1
  La3+  La4  1  0.14055991  0.33270157  0.12742593  1
  La3+  La5  1  0.13998837  0.33293472  0.37385566  1
  La3+  La6  1  0.13984030  0.33324058  0.62641472  1
  La3+  La7  1  0.13788039  0.33355785  0.87389386  1
  La3+  La8  1  0.14199889  0.66782515  0.12481936  1
  La3+  La9  1  0.13917613  0.66707201  0.37255980  1
  La3+  La10  1  0.13867301  0.66690334  0.62601729  1
  La3+  La11  1  0.13855222  0.66711535  0.87580975  1
  La3+  La12  1  0.63762331  -0.00037373  0.12425977  1
  La3+  La13  1  0.63831006  -0.00053201  0.37561135  1
  La3+  La14  1  0.63678545  -0.00067404  0.62391511  1
  La3+  La15  1  0.63699107  -0.00038806  0.87621334  1
  La3+  La16  1  0.63804153  0.33370938  0.12478144  1
  La3+  La17  1  0.63789466  0.33419139  0.37477886  1
  La3+  La18  1  0.63752317  0.33428385  0.62593519  1
  La3+  La19  1  0.63604314  0.33514908  0.87509928  1
  La3+  La20  1  0.63814364  0.66585772  0.12597150  1
  La3+  La21  1  0.63905455  0.66609824  0.37413867  1
  La3+  La22  1  0.63977694  0.66576185  0.62683139  1
  La3+  La23  1  0.63909478  0.66516291  0.87297192  1
  La3+  La24  1  0.35988307  0.00023258  0.12574872  1
  La3+  La25  1  0.36014634  0.00122188  0.37386698  1
  La3+  La26  1  0.36142090  0.00066129  0.62507201  1
  La3+  La27  1  0.36198515  -0.00040606  0.87538579  1
  La3+  La28  1  0.36098134  0.33321444  0.12805754  1
  La3+  La29  1  0.36001152  0.33397244  0.37219389  1
  La3+  La30  1  0.35930390  0.33328698  0.62701767  1
  La3+  La31  1  0.36187680  0.33321244  0.87261199  1
  La3+  La32  1  0.35957926  0.66592897  0.12463100  1
  La3+  La33  1  0.36109323  0.66757577  0.37287893  1
  La3+  La34  1  0.36135293  0.66735006  0.62513119  1
  La3+  La35  1  0.36129035  0.66669945  0.87723657  1
  La3+  La36  1  0.86166457  -0.00049470  0.12454303  1
  La3+  La37  1  0.86224552  -0.00054513  0.37653851  1
  La3+  La38  1  0.86210279  0.00032036  0.62449935  1
  La3+  La39  1  0.86254581  -0.00099271  0.87616631  1
  La3+  La40  1  0.86109425  0.33351729  0.12549987  1
  La3+  La41  1  0.86199578  0.33445883  0.37467420  1
  La3+  La42  1  0.86248051  0.33485926  0.62552912  1
  La3+  La43  1  0.86221338  0.33419765  0.87406239  1
  La3+  La44  1  0.86062612  0.66614162  0.12528325  1
  La3+  La45  1  0.86017189  0.66574703  0.37434917  1
  La3+  La46  1  0.86084628  0.66707384  0.62690427  1
  La3+  La47  1  0.86072881  0.66620015  0.87240084  1
  La3+  La48  1  -0.00012129  0.49998468  0.61665676  1
  La3+  La49  1  0.00180600  0.83416069  0.37905349  1
  La3+  La50  1  -0.00242184  0.16804859  0.13559525  1
  La3+  La51  1  0.50337769  0.49889689  0.87783017  1
  La3+  La52  1  0.49993283  0.83411470  0.88521874  1
  La3+  La53  1  0.49969240  0.16638209  0.36444750  1
  La3+  La54  1  0.50042864  0.83268226  0.36440587  1
  La3+  La55  1  0.50014710  0.83479220  0.11494427  1
  La3+  La56  1  0.50079050  0.49520391  0.87146988  1
  La3+  La57  1  0.00019511  0.16558287  0.86395999  1
  La3+  La58  1  0.00114536  0.83572631  0.12149547  1
  La3+  La59  1  0.49629727  0.83948222  0.61760115  1
  La3+  La60  1  0.49725427  0.50029679  0.61537180  1
  La3+  La61  1  -0.00170698  0.49590043  0.37145589  1
  La3+  La62  1  0.00414401  0.17128894  0.11603535  1
  La3+  La63  1  -0.00131769  0.16370487  0.37334399  1
  La3+  La64  1  0.49992855  0.83191412  0.63729856  1
  La3+  La65  1  0.00012715  0.49928349  0.13456967  1
  La3+  La66  1  0.00165362  0.83535208  0.87983989  1
  La3+  La67  1  0.50083672  0.16371466  0.61554884  1
  La3+  La68  1  0.50240217  0.49295753  0.63487043  1
  La3+  La69  1  0.49856361  0.16634274  0.88901213  1
  La3+  La70  1  0.50021455  0.16789812  0.11806069  1
  La3+  La71  1  -0.00069356  0.50061188  0.11195258  1
  La3+  La72  1  0.75005501  0.80510530  0.21836124  1
  La3+  La73  1  0.25006775  0.83099340  -0.00983325  1
  La3+  La74  1  0.24977008  0.20938559  0.02124439  1
  La3+  La75  1  0.75000040  0.16660337  0.21699935  1
  La3+  La76  1  0.74991416  0.13512608  0.53607330  1
  La3+  La77  1  0.75012888  0.79694953  0.77240882  1
  La3+  La78  1  0.24969670  0.53335152  -0.02896973  1
  La3+  La79  1  0.25015274  0.45846690  0.49836499  1
  La3+  La80  1  0.75010663  0.50284114  0.73101976  1
  La3+  La81  1  0.75057728  0.17115587  0.75210464  1
  La3+  La82  1  0.25004404  0.79170125  0.74732978  1
  La3+  La83  1  0.24980256  0.16774424  0.72694042  1
  Ru4+  Ru84  1  0.00010015  -0.00261085  -0.00127338  1
  Ru4+  Ru85  1  -0.00027994  -0.00084624  0.25141277  1
  Ru4+  Ru86  1  0.00057116  0.00002410  0.49916594  1
  Ru4+  Ru87  1  -0.00268748  -0.00401420  0.74968748  1
  Ru4+  Ru88  1  -0.00240096  0.33139027  -0.00116370  1
  Ru4+  Ru89  1  -0.00004669  0.33705056  0.24971309  1
  Ru4+  Ru90  1  0.00072500  0.33223788  0.50157190  1
  Ru4+  Ru91  1  0.00202450  0.33790183  0.74750689  1
  Ru4+  Ru92  1  0.00298403  0.66262696  -0.00377434  1
  Ru4+  Ru93  1  -0.00121652  0.67102974  0.25327392  1
  Ru4+  Ru94  1  0.00004004  0.66394257  0.50290635  1
  Ru4+  Ru95  1  0.00216577  0.66053945  0.74903926  1
  Ru4+  Ru96  1  0.50092168  -0.00042697  0.00245606  1
  Ru4+  Ru97  1  0.50142957  0.00291717  0.24959962  1
  Ru4+  Ru98  1  0.49976451  0.00072600  0.50177844  1
  Ru4+  Ru99  1  0.49675140  -0.00522566  0.75005903  1
  Ru4+  Ru100  1  0.49692060  0.32905015  0.00021143  1
  Ru4+  Ru101  1  0.49914604  0.33328329  0.25046522  1
  Ru4+  Ru102  1  0.50105481  0.33421329  0.49955641  1
  Ru4+  Ru103  1  0.49553995  0.33660398  0.75007924  1
  Ru4+  Ru104  1  0.50263128  0.67422596  -0.00156939  1
  Ru4+  Ru105  1  0.50090161  0.66659014  0.24885631  1
  Ru4+  Ru106  1  0.49903227  0.66398077  0.50217220  1
  Ru4+  Ru107  1  0.49797008  0.67234840  0.75095965  1
  Ru4+  Ru108  1  0.11227206  0.16743679  -0.00023347  1
  Ru4+  Ru109  1  0.11644035  0.16581500  0.25045934  1
  Ru4+  Ru110  1  0.11276433  0.16755275  0.49923473  1
  Ru4+  Ru111  1  0.11395084  0.16929787  0.74965645  1
  Ru4+  Ru112  1  0.11328022  0.50307900  -0.00104284  1
  Ru4+  Ru113  1  0.11564680  0.49780100  0.25018190  1
  Ru4+  Ru114  1  0.11130569  0.49950323  0.49985837  1
  Ru4+  Ru115  1  0.11221251  0.49913347  0.74985629  1
  Ru4+  Ru116  1  0.11290168  0.83250453  0.00005008  1
  Ru4+  Ru117  1  0.11355035  0.83253930  0.24986315  1
  Ru4+  Ru118  1  0.11356784  0.83510927  0.50094215  1
  Ru4+  Ru119  1  0.11179976  0.83247481  0.75033695  1
  Ru4+  Ru120  1  0.61238578  0.16742345  -0.00028961  1
  Ru4+  Ru121  1  0.61093590  0.16686251  0.25006219  1
  Ru4+  Ru122  1  0.61095254  0.16536213  0.49999097  1
  Ru4+  Ru123  1  0.61912279  0.16641777  0.74790018  1
  Ru4+  Ru124  1  0.61570225  0.50341248  0.00087209  1
  Ru4+  Ru125  1  0.61218627  0.50148366  0.24932150  1
  Ru4+  Ru126  1  0.61412995  0.49945305  0.49906253  1
  Ru4+  Ru127  1  0.61686041  0.49888379  0.75008623  1
  Ru4+  Ru128  1  0.61282982  0.83444549  0.00020106  1
  Ru4+  Ru129  1  0.61108301  0.83320906  0.25060562  1
  Ru4+  Ru130  1  0.61513007  0.83618325  0.49934739  1
  Ru4+  Ru131  1  0.61254220  0.83363466  0.75034726  1
  Ru4+  Ru132  1  0.38815129  0.16840058  0.00014233  1
  Ru4+  Ru133  1  0.38566575  0.16580370  0.25013868  1
  Ru4+  Ru134  1  0.38595128  0.16434819  0.49885657  1
  Ru4+  Ru135  1  0.38774553  0.16739643  0.74968301  1
  Ru4+  Ru136  1  0.38368408  0.49702492  0.00214168  1
  Ru4+  Ru137  1  0.38608204  0.49909270  0.25058927  1
  Ru4+  Ru138  1  0.38769347  0.49881388  0.49922737  1
  Ru4+  Ru139  1  0.38464220  0.49789945  0.75075343  1
  Ru4+  Ru140  1  0.38749533  0.83333531  0.00007608  1
  Ru4+  Ru141  1  0.38584825  0.83069524  0.25012525  1
  Ru4+  Ru142  1  0.38716732  0.83399990  0.49969381  1
  Ru4+  Ru143  1  0.38813424  0.83238630  0.75019177  1
  Ru4+  Ru144  1  0.88583659  0.16881394  -0.00062090  1
  Ru4+  Ru145  1  0.88791933  0.16553393  0.25029498  1
  Ru4+  Ru146  1  0.88937278  0.16621238  0.49980851  1
  Ru4+  Ru147  1  0.88746241  0.16413686  0.74889970  1
  Ru4+  Ru148  1  0.88827606  0.50002639  0.00055520  1
  Ru4+  Ru149  1  0.88678347  0.49878411  0.25046823  1
  Ru4+  Ru150  1  0.88667030  0.49989228  0.49940638  1
  Ru4+  Ru151  1  0.88893271  0.50034953  0.74951651  1
  Ru4+  Ru152  1  0.88443646  0.83656948  0.00032712  1
  Ru4+  Ru153  1  0.88846234  0.83322567  0.25022441  1
  Ru4+  Ru154  1  0.88494215  0.83350804  0.50015631  1
  Ru4+  Ru155  1  0.88644204  0.83582481  0.74991547  1
  Ru4+  Ru156  1  0.24985998  0.60425461  0.49458551  1
  Ru4+  Ru157  1  0.74968621  0.57552882  0.24948484  1
  Ru4+  Ru158  1  0.24986267  0.39742050  -0.00639368  1
  Ru4+  Ru159  1  0.75013461  0.08844109  0.00084449  1
  Ru4+  Ru160  1  0.25011569  0.06470326  0.01143730  1
  Ru4+  Ru161  1  0.75010695  0.58327870  0.50168596  1
  Ru4+  Ru162  1  0.25012780  0.92665113  0.75031562  1
  Ru4+  Ru163  1  0.75033095  0.57846391  -0.00033340  1
  Ru4+  Ru164  1  0.74988040  0.74968146  0.50496257  1
  Ru4+  Ru165  1  0.24998021  0.08894330  0.49816478  1
  Ru4+  Ru166  1  0.24991035  0.24639169  0.50371112  1
  Ru4+  Ru167  1  0.24998067  0.58336476  0.75283038  1
  Ru4+  Ru168  1  0.74996876  0.26699888  0.48949230  1
  Ru4+  Ru169  1  0.25027461  0.75303899  0.50066924  1
  Ru4+  Ru170  1  0.74996892  0.93939342  0.25186731  1
  Ru4+  Ru171  1  0.75025792  0.42114413  -0.00160960  1
  Ru4+  Ru172  1  0.75023008  0.92191111  0.73716370  1
  Ru4+  Ru173  1  0.75031618  0.04944301  0.73144493  1
  Ru4+  Ru174  1  0.25000558  0.91294542  0.49920541  1
  Ru4+  Ru175  1  0.74994476  0.24734283  -0.00107308  1
  Ru4+  Ru176  1  0.75031215  0.29537984  0.76938421  1
  Ru4+  Ru177  1  0.25013293  0.91736539  0.24757757  1
  Ru4+  Ru178  1  0.74988439  0.42423439  0.24942572  1
  Ru4+  Ru179  1  0.75003575  0.75216104  0.00030307  1
  O2-  O180  1  0.16761521  0.07991109  -0.00001486  1
  O2-  O181  1  0.16601094  0.08198140  0.25024841  1
  O2-  O182  1  0.16688840  0.08087650  0.50052951  1
  O2-  O183  1  0.16734419  0.08053041  0.75026138  1
  O2-  O184  1  0.16741507  0.41330916  -0.00114955  1
  O2-  O185  1  0.16596126  0.41559278  0.25026891  1
  O2-  O186  1  0.16548033  0.41237168  0.50029900  1
  O2-  O187  1  0.16622178  0.41537447  0.75108512  1
  O2-  O188  1  0.16612603  0.74799358  -0.00107529  1
  O2-  O189  1  0.16673102  0.74815958  0.25059050  1
  O2-  O190  1  0.16739278  0.74720184  0.49955920  1
  O2-  O191  1  0.16489759  0.74580188  0.74959467  1
  O2-  O192  1  0.66771074  0.08056281  0.00003427  1
  O2-  O193  1  0.66811824  0.07954188  0.25015323  1
  O2-  O194  1  0.66742232  0.07997840  0.49967363  1
  O2-  O195  1  0.66630471  0.07859322  0.75106253  1
  O2-  O196  1  0.66780743  0.41409925  0.00051448  1
  O2-  O197  1  0.66805342  0.41413252  0.25018602  1
  O2-  O198  1  0.66713084  0.41477850  0.49909512  1
  O2-  O199  1  0.66810291  0.41322324  0.74972002  1
  O2-  O200  1  0.66775270  0.74770212  -0.00015116  1
  O2-  O201  1  0.66704988  0.74597649  0.24967596  1
  O2-  O202  1  0.66802879  0.74717287  0.50032141  1
  O2-  O203  1  0.66487675  0.74662122  0.75049619  1
  O2-  O204  1  0.33482601  0.25428261  -0.00162167  1
  O2-  O205  1  0.33406670  0.25107773  0.24938134  1
  O2-  O206  1  0.33211419  0.25223609  0.50120113  1
  O2-  O207  1  0.33230696  0.25257523  0.75223200  1
  O2-  O208  1  0.33315764  0.58530592  -0.00080318  1
  O2-  O209  1  0.33234840  0.58496583  0.24971475  1
  O2-  O210  1  0.33280842  0.58704955  0.50002278  1
  O2-  O211  1  0.33273956  0.58632960  0.75043762  1
  O2-  O212  1  0.33228770  0.91985105  -0.00059960  1
  O2-  O213  1  0.33241942  0.91877456  0.24921549  1
  O2-  O214  1  0.33279859  0.91916381  0.50027286  1
  O2-  O215  1  0.33273233  0.92070462  0.75018991  1
  O2-  O216  1  0.83257634  0.25236687  0.00025687  1
  O2-  O217  1  0.83165907  0.25411534  0.24973366  1
  O2-  O218  1  0.83347250  0.25331543  0.49992303  1
  O2-  O219  1  0.83400129  0.25441956  0.75033499  1
  O2-  O220  1  0.83196305  0.58622797  0.00017518  1
  O2-  O221  1  0.83140485  0.58562573  0.24950086  1
  O2-  O222  1  0.83129736  0.58508603  0.50061780  1
  O2-  O223  1  0.83374692  0.58495949  0.74964614  1
  O2-  O224  1  0.83300063  0.91879614  0.00070176  1
  O2-  O225  1  0.83191617  0.92052066  0.24948524  1
  O2-  O226  1  0.83209706  0.91792982  0.49935836  1
  O2-  O227  1  0.83412313  0.91936266  0.74971583  1
  O2-  O228  1  0.16614111  0.25388849  -0.00158640  1
  O2-  O229  1  0.16754946  0.25107572  0.25073344  1
  O2-  O230  1  0.16846801  0.25255071  0.50078189  1
  O2-  O231  1  0.16637711  0.25203500  0.75113149  1
  O2-  O232  1  0.16577223  0.58596748  0.00022126  1
  O2-  O233  1  0.16790726  0.58575899  0.25112522  1
  O2-  O234  1  0.16703826  0.58722383  0.49961900  1
  O2-  O235  1  0.16733804  0.58582239  0.75012797  1
  O2-  O236  1  0.16690452  0.92002728  -0.00031770  1
  O2-  O237  1  0.16715828  0.91841640  0.25004529  1
  O2-  O238  1  0.16733362  0.91863785  0.49999796  1
  O2-  O239  1  0.16642490  0.92033907  0.75015745  1
  O2-  O240  1  0.66767366  0.25260117  0.00023187  1
  O2-  O241  1  0.66796941  0.25429715  0.24979080  1
  O2-  O242  1  0.66692494  0.25405000  0.49952730  1
  O2-  O243  1  0.66675654  0.25468076  0.75082345  1
  O2-  O244  1  0.66717075  0.58532584  0.00022250  1
  O2-  O245  1  0.67004794  0.58572418  0.25002151  1
  O2-  O246  1  0.66814982  0.58529701  0.50014289  1
  O2-  O247  1  0.66645929  0.58533692  0.74975754  1
  O2-  O248  1  0.66810431  0.91899810  -0.00005892  1
  O2-  O249  1  0.66829927  0.92069442  0.24957108  1
  O2-  O250  1  0.66766759  0.91852938  0.49952913  1
  O2-  O251  1  0.66699497  0.92033355  0.75040546  1
  O2-  O252  1  0.33273312  0.07963456  -0.00023991  1
  O2-  O253  1  0.33289107  0.08261214  0.24960822  1
  O2-  O254  1  0.33238427  0.08176134  0.50089664  1
  O2-  O255  1  0.33335906  0.08041684  0.75053858  1
  O2-  O256  1  0.33345895  0.41255791  -0.00100776  1
  O2-  O257  1  0.33383340  0.41644498  0.24924544  1
  O2-  O258  1  0.33443425  0.41309990  0.50019534  1
  O2-  O259  1  0.33252589  0.41491858  0.75189325  1
  O2-  O260  1  0.33416367  0.74744301  -0.00110532  1
  O2-  O261  1  0.33265277  0.74908074  0.25008264  1
  O2-  O262  1  0.33180419  0.74703715  0.50028014  1
  O2-  O263  1  0.33520553  0.74510455  0.75016758  1
  O2-  O264  1  0.83145400  0.08069985  0.00053091  1
  O2-  O265  1  0.83195967  0.08022602  0.24978409  1
  O2-  O266  1  0.83181436  0.08029133  0.49987873  1
  O2-  O267  1  0.83409258  0.07975943  0.75013472  1
  O2-  O268  1  0.83206087  0.41330282  0.00013382  1
  O2-  O269  1  0.83064189  0.41419551  0.24947755  1
  O2-  O270  1  0.83303587  0.41454037  0.49996010  1
  O2-  O271  1  0.83192200  0.41369546  0.75034910  1
  O2-  O272  1  0.83046891  0.74797534  0.00052498  1
  O2-  O273  1  0.83305641  0.74624213  0.24952351  1
  O2-  O274  1  0.83207775  0.74833004  0.50066568  1
  O2-  O275  1  0.83432228  0.74701667  0.74956110  1
  O2-  O276  1  0.53972924  0.10425043  0.75697156  1
  O2-  O277  1  0.04512312  0.90078934  0.01253037  1
  O2-  O278  1  0.45291249  0.56943386  0.98934235  1
  O2-  O279  1  0.45330384  0.42841246  0.01421583  1
  O2-  O280  1  0.04285724  0.55990279  0.27769230  1
  O2-  O281  1  0.46427942  0.55223269  0.25700205  1
  O2-  O282  1  0.54847576  0.56989886  0.51102460  1
  O2-  O283  1  0.45154061  0.56984963  0.51183605  1
  O2-  O284  1  0.95156514  0.76437622  0.76797685  1
  O2-  O285  1  0.54176312  0.23051957  0.75499654  1
  O2-  O286  1  0.54908197  0.57027373  0.98408121  1
  O2-  O287  1  0.54827986  0.43150829  0.98438271  1
  O2-  O288  1  0.54758671  0.56835004  0.73377468  1
  O2-  O289  1  0.05451497  0.41599963  0.95748818  1
  O2-  O290  1  0.96619839  0.78190306  0.00987339  1
  O2-  O291  1  0.45800668  0.22730841  0.52748154  1
  O2-  O292  1  0.04571434  0.90149262  0.26340918  1
  O2-  O293  1  0.54167940  0.23045458  0.75519140  1
  O2-  O294  1  0.55155562  0.42376651  0.77042987  1
  O2-  O295  1  0.95496976  0.43166025  0.48701657  1
  O2-  O296  1  0.53993765  0.10442759  0.75778682  1
  O2-  O297  1  0.96494532  0.89236037  0.49896768  1
  O2-  O298  1  0.45246395  0.09867746  0.01422641  1
  O2-  O299  1  0.04907824  0.09763790  0.76621068  1
  O2-  O300  1  0.95178599  0.56644388  0.73598653  1
  O2-  O301  1  0.95217820  0.23369608  0.26405276  1
  O2-  O302  1  0.54769039  0.09988377  0.01217494  1
  O2-  O303  1  0.54072986  0.77395283  0.52503463  1
  O2-  O304  1  0.95874537  0.10694636  0.02483638  1
  O2-  O305  1  0.96084294  0.89648371  0.48195031  1
  O2-  O306  1  0.95260378  0.56900453  0.26419640  1
  O2-  O307  1  0.95423041  0.23395729  0.51470714  1
  O2-  O308  1  0.96573497  0.78207346  0.99043754  1
  O2-  O309  1  0.04432147  0.76387213  0.23572999  1
  O2-  O310  1  0.94473466  0.25017929  0.77551955  1
  O2-  O311  1  0.96480220  0.77232156  0.49770881  1
  O2-  O312  1  0.46241178  0.55758462  0.00709562  1
  O2-  O313  1  0.04559926  0.43001134  0.73578792  1
  O2-  O314  1  0.54589601  0.42733264  0.51186266  1
  O2-  O315  1  0.04605231  0.09646171  0.23687725  1
  O2-  O316  1  0.54696575  0.23452828  0.48381354  1
  O2-  O317  1  0.04240433  0.22698063  0.27767085  1
  O2-  O318  1  0.04710690  0.57195314  0.73361906  1
  O2-  O319  1  0.45089045  0.57078696  0.73732447  1
  O2-  O320  1  0.54444222  0.76554686  0.76718836  1
  O2-  O321  1  0.04520884  0.90212959  0.76497104  1
  O2-  O322  1  0.04455298  0.56843922  0.98682681  1
  O2-  O323  1  0.54659664  0.56745196  0.77319044  1
  O2-  O324  1  0.93690219  0.59441052  0.46703719  1
  O2-  O325  1  0.42514531  0.60623604  0.28592400  1
  O2-  O326  1  0.43481478  0.07207695  0.47191723  1
  O2-  O327  1  0.92546682  0.72231214  0.45828810  1
  O2-  O328  1  0.43532576  0.92949401  0.19892353  1
  O2-  O329  1  0.56515191  0.92775075  0.27925774  1
  O2-  O330  1  0.92003571  0.95556534  0.55419475  1
  O2-  O331  1  0.93508557  0.40273279  0.71623330  1
  O2-  O332  1  0.56381993  0.93239275  0.53249918  1
  O2-  O333  1  0.43697719  0.40061792  0.28194553  1
  O2-  O334  1  0.43366063  0.92483665  0.29572346  1
  O2-  O335  1  0.42662322  0.60740578  0.03339506  1
  O2-  O336  1  0.43575752  0.74130800  0.27998624  1
  O2-  O337  1  0.06487671  0.93220107  0.53269907  1
  O2-  O338  1  0.43581441  0.07261283  0.27795999  1
  O2-  O339  1  0.92768648  0.06217845  0.95558335  1
  O2-  O340  1  0.06434352  0.73583621  0.54914021  1
  O2-  O341  1  0.06373180  0.26287960  0.96668426  1
  O2-  O342  1  0.56434450  0.92816543  0.71664131  1
  O2-  O343  1  0.07235460  0.40022737  0.05875345  1
  O2-  O344  1  0.43668740  0.26226628  0.71708536  1
  O2-  O345  1  0.06622454  0.07174923  0.02908632  1
  O2-  O346  1  0.43659897  0.92996951  0.03302235  1
  O2-  O347  1  0.07180410  0.60360517  0.20726821  1
  O2-  O348  1  0.43049904  0.27405632  0.45222856  1
  O2-  O349  1  0.57283651  0.72974693  0.45549230  1
  O2-  O350  1  0.06187822  0.07025692  0.78292425  1
  O2-  O351  1  0.04842157  0.42392793  0.96237625  1
  O2-  O352  1  0.94621180  0.24819545  0.77491191  1
  O2-  O353  1  0.93841861  0.73660478  0.78213538  1
  O2-  O354  1  0.93587919  0.93115851  0.28299311  1
  O2-  O355  1  0.06525653  0.26137744  0.47066118  1
  O2-  O356  1  0.43561959  0.40348100  0.71759146  1
  O2-  O357  1  0.92090372  0.72256822  0.06358970  1
  O2-  O358  1  0.55689276  0.41633951  0.77811195  1
  O2-  O359  1  0.93439560  0.40497301  0.27878190  1
  O2-  O360  1  0.43511597  0.73580437  0.53292739  1
  O2-  O361  1  0.56656399  0.59476940  0.22126483  1
  O2-  O362  1  0.06449731  0.73495875  0.45022158  1
  O2-  O363  1  0.57398847  0.05671507  0.70140616  1
  O2-  O364  1  0.57175468  0.27514737  0.70503801  1
  O2-  O365  1  0.56363286  0.40662215  0.96851806  1
  O2-  O366  1  0.93652050  0.06792227  0.71775678  1
  O2-  O367  1  0.07169474  0.27086454  0.20690079  1
  O2-  O368  1  0.56449854  0.92742323  0.02902097  1
  O2-  O369  1  0.93638274  0.06965060  0.46588836  1
  O2-  O370  1  0.92513627  0.71702536  0.93030101  1
  O2-  O371  1  0.43576873  0.93106332  0.71727920  1
  O2-  O372  1  0.74977772  -0.00481782  0.84030613  1
  O2-  O373  1  0.25005361  0.66683599  0.92113854  1
  O2-  O374  1  0.24987267  0.33461106  0.42073715  1
  O2-  O375  1  0.25000399  -0.00198526  0.15699907  1
  O2-  O376  1  0.25015456  0.32751905  0.08448143  1
  O2-  O377  1  0.25006056  0.01046323  0.83144213  1
  O2-  O378  1  0.24995592  0.00038659  0.57577562  1
  O2-  O379  1  0.74996351  0.66549129  0.65160114  1
  O2-  O380  1  0.74987773  0.34092800  0.57538776  1
  O2-  O381  1  0.74976940  -0.00228334  0.93105503  1
  O2-  O382  1  0.74990690  0.66684052  0.40707703  1
  O2-  O383  1  0.24999410  0.00882298  0.66886824  1
  O2-  O384  1  0.24997345  0.66921800  0.59760322  1
  O2-  O385  1  0.25001022  -0.00805088  0.91999338  1
  O2-  O386  1  0.25015616  0.33076818  0.65143585  1
  O2-  O387  1  0.25012492  0.66817760  0.82907269  1
  O2-  O388  1  0.25005801  0.33430508  0.17245974  1
  O2-  O389  1  0.24998103  -0.00270576  0.34274638  1
  O2-  O390  1  0.74984096  0.34591598  0.66551938  1
  O2-  O391  1  0.75005643  0.33278450  0.90818301  1
  O2-  O392  1  0.24997565  0.33273712  0.33138943  1
  O2-  O393  1  0.74992090  0.66679640  0.92145246  1
  O2-  O394  1  0.74981607  0.66728035  0.82918877  1
  O2-  O395  1  0.25012576  0.66540716  0.09251315  1
  O2-  O396  1  0.25000912  0.15710225  0.12821623  1
  O2-  O397  1  0.24998265  0.49932868  0.31140608  1
  O2-  O398  1  0.25005218  0.50805597  0.60861347  1
  O2-  O399  1  0.25003491  0.83207055  0.32817364  1
  O2-  O400  1  0.75001365  0.83566724  0.34553221  1
  O2-  O401  1  0.25000938  0.84051785  0.62737406  1
  O2-  O402  1  0.25002738  0.83319503  0.41904539  1
  O2-  O403  1  0.24995826  0.84118517  0.86299404  1
  O2-  O404  1  0.75002829  0.49919944  0.86265620  1
  O2-  O405  1  0.25008612  0.50893393  0.39122783  1
  O2-  O406  1  0.74999444  0.16738315  0.08664887  1
  O2-  O407  1  0.25001341  0.16680452  0.41064977  1
  O2-  O408  1  0.24997485  0.49696083  0.09736280  1
  O2-  O409  1  0.75008061  0.16623639  0.33660994  1
  O2-  O410  1  0.75004871  0.17128066  0.41731613  1
  O2-  O411  1  0.74997034  0.49951694  0.09160451  1
  O2-  O412  1  0.74993051  0.83620481  0.43263889  1
  O2-  O413  1  0.25006848  0.16611566  0.60960923  1
  O2-  O414  1  0.25000908  0.16947728  0.84193732  1
  O2-  O415  1  0.25009512  0.15414067  0.91549143  1
  O2-  O416  1  0.24994815  0.83554367  0.11456603  1
  O2-  O417  1  0.24993698  0.50021878  0.17861540  1
  O2-  O418  1  0.74992310  0.83734178  0.63970073  1
  O2-  O419  1  0.25005419  0.49442557  0.69057757  1
  O2-  O420  1  0.46157686  0.00048007  0.87517269  1
  O2-  O421  1  0.47158794  0.66790999  0.38132719  1
  O2-  O422  1  0.02817478  0.66876950  0.87404456  1
  O2-  O423  1  0.47227448  -0.00185955  0.37908168  1
  O2-  O424  1  0.03399962  -0.00260378  0.12797840  1
  O2-  O425  1  0.53811530  -0.00120673  0.87711754  1
  O2-  O426  1  0.02214199  0.33281428  0.12683110  1
  O2-  O427  1  0.47179048  0.66817407  0.87516310  1
  O2-  O428  1  0.46929406  0.67078575  0.12950238  1
  O2-  O429  1  0.53023729  0.67029199  0.12141553  1
  O2-  O430  1  0.03255937  0.67017692  0.11682218  1
  O2-  O431  1  0.96782104  0.66128313  0.13070208  1
  O2-  O432  1  0.53212012  0.00260492  0.37800013  1
  O2-  O433  1  0.52460384  0.32750389  0.87675240  1
  O2-  O434  1  0.96388113  -0.00130759  0.12593157  1
  O2-  O435  1  0.52768225  0.66765572  0.62588549  1
  O2-  O436  1  0.97208834  0.66622304  0.62486456  1
  O2-  O437  1  0.97000503  0.33100960  0.37741372  1
  O2-  O438  1  0.02767280  0.33314656  0.62299004  1
  O2-  O439  1  0.97396190  -0.00471351  0.87072343  1
  O2-  O440  1  0.03011190  0.33682332  0.37252756  1
  O2-  O441  1  0.52632632  0.00221559  0.12889377  1
  O2-  O442  1  0.52969511  0.66333658  0.36865258  1
  O2-  O443  1  0.02818803  0.00098288  0.37541973  1
