# generated using pymatgen
data_La7(Ru4O11)2
_symmetry_space_group_name_H-M   'P 1'
_cell_length_a   23.99431766
_cell_length_b   16.83612217
_cell_length_c   15.43164296
_cell_angle_alpha   89.99947628
_cell_angle_beta   89.99956636
_cell_angle_gamma   90.00155561
_symmetry_Int_Tables_number   1
_chemical_formula_structural   La7(Ru4O11)2
_chemical_formula_sum   'La84 Ru96 O264'
_cell_volume   6233.94030031
_cell_formula_units_Z   12
loop_
 _symmetry_equiv_pos_site_id
 _symmetry_equiv_pos_as_xyz
  1  'x, y, z'
loop_
 _atom_type_symbol
 _atom_type_oxidation_number
  La3+  3.0
  Ru4+  4.0
  O2-  -2.0
loop_
 _atom_site_type_symbol
 _atom_site_label
 _atom_site_symmetry_multiplicity
 _atom_site_fract_x
 _atom_site_fract_y
 _atom_site_fract_z
 _atom_site_occupancy
  La3+  La0  1  0.14080574  0.00172441  0.12940173  1
  La3+  La1  1  0.14977480  -0.00107073  0.37796737  1
  La3+  La2  1  0.14800387  0.00555831  0.61922601  1
  La3+  La3  1  0.13271034  0.00511239  0.87784616  1
  La3+  La4  1  0.14446753  0.33690509  0.12943873  1
  La3+  La5  1  0.14658497  0.33780417  0.37371387  1
  La3+  La6  1  0.14831890  0.33669478  0.61833312  1
  La3+  La7  1  0.13363323  0.33876964  0.87294306  1
  La3+  La8  1  0.13032849  0.66739549  0.12347005  1
  La3+  La9  1  0.13172380  0.66827876  0.37465038  1
  La3+  La10  1  0.13404608  0.65819229  0.61841229  1
  La3+  La11  1  0.13768296  0.65690438  0.87760407  1
  La3+  La12  1  0.63991760  0.00000376  0.12142366  1
  La3+  La13  1  0.64662432  -0.00075716  0.37908913  1
  La3+  La14  1  0.64391605  -0.00428439  0.62074049  1
  La3+  La15  1  0.63706462  0.00161352  0.87695936  1
  La3+  La16  1  0.64800397  0.33374206  0.12157239  1
  La3+  La17  1  0.63209921  0.32922744  0.37758262  1
  La3+  La18  1  0.62897954  0.32759192  0.63230965  1
  La3+  La19  1  0.64550526  0.32770188  0.87395134  1
  La3+  La20  1  0.63505361  0.67038706  0.11576581  1
  La3+  La21  1  0.63825530  0.66719698  0.37592087  1
  La3+  La22  1  0.63492477  0.66894246  0.62445817  1
  La3+  La23  1  0.64403742  0.66604391  0.87990735  1
  La3+  La24  1  0.35647533  0.00176564  0.12723336  1
  La3+  La25  1  0.34659015  0.00410456  0.37916346  1
  La3+  La26  1  0.35555858  0.00158434  0.61436196  1
  La3+  La27  1  0.36159176  -0.00112978  0.87927214  1
  La3+  La28  1  0.36031407  0.33935551  0.12945567  1
  La3+  La29  1  0.35565819  0.33602736  0.37520884  1
  La3+  La30  1  0.35273783  0.33824314  0.62252307  1
  La3+  La31  1  0.36568706  0.33781675  0.87808501  1
  La3+  La32  1  0.35329246  0.66424948  0.12801147  1
  La3+  La33  1  0.35810550  0.66266890  0.37092394  1
  La3+  La34  1  0.36123029  0.66528630  0.62756722  1
  La3+  La35  1  0.36160218  0.67115375  0.87576007  1
  La3+  La36  1  0.86536223  -0.00569316  0.12260427  1
  La3+  La37  1  0.86517844  -0.00519133  0.37424730  1
  La3+  La38  1  0.85620059  -0.00582687  0.61923799  1
  La3+  La39  1  0.86338964  0.00325550  0.87434789  1
  La3+  La40  1  0.85782559  0.33062177  0.11904839  1
  La3+  La41  1  0.86829103  0.33265351  0.37960513  1
  La3+  La42  1  0.85887749  0.33927475  0.62412289  1
  La3+  La43  1  0.85095809  0.32871997  0.87198452  1
  La3+  La44  1  0.85999146  0.66214900  0.12078711  1
  La3+  La45  1  0.86418155  0.67009149  0.37789987  1
  La3+  La46  1  0.87208452  0.66882450  0.62720993  1
  La3+  La47  1  0.86109598  0.66353814  0.87658112  1
  La3+  La48  1  0.49844461  0.83207294  0.38271062  1
  La3+  La49  1  0.49550659  0.50562869  0.62246034  1
  La3+  La50  1  0.00356735  0.15685089  0.88790680  1
  La3+  La51  1  0.49826658  0.18497941  0.11292905  1
  La3+  La52  1  0.00514768  0.50113651  0.62830720  1
  La3+  La53  1  0.50034394  0.49127309  0.36698212  1
  La3+  La54  1  0.49414426  0.15856702  0.86177845  1
  La3+  La55  1  -0.00033355  0.16729118  0.37657721  1
  La3+  La56  1  0.49922956  0.82958140  0.11106157  1
  La3+  La57  1  0.00125202  0.16592811  0.62372208  1
  La3+  La58  1  -0.00056573  0.83247480  0.62116152  1
  La3+  La59  1  -0.00255909  0.16045435  0.12353229  1
  La3+  La60  1  0.00309594  0.83270565  0.59910256  1
  La3+  La61  1  -0.00056793  0.17495260  0.64389388  1
  La3+  La62  1  -0.00527743  0.83959751  0.13889671  1
  La3+  La63  1  0.49740865  0.50048491  0.87550531  1
  La3+  La64  1  0.01192272  0.83841443  0.86506186  1
  La3+  La65  1  0.50216097  0.83964606  0.36289439  1
  La3+  La66  1  0.50237601  0.82866531  0.63780658  1
  La3+  La67  1  -0.00506827  0.52382439  0.88837481  1
  La3+  La68  1  0.49685520  0.16618998  0.84137748  1
  La3+  La69  1  -0.00245426  0.49125522  0.37459273  1
  La3+  La70  1  -0.00322501  0.50048261  0.11821247  1
  La3+  La71  1  0.50148822  0.17080720  0.61266029  1
  La3+  La72  1  0.74967081  0.83284940  0.33096602  1
  La3+  La73  1  0.74838262  0.47263940  0.48315922  1
  La3+  La74  1  0.75082627  0.49560772  0.02143869  1
  La3+  La75  1  0.74832810  0.57004266  0.74346097  1
  La3+  La76  1  0.75175532  0.78270558  0.76060572  1
  La3+  La77  1  0.74744350  0.48685006  0.19677454  1
  La3+  La78  1  0.75089230  0.20744810  0.27597171  1
  La3+  La79  1  0.74982060  0.12465262  0.54449578  1
  La3+  La80  1  0.25223998  0.17913578  0.80775504  1
  La3+  La81  1  0.25072819  0.50227012  0.73292417  1
  La3+  La82  1  0.75010554  0.83375654  -0.04662109  1
  La3+  La83  1  0.24967466  0.80084261  0.01679423  1
  Ru4+  Ru84  1  -0.00168831  -0.00073610  0.01375211  1
  Ru4+  Ru85  1  0.00788889  0.00384346  0.23980015  1
  Ru4+  Ru86  1  -0.00006037  -0.00467940  0.49454707  1
  Ru4+  Ru87  1  -0.00957374  -0.01088021  0.75073369  1
  Ru4+  Ru88  1  -0.00031822  0.33489963  0.01774447  1
  Ru4+  Ru89  1  0.00109000  0.33433941  0.23683117  1
  Ru4+  Ru90  1  -0.00334378  0.33700163  0.49960339  1
  Ru4+  Ru91  1  0.00256899  0.34210330  0.74837582  1
  Ru4+  Ru92  1  -0.00431957  0.68455321  0.00766393  1
  Ru4+  Ru93  1  -0.00205837  0.67219804  0.24833592  1
  Ru4+  Ru94  1  -0.00152078  0.65984652  0.50067551  1
  Ru4+  Ru95  1  0.00129967  0.66111115  0.75987564  1
  Ru4+  Ru96  1  0.50242949  -0.00829958  -0.00567513  1
  Ru4+  Ru97  1  0.50588934  0.00831265  0.25924627  1
  Ru4+  Ru98  1  0.49575217  0.00363550  0.50215619  1
  Ru4+  Ru99  1  0.50093774  -0.00508395  0.75423361  1
  Ru4+  Ru100  1  0.50318776  0.33601691  -0.00062277  1
  Ru4+  Ru101  1  0.49745295  0.33163077  0.25612229  1
  Ru4+  Ru102  1  0.49290362  0.32448066  0.47814546  1
  Ru4+  Ru103  1  0.49707810  0.34109934  0.74775830  1
  Ru4+  Ru104  1  0.49022621  0.65859303  0.01387167  1
  Ru4+  Ru105  1  0.50398221  0.66319399  0.24753748  1
  Ru4+  Ru106  1  0.50524486  0.65596924  0.50069671  1
  Ru4+  Ru107  1  0.49912753  0.66166004  0.74374392  1
  Ru4+  Ru108  1  0.11603106  0.16677144  -0.00072233  1
  Ru4+  Ru109  1  0.11568951  0.16379647  0.25171343  1
  Ru4+  Ru110  1  0.11648065  0.16423592  0.49526013  1
  Ru4+  Ru111  1  0.11619166  0.17429866  0.75652867  1
  Ru4+  Ru112  1  0.11404255  0.49664086  0.00327621  1
  Ru4+  Ru113  1  0.11711259  0.50069775  0.25078566  1
  Ru4+  Ru114  1  0.11820015  0.49991343  0.49521078  1
  Ru4+  Ru115  1  0.10971752  0.49595545  0.74996591  1
  Ru4+  Ru116  1  0.10979314  0.82803254  -0.00311445  1
  Ru4+  Ru117  1  0.11644694  0.82944131  0.25058237  1
  Ru4+  Ru118  1  0.11149578  0.84232924  0.49315830  1
  Ru4+  Ru119  1  0.11450098  0.83224051  0.75010199  1
  Ru4+  Ru120  1  0.61411202  0.17191920  0.00424138  1
  Ru4+  Ru121  1  0.60079841  0.16039699  0.25671276  1
  Ru4+  Ru122  1  0.60699442  0.16643730  0.49854498  1
  Ru4+  Ru123  1  0.61920397  0.16513354  0.74616135  1
  Ru4+  Ru124  1  0.60897629  0.50027494  -0.00164924  1
  Ru4+  Ru125  1  0.60737897  0.49777693  0.24933091  1
  Ru4+  Ru126  1  0.60963264  0.50085076  0.49944108  1
  Ru4+  Ru127  1  0.60815670  0.50228002  0.75281924  1
  Ru4+  Ru128  1  0.60930629  0.83401112  0.00292645  1
  Ru4+  Ru129  1  0.60254443  0.83378716  0.25079319  1
  Ru4+  Ru130  1  0.61158247  0.83222051  0.49908492  1
  Ru4+  Ru131  1  0.60781218  0.83546912  0.74890425  1
  Ru4+  Ru132  1  0.38479211  0.16528162  0.00117153  1
  Ru4+  Ru133  1  0.38872727  0.16667485  0.25046999  1
  Ru4+  Ru134  1  0.39146530  0.17336181  0.50295464  1
  Ru4+  Ru135  1  0.38847389  0.16518152  0.74393386  1
  Ru4+  Ru136  1  0.39491838  0.50728211  -0.00051712  1
  Ru4+  Ru137  1  0.38457041  0.49431849  0.24988406  1
  Ru4+  Ru138  1  0.38573368  0.50219143  0.50004013  1
  Ru4+  Ru139  1  0.38917999  0.50640534  0.74987193  1
  Ru4+  Ru140  1  0.39183113  0.83189696  -0.00511854  1
  Ru4+  Ru141  1  0.38692099  0.83633863  0.24595018  1
  Ru4+  Ru142  1  0.38621708  0.83463778  0.50124071  1
  Ru4+  Ru143  1  0.38852133  0.83410958  0.75044703  1
  Ru4+  Ru144  1  0.88610636  0.16848666  0.00125316  1
  Ru4+  Ru145  1  0.89228517  0.16736066  0.24835491  1
  Ru4+  Ru146  1  0.88526944  0.16822942  0.49629330  1
  Ru4+  Ru147  1  0.88537737  0.17011375  0.75403912  1
  Ru4+  Ru148  1  0.89054510  0.50126346  -0.00088562  1
  Ru4+  Ru149  1  0.89012391  0.50174668  0.25025961  1
  Ru4+  Ru150  1  0.88774926  0.50045547  0.49792181  1
  Ru4+  Ru151  1  0.89004898  0.49878181  0.75022695  1
  Ru4+  Ru152  1  0.88830079  0.82935299  -0.00034293  1
  Ru4+  Ru153  1  0.88785132  0.82424690  0.25247425  1
  Ru4+  Ru154  1  0.88243789  0.83713603  0.49827724  1
  Ru4+  Ru155  1  0.89691517  0.83749186  0.74845454  1
  Ru4+  Ru156  1  0.24863253  0.74578650  0.75902820  1
  Ru4+  Ru157  1  0.74936395  0.94214708  0.23128661  1
  Ru4+  Ru158  1  0.75108823  0.09737126  0.76166959  1
  Ru4+  Ru159  1  0.25083977  0.23555035  0.25375152  1
  Ru4+  Ru160  1  0.74986130  0.92747750  0.74662297  1
  Ru4+  Ru161  1  0.74843447  0.73970316  0.20155188  1
  Ru4+  Ru162  1  0.75059416  0.37135382  0.26237405  1
  Ru4+  Ru163  1  0.74816902  0.26360979  0.52446630  1
  Ru4+  Ru164  1  0.24968263  0.95319637  -0.00389856  1
  Ru4+  Ru165  1  0.75040100  0.09066993  -0.01818505  1
  Ru4+  Ru166  1  0.24967401  0.91140533  0.76566712  1
  Ru4+  Ru167  1  0.25034005  0.42833643  0.01292773  1
  Ru4+  Ru168  1  0.24956303  0.57100472  0.02188992  1
  Ru4+  Ru169  1  0.75012600  0.76036502  0.53583379  1
  Ru4+  Ru170  1  0.25019402  0.24283097  0.48409087  1
  Ru4+  Ru171  1  0.75115081  0.60294320  0.54191969  1
  Ru4+  Ru172  1  0.74908997  0.39265721  0.74186660  1
  Ru4+  Ru173  1  0.24977226  0.05606402  0.73322527  1
  Ru4+  Ru174  1  0.75058784  0.60777923  0.24829851  1
  Ru4+  Ru175  1  0.75098772  0.07446733  0.24527067  1
  Ru4+  Ru176  1  0.24916941  0.32155882  0.77614290  1
  Ru4+  Ru177  1  0.24886093  0.76312197  0.48791928  1
  Ru4+  Ru178  1  0.25048496  0.91030175  0.25730199  1
  Ru4+  Ru179  1  0.24975932  0.24918570  0.00994348  1
  O2-  O180  1  0.16438650  0.08079778  -0.00156202  1
  O2-  O181  1  0.17016723  0.08279737  0.24569950  1
  O2-  O182  1  0.16639582  0.08409225  0.49874035  1
  O2-  O183  1  0.16680535  0.07798613  0.75543332  1
  O2-  O184  1  0.16740557  0.41586787  -0.00419172  1
  O2-  O185  1  0.16425824  0.41407478  0.24937879  1
  O2-  O186  1  0.16710874  0.41698411  0.49381135  1
  O2-  O187  1  0.17295130  0.41345749  0.76705086  1
  O2-  O188  1  0.16664648  0.74169758  0.00329881  1
  O2-  O189  1  0.16743967  0.74751712  0.25668091  1
  O2-  O190  1  0.16482881  0.74848162  0.49638788  1
  O2-  O191  1  0.16765573  0.74214761  0.75330910  1
  O2-  O192  1  0.66820719  0.08159465  -0.00254623  1
  O2-  O193  1  0.66524678  0.08163605  0.24515377  1
  O2-  O194  1  0.66109545  0.08027745  0.50190886  1
  O2-  O195  1  0.66972496  0.07972589  0.74991251  1
  O2-  O196  1  0.66650472  0.41721231  -0.00530770  1
  O2-  O197  1  0.66416982  0.41219293  0.25398248  1
  O2-  O198  1  0.66043721  0.41323084  0.50660270  1
  O2-  O199  1  0.66551785  0.41125824  0.74449497  1
  O2-  O200  1  0.67029060  0.74936398  -0.00573746  1
  O2-  O201  1  0.66436350  0.74888252  0.24153420  1
  O2-  O202  1  0.66570313  0.74833793  0.50530624  1
  O2-  O203  1  0.65746250  0.74596114  0.74994594  1
  O2-  O204  1  0.33255560  0.25576891  0.00073104  1
  O2-  O205  1  0.33225547  0.25390006  0.24980128  1
  O2-  O206  1  0.33338513  0.25228294  0.49952247  1
  O2-  O207  1  0.33411231  0.25609315  0.75619332  1
  O2-  O208  1  0.33195054  0.58318317  0.00106909  1
  O2-  O209  1  0.33845773  0.58715953  0.25164474  1
  O2-  O210  1  0.33898402  0.58981364  0.49771649  1
  O2-  O211  1  0.33414904  0.58825964  0.75219844  1
  O2-  O212  1  0.33063056  0.91833192  0.00008882  1
  O2-  O213  1  0.33175640  0.91932562  0.25039383  1
  O2-  O214  1  0.33562568  0.91591742  0.49766813  1
  O2-  O215  1  0.33438860  0.91867982  0.75515615  1
  O2-  O216  1  0.83598815  0.25153918  -0.00390681  1
  O2-  O217  1  0.84192828  0.25741258  0.25136173  1
  O2-  O218  1  0.82934178  0.25304755  0.50307100  1
  O2-  O219  1  0.82828124  0.24708006  0.75245570  1
  O2-  O220  1  0.83327778  0.58295016  0.00115572  1
  O2-  O221  1  0.83682183  0.58968211  0.25523743  1
  O2-  O222  1  0.83373269  0.58844339  0.50147099  1
  O2-  O223  1  0.83854789  0.59004548  0.74573665  1
  O2-  O224  1  0.83125416  0.91627051  -0.00833383  1
  O2-  O225  1  0.83378801  0.91823481  0.25043550  1
  O2-  O226  1  0.83267484  0.91940681  0.49858377  1
  O2-  O227  1  0.83424098  0.92173476  0.75104436  1
  O2-  O228  1  0.16577302  0.25649573  -0.00053025  1
  O2-  O229  1  0.16945311  0.25234681  0.25127551  1
  O2-  O230  1  0.16613379  0.25348397  0.49435095  1
  O2-  O231  1  0.17011338  0.25788702  0.75494145  1
  O2-  O232  1  0.16951653  0.58209202  0.00103984  1
  O2-  O233  1  0.16542433  0.58653627  0.25377339  1
  O2-  O234  1  0.16827942  0.58964591  0.49189755  1
  O2-  O235  1  0.16749496  0.58219182  0.74736966  1
  O2-  O236  1  0.16846360  0.91711008  -0.00431357  1
  O2-  O237  1  0.17125438  0.91649845  0.25049817  1
  O2-  O238  1  0.16783617  0.91836507  0.49882042  1
  O2-  O239  1  0.16422235  0.91907335  0.75711882  1
  O2-  O240  1  0.66968468  0.24978342  -0.00980097  1
  O2-  O241  1  0.65974796  0.24917284  0.24922488  1
  O2-  O242  1  0.66553805  0.25313323  0.50632397  1
  O2-  O243  1  0.66635634  0.25325126  0.74335621  1
  O2-  O244  1  0.66528098  0.58463073  0.00287010  1
  O2-  O245  1  0.66299069  0.59025990  0.24642284  1
  O2-  O246  1  0.66920866  0.58563515  0.50308419  1
  O2-  O247  1  0.65459673  0.59112368  0.75176858  1
  O2-  O248  1  0.66390655  0.91904335  -0.00422723  1
  O2-  O249  1  0.66472874  0.92142768  0.24671909  1
  O2-  O250  1  0.66096448  0.91788650  0.50233882  1
  O2-  O251  1  0.66494614  0.92100371  0.74991201  1
  O2-  O252  1  0.33671244  0.07996838  -0.00091235  1
  O2-  O253  1  0.33934330  0.08230140  0.24738206  1
  O2-  O254  1  0.33867118  0.08748709  0.49697174  1
  O2-  O255  1  0.33214156  0.07518206  0.75240000  1
  O2-  O256  1  0.33509963  0.41998682  -0.00022999  1
  O2-  O257  1  0.32970133  0.41597741  0.24859586  1
  O2-  O258  1  0.34063573  0.41594832  0.49814329  1
  O2-  O259  1  0.33358485  0.41255983  0.75994205  1
  O2-  O260  1  0.33613154  0.74530600  0.00040603  1
  O2-  O261  1  0.33768457  0.74701833  0.25334435  1
  O2-  O262  1  0.33375882  0.74449759  0.49589345  1
  O2-  O263  1  0.33090172  0.74681696  0.75363162  1
  O2-  O264  1  0.83296680  0.07880269  -0.00423531  1
  O2-  O265  1  0.83651124  0.08045531  0.25116221  1
  O2-  O266  1  0.83762084  0.07580213  0.49838736  1
  O2-  O267  1  0.83253780  0.08316967  0.74823503  1
  O2-  O268  1  0.83487100  0.41560229  -0.00284569  1
  O2-  O269  1  0.83235211  0.40876893  0.25071257  1
  O2-  O270  1  0.83539468  0.41191878  0.49555313  1
  O2-  O271  1  0.83261450  0.41301300  0.74760266  1
  O2-  O272  1  0.82795698  0.75127799  -0.01155592  1
  O2-  O273  1  0.83134116  0.74659491  0.24734614  1
  O2-  O274  1  0.83118079  0.74750937  0.50704200  1
  O2-  O275  1  0.84268267  0.74360501  0.74484994  1
  O2-  O276  1  0.54447088  0.22550489  0.95124126  1
  O2-  O277  1  0.95817085  0.79481252  0.95691012  1
  O2-  O278  1  0.94783372  0.09365159  0.51335253  1
  O2-  O279  1  0.94764410  0.57693215  0.76549743  1
  O2-  O280  1  0.54991593  0.42859566  0.98115663  1
  O2-  O281  1  0.94581048  0.42214791  0.74061593  1
  O2-  O282  1  0.44404368  0.75147049  0.73146306  1
  O2-  O283  1  0.54794656  0.23976056  0.49409056  1
  O2-  O284  1  0.04934490  0.08960097  0.73592080  1
  O2-  O285  1  0.05222216  0.09459528  0.77455578  1
  O2-  O286  1  0.44370276  0.24822017  0.00069634  1
  O2-  O287  1  0.05399844  0.75976625  0.48032929  1
  O2-  O288  1  0.97164060  0.24481011  0.79780254  1
  O2-  O289  1  0.04774304  0.23923587  0.49194885  1
  O2-  O290  1  0.54622208  0.90573764  0.48730868  1
  O2-  O291  1  0.94909824  0.57308384  0.47281352  1
  O2-  O292  1  0.04501988  0.57709993  0.26987552  1
  O2-  O293  1  0.54473481  0.23267039  0.73107285  1
  O2-  O294  1  0.95577827  0.23714635  -0.00097277  1
  O2-  O295  1  0.45675583  0.76465665  0.25209939  1
  O2-  O296  1  0.95092427  0.91855480  0.26071112  1
  O2-  O297  1  0.45250401  0.90952226  0.73539668  1
  O2-  O298  1  0.94872397  0.75448190  0.24798882  1
  O2-  O299  1  0.95072854  0.75712396  0.26771228  1
  O2-  O300  1  0.95583246  0.09737270  0.25912005  1
  O2-  O301  1  0.53497002  0.10215656  0.20149010  1
  O2-  O302  1  0.94272748  0.08574353  0.77853750  1
  O2-  O303  1  0.45246378  0.22849442  0.25628644  1
  O2-  O304  1  0.95581361  0.23608280  0.24249709  1
  O2-  O305  1  0.94578781  0.08470456  0.98487935  1
  O2-  O306  1  0.95570982  0.42994998  0.98727483  1
  O2-  O307  1  0.45329378  0.09231947  0.99275202  1
  O2-  O308  1  0.55023355  0.43004427  0.73477352  1
  O2-  O309  1  0.44751471  0.42895475  0.74343600  1
  O2-  O310  1  0.04796694  0.56571992  0.23275488  1
  O2-  O311  1  0.05272857  0.08801536  0.50787321  1
  O2-  O312  1  0.03985341  0.87913421  0.26556587  1
  O2-  O313  1  0.54423142  0.56524152  0.25716120  1
  O2-  O314  1  0.44599352  0.41763320  0.97258407  1
  O2-  O315  1  0.04445337  0.89783412  0.45847792  1
  O2-  O316  1  0.93889389  0.91022322  0.22787093  1
  O2-  O317  1  0.05431733  0.09003737  0.99235367  1
  O2-  O318  1  0.55055033  0.08368161  0.51210130  1
  O2-  O319  1  0.04896179  0.57107705  0.00980028  1
  O2-  O320  1  0.05650441  0.58374927  0.52939876  1
  O2-  O321  1  0.04274802  0.44168375  0.80784886  1
  O2-  O322  1  0.46516405  0.55769502  0.05490555  1
  O2-  O323  1  0.04933713  0.76048633  0.05157577  1
  O2-  O324  1  0.58022143  0.26439783  0.06738912  1
  O2-  O325  1  0.44226459  0.74821000  0.73221150  1
  O2-  O326  1  0.06273184  0.58737210  0.71022815  1
  O2-  O327  1  0.93503803  0.92262969  0.48764574  1
  O2-  O328  1  0.06274194  0.26168736  0.28442460  1
  O2-  O329  1  0.91623857  0.25539862  0.68945843  1
  O2-  O330  1  0.93406612  0.74509490  0.51867908  1
  O2-  O331  1  0.05990289  0.92572918  0.96089075  1
  O2-  O332  1  0.56705688  0.57817417  0.42546789  1
  O2-  O333  1  0.08557110  0.90394525  0.60617132  1
  O2-  O334  1  0.92333250  0.73418278  0.06237332  1
  O2-  O335  1  0.08163524  0.40685798  0.68874817  1
  O2-  O336  1  0.93647521  0.92345252  0.02245007  1
  O2-  O337  1  0.07817675  0.10137561  0.32971251  1
  O2-  O338  1  0.44445098  0.74829447  0.97113651  1
  O2-  O339  1  0.05636048  0.74596047  0.05607847  1
  O2-  O340  1  0.56721722  0.57545575  0.57456968  1
  O2-  O341  1  0.06807130  0.73476508  0.22837646  1
  O2-  O342  1  0.43859317  0.41336827  0.22882744  1
  O2-  O343  1  0.93964980  0.41977540  0.51178515  1
  O2-  O344  1  0.56491846  0.07528266  0.77149931  1
  O2-  O345  1  0.55890889  0.74406952  0.01895189  1
  O2-  O346  1  0.08479297  0.76419304  0.89898536  1
  O2-  O347  1  0.43842428  0.07996178  0.53566049  1
  O2-  O348  1  0.56661461  0.07079094  0.98213737  1
  O2-  O349  1  0.94306016  0.58285990  0.76745247  1
  O2-  O350  1  0.06794114  0.09039454  0.18004159  1
  O2-  O351  1  0.06041716  0.60044892  0.02375286  1
  O2-  O352  1  0.06273084  0.72657879  0.48758268  1
  O2-  O353  1  0.55631648  0.41249012  0.48942450  1
  O2-  O354  1  0.43810610  0.26871198  0.58388932  1
  O2-  O355  1  0.56335719  0.25567924  0.26755445  1
  O2-  O356  1  0.94159979  0.42080910  0.22884761  1
  O2-  O357  1  0.44182002  0.91906370  0.53687719  1
  O2-  O358  1  0.43728078  0.92619433  0.97524155  1
  O2-  O359  1  0.05523687  0.58638779  0.52601318  1
  O2-  O360  1  0.55925966  0.26116997  0.72271832  1
  O2-  O361  1  0.05886128  0.41261247  0.51730739  1
  O2-  O362  1  0.05396939  0.90812737  0.45201155  1
  O2-  O363  1  0.57177557  0.05061126  0.31856893  1
  O2-  O364  1  0.44124813  0.07346144  0.71767018  1
  O2-  O365  1  0.93510760  0.25712506  0.47174985  1
  O2-  O366  1  0.07926766  0.94268898  0.27192191  1
  O2-  O367  1  0.43280090  0.24154202  0.43535902  1
  O2-  O368  1  0.05984144  0.74659717  0.71201696  1
  O2-  O369  1  0.43335076  0.59972748  0.92420958  1
  O2-  O370  1  0.94603837  0.07911063  0.78271120  1
  O2-  O371  1  0.44280676  0.92961326  0.21300618  1
  O2-  O372  1  0.74667271  0.67666997  0.85284479  1
  O2-  O373  1  0.74841922  0.34764482  0.43943533  1
  O2-  O374  1  0.24967451  0.32613990  0.39055564  1
  O2-  O375  1  0.25145287  0.32849767  0.55472337  1
  O2-  O376  1  0.25203179  0.66676134  0.09307310  1
  O2-  O377  1  0.75003812  0.67619067  0.45050838  1
  O2-  O378  1  0.74913587  0.32943448  0.84837380  1
  O2-  O379  1  0.75048152  0.30616798  0.15310682  1
  O2-  O380  1  0.75032866  0.01798920  0.67099819  1
  O2-  O381  1  0.24920286  -0.03319146  0.65522810  1
  O2-  O382  1  0.74925153  0.69557330  0.32373899  1
  O2-  O383  1  0.75104082  -0.00450460  0.35239196  1
  O2-  O384  1  0.25060245  0.35738869  0.66869539  1
  O2-  O385  1  0.74885132  -0.00852097  0.56551107  1
  O2-  O386  1  0.25172165  -0.01592905  0.36538076  1
  O2-  O387  1  0.24993571  -0.01402912  0.86733783  1
  O2-  O388  1  0.25168232  0.00453139  0.56378968  1
  O2-  O389  1  0.74914412  0.65449610  0.10811273  1
  O2-  O390  1  0.74956748  0.30508789  0.36324455  1
  O2-  O391  1  0.25146511  0.33497624  0.09534459  1
  O2-  O392  1  0.74942940  0.35705442  0.07800763  1
  O2-  O393  1  0.74831932  0.00202155  0.11879827  1
  O2-  O394  1  0.25112852  -0.00169489  0.10516520  1
  O2-  O395  1  0.75037531  -0.00166546  0.85912538  1
  O2-  O396  1  0.74839509  0.52581211  0.89461068  1
  O2-  O397  1  0.24979309  0.50144620  0.34151621  1
  O2-  O398  1  0.74921092  0.84010431  0.08089563  1
  O2-  O399  1  0.25016158  0.82825851  0.68629221  1
  O2-  O400  1  0.25007476  0.17170825  0.39635012  1
  O2-  O401  1  0.75106493  0.46369846  0.83252038  1
  O2-  O402  1  0.74973018  0.50430650  0.34214453  1
  O2-  O403  1  0.74931842  0.83468141  0.63216548  1
  O2-  O404  1  0.24985283  0.15969719  0.65555467  1
  O2-  O405  1  0.75029697  0.14595278  0.15632910  1
  O2-  O406  1  0.25065173  0.17776028  0.15802037  1
  O2-  O407  1  0.25097706  0.81890065  0.39344492  1
  O2-  O408  1  0.25110278  0.84339887  0.16202956  1
  O2-  O409  1  0.25019730  0.49997002  0.11853032  1
  O2-  O410  1  0.75079831  0.48206124  0.63075756  1
  O2-  O411  1  0.74969123  0.15911098  0.85532325  1
  O2-  O412  1  0.25030847  0.83768523  0.56063574  1
  O2-  O413  1  0.75000977  0.84834031  0.16906264  1
  O2-  O414  1  0.25007900  0.16152574  0.94500474  1
  O2-  O415  1  0.74892224  0.84253482  0.46239312  1
  O2-  O416  1  0.25167233  0.50915170  0.60778670  1
  O2-  O417  1  0.74913483  0.15895153  0.40939501  1
  O2-  O418  1  0.24965892  0.15647561  0.56606723  1
  O2-  O419  1  0.75080574  0.17545422  0.04065303  1
  O2-  O420  1  0.45440657  0.64009894  0.59784572  1
  O2-  O421  1  0.02073213  0.01654158  0.36783993  1
  O2-  O422  1  0.04529265  0.29314367  0.63750143  1
  O2-  O423  1  0.46879086  0.32342508  0.12394116  1
  O2-  O424  1  0.51766218  0.69265037  0.37469899  1
  O2-  O425  1  0.00995437  0.00246344  0.62709819  1
  O2-  O426  1  0.52321899  0.66684802  0.13058849  1
  O2-  O427  1  0.95481175  0.33179042  0.12099527  1
  O2-  O428  1  0.97571825  0.63367363  0.12819149  1
  O2-  O429  1  0.04357853  -0.03131280  0.11158371  1
  O2-  O430  1  0.96100726  0.00881159  0.38200101  1
  O2-  O431  1  0.95504867  0.67354375  0.89064724  1
  O2-  O432  1  0.04603212  0.63674639  0.86145369  1
  O2-  O433  1  0.54537001  0.69833810  0.64997466  1
  O2-  O434  1  0.53911056  0.34409366  0.36622575  1
  O2-  O435  1  0.04942834  0.33324595  0.12157334  1
  O2-  O436  1  0.45125586  0.36195037  0.37173591  1
  O2-  O437  1  0.97821395  0.35000150  0.36838218  1
  O2-  O438  1  0.52800439  0.35301305  0.14088207  1
  O2-  O439  1  0.95838567  0.02316869  0.13324869  1
  O2-  O440  1  0.97407365  0.66580652  0.63104211  1
  O2-  O441  1  0.52314815  -0.01883192  0.87263508  1
  O2-  O442  1  0.96430343  0.34057841  0.61234318  1
  O2-  O443  1  0.46931063  -0.01088739  0.37425771  1
