# generated using pymatgen
data_La7(Ru4O11)2
_symmetry_space_group_name_H-M   'P 1'
_cell_length_a   23.99446615
_cell_length_b   16.83466374
_cell_length_c   15.43162940
_cell_angle_alpha   90.00157926
_cell_angle_beta   90.00078721
_cell_angle_gamma   89.99662355
_symmetry_Int_Tables_number   1
_chemical_formula_structural   La7(Ru4O11)2
_chemical_formula_sum   'La84 Ru96 O264'
_cell_volume   6233.43337533
_cell_formula_units_Z   12
loop_
 _symmetry_equiv_pos_site_id
 _symmetry_equiv_pos_as_xyz
  1  'x, y, z'
loop_
 _atom_type_symbol
 _atom_type_oxidation_number
  La3+  3.0
  Ru4+  4.0
  O2-  -2.0
loop_
 _atom_site_type_symbol
 _atom_site_label
 _atom_site_symmetry_multiplicity
 _atom_site_fract_x
 _atom_site_fract_y
 _atom_site_fract_z
 _atom_site_occupancy
  La3+  La0  1  0.14061833  0.00317054  0.12590399  1
  La3+  La1  1  0.13864152  0.00082085  0.37410574  1
  La3+  La2  1  0.14182927  0.00271382  0.63009193  1
  La3+  La3  1  0.13948675  -0.00546337  0.87167826  1
  La3+  La4  1  0.13612339  0.33378116  0.12366676  1
  La3+  La5  1  0.14720852  0.32996721  0.37236134  1
  La3+  La6  1  0.13953470  0.33344729  0.62267065  1
  La3+  La7  1  0.14252877  0.34048306  0.87358583  1
  La3+  La8  1  0.14220820  0.66645852  0.11707751  1
  La3+  La9  1  0.13710444  0.66922183  0.37501085  1
  La3+  La10  1  0.13246989  0.67007904  0.63016771  1
  La3+  La11  1  0.14948166  0.66793387  0.87543327  1
  La3+  La12  1  0.63456914  0.00452012  0.12571132  1
  La3+  La13  1  0.64346546  -0.00018620  0.37518557  1
  La3+  La14  1  0.65086411  0.00106607  0.62216907  1
  La3+  La15  1  0.63899917  0.00257768  0.87369268  1
  La3+  La16  1  0.63985581  0.32981053  0.12286754  1
  La3+  La17  1  0.63665324  0.33211902  0.37652747  1
  La3+  La18  1  0.63896614  0.33534259  0.63109857  1
  La3+  La19  1  0.64087693  0.33082193  0.87322574  1
  La3+  La20  1  0.64678937  0.67083009  0.12067856  1
  La3+  La21  1  0.64771474  0.67485553  0.37888100  1
  La3+  La22  1  0.64349869  0.66483616  0.63085100  1
  La3+  La23  1  0.64018701  0.66562256  0.86838101  1
  La3+  La24  1  0.35245688  0.00473876  0.12085566  1
  La3+  La25  1  0.35733631  0.00065080  0.37404824  1
  La3+  La26  1  0.36523566  -0.00371977  0.62936158  1
  La3+  La27  1  0.35817899  0.00003532  0.87577933  1
  La3+  La28  1  0.34956560  0.32279073  0.12151794  1
  La3+  La29  1  0.35579357  0.33040752  0.37293390  1
  La3+  La30  1  0.35739672  0.33733254  0.62806062  1
  La3+  La31  1  0.35586177  0.33814179  0.87102095  1
  La3+  La32  1  0.35760599  0.66559849  0.11729489  1
  La3+  La33  1  0.36432056  0.66251186  0.36998145  1
  La3+  La34  1  0.36454752  0.66479545  0.63291797  1
  La3+  La35  1  0.35289999  0.66634042  0.87682175  1
  La3+  La36  1  0.86360799  0.00595994  0.12566977  1
  La3+  La37  1  0.85519062  -0.00146864  0.37674879  1
  La3+  La38  1  0.85007838  -0.00043791  0.62289806  1
  La3+  La39  1  0.86176104  0.00357608  0.87514231  1
  La3+  La40  1  0.86006499  0.32926775  0.12777601  1
  La3+  La41  1  0.86520364  0.33218073  0.37669615  1
  La3+  La42  1  0.86266183  0.33638720  0.62796442  1
  La3+  La43  1  0.85613145  0.32822824  0.87736050  1
  La3+  La44  1  0.86404044  0.66484554  0.12366334  1
  La3+  La45  1  0.86213196  0.66952281  0.37742020  1
  La3+  La46  1  0.85836862  0.66867001  0.63160526  1
  La3+  La47  1  0.85644532  0.66683079  0.87025863  1
  La3+  La48  1  0.50808040  0.83133871  0.61571324  1
  La3+  La49  1  -0.00304829  0.50018986  0.36503211  1
  La3+  La50  1  0.00505153  0.83254519  0.62409579  1
  La3+  La51  1  -0.00222393  0.15956573  0.62663390  1
  La3+  La52  1  0.50679343  0.17270347  0.12944951  1
  La3+  La53  1  0.49818755  0.16105616  0.11640044  1
  La3+  La54  1  -0.00173879  0.83113222  0.12232652  1
  La3+  La55  1  0.49800337  0.83456379  0.87900659  1
  La3+  La56  1  0.50083477  0.16931386  0.87499845  1
  La3+  La57  1  0.50580311  0.83046902  0.38975000  1
  La3+  La58  1  -0.00441632  0.15745889  0.64279033  1
  La3+  La59  1  -0.00306170  0.49566369  0.87914565  1
  La3+  La60  1  0.00120239  0.49383523  0.38556176  1
  La3+  La61  1  0.50874616  0.83241923  0.37395199  1
  La3+  La62  1  0.00306560  0.16827605  0.36358629  1
  La3+  La63  1  0.49812333  0.16190055  0.61342348  1
  La3+  La64  1  0.00434994  0.50044525  0.86032255  1
  La3+  La65  1  -0.01121024  0.82233800  0.36954980  1
  La3+  La66  1  0.50008544  0.83858279  0.12237568  1
  La3+  La67  1  0.50186799  0.16611900  0.63443840  1
  La3+  La68  1  0.50568752  0.82806175  0.63169546  1
  La3+  La69  1  0.49377105  0.49150948  0.11855582  1
  La3+  La70  1  0.00450830  0.16149987  0.88280269  1
  La3+  La71  1  0.49579628  0.49800052  0.86418669  1
  La3+  La72  1  0.24771793  0.16966603  0.21672113  1
  La3+  La73  1  0.74891529  0.16357445  0.78834711  1
  La3+  La74  1  0.25017165  0.50422044  0.42230104  1
  La3+  La75  1  0.74959293  0.14987098  0.44220250  1
  La3+  La76  1  0.74969635  0.47667729  0.22269406  1
  La3+  La77  1  0.75212793  0.85393948  -0.01363752  1
  La3+  La78  1  0.25051222  0.21487495  0.74959552  1
  La3+  La79  1  0.75085841  0.16673391  0.22730449  1
  La3+  La80  1  0.75217300  0.81119493  0.21068557  1
  La3+  La81  1  0.25121279  0.82192437  0.52580418  1
  La3+  La82  1  0.74901410  0.52884245  -0.04479973  1
  La3+  La83  1  0.24788316  0.45081060  0.21911499  1
  Ru4+  Ru84  1  -0.00048004  -0.00222498  -0.01526785  1
  Ru4+  Ru85  1  -0.00369135  0.00361664  0.26496318  1
  Ru4+  Ru86  1  0.00797962  -0.00633336  0.48495489  1
  Ru4+  Ru87  1  -0.00119992  -0.00921406  0.76447640  1
  Ru4+  Ru88  1  -0.00074845  0.32523374  0.01130955  1
  Ru4+  Ru89  1  -0.00210657  0.32892245  0.23698507  1
  Ru4+  Ru90  1  -0.00011285  0.32891327  0.50298752  1
  Ru4+  Ru91  1  -0.00590593  0.34338008  0.74013192  1
  Ru4+  Ru92  1  -0.01232107  0.65858787  0.01096659  1
  Ru4+  Ru93  1  -0.00349230  0.66495995  0.24818385  1
  Ru4+  Ru94  1  -0.00120787  0.66555056  0.50914307  1
  Ru4+  Ru95  1  0.00310623  0.67012329  0.74432694  1
  Ru4+  Ru96  1  0.50680488  -0.00182643  -0.00448837  1
  Ru4+  Ru97  1  0.50549447  0.00304380  0.25854963  1
  Ru4+  Ru98  1  0.49873542  0.00285995  0.49016394  1
  Ru4+  Ru99  1  0.49347277  -0.00105340  0.75350971  1
  Ru4+  Ru100  1  0.50385356  0.33599530  -0.02073741  1
  Ru4+  Ru101  1  0.50589202  0.34131326  0.27356341  1
  Ru4+  Ru102  1  0.49600790  0.34324289  0.48999631  1
  Ru4+  Ru103  1  0.49902660  0.34349862  0.76389749  1
  Ru4+  Ru104  1  0.49896023  0.66535227  -0.00112367  1
  Ru4+  Ru105  1  0.51083290  0.64691214  0.25711207  1
  Ru4+  Ru106  1  0.50292322  0.66227048  0.50121389  1
  Ru4+  Ru107  1  0.49680870  0.66273527  0.74302611  1
  Ru4+  Ru108  1  0.11206579  0.16639741  -0.00153410  1
  Ru4+  Ru109  1  0.10730065  0.16676601  0.24729451  1
  Ru4+  Ru110  1  0.11182622  0.17388461  0.49474135  1
  Ru4+  Ru111  1  0.10959756  0.17096239  0.75193567  1
  Ru4+  Ru112  1  0.11670370  0.50539555  0.00495032  1
  Ru4+  Ru113  1  0.10729954  0.50621837  0.25396425  1
  Ru4+  Ru114  1  0.10646066  0.49928607  0.50233302  1
  Ru4+  Ru115  1  0.11701109  0.49828717  0.74582859  1
  Ru4+  Ru116  1  0.11060470  0.83325456  0.00222090  1
  Ru4+  Ru117  1  0.11088871  0.83494020  0.24629545  1
  Ru4+  Ru118  1  0.10850946  0.84132072  0.50798200  1
  Ru4+  Ru119  1  0.11467379  0.83210094  0.75200747  1
  Ru4+  Ru120  1  0.62052050  0.16908292  -0.00512165  1
  Ru4+  Ru121  1  0.61171229  0.16683835  0.25967038  1
  Ru4+  Ru122  1  0.61085748  0.16615274  0.50002347  1
  Ru4+  Ru123  1  0.60626182  0.16586441  0.74860096  1
  Ru4+  Ru124  1  0.60847861  0.49734954  0.00116163  1
  Ru4+  Ru125  1  0.60708753  0.51273176  0.25891205  1
  Ru4+  Ru126  1  0.60904610  0.49730145  0.50278339  1
  Ru4+  Ru127  1  0.61213017  0.49614956  0.74580884  1
  Ru4+  Ru128  1  0.61001405  0.84036744  -0.00453150  1
  Ru4+  Ru129  1  0.61453454  0.83039254  0.25257635  1
  Ru4+  Ru130  1  0.61081259  0.83549139  0.50161914  1
  Ru4+  Ru131  1  0.61086103  0.83320972  0.74989091  1
  Ru4+  Ru132  1  0.38608972  0.16418812  -0.00426167  1
  Ru4+  Ru133  1  0.38446162  0.16903713  0.25870141  1
  Ru4+  Ru134  1  0.38760121  0.17653230  0.49774815  1
  Ru4+  Ru135  1  0.39551652  0.16404446  0.75206647  1
  Ru4+  Ru136  1  0.38589615  0.50377572  -0.00300109  1
  Ru4+  Ru137  1  0.39581769  0.49099448  0.24892167  1
  Ru4+  Ru138  1  0.39272527  0.49755842  0.50367193  1
  Ru4+  Ru139  1  0.38741801  0.49732519  0.74584401  1
  Ru4+  Ru140  1  0.38394948  0.82795534  0.00209381  1
  Ru4+  Ru141  1  0.38363530  0.83586984  0.24387435  1
  Ru4+  Ru142  1  0.38833774  0.83530166  0.49978889  1
  Ru4+  Ru143  1  0.38628136  0.83729060  0.75787556  1
  Ru4+  Ru144  1  0.88852576  0.16708636  0.00038387  1
  Ru4+  Ru145  1  0.89232629  0.16338228  0.24706296  1
  Ru4+  Ru146  1  0.88924848  0.17319973  0.49916559  1
  Ru4+  Ru147  1  0.88572457  0.16760369  0.74987635  1
  Ru4+  Ru148  1  0.88724573  0.50573969  0.01015617  1
  Ru4+  Ru149  1  0.89008297  0.49919080  0.24775905  1
  Ru4+  Ru150  1  0.88640296  0.49743867  0.50244917  1
  Ru4+  Ru151  1  0.88860052  0.49347617  0.74482410  1
  Ru4+  Ru152  1  0.89131349  0.83489687  0.00117433  1
  Ru4+  Ru153  1  0.89187616  0.83017524  0.24861869  1
  Ru4+  Ru154  1  0.88791510  0.83430706  0.50035421  1
  Ru4+  Ru155  1  0.88702030  0.83175599  0.75592458  1
  Ru4+  Ru156  1  0.24980931  0.60522251  0.23389868  1
  Ru4+  Ru157  1  0.24918986  0.74567070  0.22314670  1
  Ru4+  Ru158  1  0.24846208  0.07715580  -0.00832916  1
  Ru4+  Ru159  1  0.75059519  0.61261983  0.27648794  1
  Ru4+  Ru160  1  0.75011383  0.38817850  0.01077883  1
  Ru4+  Ru161  1  0.24897680  0.91225878  -0.00572996  1
  Ru4+  Ru162  1  0.74973323  0.74577694  0.50983202  1
  Ru4+  Ru163  1  0.75034041  0.94406079  0.27472451  1
  Ru4+  Ru164  1  0.24909487  0.91911506  0.22529847  1
  Ru4+  Ru165  1  0.25025566  0.10636191  0.51189632  1
  Ru4+  Ru166  1  0.25059054  0.06774858  0.76702985  1
  Ru4+  Ru167  1  0.74879613  0.40931566  0.50785294  1
  Ru4+  Ru168  1  0.74896618  0.33902297  0.27345117  1
  Ru4+  Ru169  1  0.25119080  0.70013361  0.46803708  1
  Ru4+  Ru170  1  0.74924835  0.70997015  -0.01471120  1
  Ru4+  Ru171  1  0.74993947  0.99924366  0.00157890  1
  Ru4+  Ru172  1  0.24986259  0.59117394  0.55186643  1
  Ru4+  Ru173  1  0.25010281  0.58541758  0.76425837  1
  Ru4+  Ru174  1  0.25025581  0.40816253  -0.00331315  1
  Ru4+  Ru175  1  0.24903087  0.25886024  -0.00966213  1
  Ru4+  Ru176  1  0.74995842  0.59732951  0.51958406  1
  Ru4+  Ru177  1  0.25018049  0.39151514  0.51627406  1
  Ru4+  Ru178  1  0.24914963  0.95633105  0.49078899  1
  Ru4+  Ru179  1  0.75026214  0.90832051  0.75065272  1
  O2-  O180  1  0.16507084  0.07876520  -0.00035357  1
  O2-  O181  1  0.16223894  0.08271864  0.24742930  1
  O2-  O182  1  0.16533488  0.08777218  0.49986499  1
  O2-  O183  1  0.16732431  0.08194147  0.75613310  1
  O2-  O184  1  0.16795029  0.41540420  0.00315714  1
  O2-  O185  1  0.16018913  0.41258764  0.24718195  1
  O2-  O186  1  0.16866574  0.41286754  0.49852922  1
  O2-  O187  1  0.16587038  0.41630112  0.74850319  1
  O2-  O188  1  0.16177537  0.75044240  0.00229710  1
  O2-  O189  1  0.16536277  0.74476538  0.24654646  1
  O2-  O190  1  0.16551263  0.74520921  0.49911901  1
  O2-  O191  1  0.16689919  0.74908062  0.75194306  1
  O2-  O192  1  0.66955162  0.07610077  0.00286138  1
  O2-  O193  1  0.67271012  0.08478884  0.24854776  1
  O2-  O194  1  0.66561505  0.08315104  0.49577261  1
  O2-  O195  1  0.66396542  0.07946219  0.75181406  1
  O2-  O196  1  0.67025865  0.41300272  -0.00241116  1
  O2-  O197  1  0.66199822  0.41223308  0.25184884  1
  O2-  O198  1  0.66797216  0.41305688  0.50231683  1
  O2-  O199  1  0.66860299  0.41651838  0.74998157  1
  O2-  O200  1  0.66579576  0.74987606  -0.00624190  1
  O2-  O201  1  0.66830364  0.74908455  0.24824565  1
  O2-  O202  1  0.66488032  0.74563390  0.50664672  1
  O2-  O203  1  0.66073014  0.74727721  0.75092359  1
  O2-  O204  1  0.33123796  0.25202974  -0.00774855  1
  O2-  O205  1  0.32787212  0.24953896  0.24679083  1
  O2-  O206  1  0.33221056  0.25222401  0.50371375  1
  O2-  O207  1  0.34143047  0.25486847  0.75120714  1
  O2-  O208  1  0.33302147  0.58285585  0.00446607  1
  O2-  O209  1  0.33144144  0.58358741  0.24741963  1
  O2-  O210  1  0.33751306  0.58433619  0.49938978  1
  O2-  O211  1  0.33315327  0.58801667  0.74937449  1
  O2-  O212  1  0.33107464  0.91641716  -0.00002321  1
  O2-  O213  1  0.33053819  0.91665841  0.24877480  1
  O2-  O214  1  0.33172980  0.92474041  0.50237930  1
  O2-  O215  1  0.33315507  0.91880433  0.74552512  1
  O2-  O216  1  0.83642813  0.24885984  0.00390553  1
  O2-  O217  1  0.83240914  0.24969102  0.25786242  1
  O2-  O218  1  0.83321692  0.25378494  0.49451478  1
  O2-  O219  1  0.83253582  0.25497730  0.74918026  1
  O2-  O220  1  0.83350840  0.58772169  -0.00143386  1
  O2-  O221  1  0.83209534  0.58957555  0.25338715  1
  O2-  O222  1  0.83390964  0.58780814  0.50159452  1
  O2-  O223  1  0.83676343  0.57996776  0.74968583  1
  O2-  O224  1  0.83615955  0.92285900  0.00134459  1
  O2-  O225  1  0.83258927  0.92219302  0.24652129  1
  O2-  O226  1  0.83879618  0.91687734  0.49921189  1
  O2-  O227  1  0.83596475  0.91724829  0.75160921  1
  O2-  O228  1  0.16521404  0.25373212  -0.00055588  1
  O2-  O229  1  0.16447054  0.25107074  0.24538201  1
  O2-  O230  1  0.16633447  0.25099418  0.50275445  1
  O2-  O231  1  0.15964539  0.25743776  0.75154912  1
  O2-  O232  1  0.16649877  0.58625661  0.00350477  1
  O2-  O233  1  0.16589745  0.58695519  0.24945547  1
  O2-  O234  1  0.16358345  0.58501988  0.49662646  1
  O2-  O235  1  0.16788317  0.58825646  0.74786572  1
  O2-  O236  1  0.16679439  0.92048075  0.00410559  1
  O2-  O237  1  0.16386912  0.91835654  0.24508844  1
  O2-  O238  1  0.16711705  0.92656981  0.49783504  1
  O2-  O239  1  0.16566616  0.91568042  0.75494512  1
  O2-  O240  1  0.67041097  0.25174755  -0.00012048  1
  O2-  O241  1  0.67194720  0.25219465  0.25555828  1
  O2-  O242  1  0.66759473  0.25376008  0.49540575  1
  O2-  O243  1  0.66587616  0.25538509  0.74734798  1
  O2-  O244  1  0.66090572  0.58524132  -0.00418894  1
  O2-  O245  1  0.67019079  0.58696699  0.24942940  1
  O2-  O246  1  0.66428554  0.58311505  0.50442334  1
  O2-  O247  1  0.66374989  0.58297050  0.75323828  1
  O2-  O248  1  0.67073445  0.92536858  0.00086250  1
  O2-  O249  1  0.66953380  0.92195174  0.24493612  1
  O2-  O250  1  0.66064348  0.91831174  0.49889488  1
  O2-  O251  1  0.66723322  0.91951822  0.75155584  1
  O2-  O252  1  0.33096684  0.08286602  -0.00338531  1
  O2-  O253  1  0.32741452  0.08662186  0.24574030  1
  O2-  O254  1  0.33424038  0.08532865  0.50157665  1
  O2-  O255  1  0.33399827  0.08064904  0.74970588  1
  O2-  O256  1  0.33265615  0.41435858  0.00110805  1
  O2-  O257  1  0.33185510  0.42310852  0.26179875  1
  O2-  O258  1  0.33137098  0.41416824  0.49718336  1
  O2-  O259  1  0.33476153  0.41964214  0.75199643  1
  O2-  O260  1  0.33333932  0.74790276  0.00177552  1
  O2-  O261  1  0.33442453  0.74587109  0.24608446  1
  O2-  O262  1  0.33752173  0.74207933  0.50043327  1
  O2-  O263  1  0.33648362  0.74961292  0.74591508  1
  O2-  O264  1  0.83301123  0.07794815  0.00512247  1
  O2-  O265  1  0.82665713  0.08291646  0.24742317  1
  O2-  O266  1  0.83424339  0.08200061  0.49630142  1
  O2-  O267  1  0.83325855  0.07982545  0.75223025  1
  O2-  O268  1  0.82868261  0.41445012  -0.00349175  1
  O2-  O269  1  0.83224899  0.40772217  0.25658347  1
  O2-  O270  1  0.82941476  0.41249115  0.50205762  1
  O2-  O271  1  0.83165272  0.41566567  0.74589265  1
  O2-  O272  1  0.83030334  0.74503433  0.00118007  1
  O2-  O273  1  0.83715172  0.74811003  0.25204322  1
  O2-  O274  1  0.83114739  0.74392573  0.49976277  1
  O2-  O275  1  0.83365268  0.75101821  0.74832035  1
  O2-  O276  1  0.04544718  0.90456607  0.01917795  1
  O2-  O277  1  0.46315586  0.44982000  0.27258340  1
  O2-  O278  1  0.05082254  0.24147578  0.54929620  1
  O2-  O279  1  0.55556081  0.08890237  0.24432264  1
  O2-  O280  1  0.45524763  0.76146167  0.51147041  1
  O2-  O281  1  0.46378246  0.10960189  0.26732362  1
  O2-  O282  1  0.44703819  0.90634767  0.02485560  1
  O2-  O283  1  0.55196516  0.75757137  0.00929708  1
  O2-  O284  1  0.53375946  0.53237321  0.24869977  1
  O2-  O285  1  0.55241071  0.24295259  0.26234429  1
  O2-  O286  1  0.94590379  0.91403672  0.72609834  1
  O2-  O287  1  0.46730836  0.43896381  0.27165116  1
  O2-  O288  1  0.95482160  0.09273369  0.99390807  1
  O2-  O289  1  0.45825038  0.87635483  0.26939277  1
  O2-  O290  1  0.54992975  0.09829503  -0.00414605  1
  O2-  O291  1  0.45773808  0.86822981  0.26208966  1
  O2-  O292  1  0.45167356  0.43324669  0.98546187  1
  O2-  O293  1  0.44908976  0.75962202  0.01233955  1
  O2-  O294  1  0.55768437  0.90866612  0.26377548  1
  O2-  O295  1  0.95218188  0.24124296  0.98217496  1
  O2-  O296  1  0.96181876  0.44974819  0.02078799  1
  O2-  O297  1  0.54985166  0.42778427  0.51590207  1
  O2-  O298  1  0.54557160  0.24120713  0.51467595  1
  O2-  O299  1  0.95188119  0.56802685  0.48816292  1
  O2-  O300  1  0.04853140  0.09434392  0.75355307  1
  O2-  O301  1  0.95545148  0.90325023  0.23514166  1
  O2-  O302  1  0.45215093  0.90997759  0.98661071  1
  O2-  O303  1  0.05311677  0.41486621  0.97670921  1
  O2-  O304  1  0.55695803  0.08767682  0.26138714  1
  O2-  O305  1  0.04247503  0.22993883  0.24151234  1
  O2-  O306  1  0.53198937  0.54045541  0.25268149  1
  O2-  O307  1  0.55017755  0.57250391  0.76270518  1
  O2-  O308  1  0.05573957  0.42905662  0.01241470  1
  O2-  O309  1  0.95623095  0.10051741  0.51083461  1
  O2-  O310  1  0.04857334  0.90371757  0.44255627  1
  O2-  O311  1  0.94916894  0.09386058  0.76040188  1
  O2-  O312  1  0.44551875  0.24130108  0.21222405  1
  O2-  O313  1  0.95739234  0.23843287  0.76504980  1
  O2-  O314  1  0.04577816  0.76390894  0.24685966  1
  O2-  O315  1  0.54671018  0.57356410  0.00139831  1
  O2-  O316  1  0.04614554  0.42832352  0.26567397  1
  O2-  O317  1  0.05708839  0.91070863  0.73291659  1
  O2-  O318  1  0.04814200  0.57742843  0.98816782  1
  O2-  O319  1  0.44917857  0.89986753  0.70933086  1
  O2-  O320  1  0.96560031  0.77977061  0.75817643  1
  O2-  O321  1  0.95007812  0.57789692  0.76631858  1
  O2-  O322  1  0.45213516  0.23379485  0.98607712  1
  O2-  O323  1  0.96680006  0.44870251  0.70223019  1
  O2-  O324  1  0.05418923  0.89960965  0.44374608  1
  O2-  O325  1  0.93085782  0.38657511  0.82255338  1
  O2-  O326  1  0.40692738  0.39004964  0.18423720  1
  O2-  O327  1  0.43836727  0.59810563  0.96621951  1
  O2-  O328  1  0.93737054  0.07068890  0.21540060  1
  O2-  O329  1  0.43554594  0.59089844  0.78289837  1
  O2-  O330  1  0.57305466  0.42308329  0.07660653  1
  O2-  O331  1  0.43242696  0.61041182  0.27908022  1
  O2-  O332  1  0.43527304  0.25847743  0.58762429  1
  O2-  O333  1  0.44348348  0.74464001  0.78237056  1
  O2-  O334  1  0.06337556  0.39949553  0.78381239  1
  O2-  O335  1  0.43521288  0.08220403  0.52867581  1
  O2-  O336  1  0.43328185  0.24134501  0.44088230  1
  O2-  O337  1  0.93734298  0.58898647  0.23432498  1
  O2-  O338  1  0.41896661  0.90902453  0.84635377  1
  O2-  O339  1  0.56443254  0.92686438  0.92850990  1
  O2-  O340  1  0.06096097  0.41116405  0.53149382  1
  O2-  O341  1  0.57299160  0.91071446  0.07427812  1
  O2-  O342  1  0.42590309  0.26202494  0.30257308  1
  O2-  O343  1  0.06183534  0.74454178  0.52036646  1
  O2-  O344  1  0.43696186  0.41179753  0.53189431  1
  O2-  O345  1  0.57366694  0.61890293  0.34437048  1
  O2-  O346  1  0.44056263  0.91846597  0.53164349  1
  O2-  O347  1  0.93523445  0.74616289  0.51894665  1
  O2-  O348  1  0.06607035  0.59567983  0.78665355  1
  O2-  O349  1  0.05819046  0.24877431  0.56164386  1
  O2-  O350  1  0.56004211  0.92625358  0.77129452  1
  O2-  O351  1  0.56371698  0.25661004  0.02282778  1
  O2-  O352  1  0.93697651  0.41128757  0.23004708  1
  O2-  O353  1  0.06659895  0.26513798  0.40009511  1
  O2-  O354  1  0.93681184  0.74832347  0.02259575  1
  O2-  O355  1  0.56659354  0.63572319  0.16139477  1
  O2-  O356  1  0.42405463  0.96367016  0.17043304  1
  O2-  O357  1  0.44005254  0.40470942  0.71582658  1
  O2-  O358  1  0.93376979  0.58244007  0.06771304  1
  O2-  O359  1  0.06799222  0.93348948  0.58341560  1
  O2-  O360  1  0.93860085  0.60326243  0.92172923  1
  O2-  O361  1  0.06429818  0.74616903  0.71969800  1
  O2-  O362  1  0.05328749  0.91876769  0.73351621  1
  O2-  O363  1  0.91907021  0.39059806  0.02114672  1
  O2-  O364  1  0.93521401  0.40706082  0.51661090  1
  O2-  O365  1  0.55398151  0.74844772  0.28381275  1
  O2-  O366  1  0.56151343  0.40064274  0.71408538  1
  O2-  O367  1  0.06118143  0.08065474  0.53679309  1
  O2-  O368  1  0.56806528  0.42273290  0.92725309  1
  O2-  O369  1  0.92965313  0.71921768  0.78841640  1
  O2-  O370  1  0.44489559  0.90654838  0.69525913  1
  O2-  O371  1  0.41544500  0.06520037  0.28481476  1
  O2-  O372  1  0.24795798  0.33854262  0.13270660  1
  O2-  O373  1  0.24951984  -0.01801720  0.69233738  1
  O2-  O374  1  0.74999969  -0.00074325  0.58278612  1
  O2-  O375  1  0.25023460  0.34799904  0.32805722  1
  O2-  O376  1  0.24948007  0.29817866  0.59676802  1
  O2-  O377  1  0.24801033  0.32321287  0.86965030  1
  O2-  O378  1  0.25000934  0.33466791  0.67933778  1
  O2-  O379  1  0.75051643  0.32616251  0.14208138  1
  O2-  O380  1  0.24990225  -0.00253791  0.86773271  1
  O2-  O381  1  0.75064734  0.64112226  0.08566973  1
  O2-  O382  1  0.75002478  0.00315168  0.67511032  1
  O2-  O383  1  0.24917339  0.66511943  0.34796635  1
  O2-  O384  1  0.25147209  0.02457707  0.58974963  1
  O2-  O385  1  0.24845170  -0.00186476  0.29632754  1
  O2-  O386  1  0.24959314  0.65619720  0.87240285  1
  O2-  O387  1  0.75234507  0.68528611  0.37290249  1
  O2-  O388  1  0.74984101  0.01164536  0.38414944  1
  O2-  O389  1  0.75139897  0.68201109  0.16772005  1
  O2-  O390  1  0.74833621  0.65144910  0.87756824  1
  O2-  O391  1  0.75011103  0.66462867  0.62437525  1
  O2-  O392  1  0.25031252  0.04052311  0.41136528  1
  O2-  O393  1  0.24641816  0.00582135  0.13106775  1
  O2-  O394  1  0.25075897  0.31995212  0.41490040  1
  O2-  O395  1  0.24969725  0.66470787  0.11938019  1
  O2-  O396  1  0.24975639  0.16796690  0.07120500  1
  O2-  O397  1  0.24955899  0.49989601  0.92222380  1
  O2-  O398  1  0.74989937  0.82640193  0.67013669  1
  O2-  O399  1  0.75006197  0.83939762  0.43847045  1
  O2-  O400  1  0.25018465  0.84162503  0.38764550  1
  O2-  O401  1  0.24927065  0.83054993  0.29880071  1
  O2-  O402  1  0.74988039  0.84007721  0.58360118  1
  O2-  O403  1  0.24962519  0.48360484  0.58664816  1
  O2-  O404  1  0.74998453  0.17684957  0.56836655  1
  O2-  O405  1  0.74940206  0.50659480  0.45109029  1
  O2-  O406  1  0.74978682  0.51058995  0.36278173  1
  O2-  O407  1  0.24913010  0.84151877  0.91491560  1
  O2-  O408  1  0.74977462  0.48998974  0.08783409  1
  O2-  O409  1  0.25016509  0.16457110  0.35583634  1
  O2-  O410  1  0.24966070  0.49202242  0.83479398  1
  O2-  O411  1  0.75001239  0.16482949  0.65183364  1
  O2-  O412  1  0.24892622  0.83716436  0.64775324  1
  O2-  O413  1  0.74974843  0.84048905  0.84490425  1
  O2-  O414  1  0.24988196  0.16407299  0.90556414  1
  O2-  O415  1  0.75011356  0.16544154  0.91302136  1
  O2-  O416  1  0.74969387  0.84161611  0.34858594  1
  O2-  O417  1  0.25016420  0.83010893  0.72906903  1
  O2-  O418  1  0.25011707  0.49620722  0.70172561  1
  O2-  O419  1  0.25016446  0.19026195  0.43741027  1
  O2-  O420  1  0.52579287  0.32953004  0.14983371  1
  O2-  O421  1  0.48087242  0.02583860  0.87835991  1
  O2-  O422  1  0.04710206  0.00663651  0.88360971  1
  O2-  O423  1  0.96085186  0.31104582  0.13138347  1
  O2-  O424  1  0.45650847  -0.01357485  0.38697956  1
  O2-  O425  1  0.49444367  0.01842389  0.62483915  1
  O2-  O426  1  0.97566861  0.67013551  0.37491285  1
  O2-  O427  1  0.03946296  0.64355009  0.62313183  1
  O2-  O428  1  0.54574133  0.30445117  0.86013435  1
  O2-  O429  1  0.52905974  0.67413893  0.62662956  1
  O2-  O430  1  0.96957578  0.31560643  0.62434307  1
  O2-  O431  1  0.46409371  0.35117640  0.38820135  1
  O2-  O432  1  0.95745292  0.66626621  0.63022834  1
  O2-  O433  1  0.52010221  0.01183760  0.12857422  1
  O2-  O434  1  0.04713102  0.02965341  0.35385867  1
  O2-  O435  1  0.47602971  0.32597522  0.09728060  1
  O2-  O436  1  0.99122878  0.68178968  0.12940759  1
  O2-  O437  1  0.97055366  0.33569227  0.37297865  1
  O2-  O438  1  0.45224578  0.33245700  0.86668654  1
  O2-  O439  1  0.54975127  -0.00560940  0.39611890  1
  O2-  O440  1  0.95249840  -0.00513588  0.38373859  1
  O2-  O441  1  0.55003522  0.33925046  0.37908369  1
  O2-  O442  1  0.95305154  -0.00972772  0.87582099  1
  O2-  O443  1  0.04649789  0.33621326  0.12354593  1
