# generated using pymatgen
data_La7(Ru4O11)2
_symmetry_space_group_name_H-M   'P 1'
_cell_length_a   23.99229433
_cell_length_b   16.83250340
_cell_length_c   15.42842867
_cell_angle_alpha   89.99856197
_cell_angle_beta   90.00061903
_cell_angle_gamma   89.99770185
_symmetry_Int_Tables_number   1
_chemical_formula_structural   La7(Ru4O11)2
_chemical_formula_sum   'La84 Ru96 O264'
_cell_volume   6230.77670671
_cell_formula_units_Z   12
loop_
 _symmetry_equiv_pos_site_id
 _symmetry_equiv_pos_as_xyz
  1  'x, y, z'
loop_
 _atom_type_symbol
 _atom_type_oxidation_number
  La3+  3.0
  Ru4+  4.0
  O2-  -2.0
loop_
 _atom_site_type_symbol
 _atom_site_label
 _atom_site_symmetry_multiplicity
 _atom_site_fract_x
 _atom_site_fract_y
 _atom_site_fract_z
 _atom_site_occupancy
  La3+  La0  1  0.13947837  0.00350754  0.12891064  1
  La3+  La1  1  0.13951067  0.00059974  0.37194834  1
  La3+  La2  1  0.14220659  -0.00099007  0.63024648  1
  La3+  La3  1  0.13836093  0.00021629  0.87194841  1
  La3+  La4  1  0.13651450  0.33362030  0.12242874  1
  La3+  La5  1  0.14235009  0.33366682  0.36898662  1
  La3+  La6  1  0.14483661  0.33229345  0.62838092  1
  La3+  La7  1  0.14567648  0.33828396  0.87300236  1
  La3+  La8  1  0.14422382  0.66501826  0.12521531  1
  La3+  La9  1  0.13912560  0.66625981  0.36930645  1
  La3+  La10  1  0.14346592  0.67270716  0.62408125  1
  La3+  La11  1  0.13837566  0.66623116  0.87609520  1
  La3+  La12  1  0.64169274  0.00478208  0.12483287  1
  La3+  La13  1  0.65161970  0.00120065  0.36696135  1
  La3+  La14  1  0.65152483  -0.00337117  0.62929578  1
  La3+  La15  1  0.63656473  0.00276177  0.87501689  1
  La3+  La16  1  0.64454322  0.32607177  0.12701432  1
  La3+  La17  1  0.64300562  0.33198017  0.36960526  1
  La3+  La18  1  0.63881518  0.33471965  0.62692078  1
  La3+  La19  1  0.63804882  0.33281285  0.87818681  1
  La3+  La20  1  0.63420155  0.66624253  0.12682823  1
  La3+  La21  1  0.63777404  0.66751929  0.37471500  1
  La3+  La22  1  0.63515705  0.66671178  0.62363130  1
  La3+  La23  1  0.63730385  0.66463947  0.87739882  1
  La3+  La24  1  0.35984101  0.00166454  0.12958899  1
  La3+  La25  1  0.36663723  0.00639330  0.37777143  1
  La3+  La26  1  0.36593409  0.00540134  0.62292897  1
  La3+  La27  1  0.36142920  -0.00258990  0.86985392  1
  La3+  La28  1  0.36475319  0.33281008  0.13359412  1
  La3+  La29  1  0.35738009  0.32192845  0.37959086  1
  La3+  La30  1  0.36778522  0.32432497  0.61711371  1
  La3+  La31  1  0.35740881  0.33339120  0.87361449  1
  La3+  La32  1  0.35399656  0.66548341  0.12354319  1
  La3+  La33  1  0.36189981  0.66642336  0.37013633  1
  La3+  La34  1  0.36209088  0.66743434  0.62614898  1
  La3+  La35  1  0.35874028  0.66756346  0.87894765  1
  La3+  La36  1  0.86261222  0.00711764  0.12567408  1
  La3+  La37  1  0.86043557  -0.00155957  0.37354193  1
  La3+  La38  1  0.86103170  -0.00190566  0.62383445  1
  La3+  La39  1  0.86064327  0.00514214  0.87724055  1
  La3+  La40  1  0.85406937  0.32794829  0.12446071  1
  La3+  La41  1  0.85685920  0.33257964  0.37245847  1
  La3+  La42  1  0.85981353  0.33293749  0.62438757  1
  La3+  La43  1  0.86147435  0.32982454  0.87835565  1
  La3+  La44  1  0.85479347  0.65896182  0.12026940  1
  La3+  La45  1  0.86733878  0.66835311  0.37269829  1
  La3+  La46  1  0.86255573  0.66745295  0.62299267  1
  La3+  La47  1  0.86205826  0.66483936  0.87759959  1
  La3+  La48  1  0.00015494  0.83176623  0.13839242  1
  La3+  La49  1  -0.00168926  0.50082817  0.36294649  1
  La3+  La50  1  0.00438573  0.83118615  0.88028418  1
  La3+  La51  1  0.00253756  0.49946830  0.11236817  1
  La3+  La52  1  0.49832808  0.17156958  0.61297579  1
  La3+  La53  1  -0.00199504  0.50457127  0.61411960  1
  La3+  La54  1  -0.00535642  0.49177999  0.88424911  1
  La3+  La55  1  0.48921866  0.17685865  0.37446909  1
  La3+  La56  1  0.49974608  0.83088291  0.11733625  1
  La3+  La57  1  0.50066038  0.16369759  0.87274730  1
  La3+  La58  1  0.50022619  0.50204075  0.36637806  1
  La3+  La59  1  0.50088294  0.50052545  0.63702939  1
  La3+  La60  1  0.49525233  0.83022339  0.87842033  1
  La3+  La61  1  0.00412277  0.50442505  0.63443960  1
  La3+  La62  1  0.50682516  0.50746926  0.11903407  1
  La3+  La63  1  0.00178086  0.83280052  0.86008142  1
  La3+  La64  1  -0.00171740  0.82766225  0.11658720  1
  La3+  La65  1  0.50009181  0.83014888  0.36991297  1
  La3+  La66  1  -0.00383118  0.16046273  0.35059596  1
  La3+  La67  1  0.00301269  0.16411825  0.63650890  1
  La3+  La68  1  -0.00057655  0.83255916  0.62209599  1
  La3+  La69  1  -0.00095418  0.16678644  0.61505829  1
  La3+  La70  1  0.50003527  0.83244788  0.13357511  1
  La3+  La71  1  0.49109004  0.16303780  0.62097238  1
  La3+  La72  1  0.75015889  0.18611191  0.49280651  1
  La3+  La73  1  0.74995719  0.80551407  0.69497365  1
  La3+  La74  1  0.24989572  0.87744632  0.49970909  1
  La3+  La75  1  0.24942791  0.16735530  0.44805902  1
  La3+  La76  1  0.25187245  0.17431214  -0.00651000  1
  La3+  La77  1  0.25004586  0.17197888  0.73393986  1
  La3+  La78  1  0.75027998  0.49411222  0.73210279  1
  La3+  La79  1  0.75008573  0.83495167  0.07164177  1
  La3+  La80  1  0.75004664  0.45162970  0.21606287  1
  La3+  La81  1  0.25065875  0.45609224  0.49083578  1
  La3+  La82  1  0.74926014  0.49889761  0.01506203  1
  La3+  La83  1  0.25104274  0.43836059  0.74131442  1
  Ru4+  Ru84  1  0.00181058  0.00548033  0.00202553  1
  Ru4+  Ru85  1  0.00152303  0.00333093  0.26151233  1
  Ru4+  Ru86  1  -0.00127830  -0.00115382  0.49574086  1
  Ru4+  Ru87  1  -0.00230214  -0.00456217  0.74035935  1
  Ru4+  Ru88  1  0.00368637  0.32686752  -0.00191214  1
  Ru4+  Ru89  1  0.00012185  0.33018312  0.25385368  1
  Ru4+  Ru90  1  0.00043153  0.32972972  0.49380705  1
  Ru4+  Ru91  1  -0.00058328  0.32989070  0.74846137  1
  Ru4+  Ru92  1  0.00529908  0.66911340  0.00391088  1
  Ru4+  Ru93  1  0.00327531  0.66414859  0.25934688  1
  Ru4+  Ru94  1  -0.00050000  0.66983712  0.49209010  1
  Ru4+  Ru95  1  -0.00056716  0.66563837  0.75792297  1
  Ru4+  Ru96  1  0.49738955  0.00502657  0.00178935  1
  Ru4+  Ru97  1  0.50512068  0.01319278  0.25247347  1
  Ru4+  Ru98  1  0.49341544  -0.00486560  0.49362441  1
  Ru4+  Ru99  1  0.49748622  0.00034237  0.75701870  1
  Ru4+  Ru100  1  0.50260507  0.33468431  -0.01085243  1
  Ru4+  Ru101  1  0.49933927  0.33241812  0.24972390  1
  Ru4+  Ru102  1  0.49825527  0.32849072  0.50257596  1
  Ru4+  Ru103  1  0.50138580  0.33422970  0.75489912  1
  Ru4+  Ru104  1  0.49779607  0.66652645  0.00252104  1
  Ru4+  Ru105  1  0.49714050  0.66482203  0.25451686  1
  Ru4+  Ru106  1  0.50240286  0.66786414  0.49537893  1
  Ru4+  Ru107  1  0.49825451  0.66970262  0.74303926  1
  Ru4+  Ru108  1  0.10728387  0.16730461  0.00009596  1
  Ru4+  Ru109  1  0.11270033  0.16505883  0.24844359  1
  Ru4+  Ru110  1  0.10913348  0.16917006  0.50325905  1
  Ru4+  Ru111  1  0.10967362  0.16642472  0.74610689  1
  Ru4+  Ru112  1  0.12196265  0.50224944  0.00470418  1
  Ru4+  Ru113  1  0.11340377  0.50022392  0.25040542  1
  Ru4+  Ru114  1  0.11021812  0.50388967  0.49763714  1
  Ru4+  Ru115  1  0.11028469  0.50367113  0.74779378  1
  Ru4+  Ru116  1  0.11225528  0.83031634  -0.00090423  1
  Ru4+  Ru117  1  0.11316856  0.83049095  0.25333193  1
  Ru4+  Ru118  1  0.10869789  0.83196364  0.49803319  1
  Ru4+  Ru119  1  0.11143017  0.83597325  0.75057354  1
  Ru4+  Ru120  1  0.61244611  0.16494732  -0.00004859  1
  Ru4+  Ru121  1  0.61091787  0.16233142  0.24431152  1
  Ru4+  Ru122  1  0.61042010  0.16318621  0.50184018  1
  Ru4+  Ru123  1  0.61279504  0.16879661  0.75062342  1
  Ru4+  Ru124  1  0.60877006  0.49855491  -0.00214110  1
  Ru4+  Ru125  1  0.61084515  0.49899230  0.25112646  1
  Ru4+  Ru126  1  0.61300032  0.49748622  0.50019100  1
  Ru4+  Ru127  1  0.60935551  0.49999585  0.74862107  1
  Ru4+  Ru128  1  0.61125143  0.82773835  -0.00371723  1
  Ru4+  Ru129  1  0.61646598  0.83917144  0.25417287  1
  Ru4+  Ru130  1  0.61060390  0.83806862  0.50326641  1
  Ru4+  Ru131  1  0.61070248  0.83101821  0.74887733  1
  Ru4+  Ru132  1  0.39140143  0.16715110  0.00060767  1
  Ru4+  Ru133  1  0.38841983  0.16852339  0.24955522  1
  Ru4+  Ru134  1  0.38571282  0.16947043  0.49925234  1
  Ru4+  Ru135  1  0.38897956  0.16823843  0.74532470  1
  Ru4+  Ru136  1  0.38243178  0.49978524  -0.00198657  1
  Ru4+  Ru137  1  0.38344390  0.49304202  0.25203792  1
  Ru4+  Ru138  1  0.39152607  0.49886157  0.50035619  1
  Ru4+  Ru139  1  0.39222889  0.50109533  0.75088266  1
  Ru4+  Ru140  1  0.38747194  0.83042578  -0.00115393  1
  Ru4+  Ru141  1  0.38613570  0.83518017  0.25006941  1
  Ru4+  Ru142  1  0.38927477  0.83210396  0.49995870  1
  Ru4+  Ru143  1  0.38866817  0.83603106  0.74744372  1
  Ru4+  Ru144  1  0.88538575  0.16233003  0.00186080  1
  Ru4+  Ru145  1  0.88438865  0.16589481  0.25106330  1
  Ru4+  Ru146  1  0.89169086  0.16761015  0.49836473  1
  Ru4+  Ru147  1  0.88817756  0.16680774  0.75071586  1
  Ru4+  Ru148  1  0.88770439  0.49741276  0.00041290  1
  Ru4+  Ru149  1  0.88936679  0.49839434  0.25265487  1
  Ru4+  Ru150  1  0.88704271  0.49755128  0.49959505  1
  Ru4+  Ru151  1  0.89039466  0.50439313  0.74955254  1
  Ru4+  Ru152  1  0.88674527  0.83008995  -0.00201191  1
  Ru4+  Ru153  1  0.88828982  0.83569686  0.25135710  1
  Ru4+  Ru154  1  0.88981351  0.83573055  0.49794199  1
  Ru4+  Ru155  1  0.89110160  0.83165158  0.75006867  1
  Ru4+  Ru156  1  0.24837474  0.30139577  0.50696072  1
  Ru4+  Ru157  1  0.24971090  0.31647326  -0.00884481  1
  Ru4+  Ru158  1  0.75010393  0.75870818  0.49378982  1
  Ru4+  Ru159  1  0.75063510  0.32763005  0.48952152  1
  Ru4+  Ru160  1  0.24982272  0.76361116  0.75645914  1
  Ru4+  Ru161  1  0.25020825  0.73839671  0.47406053  1
  Ru4+  Ru162  1  0.75020032  0.62898826  0.78550141  1
  Ru4+  Ru163  1  0.75011088  0.09887041  0.75266120  1
  Ru4+  Ru164  1  0.75066133  0.91227381  0.24249647  1
  Ru4+  Ru165  1  0.25010855  0.59357048  0.47904622  1
  Ru4+  Ru166  1  0.74979914  0.57476135  0.49908828  1
  Ru4+  Ru167  1  0.24912638  0.04147546  0.52668085  1
  Ru4+  Ru168  1  0.75085775  0.05100859  0.49397311  1
  Ru4+  Ru169  1  0.75057113  0.93629234  0.77448173  1
  Ru4+  Ru170  1  0.25021857  0.58929245  0.76158974  1
  Ru4+  Ru171  1  0.75007900  0.35530568  0.76399944  1
  Ru4+  Ru172  1  0.24978940  0.89993475  0.00799185  1
  Ru4+  Ru173  1  0.75030281  0.75408604  0.24761335  1
  Ru4+  Ru174  1  0.25031632  0.90926675  0.24222697  1
  Ru4+  Ru175  1  0.74979810  0.96042830  0.00115967  1
  Ru4+  Ru176  1  0.25034429  0.75191361  0.24632270  1
  Ru4+  Ru177  1  0.74983749  0.70605840  0.00369478  1
  Ru4+  Ru178  1  0.24990570  0.03325054  0.00403999  1
  Ru4+  Ru179  1  0.74999364  0.59951036  0.25713822  1
  O2-  O180  1  0.16605365  0.07887728  -0.00179786  1
  O2-  O181  1  0.16640350  0.08324434  0.25376787  1
  O2-  O182  1  0.16556676  0.08002662  0.49976482  1
  O2-  O183  1  0.16517743  0.07881848  0.75353815  1
  O2-  O184  1  0.16951676  0.41231751  0.00556939  1
  O2-  O185  1  0.16335956  0.41315635  0.24682953  1
  O2-  O186  1  0.16211238  0.41024784  0.49894308  1
  O2-  O187  1  0.15726033  0.41426624  0.74821966  1
  O2-  O188  1  0.16374373  0.74624237  -0.00001848  1
  O2-  O189  1  0.16839894  0.74912129  0.24887847  1
  O2-  O190  1  0.16864491  0.74799510  0.49517661  1
  O2-  O191  1  0.16600479  0.74814829  0.75233129  1
  O2-  O192  1  0.66651096  0.08183195  -0.00152741  1
  O2-  O193  1  0.66744013  0.08473311  0.24465128  1
  O2-  O194  1  0.67048472  0.08117344  0.49852665  1
  O2-  O195  1  0.66948958  0.08352120  0.75642602  1
  O2-  O196  1  0.66732706  0.41471265  0.00007271  1
  O2-  O197  1  0.66366648  0.41252115  0.25143297  1
  O2-  O198  1  0.66427148  0.41306564  0.50002500  1
  O2-  O199  1  0.66970204  0.41009467  0.75276683  1
  O2-  O200  1  0.66972858  0.74403904  0.00225460  1
  O2-  O201  1  0.66723373  0.74630225  0.24965015  1
  O2-  O202  1  0.66416905  0.74877389  0.50089285  1
  O2-  O203  1  0.66406278  0.74695990  0.75036563  1
  O2-  O204  1  0.33508172  0.25589496  0.00200293  1
  O2-  O205  1  0.33238551  0.24992456  0.24747927  1
  O2-  O206  1  0.32910145  0.25425251  0.50522283  1
  O2-  O207  1  0.33663754  0.25251425  0.74760404  1
  O2-  O208  1  0.33613781  0.58525373  -0.00015914  1
  O2-  O209  1  0.33773488  0.58358049  0.25130964  1
  O2-  O210  1  0.33491752  0.58527998  0.49858338  1
  O2-  O211  1  0.33544451  0.58589697  0.74784761  1
  O2-  O212  1  0.33272580  0.91785176  0.00060362  1
  O2-  O213  1  0.33122575  0.91856888  0.25094383  1
  O2-  O214  1  0.33607768  0.92300856  0.49976517  1
  O2-  O215  1  0.33264905  0.91616821  0.74817585  1
  O2-  O216  1  0.83624663  0.25162994  -0.00375644  1
  O2-  O217  1  0.83848249  0.25165813  0.24915111  1
  O2-  O218  1  0.83209869  0.25755331  0.50273538  1
  O2-  O219  1  0.83489341  0.25431099  0.75367866  1
  O2-  O220  1  0.83184404  0.58307598  -0.00189544  1
  O2-  O221  1  0.83258863  0.58618461  0.24943744  1
  O2-  O222  1  0.83243053  0.58677435  0.49754814  1
  O2-  O223  1  0.83339402  0.58727524  0.75101257  1
  O2-  O224  1  0.83362948  0.92298169  0.00313227  1
  O2-  O225  1  0.83389336  0.91699880  0.24671888  1
  O2-  O226  1  0.83718622  0.91642272  0.50018377  1
  O2-  O227  1  0.83313450  0.92007737  0.75172299  1
  O2-  O228  1  0.17144631  0.25465307  0.00566356  1
  O2-  O229  1  0.16259055  0.25176592  0.24790346  1
  O2-  O230  1  0.16936972  0.25423747  0.49632499  1
  O2-  O231  1  0.16338753  0.25131660  0.74935183  1
  O2-  O232  1  0.16554538  0.59047688  0.00021159  1
  O2-  O233  1  0.16298725  0.58422500  0.24936301  1
  O2-  O234  1  0.16620857  0.58534211  0.49762659  1
  O2-  O235  1  0.16866371  0.58754947  0.75331145  1
  O2-  O236  1  0.16573641  0.92077041  -0.00161944  1
  O2-  O237  1  0.16680336  0.91851509  0.24964207  1
  O2-  O238  1  0.16062493  0.92087252  0.50063317  1
  O2-  O239  1  0.16392745  0.91954106  0.75266325  1
  O2-  O240  1  0.66390593  0.25147068  -0.00241446  1
  O2-  O241  1  0.66330238  0.24838156  0.25125224  1
  O2-  O242  1  0.66626444  0.25704203  0.50098631  1
  O2-  O243  1  0.66392811  0.25350903  0.75222639  1
  O2-  O244  1  0.66601473  0.58468010  0.00256040  1
  O2-  O245  1  0.66595897  0.58726211  0.24939079  1
  O2-  O246  1  0.66454793  0.58707834  0.49995018  1
  O2-  O247  1  0.66444425  0.58732948  0.74956263  1
  O2-  O248  1  0.66635982  0.92056891  0.00017134  1
  O2-  O249  1  0.66883076  0.91853880  0.24401521  1
  O2-  O250  1  0.66860481  0.90996620  0.49877837  1
  O2-  O251  1  0.66938735  0.91878607  0.75733661  1
  O2-  O252  1  0.33361425  0.07654165  -0.00047943  1
  O2-  O253  1  0.33662229  0.08386090  0.25411832  1
  O2-  O254  1  0.32994483  0.07844607  0.50099883  1
  O2-  O255  1  0.33185099  0.08077573  0.75063609  1
  O2-  O256  1  0.33097560  0.41319609  0.00422881  1
  O2-  O257  1  0.33003756  0.41907812  0.24489213  1
  O2-  O258  1  0.33819433  0.41171809  0.50377972  1
  O2-  O259  1  0.34219217  0.40997474  0.74700091  1
  O2-  O260  1  0.33354376  0.74826630  -0.00044654  1
  O2-  O261  1  0.33193075  0.74870860  0.25020337  1
  O2-  O262  1  0.33421178  0.74597037  0.49903472  1
  O2-  O263  1  0.33522006  0.74849165  0.74872067  1
  O2-  O264  1  0.83151700  0.08235078  0.00071555  1
  O2-  O265  1  0.83700802  0.07960463  0.24768690  1
  O2-  O266  1  0.83537773  0.07860751  0.50017654  1
  O2-  O267  1  0.83405697  0.08295667  0.75170514  1
  O2-  O268  1  0.83224162  0.41321668  -0.00107983  1
  O2-  O269  1  0.83690901  0.41301941  0.24922617  1
  O2-  O270  1  0.83557923  0.41236561  0.50120351  1
  O2-  O271  1  0.83343215  0.40919958  0.75256190  1
  O2-  O272  1  0.83008575  0.74603319  0.00167918  1
  O2-  O273  1  0.83253831  0.75076477  0.25133203  1
  O2-  O274  1  0.83289547  0.74896461  0.49901629  1
  O2-  O275  1  0.83297425  0.74797498  0.75161378  1
  O2-  O276  1  0.05487446  0.42548486  0.98335224  1
  O2-  O277  1  0.95425426  0.43234953  0.74121381  1
  O2-  O278  1  0.54767769  0.57133869  0.24284555  1
  O2-  O279  1  0.54798319  0.57820845  0.00225335  1
  O2-  O280  1  0.44969691  0.10365213  0.49377390  1
  O2-  O281  1  0.44360466  0.09061878  0.51667907  1
  O2-  O282  1  0.53643104  0.12142303  0.50233691  1
  O2-  O283  1  0.45886906  0.45404683  0.23377680  1
  O2-  O284  1  0.45204283  0.43825336  0.03035666  1
  O2-  O285  1  0.53113838  0.88134944  0.51092523  1
  O2-  O286  1  0.95863777  0.76184340  0.28107921  1
  O2-  O287  1  0.95309360  0.57538278  1.00906934  1
  O2-  O288  1  0.45522011  0.56942460  0.49594914  1
  O2-  O289  1  0.95565010  0.57230263  -0.00311967  1
  O2-  O290  1  0.54938772  0.74978212  0.51217208  1
  O2-  O291  1  0.55641474  0.41953387  0.27184240  1
  O2-  O292  1  0.94633198  0.92102764  0.25557999  1
  O2-  O293  1  0.55495743  0.25560018  0.48033103  1
  O2-  O294  1  0.95577412  0.89781620  0.49017053  1
  O2-  O295  1  0.03564022  0.20833469  0.46353228  1
  O2-  O296  1  0.02883644  0.22432528  0.03737283  1
  O2-  O297  1  0.05223792  0.90465516  0.23560150  1
  O2-  O298  1  0.95460194  0.23152987  0.76309099  1
  O2-  O299  1  0.55104229  0.42761585  0.98815530  1
  O2-  O300  1  0.04476930  0.23648532  0.23588290  1
  O2-  O301  1  0.54111997  0.89013936  0.77549010  1
  O2-  O302  1  0.03238542  0.20760951  1.00351987  1
  O2-  O303  1  0.55325561  0.75318623  0.23296385  1
  O2-  O304  1  0.52958892  0.88254068  0.49188917  1
  O2-  O305  1  0.96884529  0.79212709  0.26791783  1
  O2-  O306  1  0.44090548  0.25655249  0.21737678  1
  O2-  O307  1  0.44161904  0.90352109  0.51379941  1
  O2-  O308  1  0.45987487  0.44712416  0.22525238  1
  O2-  O309  1  0.55501668  0.08777950  0.30133931  1
  O2-  O310  1  0.54498159  0.90080449  0.99477187  1
  O2-  O311  1  0.05393522  0.57474149  0.80569289  1
  O2-  O312  1  0.54885313  0.09924156  0.00803414  1
  O2-  O313  1  0.44424698  0.24485131  0.51759264  1
  O2-  O314  1  0.45421921  0.76224440  0.73573700  1
  O2-  O315  1  0.44566704  0.09260827  0.25920992  1
  O2-  O316  1  0.94978378  0.41687688  0.01923128  1
  O2-  O317  1  0.45755624  0.42669472  0.51838779  1
  O2-  O318  1  0.95336569  0.90613422  0.98943834  1
  O2-  O319  1  0.45368200  0.23179571  0.49806112  1
  O2-  O320  1  0.45571297  0.43707977  0.75843373  1
  O2-  O321  1  0.45063580  0.10002257  0.01271225  1
  O2-  O322  1  0.53721807  0.11921694  0.48371861  1
  O2-  O323  1  0.04313987  0.43437076  0.48984388  1
  O2-  O324  1  0.93545478  0.73700438  0.97118293  1
  O2-  O325  1  0.42442843  0.37268482  0.32212050  1
  O2-  O326  1  0.07066640  0.27985709  0.56574136  1
  O2-  O327  1  0.93601145  0.26367063  0.46572143  1
  O2-  O328  1  0.93887209  0.93513417  0.82759312  1
  O2-  O329  1  0.93978457  0.40411532  0.28260445  1
  O2-  O330  1  0.42619404  0.06138241  0.47180040  1
  O2-  O331  1  0.56291930  0.08041705  0.77434549  1
  O2-  O332  1  0.06162688  0.06938812  0.21866944  1
  O2-  O333  1  0.55263067  0.75354472  0.23002905  1
  O2-  O334  1  0.93638196  0.73667032  0.82087137  1
  O2-  O335  1  0.57688068  0.94264126  0.40995594  1
  O2-  O336  1  0.92272975  0.70995965  0.17431884  1
  O2-  O337  1  0.93651043  0.58776951  0.47547967  1
  O2-  O338  1  0.55614429  0.09627630  0.29787041  1
  O2-  O339  1  0.43045536  0.91573515  0.93731992  1
  O2-  O340  1  0.44915039  0.24499897  0.22711035  1
  O2-  O341  1  0.93671117  0.06855825  0.03207666  1
  O2-  O342  1  0.04615190  0.56993897  0.78936630  1
  O2-  O343  1  0.56558667  0.40974295  0.72229613  1
  O2-  O344  1  0.56336733  0.73573109  0.92347518  1
  O2-  O345  1  0.56923437  0.75263055  0.06582094  1
  O2-  O346  1  0.43816991  0.73299517  0.92850933  1
  O2-  O347  1  0.56293699  0.05041811  0.16129860  1
  O2-  O348  1  0.06968914  0.75171442  0.55581608  1
  O2-  O349  1  0.93820594  0.58580973  0.27476916  1
  O2-  O350  1  0.42823313  0.39855986  0.95884495  1
  O2-  O351  1  0.08296502  0.58180645  0.65908740  1
  O2-  O352  1  0.44010101  0.92692314  0.22035476  1
  O2-  O353  1  0.43062839  0.26892784  0.46445274  1
  O2-  O354  1  0.43816489  0.07904442  0.72675280  1
  O2-  O355  1  0.59119120  0.07613066  0.58664614  1
  O2-  O356  1  0.08677342  0.28164693  0.94619974  1
  O2-  O357  1  0.93405182  0.75231214  0.68609312  1
  O2-  O358  1  0.56171369  0.26704790  0.21979895  1
  O2-  O359  1  0.06540070  0.73285892  0.27814097  1
  O2-  O360  1  0.93217979  0.91345597  0.68571589  1
  O2-  O361  1  0.58432617  0.93494843  0.56984492  1
  O2-  O362  1  0.57584587  0.93077489  0.70991804  1
  O2-  O363  1  0.43842305  0.93245108  0.07107791  1
  O2-  O364  1  0.43423849  0.92408270  0.77448787  1
  O2-  O365  1  0.05310531  0.42645814  0.98416652  1
  O2-  O366  1  0.06335299  0.73806806  0.43365782  1
  O2-  O367  1  0.43644077  0.74031909  0.07460678  1
  O2-  O368  1  0.93548610  0.74409681  0.52713383  1
  O2-  O369  1  0.43493825  0.74554973  0.26939745  1
  O2-  O370  1  0.06451132  0.06419263  0.02870860  1
  O2-  O371  1  0.57834948  0.05113476  0.42290421  1
  O2-  O372  1  0.25083635  0.33137236  0.64008474  1
  O2-  O373  1  0.75203288  0.00488239  0.31850044  1
  O2-  O374  1  0.25040902  0.00079180  0.64123695  1
  O2-  O375  1  0.74945891  0.66817550  0.55863440  1
  O2-  O376  1  0.24993581  0.67312693  0.15861407  1
  O2-  O377  1  0.75193117  -0.02492592  0.40389912  1
  O2-  O378  1  0.75001278  0.00822030  0.88638097  1
  O2-  O379  1  0.24838245  0.32897669  0.36967003  1
  O2-  O380  1  0.74971836  0.66178032  0.89620465  1
  O2-  O381  1  0.24995462  -0.00060812  0.40335993  1
  O2-  O382  1  0.75177898  0.01204219  0.68315015  1
  O2-  O383  1  0.25026192  0.67590065  0.68766018  1
  O2-  O384  1  0.75022898  0.32980082  0.64109297  1
  O2-  O385  1  0.25056901  0.33037353  0.85903566  1
  O2-  O386  1  0.74961278  0.67323227  0.68022827  1
  O2-  O387  1  0.24978881  0.67276875  0.85220352  1
  O2-  O388  1  0.75157166  -0.03261477  0.57122608  1
  O2-  O389  1  0.75036685  0.67385579  0.35699733  1
  O2-  O390  1  0.74973076  0.33332854  0.36305249  1
  O2-  O391  1  0.24975765  -0.00603577  0.15213886  1
  O2-  O392  1  0.25048683  0.66627927  0.56863628  1
  O2-  O393  1  0.24974132  0.67015924  0.34865885  1
  O2-  O394  1  0.74911836  0.67285528  0.14494839  1
  O2-  O395  1  0.75068644  0.34134469  0.14522105  1
  O2-  O396  1  0.74987520  0.51082570  0.34343076  1
  O2-  O397  1  0.24946055  0.16201281  0.59438967  1
  O2-  O398  1  0.74997166  0.49926933  0.88187139  1
  O2-  O399  1  0.24956935  0.16630646  0.12372056  1
  O2-  O400  1  0.24990100  0.83372923  0.34483852  1
  O2-  O401  1  0.25024647  0.49982211  0.94116940  1
  O2-  O402  1  0.75028364  0.16539325  0.08527495  1
  O2-  O403  1  0.24982467  0.51787413  0.62303356  1
  O2-  O404  1  0.74972247  0.83315403  0.92393142  1
  O2-  O405  1  0.24941728  0.15829662  0.86424290  1
  O2-  O406  1  0.74991534  0.50442784  0.59059707  1
  O2-  O407  1  0.24992319  0.49915125  0.09294191  1
  O2-  O408  1  0.24992028  0.83754135  0.09998671  1
  O2-  O409  1  0.75040590  0.16510358  0.16532055  1
  O2-  O410  1  0.25024218  0.16766624  0.20454727  1
  O2-  O411  1  0.74993153  0.83472574  0.33065040  1
  O2-  O412  1  0.24966785  0.82682050  0.91758079  1
  O2-  O413  1  0.24981633  0.84711317  0.83229449  1
  O2-  O414  1  0.75077197  0.16242121  0.36091588  1
  O2-  O415  1  0.75000799  0.83990511  0.42023485  1
  O2-  O416  1  0.74997291  0.48693750  0.42914711  1
  O2-  O417  1  0.75035091  0.83678585  0.83439816  1
  O2-  O418  1  0.75017237  0.16385406  0.66013874  1
  O2-  O419  1  0.25035888  0.51390046  0.85839383  1
  O2-  O420  1  0.97118235  0.33095572  0.62158501  1
  O2-  O421  1  0.96220757  0.63745627  0.62384327  1
  O2-  O422  1  0.53849860  -0.00378286  0.88306286  1
  O2-  O423  1  0.02463772  0.67650289  0.62600440  1
  O2-  O424  1  0.97945095  0.66673664  0.37620817  1
  O2-  O425  1  0.52658577  0.65774017  0.62708171  1
  O2-  O426  1  0.95456760  0.01297372  0.37970515  1
  O2-  O427  1  0.95762885  0.02319958  0.60845979  1
  O2-  O428  1  0.04740365  -0.00034110  0.62623071  1
  O2-  O429  1  0.47206335  -0.01598616  0.36797164  1
  O2-  O430  1  0.02904728  0.33624888  0.37262803  1
  O2-  O431  1  0.46430208  0.02392653  0.87065952  1
  O2-  O432  1  0.51608721  0.65289816  0.12767650  1
  O2-  O433  1  0.52050684  0.01147143  0.63212388  1
  O2-  O434  1  0.45835286  0.66515439  0.38123489  1
  O2-  O435  1  0.54611973  0.32752374  0.87289811  1
  O2-  O436  1  0.02802640  0.66311601  0.12850751  1
  O2-  O437  1  0.02544929  0.68391856  0.88503023  1
  O2-  O438  1  0.02023393  0.33659955  0.85935299  1
  O2-  O439  1  0.45760369  0.31236794  0.85971180  1
  O2-  O440  1  0.46333868  -0.00892415  0.62587226  1
  O2-  O441  1  0.52454689  0.32853125  0.62453987  1
  O2-  O442  1  0.04582061  0.00113354  0.38043067  1
  O2-  O443  1  0.54695831  0.66372917  0.37872527  1
