# generated using pymatgen
data_La7(Ru4O11)2
_symmetry_space_group_name_H-M   'P 1'
_cell_length_a   23.99101606
_cell_length_b   16.83122444
_cell_length_c   15.42711565
_cell_angle_alpha   89.99831753
_cell_angle_beta   89.99824341
_cell_angle_gamma   89.99879416
_symmetry_Int_Tables_number   1
_chemical_formula_structural   La7(Ru4O11)2
_chemical_formula_sum   'La84 Ru96 O264'
_cell_volume   6229.44114976
_cell_formula_units_Z   12
loop_
 _symmetry_equiv_pos_site_id
 _symmetry_equiv_pos_as_xyz
  1  'x, y, z'
loop_
 _atom_type_symbol
 _atom_type_oxidation_number
  La3+  3.0
  Ru4+  4.0
  O2-  -2.0
loop_
 _atom_site_type_symbol
 _atom_site_label
 _atom_site_symmetry_multiplicity
 _atom_site_fract_x
 _atom_site_fract_y
 _atom_site_fract_z
 _atom_site_occupancy
  La3+  La0  1  0.13901877  -0.00084082  0.12556985  1
  La3+  La1  1  0.14079107  0.00097277  0.37302159  1
  La3+  La2  1  0.14099417  0.00138861  0.62590022  1
  La3+  La3  1  0.13815863  0.00013270  0.87518210  1
  La3+  La4  1  0.14193409  0.33525973  0.12231778  1
  La3+  La5  1  0.14037636  0.33154053  0.37576870  1
  La3+  La6  1  0.14153146  0.33777411  0.63034896  1
  La3+  La7  1  0.14021538  0.33589647  0.87622443  1
  La3+  La8  1  0.14442490  0.66832174  0.12342700  1
  La3+  La9  1  0.14158439  0.66674267  0.37453377  1
  La3+  La10  1  0.14082197  0.66191593  0.62409048  1
  La3+  La11  1  0.14128494  0.66523823  0.88039871  1
  La3+  La12  1  0.63846642  0.00202615  0.12394254  1
  La3+  La13  1  0.62690128  -0.01039201  0.38400722  1
  La3+  La14  1  0.63280718  -0.00563285  0.62110840  1
  La3+  La15  1  0.63618925  0.00368975  0.87338828  1
  La3+  La16  1  0.63537960  0.33760430  0.11851035  1
  La3+  La17  1  0.63682492  0.33525707  0.37283422  1
  La3+  La18  1  0.64308980  0.33530627  0.63161376  1
  La3+  La19  1  0.64556678  0.33424684  0.87296897  1
  La3+  La20  1  0.63375249  0.66879272  0.12425349  1
  La3+  La21  1  0.63620726  0.66806460  0.37408247  1
  La3+  La22  1  0.63476469  0.66146355  0.62899104  1
  La3+  La23  1  0.64035362  0.66186494  0.87175528  1
  La3+  La24  1  0.36367670  -0.00029753  0.12539904  1
  La3+  La25  1  0.36602708  -0.00898197  0.38029496  1
  La3+  La26  1  0.36473552  -0.00335812  0.61757964  1
  La3+  La27  1  0.36204153  -0.00003020  0.87496826  1
  La3+  La28  1  0.36025180  0.33278401  0.12240394  1
  La3+  La29  1  0.36310847  0.33386747  0.37373038  1
  La3+  La30  1  0.36268340  0.33411146  0.62722332  1
  La3+  La31  1  0.35976027  0.33046611  0.87610870  1
  La3+  La32  1  0.35629136  0.67066463  0.12303049  1
  La3+  La33  1  0.35832354  0.66807465  0.37596343  1
  La3+  La34  1  0.35890621  0.66138370  0.62263048  1
  La3+  La35  1  0.36192340  0.66842915  0.87533285  1
  La3+  La36  1  0.85865030  -0.00239816  0.12020887  1
  La3+  La37  1  0.86538343  0.00115994  0.37670406  1
  La3+  La38  1  0.86242222  0.00075669  0.62398959  1
  La3+  La39  1  0.86220535  0.00484257  0.87604772  1
  La3+  La40  1  0.85637518  0.33798701  0.11831355  1
  La3+  La41  1  0.86397080  0.33562267  0.37313241  1
  La3+  La42  1  0.85662346  0.33555706  0.63199163  1
  La3+  La43  1  0.85179403  0.33254691  0.87561329  1
  La3+  La44  1  0.86316916  0.66743789  0.12601332  1
  La3+  La45  1  0.86501815  0.66516065  0.37418973  1
  La3+  La46  1  0.86575413  0.66107015  0.62700871  1
  La3+  La47  1  0.85690599  0.66358349  0.87116496  1
  La3+  La48  1  0.00078143  0.83375015  0.37914200  1
  La3+  La49  1  -0.00388788  0.50872406  0.11934057  1
  La3+  La50  1  0.49861864  0.16624229  0.36017836  1
  La3+  La51  1  -0.00789871  0.15512863  0.62925391  1
  La3+  La52  1  0.00460191  0.51028437  0.62974032  1
  La3+  La53  1  0.49917261  0.83952868  0.37577837  1
  La3+  La54  1  -0.00219993  0.16565864  0.11103263  1
  La3+  La55  1  0.00084250  0.49431663  0.87093618  1
  La3+  La56  1  -0.00040913  0.15827881  0.38714318  1
  La3+  La57  1  0.49827905  0.83339010  0.11555713  1
  La3+  La58  1  -0.00218462  0.50167871  0.38940550  1
  La3+  La59  1  0.49818824  0.50150083  0.38200049  1
  La3+  La60  1  0.50023293  0.83285096  0.61118775  1
  La3+  La61  1  0.50398214  0.17372317  0.64547691  1
  La3+  La62  1  -0.00059134  0.16560829  0.13275436  1
  La3+  La63  1  -0.00133365  0.83239869  0.61849803  1
  La3+  La64  1  0.49644268  0.16279882  0.38222022  1
  La3+  La65  1  0.00473409  0.50195466  0.36944525  1
  La3+  La66  1  0.50068407  0.84523576  0.62955878  1
  La3+  La67  1  -0.00089755  0.83418937  0.63543883  1
  La3+  La68  1  0.00693075  0.15485382  0.37504067  1
  La3+  La69  1  -0.00371125  0.16121064  0.61093638  1
  La3+  La70  1  0.51226306  0.48997964  0.12744166  1
  La3+  La71  1  0.50842366  0.49915487  0.11489090  1
  La3+  La72  1  0.75052526  0.84194686  0.49230903  1
  La3+  La73  1  0.74993508  0.17312068  0.75381720  1
  La3+  La74  1  0.25007228  0.13221228  0.52417293  1
  La3+  La75  1  0.74880874  0.11132794  0.51853387  1
  La3+  La76  1  0.74865044  0.17358407  0.21048055  1
  La3+  La77  1  0.74928823  0.79902107  0.77321868  1
  La3+  La78  1  0.74960483  0.46398651  0.29025685  1
  La3+  La79  1  0.24978166  0.20092222  0.04208212  1
  La3+  La80  1  0.25032881  0.79506536  0.71637508  1
  La3+  La81  1  0.75029184  0.79818333  -0.01605235  1
  La3+  La82  1  0.74871125  0.45543803  0.51119714  1
  La3+  La83  1  0.24966341  0.49636632  0.00234917  1
  Ru4+  Ru84  1  -0.00140038  -0.00241854  0.00129532  1
  Ru4+  Ru85  1  -0.00016031  -0.00356545  0.24384327  1
  Ru4+  Ru86  1  0.00787276  -0.00712358  0.49511633  1
  Ru4+  Ru87  1  0.00080930  0.00232820  0.75343595  1
  Ru4+  Ru88  1  0.00085684  0.32972301  -0.00752551  1
  Ru4+  Ru89  1  0.00599198  0.32668706  0.24914154  1
  Ru4+  Ru90  1  -0.00003834  0.33252747  0.50330864  1
  Ru4+  Ru91  1  -0.00453514  0.32737249  0.75700962  1
  Ru4+  Ru92  1  -0.00026403  0.66584042  0.00009451  1
  Ru4+  Ru93  1  0.00374269  0.67926993  0.24824514  1
  Ru4+  Ru94  1  0.00828584  0.67418193  0.50460429  1
  Ru4+  Ru95  1  -0.00147896  0.66624471  0.74559228  1
  Ru4+  Ru96  1  0.49787497  -0.00241450  -0.00092566  1
  Ru4+  Ru97  1  0.50024025  -0.00113017  0.24711655  1
  Ru4+  Ru98  1  0.49712306  -0.00505522  0.49923484  1
  Ru4+  Ru99  1  0.50266862  0.00066844  0.75538049  1
  Ru4+  Ru100  1  0.49884016  0.32681582  -0.00875076  1
  Ru4+  Ru101  1  0.49563914  0.32780832  0.24132920  1
  Ru4+  Ru102  1  0.49692348  0.33701485  0.50385363  1
  Ru4+  Ru103  1  0.50072102  0.33769892  0.75712281  1
  Ru4+  Ru104  1  0.49692602  0.67045662  0.00178548  1
  Ru4+  Ru105  1  0.49699945  0.66404689  0.25126946  1
  Ru4+  Ru106  1  0.49995033  0.66518860  0.50262515  1
  Ru4+  Ru107  1  0.49979462  0.66059771  0.74909200  1
  Ru4+  Ru108  1  0.10842265  0.17029650  -0.00123295  1
  Ru4+  Ru109  1  0.11086294  0.16471670  0.24976940  1
  Ru4+  Ru110  1  0.11242870  0.16535420  0.50286434  1
  Ru4+  Ru111  1  0.11233784  0.16691717  0.75217553  1
  Ru4+  Ru112  1  0.11096459  0.50172647  0.00007754  1
  Ru4+  Ru113  1  0.11424049  0.49729772  0.24865727  1
  Ru4+  Ru114  1  0.11528548  0.50411652  0.50228518  1
  Ru4+  Ru115  1  0.11746564  0.50795180  0.74942399  1
  Ru4+  Ru116  1  0.11517933  0.83283390  0.00122167  1
  Ru4+  Ru117  1  0.11371278  0.83011101  0.25044688  1
  Ru4+  Ru118  1  0.11218971  0.83149696  0.49869669  1
  Ru4+  Ru119  1  0.11061945  0.83276114  0.75356062  1
  Ru4+  Ru120  1  0.61612735  0.16845082  -0.00113803  1
  Ru4+  Ru121  1  0.61033998  0.16409408  0.24705780  1
  Ru4+  Ru122  1  0.60901366  0.16249482  0.49974495  1
  Ru4+  Ru123  1  0.61119008  0.16966140  0.75193401  1
  Ru4+  Ru124  1  0.61945276  0.49456169  -0.00497662  1
  Ru4+  Ru125  1  0.61533516  0.50717839  0.25275501  1
  Ru4+  Ru126  1  0.60842893  0.50008883  0.49965016  1
  Ru4+  Ru127  1  0.61114789  0.49971522  0.75206615  1
  Ru4+  Ru128  1  0.60948878  0.83489526  -0.00071872  1
  Ru4+  Ru129  1  0.61470706  0.83871731  0.25375240  1
  Ru4+  Ru130  1  0.61049545  0.83312149  0.49913075  1
  Ru4+  Ru131  1  0.61005594  0.83536019  0.74980528  1
  Ru4+  Ru132  1  0.39085162  0.16924458  -0.00110254  1
  Ru4+  Ru133  1  0.38486332  0.16443107  0.24863690  1
  Ru4+  Ru134  1  0.39009751  0.16378098  0.50007976  1
  Ru4+  Ru135  1  0.38771135  0.16421700  0.75017046  1
  Ru4+  Ru136  1  0.38622578  0.50104933  -0.00149533  1
  Ru4+  Ru137  1  0.38684962  0.50145232  0.25189451  1
  Ru4+  Ru138  1  0.38694611  0.50478020  0.50078007  1
  Ru4+  Ru139  1  0.38969057  0.50537241  0.74862830  1
  Ru4+  Ru140  1  0.38480831  0.83407028  -0.00003132  1
  Ru4+  Ru141  1  0.38636539  0.83070755  0.25229474  1
  Ru4+  Ru142  1  0.38824927  0.83303035  0.49697991  1
  Ru4+  Ru143  1  0.39148508  0.82905584  0.75203374  1
  Ru4+  Ru144  1  0.88524735  0.16709889  0.00064039  1
  Ru4+  Ru145  1  0.88767375  0.16767578  0.24496493  1
  Ru4+  Ru146  1  0.88545053  0.17410083  0.50034708  1
  Ru4+  Ru147  1  0.88920387  0.16731802  0.74967629  1
  Ru4+  Ru148  1  0.88575071  0.49657390  -0.00161928  1
  Ru4+  Ru149  1  0.87985920  0.50004077  0.24570834  1
  Ru4+  Ru150  1  0.88320457  0.49368680  0.50007343  1
  Ru4+  Ru151  1  0.88490033  0.49833407  0.75156736  1
  Ru4+  Ru152  1  0.89300908  0.83483907  -0.00196947  1
  Ru4+  Ru153  1  0.88998129  0.83114988  0.24972026  1
  Ru4+  Ru154  1  0.89274842  0.83227671  0.50155069  1
  Ru4+  Ru155  1  0.88793789  0.83370478  0.75067778  1
  Ru4+  Ru156  1  0.74988637  0.94100471  -0.00152839  1
  Ru4+  Ru157  1  0.25012985  0.42543805  0.49425001  1
  Ru4+  Ru158  1  0.74992135  0.94125557  0.74461917  1
  Ru4+  Ru159  1  0.25045184  0.93548498  0.76566702  1
  Ru4+  Ru160  1  0.74946449  0.26956291  0.49675660  1
  Ru4+  Ru161  1  0.74998152  0.03514149  0.23755858  1
  Ru4+  Ru162  1  0.25010740  0.24027246  0.74791508  1
  Ru4+  Ru163  1  0.24963782  0.24646401  0.26006919  1
  Ru4+  Ru164  1  0.75058615  0.71328211  0.50528624  1
  Ru4+  Ru165  1  0.75100783  0.97643096  0.48474812  1
  Ru4+  Ru166  1  0.74998177  0.58583055  0.51111396  1
  Ru4+  Ru167  1  0.25039965  0.57956216  0.25363679  1
  Ru4+  Ru168  1  0.25026496  0.05974373  -0.00843980  1
  Ru4+  Ru169  1  0.24962017  0.74357612  0.50133574  1
  Ru4+  Ru170  1  0.74984445  0.75809393  0.24533914  1
  Ru4+  Ru171  1  0.25039503  0.42480755  0.25224500  1
  Ru4+  Ru172  1  0.75037053  0.90023842  0.24345750  1
  Ru4+  Ru173  1  0.25026812  0.26814173  0.47315625  1
  Ru4+  Ru174  1  0.75060906  0.58503164  -0.01062111  1
  Ru4+  Ru175  1  0.24997488  0.42891540  0.75449726  1
  Ru4+  Ru176  1  0.74952428  0.59922459  0.24186129  1
  Ru4+  Ru177  1  0.24917621  0.91794535  0.49238254  1
  Ru4+  Ru178  1  0.25036899  0.91707758  0.25615857  1
  Ru4+  Ru179  1  0.74980025  0.30892273  0.23199930  1
  O2-  O180  1  0.16590741  0.07901537  0.00096673  1
  O2-  O181  1  0.16462576  0.07968748  0.24667082  1
  O2-  O182  1  0.16288403  0.07717159  0.49835181  1
  O2-  O183  1  0.16272736  0.08227072  0.75149136  1
  O2-  O184  1  0.16593971  0.41781988  0.00211222  1
  O2-  O185  1  0.16957427  0.41482068  0.24955845  1
  O2-  O186  1  0.16616927  0.41434810  0.49754732  1
  O2-  O187  1  0.16738428  0.41641126  0.75140742  1
  O2-  O188  1  0.16810055  0.75024717  -0.00173064  1
  O2-  O189  1  0.16393696  0.74931082  0.25017829  1
  O2-  O190  1  0.16549912  0.74675920  0.49932063  1
  O2-  O191  1  0.16678739  0.74535933  0.74966973  1
  O2-  O192  1  0.66217085  0.08198405  -0.00035086  1
  O2-  O193  1  0.66685130  0.07701623  0.25103795  1
  O2-  O194  1  0.65929413  0.07566475  0.49736705  1
  O2-  O195  1  0.66403163  0.07991644  0.74877769  1
  O2-  O196  1  0.67035114  0.41508114  0.00163612  1
  O2-  O197  1  0.66539108  0.41182721  0.25011825  1
  O2-  O198  1  0.66033612  0.41067877  0.49647272  1
  O2-  O199  1  0.66195887  0.41667342  0.74840975  1
  O2-  O200  1  0.66500737  0.74362349  0.00078949  1
  O2-  O201  1  0.66600391  0.74834256  0.24939396  1
  O2-  O202  1  0.66603780  0.74537490  0.49734771  1
  O2-  O203  1  0.66261145  0.74643403  0.74779933  1
  O2-  O204  1  0.33347508  0.25256541  0.00180836  1
  O2-  O205  1  0.33113604  0.25185976  0.25127992  1
  O2-  O206  1  0.33550144  0.25291098  0.49876007  1
  O2-  O207  1  0.33341967  0.25249597  0.74861576  1
  O2-  O208  1  0.33228870  0.58434965  -0.00155607  1
  O2-  O209  1  0.33096093  0.58353186  0.24767806  1
  O2-  O210  1  0.33281035  0.58270942  0.49781507  1
  O2-  O211  1  0.33331346  0.58524479  0.75207462  1
  O2-  O212  1  0.33254416  0.91948925  -0.00083240  1
  O2-  O213  1  0.33282386  0.91936932  0.24648119  1
  O2-  O214  1  0.33178140  0.91786333  0.49980127  1
  O2-  O215  1  0.33165498  0.91911977  0.75370167  1
  O2-  O216  1  0.83715353  0.25000725  0.00071108  1
  O2-  O217  1  0.83281597  0.25391163  0.25189701  1
  O2-  O218  1  0.83300105  0.25653415  0.49979851  1
  O2-  O219  1  0.83742844  0.25172491  0.74788301  1
  O2-  O220  1  0.83389316  0.58772299  0.00021668  1
  O2-  O221  1  0.83321441  0.58927715  0.25183744  1
  O2-  O222  1  0.83356469  0.58594644  0.49922454  1
  O2-  O223  1  0.83467065  0.58458411  0.74978810  1
  O2-  O224  1  0.83274480  0.91904471  -0.00422176  1
  O2-  O225  1  0.83359675  0.91723354  0.25122452  1
  O2-  O226  1  0.83304409  0.92290787  0.49828840  1
  O2-  O227  1  0.83194408  0.92076278  0.75143694  1
  O2-  O228  1  0.16619178  0.25295832  0.00193556  1
  O2-  O229  1  0.16813422  0.25236194  0.25096115  1
  O2-  O230  1  0.16837676  0.25272802  0.49901968  1
  O2-  O231  1  0.16807979  0.25261874  0.74864693  1
  O2-  O232  1  0.17021869  0.58337965  -0.00107660  1
  O2-  O233  1  0.16595609  0.58450763  0.25007828  1
  O2-  O234  1  0.16837411  0.58560362  0.49708628  1
  O2-  O235  1  0.16720021  0.58692225  0.75037128  1
  O2-  O236  1  0.16328604  0.91885611  0.00055309  1
  O2-  O237  1  0.16632776  0.92014040  0.24723490  1
  O2-  O238  1  0.16771971  0.92057512  0.49959789  1
  O2-  O239  1  0.16578509  0.91980295  0.75048244  1
  O2-  O240  1  0.66585350  0.25054677  0.00171081  1
  O2-  O241  1  0.66483959  0.25590511  0.25071387  1
  O2-  O242  1  0.66564570  0.25577218  0.49896187  1
  O2-  O243  1  0.66518658  0.25098921  0.74711266  1
  O2-  O244  1  0.66581642  0.58778609  0.00087001  1
  O2-  O245  1  0.66658793  0.59038573  0.25220776  1
  O2-  O246  1  0.66780885  0.58696435  0.49753624  1
  O2-  O247  1  0.66514281  0.58362071  0.75055372  1
  O2-  O248  1  0.66682567  0.91983562  -0.00224720  1
  O2-  O249  1  0.66893744  0.91746165  0.24994150  1
  O2-  O250  1  0.66741933  0.92107192  0.49754115  1
  O2-  O251  1  0.67045889  0.92157345  0.75036337  1
  O2-  O252  1  0.33399812  0.07981644  0.00110669  1
  O2-  O253  1  0.33290669  0.08224608  0.24708984  1
  O2-  O254  1  0.33336193  0.07838296  0.49871427  1
  O2-  O255  1  0.33660008  0.08173286  0.75238169  1
  O2-  O256  1  0.33049354  0.41742451  0.00244033  1
  O2-  O257  1  0.33454428  0.41532697  0.24989251  1
  O2-  O258  1  0.33537540  0.41410599  0.49761531  1
  O2-  O259  1  0.33576836  0.41602621  0.75010738  1
  O2-  O260  1  0.33390390  0.74903303  -0.00179813  1
  O2-  O261  1  0.33517446  0.74977891  0.24863142  1
  O2-  O262  1  0.33305171  0.74879867  0.50073013  1
  O2-  O263  1  0.33351891  0.74490871  0.75156054  1
  O2-  O264  1  0.83655975  0.07990259  -0.00299326  1
  O2-  O265  1  0.83164130  0.07809489  0.25268446  1
  O2-  O266  1  0.83929109  0.07594331  0.49735016  1
  O2-  O267  1  0.83494851  0.07726144  0.75046250  1
  O2-  O268  1  0.83280961  0.41770596  -0.00058546  1
  O2-  O269  1  0.83321109  0.41088804  0.25023462  1
  O2-  O270  1  0.83502699  0.40851388  0.49708861  1
  O2-  O271  1  0.83422864  0.41747090  0.74747899  1
  O2-  O272  1  0.83653108  0.74610102  0.00074112  1
  O2-  O273  1  0.83206572  0.74894257  0.25121663  1
  O2-  O274  1  0.83566960  0.74436774  0.49769794  1
  O2-  O275  1  0.83535962  0.74565584  0.74849604  1
  O2-  O276  1  0.45666326  0.43878981  0.02855106  1
  O2-  O277  1  0.04287119  0.43760667  0.20282914  1
  O2-  O278  1  0.45358092  0.90277801  0.24139433  1
  O2-  O279  1  0.54428978  0.89643444  0.50448371  1
  O2-  O280  1  0.96254879  0.09773580  0.28007393  1
  O2-  O281  1  0.03445984  0.78188154  0.00600893  1
  O2-  O282  1  0.03688539  0.78263216  0.75564361  1
  O2-  O283  1  0.95339663  0.56853344  0.51576194  1
  O2-  O284  1  0.55181704  0.76789288  0.23632994  1
  O2-  O285  1  0.05168788  0.43557711  0.75882215  1
  O2-  O286  1  0.54970648  0.57736950  0.01519186  1
  O2-  O287  1  0.45378580  0.09877391  0.74230174  1
  O2-  O288  1  0.04635682  0.43203334  0.01390687  1
  O2-  O289  1  0.04326677  0.22594552  0.47801514  1
  O2-  O290  1  0.54571621  0.23300025  0.24122215  1
  O2-  O291  1  0.44799537  0.90519902  0.48376065  1
  O2-  O292  1  0.04954455  0.91055802  0.76561458  1
  O2-  O293  1  0.05307224  0.57746315  0.51771293  1
  O2-  O294  1  0.54613601  0.23801691  0.48838487  1
  O2-  O295  1  0.45313221  0.76315642  0.23466085  1
  O2-  O296  1  0.05127091  0.57496952  0.23993464  1
  O2-  O297  1  0.94687515  0.42957220  0.23272735  1
  O2-  O298  1  0.54127752  0.22105258  0.02518467  1
  O2-  O299  1  0.46735478  0.12118384  0.53607050  1
  O2-  O300  1  0.95420028  0.90002527  0.26855884  1
  O2-  O301  1  0.54996992  0.43354970  0.24342997  1
  O2-  O302  1  0.54842141  0.76786367  0.00997329  1
  O2-  O303  1  0.95551368  0.56970460  0.98340239  1
  O2-  O304  1  0.94922467  0.57168325  0.23414625  1
  O2-  O305  1  0.94852164  0.76354063  0.73650110  1
  O2-  O306  1  0.94973789  0.57145887  0.27347982  1
  O2-  O307  1  0.54467158  0.56025657  0.98199832  1
  O2-  O308  1  0.45228454  0.42670813  0.23658820  1
  O2-  O309  1  0.95031201  0.90784426  0.73046651  1
  O2-  O310  1  0.96125648  0.23304314  0.28613808  1
  O2-  O311  1  0.03620923  0.22544286  0.71854805  1
  O2-  O312  1  0.53911542  0.43736503  1.00060738  1
  O2-  O313  1  0.95220154  0.09412687  0.49235399  1
  O2-  O314  1  0.46576207  0.88652111  0.79134615  1
  O2-  O315  1  0.55156519  0.90818762  0.48190103  1
  O2-  O316  1  0.95835020  0.44077401  0.71330674  1
  O2-  O317  1  0.45505403  0.89359745  0.50666586  1
  O2-  O318  1  0.54974749  0.43655576  0.02430810  1
  O2-  O319  1  0.45129741  0.56570382  0.73550956  1
  O2-  O320  1  0.54562244  0.42947328  0.76197857  1
  O2-  O321  1  0.46367058  0.56079602  0.21581950  1
  O2-  O322  1  0.95243002  0.90100800  0.98436361  1
  O2-  O323  1  0.95148223  0.42674284  0.27127913  1
  O2-  O324  1  0.43339899  0.26126258  0.21975131  1
  O2-  O325  1  0.05769283  0.58369665  0.51906142  1
  O2-  O326  1  0.43162899  0.74453999  0.81097231  1
  O2-  O327  1  0.06389409  0.59545153  0.96035169  1
  O2-  O328  1  0.56590447  0.74054111  0.52097002  1
  O2-  O329  1  0.07504794  0.72794689  0.03001157  1
  O2-  O330  1  0.07109392  0.28780569  0.56533122  1
  O2-  O331  1  0.93259670  0.58826394  0.52067862  1
  O2-  O332  1  0.92718998  0.38244484  0.80907340  1
  O2-  O333  1  0.06087768  0.26475356  0.07550162  1
  O2-  O334  1  0.57010786  0.93392133  0.52866430  1
  O2-  O335  1  0.43512675  0.25599785  0.97636835  1
  O2-  O336  1  0.06602823  0.92216197  0.47366736  1
  O2-  O337  1  0.56559171  0.59595886  0.72614036  1
  O2-  O338  1  0.43592900  0.92556412  0.02312152  1
  O2-  O339  1  0.93961945  0.07712936  0.46381978  1
  O2-  O340  1  0.06459226  0.40937668  0.77678165  1
  O2-  O341  1  0.42208386  0.60385108  0.29997872  1
  O2-  O342  1  0.06712288  0.25049408  0.94135054  1
  O2-  O343  1  0.93503607  0.74046531  0.22828116  1
  O2-  O344  1  0.93761595  0.40091195  0.97115251  1
  O2-  O345  1  0.56617969  0.39957698  0.95979087  1
  O2-  O346  1  0.42005112  0.93352860  0.70423763  1
  O2-  O347  1  0.56358251  0.58933440  0.52188529  1
  O2-  O348  1  0.56648426  0.26209472  0.95510324  1
  O2-  O349  1  0.56358792  0.92789524  0.28332098  1
  O2-  O350  1  0.56157100  0.73502668  0.23041254  1
  O2-  O351  1  0.42298125  0.39905372  0.95127404  1
  O2-  O352  1  0.56325145  0.26154627  0.77866383  1
  O2-  O353  1  0.07945354  0.26988473  0.80074181  1
  O2-  O354  1  0.43515030  0.74381556  0.47465480  1
  O2-  O355  1  0.93760101  0.59151846  0.72666882  1
  O2-  O356  1  0.91932179  0.06310519  0.18935349  1
  O2-  O357  1  0.93816953  0.92755614  0.53674268  1
  O2-  O358  1  0.43796794  0.59405574  0.53019134  1
  O2-  O359  1  0.43389390  0.73736019  0.67867801  1
  O2-  O360  1  0.07806221  0.39059507  0.30260505  1
  O2-  O361  1  0.07254346  0.70963487  0.79565134  1
  O2-  O362  1  0.93677365  0.40052632  0.46829228  1
  O2-  O363  1  0.56301048  0.07131382  0.21873149  1
  O2-  O364  1  0.56224447  0.41086055  0.21935329  1
  O2-  O365  1  0.43594723  0.07574289  0.27424183  1
  O2-  O366  1  0.43344651  0.25905736  0.77133464  1
  O2-  O367  1  0.42446795  0.06382967  0.44509861  1
  O2-  O368  1  0.42823718  0.92929722  0.52918428  1
  O2-  O369  1  0.56630190  0.92578928  0.77566612  1
  O2-  O370  1  0.93065475  0.28116097  0.17970882  1
  O2-  O371  1  0.43683813  0.73759061  0.03491735  1
  O2-  O372  1  0.25028748  0.33213819  0.18405066  1
  O2-  O373  1  0.75034149  0.67252979  0.85979695  1
  O2-  O374  1  0.24999312  0.33638037  0.92373417  1
  O2-  O375  1  0.75008597  0.67415537  0.34746018  1
  O2-  O376  1  0.74966764  0.00536534  0.10220092  1
  O2-  O377  1  0.75004493  0.33086119  0.84588457  1
  O2-  O378  1  0.25018762  0.00123560  0.57889627  1
  O2-  O379  1  0.24966247  0.00843880  0.67111373  1
  O2-  O380  1  0.75035840  0.67532958  0.14485812  1
  O2-  O381  1  0.24946505  -0.00519260  0.34768837  1
  O2-  O382  1  0.75034842  0.33047306  0.67571042  1
  O2-  O383  1  0.24960240  0.66785377  0.17224619  1
  O2-  O384  1  0.24940012  0.66337736  0.34389280  1
  O2-  O385  1  0.24981410  0.33689993  0.06649042  1
  O2-  O386  1  0.74983027  0.32954997  0.11188379  1
  O2-  O387  1  0.75037536  -0.01144118  0.35796230  1
  O2-  O388  1  0.75013946  0.00062324  0.61395083  1
  O2-  O389  1  0.24988533  0.66008948  0.08094872  1
  O2-  O390  1  0.74971639  0.33873562  0.36213808  1
  O2-  O391  1  0.24999393  0.67141825  0.59645481  1
  O2-  O392  1  0.25003726  0.33405481  0.83105841  1
  O2-  O393  1  0.25018730  0.33580577  0.68776495  1
  O2-  O394  1  0.25038082  0.33848139  0.56763294  1
  O2-  O395  1  0.74972806  0.34487182  0.58584754  1
  O2-  O396  1  0.75015590  0.19554376  0.41387192  1
  O2-  O397  1  0.24985403  0.83433764  0.93375756  1
  O2-  O398  1  0.75029753  0.50847423  0.63926504  1
  O2-  O399  1  0.24973494  0.83031732  0.31018300  1
  O2-  O400  1  0.25009247  0.49765447  0.34466757  1
  O2-  O401  1  0.75004632  0.50892819  0.15612680  1
  O2-  O402  1  0.24968679  0.15808275  0.90719325  1
  O2-  O403  1  0.75044117  0.15095839  0.34115988  1
  O2-  O404  1  0.24985606  0.82933524  0.42932971  1
  O2-  O405  1  0.75014987  0.19160725  0.61758940  1
  O2-  O406  1  0.24999964  0.50200271  0.66855395  1
  O2-  O407  1  0.24994020  0.50266249  0.57833492  1
  O2-  O408  1  0.75031663  0.16203517  0.87638512  1
  O2-  O409  1  0.24992785  0.16974657  0.65942816  1
  O2-  O410  1  0.24982396  0.18246903  0.38123117  1
  O2-  O411  1  0.75047717  0.16461492  0.08989848  1
  O2-  O412  1  0.75042213  0.49689517  0.91673510  1
  O2-  O413  1  0.24954960  0.84220998  0.84976617  1
  O2-  O414  1  0.24995976  0.83791975  0.58336746  1
  O2-  O415  1  0.75027873  0.83577386  0.63872269  1
  O2-  O416  1  0.75035300  0.50106707  0.83353986  1
  O2-  O417  1  0.75014166  0.83725592  0.12648290  1
  O2-  O418  1  0.24973381  0.15197578  0.81980632  1
  O2-  O419  1  0.75012170  0.49760035  0.06563322  1
  O2-  O420  1  0.52007334  0.67652492  0.62994404  1
  O2-  O421  1  0.48140936  -0.00856056  0.36805978  1
  O2-  O422  1  0.01687683  0.34513784  0.88052621  1
  O2-  O423  1  0.48502006  0.66871682  0.37861643  1
  O2-  O424  1  0.52247598  0.33358753  0.11848214  1
  O2-  O425  1  0.47305677  0.33180053  0.37517496  1
  O2-  O426  1  0.47257741  0.65644606  0.88543342  1
  O2-  O427  1  0.02783570  0.00018186  0.62393071  1
  O2-  O428  1  0.98002635  -0.00501237  0.11835022  1
  O2-  O429  1  0.46538043  0.00936400  0.62650452  1
  O2-  O430  1  0.02726475  0.67150320  0.37439424  1
  O2-  O431  1  0.96088728  0.68166396  0.61752904  1
  O2-  O432  1  0.02683923  0.00398611  0.36734509  1
  O2-  O433  1  0.48106161  0.33621376  0.86724509  1
  O2-  O434  1  0.53226201  0.66813505  0.87240857  1
  O2-  O435  1  0.02264255  0.32818427  0.38287790  1
  O2-  O436  1  0.54399095  0.01252535  0.63849909  1
  O2-  O437  1  0.52380378  0.65948124  0.12432943  1
  O2-  O438  1  0.96698842  0.66545576  0.11570075  1
  O2-  O439  1  0.04601937  0.67373440  0.63268886  1
  O2-  O440  1  0.03028386  0.66046516  0.13042451  1
  O2-  O441  1  0.52422112  0.00596615  0.88382397  1
  O2-  O442  1  0.47450453  0.33204372  0.62467237  1
  O2-  O443  1  0.47683259  0.00785041  0.12573835  1
