# generated using pymatgen
data_La7(Ru4O11)2
_symmetry_space_group_name_H-M   'P 1'
_cell_length_a   23.99123870
_cell_length_b   16.83307214
_cell_length_c   15.42826575
_cell_angle_alpha   90.00135835
_cell_angle_beta   90.00084716
_cell_angle_gamma   90.00221805
_symmetry_Int_Tables_number   1
_chemical_formula_structural   La7(Ru4O11)2
_chemical_formula_sum   'La84 Ru96 O264'
_cell_volume   6230.64728505
_cell_formula_units_Z   12
loop_
 _symmetry_equiv_pos_site_id
 _symmetry_equiv_pos_as_xyz
  1  'x, y, z'
loop_
 _atom_type_symbol
 _atom_type_oxidation_number
  La3+  3.0
  Ru4+  4.0
  O2-  -2.0
loop_
 _atom_site_type_symbol
 _atom_site_label
 _atom_site_symmetry_multiplicity
 _atom_site_fract_x
 _atom_site_fract_y
 _atom_site_fract_z
 _atom_site_occupancy
  La3+  La0  1  0.15050324  -0.00164915  0.12464209  1
  La3+  La1  1  0.13874716  -0.00361184  0.37616058  1
  La3+  La2  1  0.13481116  -0.00237605  0.62287356  1
  La3+  La3  1  0.13714189  -0.00636474  0.88173731  1
  La3+  La4  1  0.14220357  0.33871029  0.12489771  1
  La3+  La5  1  0.13479522  0.33333665  0.38136182  1
  La3+  La6  1  0.12738990  0.32560459  0.63702960  1
  La3+  La7  1  0.13466731  0.33029251  0.86425812  1
  La3+  La8  1  0.13534016  0.66602500  0.11950552  1
  La3+  La9  1  0.14479799  0.66365718  0.36856576  1
  La3+  La10  1  0.14140801  0.66243951  0.62408300  1
  La3+  La11  1  0.14158331  0.66472434  0.88288422  1
  La3+  La12  1  0.63910472  -0.00203293  0.12183389  1
  La3+  La13  1  0.63934997  -0.00506234  0.37381656  1
  La3+  La14  1  0.64407785  -0.00679698  0.62978510  1
  La3+  La15  1  0.63316160  -0.00105386  0.87567055  1
  La3+  La16  1  0.64013204  0.33186422  0.12785419  1
  La3+  La17  1  0.63367922  0.33311880  0.37649928  1
  La3+  La18  1  0.63147673  0.33571171  0.62361572  1
  La3+  La19  1  0.63705524  0.33488056  0.87083497  1
  La3+  La20  1  0.63407042  0.67370468  0.12808804  1
  La3+  La21  1  0.63987622  0.67123305  0.37413905  1
  La3+  La22  1  0.64334896  0.66693657  0.62002406  1
  La3+  La23  1  0.63568347  0.66659291  0.87512908  1
  La3+  La24  1  0.34967473  -0.00042420  0.12687460  1
  La3+  La25  1  0.35707848  0.00018746  0.37279682  1
  La3+  La26  1  0.36556089  -0.00091411  0.62444151  1
  La3+  La27  1  0.36077317  -0.00278966  0.88110973  1
  La3+  La28  1  0.35637321  0.33719988  0.12538915  1
  La3+  La29  1  0.36551714  0.34185301  0.37922462  1
  La3+  La30  1  0.37019400  0.34355997  0.61683631  1
  La3+  La31  1  0.35423271  0.33526406  0.87134351  1
  La3+  La32  1  0.36803253  0.67141010  0.12442015  1
  La3+  La33  1  0.35577296  0.66936311  0.36993420  1
  La3+  La34  1  0.35857620  0.66635165  0.62583548  1
  La3+  La35  1  0.36291883  0.67127623  0.88118833  1
  La3+  La36  1  0.86085787  -0.00116920  0.12422926  1
  La3+  La37  1  0.86994117  0.00526309  0.38241187  1
  La3+  La38  1  0.87098018  0.00988746  0.61610951  1
  La3+  La39  1  0.86604634  0.00046577  0.87347365  1
  La3+  La40  1  0.86151234  0.33116037  0.13367978  1
  La3+  La41  1  0.86449913  0.32949873  0.37036919  1
  La3+  La42  1  0.87027259  0.33657730  0.63102346  1
  La3+  La43  1  0.86351842  0.33274974  0.87075726  1
  La3+  La44  1  0.86282758  0.66946283  0.12793076  1
  La3+  La45  1  0.85681843  0.66890219  0.37790775  1
  La3+  La46  1  0.85355788  0.66264760  0.62207756  1
  La3+  La47  1  0.86445306  0.66363734  0.87553112  1
  La3+  La48  1  0.49747772  0.83352865  0.37162875  1
  La3+  La49  1  -0.00728120  0.17113753  0.11733302  1
  La3+  La50  1  -0.00108452  0.83911376  0.61184685  1
  La3+  La51  1  0.00789929  0.16015773  0.85705185  1
  La3+  La52  1  0.00511127  0.83672558  0.87618486  1
  La3+  La53  1  0.49894457  0.49954620  0.11236238  1
  La3+  La54  1  0.49449026  0.49281852  0.61413894  1
  La3+  La55  1  0.50071556  0.16533758  0.11351313  1
  La3+  La56  1  0.00206203  0.83595421  0.11022143  1
  La3+  La57  1  0.00863072  0.83426160  0.13003887  1
  La3+  La58  1  -0.00006670  0.16851032  0.38024470  1
  La3+  La59  1  0.50512115  0.17090508  0.37000969  1
  La3+  La60  1  0.50002684  0.49645780  0.37558291  1
  La3+  La61  1  0.00240914  0.17160844  0.61074893  1
  La3+  La62  1  0.49834323  0.17163765  0.13468202  1
  La3+  La63  1  0.00074190  0.50403406  0.11580673  1
  La3+  La64  1  0.00424426  0.84818651  0.36234162  1
  La3+  La65  1  0.00394573  0.83164699  0.63167537  1
  La3+  La66  1  0.49576933  0.83104085  0.12116447  1
  La3+  La67  1  0.50132217  0.83281631  0.88566193  1
  La3+  La68  1  0.00078968  0.50253127  0.38442256  1
  La3+  La69  1  0.50122346  0.16911966  0.87721182  1
  La3+  La70  1  0.00108132  0.16644480  0.62681856  1
  La3+  La71  1  -0.00012893  0.16537786  0.13582259  1
  La3+  La72  1  0.25001972  0.84051726  0.23163005  1
  La3+  La73  1  0.24943243  0.10294716  0.49981654  1
  La3+  La74  1  0.75047065  0.18572001  0.50838407  1
  La3+  La75  1  0.74986452  0.52471302  0.02807731  1
  La3+  La76  1  0.74863068  0.83532456  0.00356267  1
  La3+  La77  1  0.24921209  0.82246773  0.70492132  1
  La3+  La78  1  0.24945476  0.12202490  -0.03200517  1
  La3+  La79  1  0.74988709  0.49798512  0.74246972  1
  La3+  La80  1  0.74901883  0.50306732  0.29005618  1
  La3+  La81  1  0.75014645  0.14175773  0.01863805  1
  La3+  La82  1  0.74813271  0.12870603  0.76260630  1
  La3+  La83  1  0.74963631  0.82596848  0.73730597  1
  Ru4+  Ru84  1  -0.00464344  0.00762126  0.00284170  1
  Ru4+  Ru85  1  -0.00137521  0.00101341  0.25365149  1
  Ru4+  Ru86  1  -0.00287577  0.00563865  0.49331914  1
  Ru4+  Ru87  1  0.00238229  0.00444260  0.74606292  1
  Ru4+  Ru88  1  0.00164992  0.33718615  -0.00543553  1
  Ru4+  Ru89  1  0.00759589  0.34445825  0.24329605  1
  Ru4+  Ru90  1  -0.00562554  0.33882266  0.50702081  1
  Ru4+  Ru91  1  0.00435408  0.33746018  0.75075375  1
  Ru4+  Ru92  1  -0.00336355  0.65067210  0.00077160  1
  Ru4+  Ru93  1  -0.00339158  0.66657952  0.25063178  1
  Ru4+  Ru94  1  -0.00093571  0.66580105  0.49887128  1
  Ru4+  Ru95  1  0.00329745  0.65457239  0.75447182  1
  Ru4+  Ru96  1  0.49741244  -0.00235485  -0.00570756  1
  Ru4+  Ru97  1  0.49702783  -0.00507819  0.25069194  1
  Ru4+  Ru98  1  0.50441595  0.00415095  0.50827049  1
  Ru4+  Ru99  1  0.49947178  0.00275416  0.74650729  1
  Ru4+  Ru100  1  0.49925734  0.33647601  0.00639185  1
  Ru4+  Ru101  1  0.50073157  0.33451967  0.24506774  1
  Ru4+  Ru102  1  0.49605651  0.32769976  0.50015602  1
  Ru4+  Ru103  1  0.49978876  0.33766008  0.74831431  1
  Ru4+  Ru104  1  0.50712182  0.65933641  0.00318314  1
  Ru4+  Ru105  1  0.49700263  0.65468228  0.25040739  1
  Ru4+  Ru106  1  0.49904605  0.66643199  0.48490352  1
  Ru4+  Ru107  1  0.50396940  0.66072515  0.74603958  1
  Ru4+  Ru108  1  0.11260115  0.16819275  -0.00715710  1
  Ru4+  Ru109  1  0.11634201  0.16271908  0.25184616  1
  Ru4+  Ru110  1  0.11485431  0.16427992  0.50253325  1
  Ru4+  Ru111  1  0.11604457  0.16941186  0.74926236  1
  Ru4+  Ru112  1  0.11373093  0.49901125  -0.00166195  1
  Ru4+  Ru113  1  0.11534244  0.49328075  0.25355128  1
  Ru4+  Ru114  1  0.11505384  0.50672887  0.50407461  1
  Ru4+  Ru115  1  0.11251014  0.50280748  0.75119410  1
  Ru4+  Ru116  1  0.12152265  0.83231345  -0.00238643  1
  Ru4+  Ru117  1  0.11353246  0.83567314  0.25253394  1
  Ru4+  Ru118  1  0.11836937  0.82913390  0.49678234  1
  Ru4+  Ru119  1  0.11192133  0.83007568  0.75089219  1
  Ru4+  Ru120  1  0.60743895  0.16721259  0.00126189  1
  Ru4+  Ru121  1  0.61559606  0.17124863  0.25044424  1
  Ru4+  Ru122  1  0.60146204  0.15818853  0.50296202  1
  Ru4+  Ru123  1  0.60744044  0.16694576  0.75152103  1
  Ru4+  Ru124  1  0.60581609  0.50824369  -0.00358475  1
  Ru4+  Ru125  1  0.60917843  0.49659649  0.25034471  1
  Ru4+  Ru126  1  0.61547872  0.50766511  0.50325512  1
  Ru4+  Ru127  1  0.60930201  0.50096964  0.74916603  1
  Ru4+  Ru128  1  0.60678624  0.83315719  -0.00137559  1
  Ru4+  Ru129  1  0.61509138  0.83702781  0.24870396  1
  Ru4+  Ru130  1  0.61051241  0.83225477  0.50130626  1
  Ru4+  Ru131  1  0.60804170  0.83315860  0.75250299  1
  Ru4+  Ru132  1  0.38852176  0.16924378  -0.00346616  1
  Ru4+  Ru133  1  0.38676721  0.16580720  0.25268363  1
  Ru4+  Ru134  1  0.39010067  0.16757263  0.50288086  1
  Ru4+  Ru135  1  0.38302061  0.16885923  0.74657807  1
  Ru4+  Ru136  1  0.38419449  0.50019834  0.00135606  1
  Ru4+  Ru137  1  0.38548065  0.50007848  0.25478676  1
  Ru4+  Ru138  1  0.38700887  0.49930295  0.49469217  1
  Ru4+  Ru139  1  0.38668059  0.49732107  0.74724400  1
  Ru4+  Ru140  1  0.38416350  0.83322070  -0.00081154  1
  Ru4+  Ru141  1  0.38527425  0.83919321  0.25135344  1
  Ru4+  Ru142  1  0.38632042  0.83128653  0.49791838  1
  Ru4+  Ru143  1  0.38688461  0.83830309  0.75173950  1
  Ru4+  Ru144  1  0.89008169  0.17016693  -0.00079046  1
  Ru4+  Ru145  1  0.88284091  0.16405258  0.25342365  1
  Ru4+  Ru146  1  0.88798695  0.16889430  0.49655328  1
  Ru4+  Ru147  1  0.88463929  0.15834056  0.74782106  1
  Ru4+  Ru148  1  0.89441028  0.50440268  -0.00190117  1
  Ru4+  Ru149  1  0.89019534  0.50045524  0.24977542  1
  Ru4+  Ru150  1  0.88780121  0.50281064  0.50065588  1
  Ru4+  Ru151  1  0.89390438  0.49928802  0.75082809  1
  Ru4+  Ru152  1  0.88530084  0.83534722  0.00005828  1
  Ru4+  Ru153  1  0.88505938  0.83397290  0.25189288  1
  Ru4+  Ru154  1  0.88688592  0.82754947  0.49739285  1
  Ru4+  Ru155  1  0.88712494  0.83676526  0.75475497  1
  Ru4+  Ru156  1  0.24987391  0.69080818  0.77144187  1
  Ru4+  Ru157  1  0.25062165  0.90381235  0.47962044  1
  Ru4+  Ru158  1  0.74966232  0.01684425  -0.04999376  1
  Ru4+  Ru159  1  0.25053163  0.95268614  0.77052874  1
  Ru4+  Ru160  1  0.75012578  0.88626015  0.49982156  1
  Ru4+  Ru161  1  0.74985094  0.68152662  0.74067984  1
  Ru4+  Ru162  1  0.74992974  0.40190353  -0.03441154  1
  Ru4+  Ru163  1  0.75038722  0.27330070  0.74077234  1
  Ru4+  Ru164  1  0.75009301  0.96112046  0.78883328  1
  Ru4+  Ru165  1  0.24972240  0.26224199  0.49624428  1
  Ru4+  Ru166  1  0.24825295  0.43185913  0.51256055  1
  Ru4+  Ru167  1  0.75054437  0.90334875  0.24998765  1
  Ru4+  Ru168  1  0.74932077  0.27677796  0.00619635  1
  Ru4+  Ru169  1  0.24918437  0.27859632  -0.01925125  1
  Ru4+  Ru170  1  0.74992068  0.65873252  -0.01165564  1
  Ru4+  Ru171  1  0.74970465  0.09374052  0.23862822  1
  Ru4+  Ru172  1  0.25017903  0.25311074  0.25170393  1
  Ru4+  Ru173  1  0.75011831  0.44340082  0.51541070  1
  Ru4+  Ru174  1  0.74977037  0.35562377  0.25754734  1
  Ru4+  Ru175  1  0.74986693  0.63694060  0.23366049  1
  Ru4+  Ru176  1  0.25094939  0.57765059  0.51458480  1
  Ru4+  Ru177  1  0.24981096  0.08889684  0.75776455  1
  Ru4+  Ru178  1  0.74917949  0.31617667  0.52006911  1
  Ru4+  Ru179  1  0.74868434  0.05712232  0.49261529  1
  O2-  O180  1  0.16208749  0.07773515  0.00182606  1
  O2-  O181  1  0.16327051  0.08056788  0.25294367  1
  O2-  O182  1  0.16045885  0.07376996  0.49974099  1
  O2-  O183  1  0.16415514  0.08000350  0.74930168  1
  O2-  O184  1  0.16642689  0.41797552  -0.00056225  1
  O2-  O185  1  0.16680708  0.41549299  0.25083153  1
  O2-  O186  1  0.16489763  0.41511465  0.50237936  1
  O2-  O187  1  0.16454876  0.41736925  0.75119602  1
  O2-  O188  1  0.16745509  0.74681036  0.00590988  1
  O2-  O189  1  0.16730129  0.74585247  0.24422536  1
  O2-  O190  1  0.16544636  0.74742846  0.49955039  1
  O2-  O191  1  0.16738152  0.74394851  0.75076542  1
  O2-  O192  1  0.66559560  0.07498630  -0.00326312  1
  O2-  O193  1  0.66551933  0.07971574  0.24624454  1
  O2-  O194  1  0.66734825  0.07881750  0.50032668  1
  O2-  O195  1  0.65791956  0.07825568  0.75289283  1
  O2-  O196  1  0.66310223  0.41534120  -0.00139782  1
  O2-  O197  1  0.66657818  0.41207229  0.25342189  1
  O2-  O198  1  0.66722678  0.41463021  0.50360196  1
  O2-  O199  1  0.66564731  0.41380927  0.74636422  1
  O2-  O200  1  0.67112624  0.74550741  -0.00030667  1
  O2-  O201  1  0.66772309  0.74857326  0.24840309  1
  O2-  O202  1  0.66219847  0.74920303  0.49851584  1
  O2-  O203  1  0.66652725  0.74445881  0.74956598  1
  O2-  O204  1  0.33072567  0.25460147  -0.00135132  1
  O2-  O205  1  0.33338218  0.25413212  0.25139702  1
  O2-  O206  1  0.33639931  0.25408055  0.50066512  1
  O2-  O207  1  0.33397654  0.24958987  0.74803839  1
  O2-  O208  1  0.33729990  0.58611226  0.00132983  1
  O2-  O209  1  0.33790714  0.58607480  0.24494002  1
  O2-  O210  1  0.33686942  0.58459034  0.50238793  1
  O2-  O211  1  0.33718920  0.58619621  0.75128766  1
  O2-  O212  1  0.33692839  0.91809938  0.00100213  1
  O2-  O213  1  0.33312552  0.92040210  0.25313717  1
  O2-  O214  1  0.33467081  0.91979050  0.49948997  1
  O2-  O215  1  0.33417904  0.92095238  0.74883788  1
  O2-  O216  1  0.83187914  0.25466702  -0.00134526  1
  O2-  O217  1  0.83476691  0.25317902  0.25553581  1
  O2-  O218  1  0.83814254  0.25849516  0.50220768  1
  O2-  O219  1  0.83378753  0.25313313  0.74671268  1
  O2-  O220  1  0.83190796  0.59049641  -0.00512391  1
  O2-  O221  1  0.83016291  0.59059955  0.24992784  1
  O2-  O222  1  0.83641314  0.58389897  0.49724405  1
  O2-  O223  1  0.83234280  0.58480750  0.75446010  1
  O2-  O224  1  0.83032479  0.91641888  -0.00384656  1
  O2-  O225  1  0.83337522  0.91812518  0.25147588  1
  O2-  O226  1  0.83378110  0.91478692  0.49987212  1
  O2-  O227  1  0.82984009  0.92182593  0.74983921  1
  O2-  O228  1  0.16742577  0.25346271  -0.00326371  1
  O2-  O229  1  0.16563279  0.25516971  0.25153306  1
  O2-  O230  1  0.16515008  0.25301184  0.50088989  1
  O2-  O231  1  0.16865416  0.25003164  0.74842266  1
  O2-  O232  1  0.16690938  0.58394038  0.00391353  1
  O2-  O233  1  0.16087202  0.58289684  0.24485567  1
  O2-  O234  1  0.16868778  0.58382688  0.49932961  1
  O2-  O235  1  0.16791117  0.58402303  0.75345537  1
  O2-  O236  1  0.16770728  0.91822553  0.00141851  1
  O2-  O237  1  0.16532895  0.91956901  0.25202776  1
  O2-  O238  1  0.16824294  0.91875179  0.49875279  1
  O2-  O239  1  0.17006809  0.92360116  0.75064977  1
  O2-  O240  1  0.66420369  0.25536487  -0.00174211  1
  O2-  O241  1  0.66748051  0.25399762  0.25143971  1
  O2-  O242  1  0.66009050  0.25404337  0.50112063  1
  O2-  O243  1  0.66849333  0.25346729  0.74641179  1
  O2-  O244  1  0.66640779  0.59063799  0.00067992  1
  O2-  O245  1  0.66625087  0.59071916  0.24740252  1
  O2-  O246  1  0.66425652  0.58741918  0.49842907  1
  O2-  O247  1  0.66791813  0.58772946  0.75042303  1
  O2-  O248  1  0.66619646  0.91760638  -0.00364127  1
  O2-  O249  1  0.66786728  0.91574040  0.24723356  1
  O2-  O250  1  0.66655309  0.91483322  0.49905293  1
  O2-  O251  1  0.66658450  0.91986066  0.75726428  1
  O2-  O252  1  0.33624278  0.07861187  0.00277714  1
  O2-  O253  1  0.33802791  0.08198658  0.25218212  1
  O2-  O254  1  0.33901463  0.07628261  0.49792205  1
  O2-  O255  1  0.33588494  0.07984801  0.75041488  1
  O2-  O256  1  0.33643298  0.41648462  -0.00114301  1
  O2-  O257  1  0.33750322  0.41503718  0.25151691  1
  O2-  O258  1  0.33103138  0.41732036  0.50184551  1
  O2-  O259  1  0.33639198  0.41649228  0.74844104  1
  O2-  O260  1  0.33431171  0.74805377  0.00426388  1
  O2-  O261  1  0.33136440  0.74846599  0.24479041  1
  O2-  O262  1  0.33802186  0.74811707  0.50082239  1
  O2-  O263  1  0.33205510  0.74317534  0.74950110  1
  O2-  O264  1  0.83797084  0.07838040  0.00037942  1
  O2-  O265  1  0.83226893  0.07942878  0.25013567  1
  O2-  O266  1  0.83243769  0.07825328  0.49876363  1
  O2-  O267  1  0.83545921  0.07557345  0.74922322  1
  O2-  O268  1  0.83623815  0.41502194  -0.00210746  1
  O2-  O269  1  0.83399339  0.41274524  0.25660819  1
  O2-  O270  1  0.83312288  0.41345670  0.50194370  1
  O2-  O271  1  0.83232941  0.41648143  0.74556260  1
  O2-  O272  1  0.82956021  0.74554466  -0.00411379  1
  O2-  O273  1  0.83262386  0.74830330  0.25026913  1
  O2-  O274  1  0.83055200  0.74997099  0.49297676  1
  O2-  O275  1  0.83378399  0.74456425  0.75368049  1
  O2-  O276  1  0.45558051  0.43724654  0.75564910  1
  O2-  O277  1  0.54656688  0.09808799  0.23639390  1
  O2-  O278  1  0.54966313  0.25189902  0.51453927  1
  O2-  O279  1  0.54369494  0.56497632  0.23925128  1
  O2-  O280  1  0.45153769  0.43564911  0.49062360  1
  O2-  O281  1  0.45762668  0.56822979  0.49290969  1
  O2-  O282  1  0.94890392  0.57321997  0.74399211  1
  O2-  O283  1  0.54930553  0.76190877  0.22650490  1
  O2-  O284  1  0.95925935  0.10884333  0.50354771  1
  O2-  O285  1  0.05218999  0.24118886  0.00879197  1
  O2-  O286  1  0.95061803  0.24646364  0.48166238  1
  O2-  O287  1  0.95544662  0.75956369  0.76648565  1
  O2-  O288  1  0.05006278  0.75811321  0.26576960  1
  O2-  O289  1  0.94920916  0.43254878  0.50618044  1
  O2-  O290  1  0.95004799  0.23779175  0.24409290  1
  O2-  O291  1  0.54507013  0.09471704  0.76521328  1
  O2-  O292  1  0.05040454  0.23612143  0.24952324  1
  O2-  O293  1  0.95223933  0.42679748  0.01597896  1
  O2-  O294  1  0.45022135  0.42083443  0.51445085  1
  O2-  O295  1  0.45052074  0.76720317  0.23956934  1
  O2-  O296  1  0.05248342  0.76276645  0.50925121  1
  O2-  O297  1  0.94977347  0.76291232  0.24391814  1
  O2-  O298  1  0.45062647  0.76223779  0.76644396  1
  O2-  O299  1  0.95677628  0.21572774  0.95206069  1
  O2-  O300  1  0.05245112  0.76342255  0.01075867  1
  O2-  O301  1  0.54445227  0.43607288  0.99179111  1
  O2-  O302  1  0.04946839  0.42801345  0.51917846  1
  O2-  O303  1  0.45194288  0.76215149  0.98971990  1
  O2-  O304  1  0.05197430  0.42567587  0.48028931  1
  O2-  O305  1  0.04521505  0.09651120  0.98985405  1
  O2-  O306  1  0.96663688  0.55682347  0.94600545  1
  O2-  O307  1  0.04918889  0.23498280  0.49242357  1
  O2-  O308  1  0.95071122  0.76150833  0.00100954  1
  O2-  O309  1  0.45025473  0.10667626  0.44691463  1
  O2-  O310  1  0.96077214  0.77642572  0.45022866  1
  O2-  O311  1  0.94643771  0.23422447  0.72927687  1
  O2-  O312  1  0.05194368  0.56631948  0.26598461  1
  O2-  O313  1  0.55194832  0.43231412  0.50975471  1
  O2-  O314  1  0.96141439  0.44004062  0.71297266  1
  O2-  O315  1  0.52696950  0.12942077  0.52993668  1
  O2-  O316  1  0.94676841  0.09593384  0.51845084  1
  O2-  O317  1  0.04615989  0.22327074  0.73817807  1
  O2-  O318  1  0.54788227  0.76021114  0.26571364  1
  O2-  O319  1  0.04475605  0.90881324  0.48774287  1
  O2-  O320  1  0.05189121  0.24121204  0.71969946  1
  O2-  O321  1  0.94929494  0.24498222  0.76649309  1
  O2-  O322  1  0.54375479  0.89904672  0.51115176  1
  O2-  O323  1  0.04389452  0.90554600  0.98612911  1
  O2-  O324  1  0.06450858  0.91718601  0.72975894  1
  O2-  O325  1  0.43054539  0.39540720  0.46392512  1
  O2-  O326  1  0.43036090  0.24786233  0.93167687  1
  O2-  O327  1  0.56231013  0.06810248  0.03464281  1
  O2-  O328  1  0.06042827  0.59648468  0.28325227  1
  O2-  O329  1  0.93005983  0.39009329  0.80277907  1
  O2-  O330  1  0.06652813  0.91917069  0.97759681  1
  O2-  O331  1  0.06718934  0.92435368  0.48214433  1
  O2-  O332  1  0.56395987  0.40568876  0.52876690  1
  O2-  O333  1  0.43666809  0.73380673  0.77798601  1
  O2-  O334  1  0.92243301  0.60321857  0.05249902  1
  O2-  O335  1  0.06250124  0.59578036  0.51835515  1
  O2-  O336  1  0.06706906  0.42161046  0.18504448  1
  O2-  O337  1  0.43728636  0.26149360  0.28659427  1
  O2-  O338  1  0.06654966  0.58513987  0.69304461  1
  O2-  O339  1  0.43797545  0.73768741  0.22861502  1
  O2-  O340  1  0.93801481  0.07576420  0.77360907  1
  O2-  O341  1  0.06700366  0.26071453  0.77287479  1
  O2-  O342  1  0.93652230  0.92642362  0.46294588  1
  O2-  O343  1  0.43035843  0.24822967  0.06868908  1
  O2-  O344  1  0.93559798  0.07533177  0.46371879  1
  O2-  O345  1  0.43693300  0.07777977  0.97399240  1
  O2-  O346  1  0.43353150  0.25445854  0.70254595  1
  O2-  O347  1  0.43466452  0.25441951  0.79759710  1
  O2-  O348  1  0.93534227  0.93118162  0.03656476  1
  O2-  O349  1  0.92626580  0.90940677  0.68083550  1
  O2-  O350  1  0.56009120  0.59892711  0.92560137  1
  O2-  O351  1  0.91951558  0.72864904  0.55545781  1
  O2-  O352  1  0.06181819  0.73959245  0.03594023  1
  O2-  O353  1  0.06266333  0.07718354  0.52225998  1
  O2-  O354  1  0.56359261  0.25884511  0.27633748  1
  O2-  O355  1  0.56368211  0.25900017  0.77098941  1
  O2-  O356  1  0.42913562  0.06272784  0.55198396  1
  O2-  O357  1  0.05820649  0.40592966  0.32808942  1
  O2-  O358  1  0.05962659  0.25985808  0.46935891  1
  O2-  O359  1  0.44002705  0.73599543  0.97043938  1
  O2-  O360  1  0.56399482  0.59392837  0.07238956  1
  O2-  O361  1  0.06438760  0.40846342  0.71734346  1
  O2-  O362  1  0.92916533  0.27964242  0.05938047  1
  O2-  O363  1  0.06289203  0.59506205  0.81707303  1
  O2-  O364  1  0.06437654  0.59845742  0.97191385  1
  O2-  O365  1  0.93662223  0.58979827  0.22749102  1
  O2-  O366  1  0.57815654  0.07903623  0.41973822  1
  O2-  O367  1  0.57246534  0.04251781  0.57595512  1
  O2-  O368  1  0.93987338  0.26020511  0.21795977  1
  O2-  O369  1  0.93373680  0.06776126  0.21709034  1
  O2-  O370  1  0.93170833  0.90857026  0.82447287  1
  O2-  O371  1  0.06518175  0.40846221  0.97889798  1
  O2-  O372  1  0.24907586  0.66323881  0.33358194  1
  O2-  O373  1  0.25084208  -0.00292265  0.40343237  1
  O2-  O374  1  0.24974102  -0.01128632  0.14808098  1
  O2-  O375  1  0.75070389  0.34053454  0.38454160  1
  O2-  O376  1  0.24983373  0.33212870  0.67447229  1
  O2-  O377  1  0.75069681  0.66784651  0.35076159  1
  O2-  O378  1  0.25036521  0.34015860  0.58587942  1
  O2-  O379  1  0.75075450  -0.02776575  0.57685697  1
  O2-  O380  1  0.25020338  0.34420057  0.06738790  1
  O2-  O381  1  0.25081386  0.00248082  0.88878717  1
  O2-  O382  1  0.25009818  0.32686791  0.86994112  1
  O2-  O383  1  0.74992083  0.00274104  0.30932223  1
  O2-  O384  1  0.75068652  0.33057858  0.13779088  1
  O2-  O385  1  0.74994892  -0.00719535  0.17824754  1
  O2-  O386  1  0.75001938  0.33682049  0.84681642  1
  O2-  O387  1  0.74920026  0.01855081  0.68610115  1
  O2-  O388  1  0.25016700  0.66796744  0.42509850  1
  O2-  O389  1  0.75091686  -0.03213761  0.42070283  1
  O2-  O390  1  0.25044985  0.34077096  0.39959828  1
  O2-  O391  1  0.25095504  0.66927132  0.88617504  1
  O2-  O392  1  0.74884363  0.66593555  0.61706173  1
  O2-  O393  1  0.74982047  -0.01924039  0.06188540  1
  O2-  O394  1  0.25120781  0.66451951  0.59894609  1
  O2-  O395  1  0.24988243  0.33902990  0.18670999  1
  O2-  O396  1  0.25027431  0.83876039  0.57024093  1
  O2-  O397  1  0.74977008  0.82875456  0.59668817  1
  O2-  O398  1  0.25018517  0.84231708  0.37496630  1
  O2-  O399  1  0.25033439  0.50338587  0.41789918  1
  O2-  O400  1  0.74985527  0.18785160  0.30272961  1
  O2-  O401  1  0.24997120  0.50179330  0.09129976  1
  O2-  O402  1  0.74948741  0.49835475  0.88015147  1
  O2-  O403  1  0.25019095  0.83411140  0.85256186  1
  O2-  O404  1  0.25012196  0.18147241  0.09393235  1
  O2-  O405  1  0.24981167  0.16191417  0.17926430  1
  O2-  O406  1  0.74946738  0.15408378  0.38301880  1
  O2-  O407  1  0.74967134  0.18582606  0.64260841  1
  O2-  O408  1  0.25018480  0.17027917  0.83636761  1
  O2-  O409  1  0.25008665  0.50106731  0.62159538  1
  O2-  O410  1  0.25022308  0.83417673  0.93829623  1
  O2-  O411  1  0.25010913  0.15170813  0.31342385  1
  O2-  O412  1  0.75023795  0.50480197  0.42500546  1
  O2-  O413  1  0.75025809  0.17934267  0.88569524  1
  O2-  O414  1  0.25012628  0.49936817  0.33101418  1
  O2-  O415  1  0.25033847  0.18258517  0.69566790  1
  O2-  O416  1  0.75010850  0.16691773  0.15195668  1
  O2-  O417  1  0.25043545  0.18879373  0.39400638  1
  O2-  O418  1  0.25041977  0.18665387  0.60682183  1
  O2-  O419  1  0.75030194  0.49918739  0.15620140  1
  O2-  O420  1  0.51865120  -0.01583295  0.36807970  1
  O2-  O421  1  0.47760294  -0.00845377  0.86800788  1
  O2-  O422  1  0.54711250  0.32949756  0.12343900  1
  O2-  O423  1  0.02145549  0.32697716  0.11741970  1
  O2-  O424  1  0.96114515  0.01125616  0.90147424  1
  O2-  O425  1  0.04418601  0.00470615  0.63643550  1
  O2-  O426  1  0.96153591  0.00977105  0.61937237  1
  O2-  O427  1  0.45322131  0.67225210  0.36960490  1
  O2-  O428  1  0.02824083  0.00604600  0.37071927  1
  O2-  O429  1  0.45756396  0.35545161  0.14029744  1
  O2-  O430  1  0.04563441  0.00560312  0.85207362  1
  O2-  O431  1  0.02906345  0.68677325  0.62477812  1
  O2-  O432  1  0.47669001  -0.01047516  0.63701150  1
  O2-  O433  1  0.47217004  0.65937278  0.11967002  1
  O2-  O434  1  0.02207078  0.33560035  0.87434318  1
  O2-  O435  1  0.97229912  0.65911697  0.63613916  1
  O2-  O436  1  0.97124271  0.32161681  0.62639066  1
  O2-  O437  1  0.47992890  0.33537881  0.62231643  1
  O2-  O438  1  0.98286028  0.68163353  0.12513181  1
  O2-  O439  1  0.53181139  0.33503936  0.87979006  1
  O2-  O440  1  0.47284513  0.00173712  0.12636804  1
  O2-  O441  1  0.52466568  0.34306207  0.38172362  1
  O2-  O442  1  0.47598961  0.35310610  0.87810452  1
  O2-  O443  1  0.54657805  0.66179251  0.38456550  1
