# generated using pymatgen
data_La7(Ru4O11)2
_symmetry_space_group_name_H-M   'P 1'
_cell_length_a   23.99025185
_cell_length_b   16.83036872
_cell_length_c   15.42686055
_cell_angle_alpha   89.99853620
_cell_angle_beta   90.00053710
_cell_angle_gamma   89.99939140
_symmetry_Int_Tables_number   1
_chemical_formula_structural   La7(Ru4O11)2
_chemical_formula_sum   'La84 Ru96 O264'
_cell_volume   6228.82302096
_cell_formula_units_Z   12
loop_
 _symmetry_equiv_pos_site_id
 _symmetry_equiv_pos_as_xyz
  1  'x, y, z'
loop_
 _atom_type_symbol
 _atom_type_oxidation_number
  La3+  3.0
  Ru4+  4.0
  O2-  -2.0
loop_
 _atom_site_type_symbol
 _atom_site_label
 _atom_site_symmetry_multiplicity
 _atom_site_fract_x
 _atom_site_fract_y
 _atom_site_fract_z
 _atom_site_occupancy
  La3+  La0  1  0.13782699  0.00044391  0.12684652  1
  La3+  La1  1  0.13991070  0.00163947  0.37516892  1
  La3+  La2  1  0.13787716  -0.00087310  0.62505697  1
  La3+  La3  1  0.13682057  -0.00156669  0.87410077  1
  La3+  La4  1  0.13805383  0.33342977  0.12720945  1
  La3+  La5  1  0.14086732  0.33196610  0.37488092  1
  La3+  La6  1  0.13746130  0.33566212  0.62513431  1
  La3+  La7  1  0.13753049  0.33540405  0.87320463  1
  La3+  La8  1  0.14103559  0.66625726  0.12153361  1
  La3+  La9  1  0.13868283  0.66499962  0.37534692  1
  La3+  La10  1  0.14023893  0.66305749  0.62424529  1
  La3+  La11  1  0.14042777  0.66662658  0.87347335  1
  La3+  La12  1  0.63816345  0.00241045  0.12381900  1
  La3+  La13  1  0.64073616  0.00121631  0.37693831  1
  La3+  La14  1  0.64133336  0.00081882  0.62583026  1
  La3+  La15  1  0.64074027  0.00263076  0.87429362  1
  La3+  La16  1  0.63913526  0.33191015  0.11958337  1
  La3+  La17  1  0.63925538  0.33341383  0.37900477  1
  La3+  La18  1  0.63993706  0.33348293  0.62232247  1
  La3+  La19  1  0.63951446  0.33322120  0.87882046  1
  La3+  La20  1  0.63940897  0.66810277  0.11962933  1
  La3+  La21  1  0.63739970  0.66589989  0.37673656  1
  La3+  La22  1  0.63708120  0.66583871  0.62521012  1
  La3+  La23  1  0.64096488  0.66680414  0.87619360  1
  La3+  La24  1  0.36128316  0.00021488  0.12648490  1
  La3+  La25  1  0.36272016  0.00360341  0.37565336  1
  La3+  La26  1  0.35808466  0.00028947  0.62142168  1
  La3+  La27  1  0.36304017  -0.00045258  0.87188983  1
  La3+  La28  1  0.36251489  0.33333503  0.12799090  1
  La3+  La29  1  0.35976545  0.33302033  0.37310593  1
  La3+  La30  1  0.36358166  0.33581328  0.62495621  1
  La3+  La31  1  0.35842824  0.33234915  0.87750926  1
  La3+  La32  1  0.35909356  0.66591736  0.12251943  1
  La3+  La33  1  0.36239845  0.66514729  0.37612387  1
  La3+  La34  1  0.36083431  0.66354090  0.62284739  1
  La3+  La35  1  0.35815704  0.66651949  0.87662157  1
  La3+  La36  1  0.86154843  0.00005145  0.12267261  1
  La3+  La37  1  0.85783165  0.00136128  0.37738068  1
  La3+  La38  1  0.85940108  0.00182711  0.62672094  1
  La3+  La39  1  0.85686931  0.00160645  0.87318687  1
  La3+  La40  1  0.86347726  0.33069489  0.12004082  1
  La3+  La41  1  0.86191726  0.33321369  0.37944475  1
  La3+  La42  1  0.86018983  0.33324170  0.62146643  1
  La3+  La43  1  0.86008258  0.33239037  0.87961254  1
  La3+  La44  1  0.85983720  0.66666454  0.11998209  1
  La3+  La45  1  0.86119092  0.66648661  0.37782025  1
  La3+  La46  1  0.86257170  0.66626409  0.62423546  1
  La3+  La47  1  0.85992556  0.66714773  0.87793070  1
  La3+  La48  1  0.49773062  0.17072102  0.11430688  1
  La3+  La49  1  0.00268538  0.83747682  0.37228426  1
  La3+  La50  1  0.00037587  0.16771111  0.88459413  1
  La3+  La51  1  0.49911700  0.83372677  0.13430193  1
  La3+  La52  1  -0.00131754  0.49210022  0.11785786  1
  La3+  La53  1  0.00025279  0.83390341  0.11866011  1
  La3+  La54  1  0.00137827  0.83712278  0.38919862  1
  La3+  La55  1  0.49595344  0.50498944  0.37373491  1
  La3+  La56  1  -0.00068522  0.50006133  0.61755737  1
  La3+  La57  1  0.50179236  0.16996035  0.62925551  1
  La3+  La58  1  -0.00294637  0.17175965  0.13084338  1
  La3+  La59  1  0.50158907  0.50073087  0.86666225  1
  La3+  La60  1  0.00307957  0.49864495  0.38905364  1
  La3+  La61  1  0.49984667  0.16462475  0.13569899  1
  La3+  La62  1  0.49915392  0.49552759  0.11406391  1
  La3+  La63  1  -0.00282945  0.49858035  0.87108840  1
  La3+  La64  1  0.50296595  0.83324856  0.87341006  1
  La3+  La65  1  -0.00289928  0.49451575  0.36899489  1
  La3+  La66  1  -0.00192846  0.83937523  0.87014392  1
  La3+  La67  1  0.49965913  0.50338530  0.13490036  1
  La3+  La68  1  0.49987204  0.83309709  0.36595189  1
  La3+  La69  1  0.50063033  0.83248606  0.38831777  1
  La3+  La70  1  0.00091183  0.16779806  0.38604645  1
  La3+  La71  1  -0.00183222  0.17272589  0.11384040  1
  La3+  La72  1  0.75021199  0.11948928  0.20742185  1
  La3+  La73  1  0.74953129  0.87629996  0.28818547  1
  La3+  La74  1  0.75029869  0.87112137  0.49912772  1
  La3+  La75  1  0.24972329  0.83274222  0.53372088  1
  La3+  La76  1  0.24981551  0.16682926  0.71380002  1
  La3+  La77  1  0.75008319  0.16577976  0.53656046  1
  La3+  La78  1  0.75016609  0.50122329  0.78945283  1
  La3+  La79  1  0.75007845  0.49987176  0.26292457  1
  La3+  La80  1  0.25008417  0.49855150  0.47111277  1
  La3+  La81  1  0.25035726  0.88645784  0.23374398  1
  La3+  La82  1  0.74963895  0.83772196  0.71935946  1
  La3+  La83  1  0.24978281  0.79368609  0.00399535  1
  Ru4+  Ru84  1  0.00154722  -0.00115384  -0.00097420  1
  Ru4+  Ru85  1  0.00094035  -0.00118598  0.24746067  1
  Ru4+  Ru86  1  -0.00428530  0.00291651  0.50030769  1
  Ru4+  Ru87  1  0.00062373  0.00270862  0.75021304  1
  Ru4+  Ru88  1  0.00401612  0.33857646  -0.00308375  1
  Ru4+  Ru89  1  -0.00056098  0.33049346  0.24787778  1
  Ru4+  Ru90  1  -0.00057448  0.33113753  0.49928839  1
  Ru4+  Ru91  1  -0.00279992  0.32662637  0.75151993  1
  Ru4+  Ru92  1  -0.00023945  0.66774810  0.00136469  1
  Ru4+  Ru93  1  -0.00053723  0.66844926  0.24511115  1
  Ru4+  Ru94  1  0.00092562  0.66837741  0.50044880  1
  Ru4+  Ru95  1  -0.00455964  0.66905499  0.75188321  1
  Ru4+  Ru96  1  0.49561233  -0.00350611  -0.00249079  1
  Ru4+  Ru97  1  0.49934114  -0.00074028  0.25246229  1
  Ru4+  Ru98  1  0.50032131  0.00322365  0.49734341  1
  Ru4+  Ru99  1  0.50444904  -0.00311028  0.75540566  1
  Ru4+  Ru100  1  0.50026457  0.33501231  -0.00031354  1
  Ru4+  Ru101  1  0.50277205  0.32702708  0.25023579  1
  Ru4+  Ru102  1  0.49834230  0.33154828  0.50317581  1
  Ru4+  Ru103  1  0.50104934  0.33604144  0.74556645  1
  Ru4+  Ru104  1  0.49967272  0.66621590  -0.00124254  1
  Ru4+  Ru105  1  0.49868956  0.66781492  0.25209410  1
  Ru4+  Ru106  1  0.49858115  0.66304884  0.50391348  1
  Ru4+  Ru107  1  0.50103459  0.66675218  0.74949260  1
  Ru4+  Ru108  1  0.11221056  0.16677329  -0.00074640  1
  Ru4+  Ru109  1  0.11444763  0.16880074  0.25125882  1
  Ru4+  Ru110  1  0.11310250  0.16628677  0.49977035  1
  Ru4+  Ru111  1  0.10989572  0.16609441  0.75082184  1
  Ru4+  Ru112  1  0.11500003  0.50142582  -0.00073882  1
  Ru4+  Ru113  1  0.11622584  0.49979460  0.24786760  1
  Ru4+  Ru114  1  0.11241428  0.49939725  0.50188695  1
  Ru4+  Ru115  1  0.11845622  0.49985067  0.74955961  1
  Ru4+  Ru116  1  0.11162564  0.83132957  0.00029916  1
  Ru4+  Ru117  1  0.11055022  0.83490545  0.24924932  1
  Ru4+  Ru118  1  0.11383548  0.82953033  0.50009216  1
  Ru4+  Ru119  1  0.11509579  0.83712988  0.74945665  1
  Ru4+  Ru120  1  0.61691799  0.16876178  -0.00096898  1
  Ru4+  Ru121  1  0.61202504  0.16507487  0.25057011  1
  Ru4+  Ru122  1  0.61156757  0.16741417  0.50035004  1
  Ru4+  Ru123  1  0.61418009  0.16550019  0.74938897  1
  Ru4+  Ru124  1  0.61504545  0.49937544  -0.00084235  1
  Ru4+  Ru125  1  0.61194198  0.50096021  0.24892264  1
  Ru4+  Ru126  1  0.61364605  0.50094168  0.50017584  1
  Ru4+  Ru127  1  0.61086192  0.49996973  0.74992286  1
  Ru4+  Ru128  1  0.61435967  0.83175021  0.00071900  1
  Ru4+  Ru129  1  0.60938004  0.83365166  0.25119801  1
  Ru4+  Ru130  1  0.61059873  0.83392784  0.49887643  1
  Ru4+  Ru131  1  0.61061591  0.83290457  0.74913728  1
  Ru4+  Ru132  1  0.38670338  0.16689889  0.00088015  1
  Ru4+  Ru133  1  0.38572646  0.16743294  0.25123192  1
  Ru4+  Ru134  1  0.38829722  0.16452955  0.49920093  1
  Ru4+  Ru135  1  0.38721585  0.16871265  0.74950395  1
  Ru4+  Ru136  1  0.38575376  0.50111654  -0.00067972  1
  Ru4+  Ru137  1  0.38403323  0.50418532  0.25044174  1
  Ru4+  Ru138  1  0.39006751  0.50078983  0.49976137  1
  Ru4+  Ru139  1  0.38699258  0.49916646  0.74975340  1
  Ru4+  Ru140  1  0.38874396  0.83167832  0.00012465  1
  Ru4+  Ru141  1  0.39070695  0.83390635  0.25016849  1
  Ru4+  Ru142  1  0.38889888  0.83338762  0.49959815  1
  Ru4+  Ru143  1  0.38542201  0.83408973  0.74816597  1
  Ru4+  Ru144  1  0.88153394  0.16425479  -0.00035319  1
  Ru4+  Ru145  1  0.88887857  0.16553970  0.24984167  1
  Ru4+  Ru146  1  0.88810681  0.16834515  0.50063820  1
  Ru4+  Ru147  1  0.88685647  0.16258902  0.74945343  1
  Ru4+  Ru148  1  0.88518816  0.50031753  -0.00011073  1
  Ru4+  Ru149  1  0.88821129  0.50123524  0.24935402  1
  Ru4+  Ru150  1  0.88373260  0.49848979  0.50069817  1
  Ru4+  Ru151  1  0.88842028  0.49952688  0.74895077  1
  Ru4+  Ru152  1  0.88562633  0.83264666  0.00022264  1
  Ru4+  Ru153  1  0.88799049  0.83259797  0.24911898  1
  Ru4+  Ru154  1  0.88959603  0.83381896  0.49919623  1
  Ru4+  Ru155  1  0.88751134  0.83292256  0.74954672  1
  Ru4+  Ru156  1  0.25019211  0.70308151  0.50581567  1
  Ru4+  Ru157  1  0.25000787  0.94246989  -0.00346497  1
  Ru4+  Ru158  1  0.24999675  0.72361605  0.24390095  1
  Ru4+  Ru159  1  0.24980787  0.04360875  0.77466698  1
  Ru4+  Ru160  1  0.24995307  0.42027250  0.00535636  1
  Ru4+  Ru161  1  0.75012410  0.73157715  0.51404180  1
  Ru4+  Ru162  1  0.24992242  0.24575743  -0.00093371  1
  Ru4+  Ru163  1  0.25042457  0.95526744  0.47716077  1
  Ru4+  Ru164  1  0.75007649  0.62083492  0.21839538  1
  Ru4+  Ru165  1  0.24993867  0.75219180  0.75608095  1
  Ru4+  Ru166  1  0.75020379  0.25129065  0.24254849  1
  Ru4+  Ru167  1  0.74988607  0.37834376  0.22378890  1
  Ru4+  Ru168  1  0.75004244  0.24134463  0.74778355  1
  Ru4+  Ru169  1  0.25043729  0.58485447  0.75504617  1
  Ru4+  Ru170  1  0.24980865  0.08962192  0.00065736  1
  Ru4+  Ru171  1  0.25016589  0.29893853  0.74476371  1
  Ru4+  Ru172  1  0.75012880  0.92182180  -0.00665875  1
  Ru4+  Ru173  1  0.24994068  0.09599146  0.24820737  1
  Ru4+  Ru174  1  0.74964855  0.74906948  0.23521908  1
  Ru4+  Ru175  1  0.25034584  0.41928969  0.24813978  1
  Ru4+  Ru176  1  0.75007452  0.37999705  0.72053011  1
  Ru4+  Ru177  1  0.24986239  0.58234279  0.24348281  1
  Ru4+  Ru178  1  0.25004908  0.24744255  0.49668229  1
  Ru4+  Ru179  1  0.74986509  0.62234249  0.72792848  1
  O2-  O180  1  0.17007169  0.08104965  0.00025591  1
  O2-  O181  1  0.16831994  0.08035946  0.24894533  1
  O2-  O182  1  0.16657845  0.08188865  0.50078541  1
  O2-  O183  1  0.16651296  0.07970920  0.74979965  1
  O2-  O184  1  0.16730438  0.41398383  -0.00084236  1
  O2-  O185  1  0.16804926  0.41512372  0.24912236  1
  O2-  O186  1  0.16862064  0.41315849  0.50073863  1
  O2-  O187  1  0.16674368  0.41363761  0.75014785  1
  O2-  O188  1  0.16272666  0.74668108  -0.00074616  1
  O2-  O189  1  0.16725548  0.74602254  0.25093906  1
  O2-  O190  1  0.16647511  0.74411409  0.49897823  1
  O2-  O191  1  0.16980021  0.74908499  0.75119735  1
  O2-  O192  1  0.66666049  0.08053242  0.00067820  1
  O2-  O193  1  0.66609153  0.07923388  0.25081903  1
  O2-  O194  1  0.66560273  0.08176637  0.50056829  1
  O2-  O195  1  0.66448939  0.08298642  0.74931915  1
  O2-  O196  1  0.66703792  0.41493508  0.00217315  1
  O2-  O197  1  0.66576587  0.41218158  0.25191829  1
  O2-  O198  1  0.66417943  0.41642771  0.49877213  1
  O2-  O199  1  0.66637395  0.41154161  0.74977248  1
  O2-  O200  1  0.66645424  0.75002426  0.00081057  1
  O2-  O201  1  0.66630405  0.74578816  0.25059461  1
  O2-  O202  1  0.66640206  0.74594106  0.50152250  1
  O2-  O203  1  0.66916735  0.74786525  0.74682910  1
  O2-  O204  1  0.32991093  0.25259093  0.00036995  1
  O2-  O205  1  0.33342246  0.25220219  0.24982759  1
  O2-  O206  1  0.33277405  0.25195521  0.50080689  1
  O2-  O207  1  0.33371620  0.25373103  0.74904620  1
  O2-  O208  1  0.33510336  0.58442774  -0.00030191  1
  O2-  O209  1  0.33239033  0.58644306  0.25019934  1
  O2-  O210  1  0.33235667  0.58566589  0.49955503  1
  O2-  O211  1  0.33312379  0.58549716  0.75101665  1
  O2-  O212  1  0.33267178  0.92173004  -0.00025247  1
  O2-  O213  1  0.33685038  0.92217218  0.25096123  1
  O2-  O214  1  0.33274533  0.92083815  0.49837772  1
  O2-  O215  1  0.33198626  0.91738765  0.75304925  1
  O2-  O216  1  0.83370553  0.25142082  -0.00039650  1
  O2-  O217  1  0.83273253  0.25395849  0.24947346  1
  O2-  O218  1  0.83292777  0.25104116  0.49914978  1
  O2-  O219  1  0.83444093  0.25266280  0.75080932  1
  O2-  O220  1  0.83474542  0.58409947  -0.00011146  1
  O2-  O221  1  0.83348842  0.58746305  0.24953749  1
  O2-  O222  1  0.83374761  0.58579395  0.50104668  1
  O2-  O223  1  0.83436469  0.58783497  0.74990983  1
  O2-  O224  1  0.83199031  0.91977676  0.00025222  1
  O2-  O225  1  0.83423350  0.92072209  0.24912008  1
  O2-  O226  1  0.83539848  0.91994965  0.49986235  1
  O2-  O227  1  0.83228949  0.91814226  0.74858873  1
  O2-  O228  1  0.16819021  0.25268137  -0.00014621  1
  O2-  O229  1  0.16508528  0.25182600  0.24934789  1
  O2-  O230  1  0.16850072  0.25108270  0.50144727  1
  O2-  O231  1  0.16636192  0.25439786  0.74988018  1
  O2-  O232  1  0.16634640  0.58298179  0.00011804  1
  O2-  O233  1  0.16870966  0.58601326  0.25134804  1
  O2-  O234  1  0.16684208  0.58600337  0.49888289  1
  O2-  O235  1  0.16893246  0.58505536  0.75165386  1
  O2-  O236  1  0.16758245  0.92128893  0.00042734  1
  O2-  O237  1  0.16479657  0.92138963  0.25181050  1
  O2-  O238  1  0.16778202  0.92106264  0.50076529  1
  O2-  O239  1  0.16791879  0.91837086  0.74953707  1
  O2-  O240  1  0.66507168  0.25165950  0.00002616  1
  O2-  O241  1  0.66556798  0.25362763  0.25060697  1
  O2-  O242  1  0.66587722  0.25187254  0.49946221  1
  O2-  O243  1  0.66723572  0.25267932  0.75011375  1
  O2-  O244  1  0.66458335  0.58379500  0.00162375  1
  O2-  O245  1  0.66563051  0.58749149  0.25101582  1
  O2-  O246  1  0.66629572  0.58546120  0.50062086  1
  O2-  O247  1  0.66616891  0.58721334  0.74770354  1
  O2-  O248  1  0.66723470  0.91942725  -0.00006468  1
  O2-  O249  1  0.66653916  0.92212227  0.24892948  1
  O2-  O250  1  0.66611887  0.91967661  0.50089584  1
  O2-  O251  1  0.66650087  0.91808266  0.74885254  1
  O2-  O252  1  0.33237087  0.08105378  -0.00092913  1
  O2-  O253  1  0.33267155  0.08050153  0.24974322  1
  O2-  O254  1  0.33184866  0.08353852  0.49911440  1
  O2-  O255  1  0.33054045  0.07926291  0.75329124  1
  O2-  O256  1  0.33213448  0.41360774  -0.00055493  1
  O2-  O257  1  0.33231528  0.41408494  0.24968808  1
  O2-  O258  1  0.33313078  0.41364388  0.50046117  1
  O2-  O259  1  0.33196585  0.41583790  0.74792792  1
  O2-  O260  1  0.33740947  0.74643057  -0.00017068  1
  O2-  O261  1  0.33214108  0.74518603  0.24998636  1
  O2-  O262  1  0.33325052  0.74546338  0.50036501  1
  O2-  O263  1  0.33090248  0.74963254  0.75210640  1
  O2-  O264  1  0.83406537  0.08021261  0.00064495  1
  O2-  O265  1  0.83558878  0.07816255  0.25113280  1
  O2-  O266  1  0.83476011  0.08160227  0.49984957  1
  O2-  O267  1  0.83307120  0.08303350  0.75038476  1
  O2-  O268  1  0.83473974  0.41494303  0.00136956  1
  O2-  O269  1  0.83526733  0.41234577  0.24970164  1
  O2-  O270  1  0.83311767  0.41637487  0.49996282  1
  O2-  O271  1  0.83289643  0.41170409  0.75074696  1
  O2-  O272  1  0.83513503  0.74937706  -0.00061271  1
  O2-  O273  1  0.83249188  0.74735219  0.25080849  1
  O2-  O274  1  0.83296015  0.74600654  0.50142701  1
  O2-  O275  1  0.83298911  0.74784200  0.74877411  1
  O2-  O276  1  0.04643261  0.89885771  0.00916283  1
  O2-  O277  1  0.46102906  0.76837190  0.76849688  1
  O2-  O278  1  0.95379145  0.09624561  0.01265753  1
  O2-  O279  1  0.54124612  0.44264840  0.28532672  1
  O2-  O280  1  0.04512399  0.23430330  0.76377035  1
  O2-  O281  1  0.54494126  0.10046222  0.98142238  1
  O2-  O282  1  0.46722987  0.11596410  0.74821904  1
  O2-  O283  1  0.95394830  0.90628979  0.26269461  1
  O2-  O284  1  0.54782498  0.09596710  0.02003784  1
  O2-  O285  1  0.55431491  0.75098370  0.05005407  1
  O2-  O286  1  0.03166132  0.78684237  0.74401422  1
  O2-  O287  1  0.04672822  0.10117789  0.48675516  1
  O2-  O288  1  0.94977615  0.42795805  0.26049841  1
  O2-  O289  1  0.54797273  0.56843238  0.51538305  1
  O2-  O290  1  0.55389198  0.42914996  0.76474744  1
  O2-  O291  1  0.05266861  0.91280572  0.53330355  1
  O2-  O292  1  0.54846896  0.23579042  0.51469436  1
  O2-  O293  1  0.46372497  0.11096554  0.78628056  1
  O2-  O294  1  0.45500444  0.56928973  0.98541795  1
  O2-  O295  1  0.55112697  0.90207613  0.76258116  1
  O2-  O296  1  0.46417599  0.89538545  0.74183020  1
  O2-  O297  1  0.05162506  0.42426444  0.23309049  1
  O2-  O298  1  0.45825617  0.43938971  0.73713434  1
  O2-  O299  1  0.03271129  0.55629803  0.75268177  1
  O2-  O300  1  0.54541263  0.23519314  0.26664716  1
  O2-  O301  1  0.95341429  0.57084991  0.49007834  1
  O2-  O302  1  0.45537258  0.90033157  0.01259848  1
  O2-  O303  1  0.95183319  0.56676103  0.98544193  1
  O2-  O304  1  0.04671271  0.42888120  0.72789115  1
  O2-  O305  1  0.45310005  0.57662027  0.76605399  1
  O2-  O306  1  0.46383184  0.44752459  0.73730083  1
  O2-  O307  1  0.95884492  0.89063874  0.72462339  1
  O2-  O308  1  0.95538296  0.76382906  0.01219300  1
  O2-  O309  1  0.03726145  0.77445563  0.77933434  1
  O2-  O310  1  0.45050813  0.56894584  0.48566455  1
  O2-  O311  1  0.45584231  0.42691911  0.48323454  1
  O2-  O312  1  0.04232093  0.55593866  0.02786280  1
  O2-  O313  1  0.95968337  0.55833613  0.21038502  1
  O2-  O314  1  0.04702485  0.42672308  0.76696470  1
  O2-  O315  1  0.45058021  0.23339135  0.51344396  1
  O2-  O316  1  0.96207019  0.77212052  0.28244126  1
  O2-  O317  1  0.04348703  0.56384196  0.28042296  1
  O2-  O318  1  0.46474587  0.77248876  0.75305148  1
  O2-  O319  1  0.05476656  0.09080279  0.20387776  1
  O2-  O320  1  0.04154196  0.56548723  0.76242065  1
  O2-  O321  1  0.04574533  0.76173848  0.48527122  1
  O2-  O322  1  0.45119861  0.43121497  0.23458806  1
  O2-  O323  1  0.95512398  0.23581897  0.01312247  1
  O2-  O324  1  0.56713773  0.73748689  0.77605613  1
  O2-  O325  1  0.08244987  0.60815234  0.70706700  1
  O2-  O326  1  0.92703370  0.72338168  0.19252086  1
  O2-  O327  1  0.43287765  0.92244370  0.55398563  1
  O2-  O328  1  0.42147250  0.93723433  0.71273610  1
  O2-  O329  1  0.43593493  0.26484379  0.03164575  1
  O2-  O330  1  0.06589880  0.92683388  0.77915473  1
  O2-  O331  1  0.56451593  0.92642070  0.47181085  1
  O2-  O332  1  0.93519089  0.93128968  0.03388365  1
  O2-  O333  1  0.43657084  0.07056407  0.46909042  1
  O2-  O334  1  0.07319165  0.92698216  0.44863420  1
  O2-  O335  1  0.93460907  0.25902546  0.22258389  1
  O2-  O336  1  0.92769439  0.61061770  0.30789761  1
  O2-  O337  1  0.43724888  0.40669269  0.21579620  1
  O2-  O338  1  0.57395565  0.73262135  0.92989823  1
  O2-  O339  1  0.93181774  0.93549815  0.79662789  1
  O2-  O340  1  0.06448196  0.40430818  0.43509818  1
  O2-  O341  1  0.06074628  0.41160501  0.22582928  1
  O2-  O342  1  0.57191778  0.38633374  0.19274545  1
  O2-  O343  1  0.56244991  0.26421444  0.71728309  1
  O2-  O344  1  0.54668168  0.76228404  0.04365478  1
  O2-  O345  1  0.07658464  0.06728492  0.32262791  1
  O2-  O346  1  0.04843293  0.09823047  0.21190656  1
  O2-  O347  1  0.06984008  0.61098018  0.94560830  1
  O2-  O348  1  0.93759446  0.40270555  0.71700316  1
  O2-  O349  1  0.41311465  0.05474697  0.69663416  1
  O2-  O350  1  0.43556763  0.74157480  0.47188940  1
  O2-  O351  1  0.43592665  0.92648701  0.43707486  1
  O2-  O352  1  0.42043399  0.37145961  0.80544403  1
  O2-  O353  1  0.06602767  0.07418021  0.97172992  1
  O2-  O354  1  0.41453254  0.71343996  0.70127867  1
  O2-  O355  1  0.08713106  0.71921405  0.69749828  1
  O2-  O356  1  0.43553893  0.06990240  0.28059076  1
  O2-  O357  1  0.93758652  0.25415273  0.03293358  1
  O2-  O358  1  0.06342858  0.26141700  0.46703741  1
  O2-  O359  1  0.93743448  0.26314564  0.53239418  1
  O2-  O360  1  0.56443241  0.59724945  0.21569899  1
  O2-  O361  1  0.56292739  0.40188106  0.96732174  1
  O2-  O362  1  0.93549859  0.40646796  0.47323968  1
  O2-  O363  1  0.56688835  0.92544787  0.95457115  1
  O2-  O364  1  0.56440441  0.06841470  0.21652566  1
  O2-  O365  1  0.07429116  0.60561924  0.20325973  1
  O2-  O366  1  0.06569915  0.92613381  0.22187982  1
  O2-  O367  1  0.06269594  0.40303589  0.56591840  1
  O2-  O368  1  0.05254090  0.91281859  0.53330607  1
  O2-  O369  1  0.43684773  0.26184210  0.21806444  1
  O2-  O370  1  0.56540824  0.92915232  0.05200896  1
  O2-  O371  1  0.93523694  0.07405201  0.72307827  1
  O2-  O372  1  0.75034928  0.67791772  0.83454237  1
  O2-  O373  1  0.74974933  0.33375524  0.43158478  1
  O2-  O374  1  0.25011661  0.33621141  0.42067484  1
  O2-  O375  1  0.74966406  0.32952849  0.34240261  1
  O2-  O376  1  0.24976649  0.01557954  0.58122770  1
  O2-  O377  1  0.75038832  -0.00652090  0.40199200  1
  O2-  O378  1  0.24979487  0.66164201  0.39594401  1
  O2-  O379  1  0.75002483  0.33377974  0.92635281  1
  O2-  O380  1  0.75020057  0.66476386  0.92311468  1
  O2-  O381  1  0.75042493  -0.00475666  0.85220014  1
  O2-  O382  1  0.25014590  0.66863923  0.10683022  1
  O2-  O383  1  0.75000998  0.65382164  0.42810787  1
  O2-  O384  1  0.75000488  0.66549709  0.10158360  1
  O2-  O385  1  0.75008834  -0.00269966  0.67001325  1
  O2-  O386  1  0.75000935  -0.00109804  0.57909755  1
  O2-  O387  1  0.24972569  -0.01421254  0.66735101  1
  O2-  O388  1  0.24981969  0.66835448  0.65664046  1
  O2-  O389  1  0.25001124  0.33924441  0.85579800  1
  O2-  O390  1  0.25013707  0.66645584  0.89360039  1
  O2-  O391  1  0.25003799  0.33118648  0.33025940  1
  O2-  O392  1  0.74987279  0.33107752  0.60312372  1
  O2-  O393  1  0.74991912  0.67325754  0.33778714  1
  O2-  O394  1  0.24996787  0.00125952  0.15479930  1
  O2-  O395  1  0.75020153  0.32603507  0.83607867  1
  O2-  O396  1  0.75003477  0.82854673  0.93248074  1
  O2-  O397  1  0.25009790  0.84303324  0.40834468  1
  O2-  O398  1  0.25019433  0.83043447  0.65662027  1
  O2-  O399  1  0.24997211  0.49328678  0.08863744  1
  O2-  O400  1  0.75004242  0.16686094  0.41407702  1
  O2-  O401  1  0.74997238  0.17045069  0.09171871  1
  O2-  O402  1  0.74997116  0.82962652  0.06674120  1
  O2-  O403  1  0.75001352  0.16663997  0.66640635  1
  O2-  O404  1  0.74999363  0.50238719  0.64342680  1
  O2-  O405  1  0.74998336  0.17128729  0.33093092  1
  O2-  O406  1  0.24998298  0.50135910  0.33535601  1
  O2-  O407  1  0.25006716  0.16302336  0.16001630  1
  O2-  O408  1  0.24993223  0.16333822  0.86446324  1
  O2-  O409  1  0.75002755  0.16903500  0.91615104  1
  O2-  O410  1  0.25009120  0.81035264  0.33238896  1
  O2-  O411  1  0.24991109  0.82488456  0.12828936  1
  O2-  O412  1  0.74996268  0.16288436  0.83322912  1
  O2-  O413  1  0.24997386  0.50211018  0.59981975  1
  O2-  O414  1  0.25002172  0.83895036  0.87862878  1
  O2-  O415  1  0.24989635  0.49637387  0.68608358  1
  O2-  O416  1  0.75006730  0.83304105  0.15395960  1
  O2-  O417  1  0.75007033  0.83435286  0.84752261  1
  O2-  O418  1  0.25000943  0.16143565  0.33919270  1
  O2-  O419  1  0.75001934  0.50006590  0.91081870  1
  O2-  O420  1  0.95957315  0.66588968  0.62648312  1
  O2-  O421  1  0.47679423  0.66327183  0.61857147  1
  O2-  O422  1  0.52412805  0.00326947  0.87021868  1
  O2-  O423  1  0.53442205  0.00117423  0.62371221  1
  O2-  O424  1  0.02582574  0.67446464  0.11834326  1
  O2-  O425  1  0.47209294  0.33075109  0.62486829  1
  O2-  O426  1  0.97034863  -0.00180653  0.61994019  1
  O2-  O427  1  0.97437840  0.32736727  0.37039541  1
  O2-  O428  1  0.97167980  0.66721734  0.87221993  1
  O2-  O429  1  0.52197394  0.65523618  0.87245713  1
  O2-  O430  1  0.96527045  0.34421562  0.12672961  1
  O2-  O431  1  0.52648880  0.00183399  0.37129812  1
  O2-  O432  1  0.01598977  -0.00304103  0.37498975  1
  O2-  O433  1  0.54245073  0.66806065  0.37559498  1
  O2-  O434  1  0.47121149  0.66622877  0.12585802  1
  O2-  O435  1  0.02730611  0.33386722  0.87997580  1
  O2-  O436  1  0.02962528  0.00698801  0.63316309  1
  O2-  O437  1  0.47664469  0.00702447  0.62262452  1
  O2-  O438  1  0.47133885  0.00165381  0.12495774  1
  O2-  O439  1  0.03350372  0.66459396  0.61192499  1
  O2-  O440  1  0.02167016  -0.00259363  0.11643847  1
  O2-  O441  1  0.02196380  0.00137405  0.87375993  1
  O2-  O442  1  0.03817530  0.32581415  0.11705278  1
  O2-  O443  1  0.46066877  0.66495453  0.36613561  1
