# generated using pymatgen
data_La7(Ru4O11)2
_symmetry_space_group_name_H-M   'P 1'
_cell_length_a   23.99166669
_cell_length_b   16.83243493
_cell_length_c   15.42851744
_cell_angle_alpha   89.99713916
_cell_angle_beta   89.99908756
_cell_angle_gamma   90.00143119
_symmetry_Int_Tables_number   1
_chemical_formula_structural   La7(Ru4O11)2
_chemical_formula_sum   'La84 Ru96 O264'
_cell_volume   6230.62421344
_cell_formula_units_Z   12
loop_
 _symmetry_equiv_pos_site_id
 _symmetry_equiv_pos_as_xyz
  1  'x, y, z'
loop_
 _atom_type_symbol
 _atom_type_oxidation_number
  La3+  3.0
  Ru4+  4.0
  O2-  -2.0
loop_
 _atom_site_type_symbol
 _atom_site_label
 _atom_site_symmetry_multiplicity
 _atom_site_fract_x
 _atom_site_fract_y
 _atom_site_fract_z
 _atom_site_occupancy
  La3+  La0  1  0.13875533  0.00040887  0.12905415  1
  La3+  La1  1  0.13701156  -0.00149703  0.37774844  1
  La3+  La2  1  0.14063890  -0.00411118  0.61874116  1
  La3+  La3  1  0.14011580  0.00013236  0.87463012  1
  La3+  La4  1  0.13714523  0.33236476  0.12436060  1
  La3+  La5  1  0.14038388  0.33578430  0.37788471  1
  La3+  La6  1  0.14349831  0.33120062  0.61941680  1
  La3+  La7  1  0.13838219  0.33056869  0.87574232  1
  La3+  La8  1  0.13549721  0.67230091  0.13465052  1
  La3+  La9  1  0.13391939  0.67214480  0.37183416  1
  La3+  La10  1  0.14500345  0.66927980  0.62356427  1
  La3+  La11  1  0.13911325  0.66682414  0.87254188  1
  La3+  La12  1  0.63876765  -0.00225810  0.12497020  1
  La3+  La13  1  0.64045046  0.00542093  0.37256284  1
  La3+  La14  1  0.63708091  0.00057783  0.62264868  1
  La3+  La15  1  0.63628850  -0.00396044  0.87596244  1
  La3+  La16  1  0.64033128  0.33554600  0.12925610  1
  La3+  La17  1  0.64919152  0.33388397  0.37545895  1
  La3+  La18  1  0.63687614  0.33722205  0.61931429  1
  La3+  La19  1  0.63412165  0.33998172  0.87420024  1
  La3+  La20  1  0.64201856  0.66642610  0.12677779  1
  La3+  La21  1  0.64055473  0.66097252  0.37426874  1
  La3+  La22  1  0.63871516  0.66185726  0.62621047  1
  La3+  La23  1  0.63909890  0.66440747  0.87435396  1
  La3+  La24  1  0.36560658  0.00023206  0.12924826  1
  La3+  La25  1  0.36191510  -0.00004387  0.37254235  1
  La3+  La26  1  0.36176807  -0.00028169  0.62486111  1
  La3+  La27  1  0.35990720  -0.00022472  0.87443198  1
  La3+  La28  1  0.36209377  0.33596548  0.12583281  1
  La3+  La29  1  0.36113522  0.33776569  0.37858219  1
  La3+  La30  1  0.36138151  0.33678415  0.62135280  1
  La3+  La31  1  0.36420057  0.33351846  0.87557599  1
  La3+  La32  1  0.36622189  0.66949034  0.13005771  1
  La3+  La33  1  0.36408425  0.66775096  0.37472024  1
  La3+  La34  1  0.35516458  0.66945920  0.62502205  1
  La3+  La35  1  0.35972531  0.66814461  0.87182252  1
  La3+  La36  1  0.86036183  -0.00243855  0.12418128  1
  La3+  La37  1  0.85786281  0.00474350  0.36941049  1
  La3+  La38  1  0.86382690  0.00213547  0.62119274  1
  La3+  La39  1  0.86502702  -0.00117929  0.87719798  1
  La3+  La40  1  0.85801628  0.33549839  0.13008524  1
  La3+  La41  1  0.85030320  0.33277440  0.37358857  1
  La3+  La42  1  0.85917573  0.33632534  0.61903002  1
  La3+  La43  1  0.86754003  0.33528560  0.87597572  1
  La3+  La44  1  0.85853259  0.66742817  0.12227780  1
  La3+  La45  1  0.86167320  0.66350284  0.37686931  1
  La3+  La46  1  0.86203732  0.66262377  0.62550444  1
  La3+  La47  1  0.86308100  0.66624890  0.87301063  1
  La3+  La48  1  0.49957545  0.16824008  0.13760734  1
  La3+  La49  1  0.49976533  0.16418637  0.87564489  1
  La3+  La50  1  0.00003260  0.50312096  0.10594965  1
  La3+  La51  1  0.00424568  0.17576041  0.64711434  1
  La3+  La52  1  0.00369144  0.83170813  0.11715604  1
  La3+  La53  1  0.00612253  0.50633427  0.12614773  1
  La3+  La54  1  0.49818630  0.83005487  0.35618354  1
  La3+  La55  1  0.49650869  0.16474682  0.37758696  1
  La3+  La56  1  0.49435275  0.82217384  0.37600938  1
  La3+  La57  1  0.00437975  0.83166617  0.36982165  1
  La3+  La58  1  0.49756614  0.15941989  0.11745985  1
  La3+  La59  1  0.00621834  0.83850286  0.62458045  1
  La3+  La60  1  0.49974127  0.50240758  0.11766966  1
  La3+  La61  1  0.49852749  0.83108025  0.61799797  1
  La3+  La62  1  0.49738066  0.15787549  0.61591742  1
  La3+  La63  1  0.00758204  0.17256497  0.63098611  1
  La3+  La64  1  -0.00288076  0.82925971  0.13724201  1
  La3+  La65  1  0.49839755  0.50470082  0.62531773  1
  La3+  La66  1  0.49864427  0.82866229  0.11558432  1
  La3+  La67  1  -0.00463533  0.82611542  0.86298374  1
  La3+  La68  1  0.00274569  0.82986277  0.38639584  1
  La3+  La69  1  0.00306997  0.15823112  0.37979982  1
  La3+  La70  1  0.50062483  0.83304167  0.86536376  1
  La3+  La71  1  0.49219271  0.49359717  0.86948367  1
  La3+  La72  1  0.75089902  0.15964096  0.75901026  1
  La3+  La73  1  0.25020704  0.09824008  0.00830641  1
  La3+  La74  1  0.74871540  0.89452969  0.25405107  1
  La3+  La75  1  0.75115610  0.87598105  0.78159281  1
  La3+  La76  1  0.25013412  0.50036660  0.24349721  1
  La3+  La77  1  0.24952512  0.12048771  0.69849848  1
  La3+  La78  1  0.74835030  0.84828205  0.47090857  1
  La3+  La79  1  0.74989316  0.17235343  0.00509411  1
  La3+  La80  1  0.24981503  0.49893895  0.49029880  1
  La3+  La81  1  0.24847315  0.56110332  0.73390587  1
  La3+  La82  1  0.25117663  0.87347840  0.00089814  1
  La3+  La83  1  0.24922517  0.16710537  0.32618704  1
  Ru4+  Ru84  1  -0.00132840  0.00641609  -0.00930256  1
  Ru4+  Ru85  1  -0.00047140  0.00382564  0.25089597  1
  Ru4+  Ru86  1  -0.00062205  0.00758281  0.49831920  1
  Ru4+  Ru87  1  0.00537810  0.00968088  0.75690494  1
  Ru4+  Ru88  1  -0.00072383  0.33297156  -0.00385348  1
  Ru4+  Ru89  1  -0.00556242  0.33367516  0.24903726  1
  Ru4+  Ru90  1  0.00044219  0.33485093  0.50334120  1
  Ru4+  Ru91  1  0.00860222  0.34970193  0.75302949  1
  Ru4+  Ru92  1  0.00662103  0.65944176  -0.00932887  1
  Ru4+  Ru93  1  -0.00030131  0.66458235  0.25268085  1
  Ru4+  Ru94  1  0.00415718  0.65191294  0.49836428  1
  Ru4+  Ru95  1  -0.00222301  0.66174063  0.74806212  1
  Ru4+  Ru96  1  0.50090679  -0.00411179  -0.00426355  1
  Ru4+  Ru97  1  0.50599212  -0.00722225  0.24782848  1
  Ru4+  Ru98  1  0.49761782  0.00130088  0.50138720  1
  Ru4+  Ru99  1  0.49838842  0.00011640  0.75494705  1
  Ru4+  Ru100  1  0.49925953  0.33414144  0.00166879  1
  Ru4+  Ru101  1  0.49942150  0.33286003  0.24621516  1
  Ru4+  Ru102  1  0.50534206  0.33006796  0.50597244  1
  Ru4+  Ru103  1  0.49758111  0.32618028  0.75694502  1
  Ru4+  Ru104  1  0.50190074  0.66426564  -0.00475384  1
  Ru4+  Ru105  1  0.50420847  0.65725344  0.25402527  1
  Ru4+  Ru106  1  0.49973324  0.66277019  0.49738228  1
  Ru4+  Ru107  1  0.49864977  0.66771401  0.75498087  1
  Ru4+  Ru108  1  0.10923415  0.16995167  0.00218268  1
  Ru4+  Ru109  1  0.11081699  0.16911041  0.24995233  1
  Ru4+  Ru110  1  0.11539915  0.16367153  0.49873896  1
  Ru4+  Ru111  1  0.10777002  0.16296465  0.75053773  1
  Ru4+  Ru112  1  0.11073249  0.50329163  -0.00209971  1
  Ru4+  Ru113  1  0.11133705  0.50072187  0.25098756  1
  Ru4+  Ru114  1  0.10962600  0.50210542  0.49852410  1
  Ru4+  Ru115  1  0.10125340  0.48611627  0.75063187  1
  Ru4+  Ru116  1  0.11027994  0.83151894  -0.00067064  1
  Ru4+  Ru117  1  0.11376412  0.83096637  0.25287619  1
  Ru4+  Ru118  1  0.11737233  0.82661047  0.49891131  1
  Ru4+  Ru119  1  0.11321509  0.83118514  0.75140736  1
  Ru4+  Ru120  1  0.61006350  0.16224401  -0.00104829  1
  Ru4+  Ru121  1  0.61719298  0.16868501  0.25063846  1
  Ru4+  Ru122  1  0.61515684  0.16975595  0.50085030  1
  Ru4+  Ru123  1  0.60899548  0.16862999  0.75184224  1
  Ru4+  Ru124  1  0.61150334  0.50223245  0.00214546  1
  Ru4+  Ru125  1  0.61544211  0.50042040  0.24874622  1
  Ru4+  Ru126  1  0.61280422  0.49918687  0.49948453  1
  Ru4+  Ru127  1  0.61491890  0.50677203  0.74976239  1
  Ru4+  Ru128  1  0.61410810  0.83704886  0.00003729  1
  Ru4+  Ru129  1  0.60987306  0.83188535  0.24774134  1
  Ru4+  Ru130  1  0.60970249  0.82877433  0.50103456  1
  Ru4+  Ru131  1  0.61049110  0.83248931  0.74801298  1
  Ru4+  Ru132  1  0.39228899  0.16781294  -0.00101816  1
  Ru4+  Ru133  1  0.38435903  0.17421425  0.25076783  1
  Ru4+  Ru134  1  0.38697268  0.16200653  0.49879585  1
  Ru4+  Ru135  1  0.38943798  0.16490371  0.75085375  1
  Ru4+  Ru136  1  0.38721472  0.50090364  0.00154835  1
  Ru4+  Ru137  1  0.39178604  0.49948494  0.24905815  1
  Ru4+  Ru138  1  0.38560802  0.50373845  0.50084106  1
  Ru4+  Ru139  1  0.38939853  0.50086267  0.75201174  1
  Ru4+  Ru140  1  0.39204243  0.83346464  -0.00143133  1
  Ru4+  Ru141  1  0.38379151  0.83942475  0.24919727  1
  Ru4+  Ru142  1  0.38386655  0.83114594  0.50116705  1
  Ru4+  Ru143  1  0.38807969  0.83108024  0.75084976  1
  Ru4+  Ru144  1  0.89295160  0.16568633  -0.00097691  1
  Ru4+  Ru145  1  0.88448058  0.16872450  0.24743703  1
  Ru4+  Ru146  1  0.88584503  0.16406079  0.49954995  1
  Ru4+  Ru147  1  0.89254756  0.16636790  0.74780883  1
  Ru4+  Ru148  1  0.88818787  0.50060054  -0.00266012  1
  Ru4+  Ru149  1  0.88803862  0.50128373  0.25525222  1
  Ru4+  Ru150  1  0.88814554  0.50399401  0.49917424  1
  Ru4+  Ru151  1  0.88759865  0.50711145  0.75222317  1
  Ru4+  Ru152  1  0.88317511  0.83792293  -0.00261949  1
  Ru4+  Ru153  1  0.88480559  0.83434358  0.25204995  1
  Ru4+  Ru154  1  0.88582918  0.83841773  0.49531506  1
  Ru4+  Ru155  1  0.89007968  0.83291057  0.75182567  1
  Ru4+  Ru156  1  0.25125853  0.76646016  0.25057433  1
  Ru4+  Ru157  1  0.74995517  0.71984162  0.75129298  1
  Ru4+  Ru158  1  0.75006811  0.03057073  0.71448433  1
  Ru4+  Ru159  1  0.74962557  0.98790851  0.48358495  1
  Ru4+  Ru160  1  0.75031880  0.43635814  -0.00854032  1
  Ru4+  Ru161  1  0.25053942  0.73370753  0.00803166  1
  Ru4+  Ru162  1  0.75014777  0.43283050  0.75338511  1
  Ru4+  Ru163  1  0.24986124  0.58502477  0.01099165  1
  Ru4+  Ru164  1  0.25030984  0.91330608  0.74909221  1
  Ru4+  Ru165  1  0.25049458  0.26972628  -0.00230086  1
  Ru4+  Ru166  1  0.75013453  0.29642943  0.74398347  1
  Ru4+  Ru167  1  0.25003072  0.29428524  0.24335009  1
  Ru4+  Ru168  1  0.24968574  0.91335315  0.50032135  1
  Ru4+  Ru169  1  0.74971317  0.74857378  -0.00840764  1
  Ru4+  Ru170  1  0.74961017  0.30510865  -0.01491644  1
  Ru4+  Ru171  1  0.24975514  0.41099232  0.00839644  1
  Ru4+  Ru172  1  0.25006997  0.26624944  0.75409707  1
  Ru4+  Ru173  1  0.75025422  0.73272075  0.23640035  1
  Ru4+  Ru174  1  0.74834406  0.70995852  0.51408552  1
  Ru4+  Ru175  1  0.24960864  0.04525331  0.23783000  1
  Ru4+  Ru176  1  0.74995417  0.58461301  -0.00163799  1
  Ru4+  Ru177  1  0.25054569  0.25042904  0.49713120  1
  Ru4+  Ru178  1  0.25041720  0.40635385  0.75392289  1
  Ru4+  Ru179  1  0.74933517  0.03811140  0.01661523  1
  O2-  O180  1  0.15793939  0.07817619  -0.00103914  1
  O2-  O181  1  0.16908363  0.07890465  0.25343752  1
  O2-  O182  1  0.16888535  0.08062551  0.49829853  1
  O2-  O183  1  0.16437159  0.07942061  0.75418852  1
  O2-  O184  1  0.16446665  0.41528558  0.00130335  1
  O2-  O185  1  0.16778566  0.41408669  0.25147321  1
  O2-  O186  1  0.16846808  0.41584547  0.49912361  1
  O2-  O187  1  0.16962286  0.41512781  0.75216246  1
  O2-  O188  1  0.16720614  0.74782038  0.00024731  1
  O2-  O189  1  0.16892438  0.74777776  0.25445999  1
  O2-  O190  1  0.16966880  0.74710527  0.49559364  1
  O2-  O191  1  0.16366805  0.75015737  0.74953292  1
  O2-  O192  1  0.66589178  0.07835980  -0.00015601  1
  O2-  O193  1  0.66553011  0.08069410  0.24871746  1
  O2-  O194  1  0.66554176  0.07968438  0.50058089  1
  O2-  O195  1  0.66487299  0.08012705  0.74930816  1
  O2-  O196  1  0.66739816  0.41804044  -0.00056425  1
  O2-  O197  1  0.66275090  0.41569870  0.25000480  1
  O2-  O198  1  0.66687597  0.41528702  0.49835050  1
  O2-  O199  1  0.66674471  0.41469080  0.74967815  1
  O2-  O200  1  0.66554243  0.74710793  -0.00307418  1
  O2-  O201  1  0.66857359  0.74697039  0.25047421  1
  O2-  O202  1  0.66571601  0.74480067  0.50148917  1
  O2-  O203  1  0.66741642  0.74581598  0.74935649  1
  O2-  O204  1  0.33456096  0.25594928  -0.00160639  1
  O2-  O205  1  0.33102331  0.25770069  0.25309682  1
  O2-  O206  1  0.33393420  0.25470878  0.49903151  1
  O2-  O207  1  0.33425596  0.25448715  0.75096429  1
  O2-  O208  1  0.33423016  0.58573586  0.00027813  1
  O2-  O209  1  0.33201913  0.58664401  0.25117465  1
  O2-  O210  1  0.32969143  0.58525255  0.49449779  1
  O2-  O211  1  0.33932600  0.58761821  0.75328276  1
  O2-  O212  1  0.33717343  0.92296639  0.00241654  1
  O2-  O213  1  0.33428839  0.92294211  0.25200634  1
  O2-  O214  1  0.32908421  0.92001500  0.49697605  1
  O2-  O215  1  0.33320915  0.91896495  0.74915134  1
  O2-  O216  1  0.83282318  0.25411048  -0.00323529  1
  O2-  O217  1  0.83164861  0.24837401  0.24941325  1
  O2-  O218  1  0.83549727  0.24937125  0.50396615  1
  O2-  O219  1  0.83547681  0.25689790  0.75077370  1
  O2-  O220  1  0.83396753  0.58536154  -0.00122229  1
  O2-  O221  1  0.83493229  0.58248182  0.25183541  1
  O2-  O222  1  0.83605887  0.58493893  0.50026414  1
  O2-  O223  1  0.83325968  0.58432214  0.74714938  1
  O2-  O224  1  0.83420072  0.91765304  -0.00213121  1
  O2-  O225  1  0.83666532  0.92283063  0.24705918  1
  O2-  O226  1  0.83361949  0.92417365  0.50164485  1
  O2-  O227  1  0.84042082  0.92302279  0.74614314  1
  O2-  O228  1  0.16763309  0.25308858  0.00154691  1
  O2-  O229  1  0.16788344  0.25478599  0.24993584  1
  O2-  O230  1  0.16855027  0.25152565  0.49555469  1
  O2-  O231  1  0.16563580  0.25112842  0.75030605  1
  O2-  O232  1  0.16665250  0.58603782  -0.00011392  1
  O2-  O233  1  0.17126650  0.58786651  0.25503309  1
  O2-  O234  1  0.16621196  0.58351349  0.49671100  1
  O2-  O235  1  0.15316145  0.58304137  0.74986379  1
  O2-  O236  1  0.16717462  0.92068809  -0.00199761  1
  O2-  O237  1  0.16397666  0.92041871  0.24965330  1
  O2-  O238  1  0.16912603  0.91705396  0.49693877  1
  O2-  O239  1  0.16731572  0.91845437  0.75046489  1
  O2-  O240  1  0.66496369  0.25648664  -0.00095529  1
  O2-  O241  1  0.66805110  0.25112182  0.24880361  1
  O2-  O242  1  0.66793567  0.25081321  0.50103862  1
  O2-  O243  1  0.66810837  0.25512655  0.74850345  1
  O2-  O244  1  0.66983701  0.58484974  -0.00449779  1
  O2-  O245  1  0.66380102  0.58362532  0.25057493  1
  O2-  O246  1  0.66463073  0.58476244  0.50050209  1
  O2-  O247  1  0.66511612  0.58628134  0.74816597  1
  O2-  O248  1  0.66651316  0.91699051  -0.00122638  1
  O2-  O249  1  0.65794476  0.92330075  0.24882313  1
  O2-  O250  1  0.66478661  0.92450965  0.50033302  1
  O2-  O251  1  0.66337136  0.92211495  0.74573062  1
  O2-  O252  1  0.34174989  0.07621144  0.00145832  1
  O2-  O253  1  0.33051426  0.07752181  0.25347449  1
  O2-  O254  1  0.33468560  0.07986371  0.49703271  1
  O2-  O255  1  0.33422275  0.07975172  0.75189296  1
  O2-  O256  1  0.33340086  0.41290758  -0.00221783  1
  O2-  O257  1  0.33009055  0.41562922  0.25160996  1
  O2-  O258  1  0.33445073  0.41555508  0.49932479  1
  O2-  O259  1  0.33543321  0.41238545  0.75111838  1
  O2-  O260  1  0.33498817  0.74551858  0.00124588  1
  O2-  O261  1  0.33220146  0.74694237  0.25036668  1
  O2-  O262  1  0.33176354  0.74901555  0.49641119  1
  O2-  O263  1  0.33678736  0.75077059  0.75074291  1
  O2-  O264  1  0.83440643  0.07946457  -0.00150845  1
  O2-  O265  1  0.83078932  0.08533694  0.24814736  1
  O2-  O266  1  0.82923021  0.08210844  0.50406709  1
  O2-  O267  1  0.83495204  0.07801950  0.74953227  1
  O2-  O268  1  0.83359604  0.41470322  -0.00233316  1
  O2-  O269  1  0.83374059  0.41931153  0.24847962  1
  O2-  O270  1  0.83662260  0.41584797  0.50150586  1
  O2-  O271  1  0.83574687  0.41542949  0.74956427  1
  O2-  O272  1  0.83313759  0.74747097  -0.00335452  1
  O2-  O273  1  0.83352087  0.74537312  0.25044256  1
  O2-  O274  1  0.83191827  0.74271986  0.50203804  1
  O2-  O275  1  0.83201244  0.74434486  0.74809324  1
  O2-  O276  1  0.95369483  0.89773400  0.50590143  1
  O2-  O277  1  0.03947045  0.43499453  0.52500268  1
  O2-  O278  1  0.54006733  0.22740704  0.70211692  1
  O2-  O279  1  0.45008436  0.23835972  0.76854455  1
  O2-  O280  1  0.45628038  0.55909618  0.47008526  1
  O2-  O281  1  0.03951734  0.89033267  0.95516556  1
  O2-  O282  1  0.05249298  0.89952758  0.50769506  1
  O2-  O283  1  0.54526995  0.09895993  0.48900761  1
  O2-  O284  1  0.96310102  0.10805241  0.53941879  1
  O2-  O285  1  0.04541311  0.90231165  0.75853266  1
  O2-  O286  1  0.53449561  0.54764284  0.96620886  1
  O2-  O287  1  0.95101497  0.75929725  0.02061822  1
  O2-  O288  1  0.95235772  0.75936032  0.98155446  1
  O2-  O289  1  0.54562963  0.23320003  0.98941749  1
  O2-  O290  1  0.45445027  0.56566198  0.25822824  1
  O2-  O291  1  0.96009812  0.22921799  0.97213051  1
  O2-  O292  1  0.54633460  0.09705384  0.76295628  1
  O2-  O293  1  0.45225974  0.09736850  0.23909576  1
  O2-  O294  1  0.95000826  0.56974389  0.48526883  1
  O2-  O295  1  0.96405170  0.56119413  0.29974683  1
  O2-  O296  1  0.54295753  0.77036949  0.98592433  1
  O2-  O297  1  0.95339868  0.09384496  0.00367844  1
  O2-  O298  1  0.96064921  0.43895724  0.21865422  1
  O2-  O299  1  0.02008432  0.47134916  0.73175199  1
  O2-  O300  1  0.95258339  0.09509744  0.99471596  1
  O2-  O301  1  0.94719939  0.75837165  0.27299511  1
  O2-  O302  1  0.05264564  0.75683188  0.23839140  1
  O2-  O303  1  0.05359822  0.09799444  0.26355380  1
  O2-  O304  1  0.55095959  0.56600788  0.49520130  1
  O2-  O305  1  0.94762623  0.75655079  0.52393128  1
  O2-  O306  1  0.45209153  0.23644657  0.50969113  1
  O2-  O307  1  0.05327857  0.57384831  0.51330720  1
  O2-  O308  1  0.54847155  0.10367663  0.26605087  1
  O2-  O309  1  0.04854068  0.90759611  0.24109036  1
  O2-  O310  1  0.03236888  0.12005611  0.79222898  1
  O2-  O311  1  0.96234555  0.23501876  0.28975555  1
  O2-  O312  1  0.54680860  0.43144708  0.76683230  1
  O2-  O313  1  0.04339409  0.77107579  0.25729891  1
  O2-  O314  1  0.95437891  0.24227952  0.51187364  1
  O2-  O315  1  0.96372714  0.11200674  0.24015971  1
  O2-  O316  1  0.54513004  0.89957726  0.49237870  1
  O2-  O317  1  0.45288556  0.76842496  0.23545786  1
  O2-  O318  1  0.94644294  0.90612491  0.01186258  1
  O2-  O319  1  0.03372501  0.54427388  0.95791798  1
  O2-  O320  1  0.44648089  0.42783031  0.51690414  1
  O2-  O321  1  0.95341648  0.89901478  0.49978274  1
  O2-  O322  1  0.54721617  0.42963539  0.72767294  1
  O2-  O323  1  0.95216549  0.43247642  0.98262597  1
  O2-  O324  1  0.94226227  0.73453383  0.52756536  1
  O2-  O325  1  0.07023368  0.74694031  0.93459864  1
  O2-  O326  1  0.57697492  0.26902665  0.80549660  1
  O2-  O327  1  0.93203416  0.61433994  0.18534998  1
  O2-  O328  1  0.56240547  0.40736053  0.53464954  1
  O2-  O329  1  0.06372193  0.59674082  0.21985920  1
  O2-  O330  1  0.93638928  0.74028277  0.77974457  1
  O2-  O331  1  0.93662824  0.59248753  0.78175611  1
  O2-  O332  1  0.43465709  0.07409852  0.72319612  1
  O2-  O333  1  0.43480838  0.92347023  0.52283481  1
  O2-  O334  1  0.06849126  0.05182160  0.68382646  1
  O2-  O335  1  0.43889868  0.74701892  0.52509546  1
  O2-  O336  1  0.92130368  0.06290729  0.44659615  1
  O2-  O337  1  0.56811933  0.75175220  0.18088136  1
  O2-  O338  1  0.56347054  0.92327607  0.02653577  1
  O2-  O339  1  0.92837453  0.26838188  0.03788892  1
  O2-  O340  1  0.06748151  0.74376719  0.07211954  1
  O2-  O341  1  0.56430304  0.26022764  0.22804920  1
  O2-  O342  1  0.56253777  0.73941419  0.71697127  1
  O2-  O343  1  0.56675499  0.40888804  0.02667269  1
  O2-  O344  1  0.06632404  0.39772207  0.45262780  1
  O2-  O345  1  0.42789211  0.59544545  0.54504384  1
  O2-  O346  1  0.43369474  0.07770812  0.22341939  1
  O2-  O347  1  0.43775904  0.74201699  0.22303437  1
  O2-  O348  1  0.92060074  0.06035387  0.21798058  1
  O2-  O349  1  0.06582576  0.73533300  0.29286788  1
  O2-  O350  1  0.43758045  0.59000629  0.72477822  1
  O2-  O351  1  0.92768402  0.38442706  0.31823983  1
  O2-  O352  1  0.58148686  0.60530826  0.05180297  1
  O2-  O353  1  0.08206525  0.39221233  0.68742343  1
  O2-  O354  1  0.05850583  0.92856447  0.52911209  1
  O2-  O355  1  0.43788835  0.39631168  0.53070141  1
  O2-  O356  1  0.06538157  0.25345355  0.52773603  1
  O2-  O357  1  0.56209664  0.92147899  0.77232874  1
  O2-  O358  1  0.06826419  0.39372031  0.83140666  1
  O2-  O359  1  0.06396244  0.26475907  0.03032327  1
  O2-  O360  1  0.57012924  0.75233343  0.31635862  1
  O2-  O361  1  0.92508759  0.26778489  0.19825305  1
  O2-  O362  1  0.07277049  0.60609601  0.05887579  1
  O2-  O363  1  0.56277883  0.25908125  0.53131921  1
  O2-  O364  1  0.43736689  0.40173054  0.21959902  1
  O2-  O365  1  0.43753101  0.40605270  0.03141387  1
  O2-  O366  1  0.06313918  0.07894558  0.47693476  1
  O2-  O367  1  0.07959444  0.93520947  0.05346366  1
  O2-  O368  1  0.43713143  0.59398455  0.03538396  1
  O2-  O369  1  0.06123870  0.74201895  0.52414336  1
  O2-  O370  1  0.93803829  0.73639794  0.45248734  1
  O2-  O371  1  0.93599683  0.92230229  0.22286300  1
  O2-  O372  1  0.25021275  -0.00834769  0.64942895  1
  O2-  O373  1  0.24961951  0.67119899  0.82320844  1
  O2-  O374  1  0.74892408  -0.00597760  0.35743729  1
  O2-  O375  1  0.25131592  0.33208057  0.64621797  1
  O2-  O376  1  0.75004005  0.33874742  0.86326750  1
  O2-  O377  1  0.75020509  0.00716042  0.82533713  1
  O2-  O378  1  0.24998403  0.33594290  0.10790537  1
  O2-  O379  1  0.25065904  0.32931570  0.39879290  1
  O2-  O380  1  0.75042865  -0.03048410  0.92874150  1
  O2-  O381  1  0.24974903  0.66379028  0.64797880  1
  O2-  O382  1  0.75015472  -0.01315387  0.12150920  1
  O2-  O383  1  0.74892307  0.33363978  0.34909511  1
  O2-  O384  1  0.75026136  0.66862522  0.09486862  1
  O2-  O385  1  0.75033424  0.34224000  0.63409609  1
  O2-  O386  1  0.75065926  0.66378158  0.85604103  1
  O2-  O387  1  0.24926859  0.00175079  0.82583337  1
  O2-  O388  1  0.25050198  0.66304664  0.11194604  1
  O2-  O389  1  0.24972465  -0.00882072  0.91797177  1
  O2-  O390  1  0.74990396  0.65608873  0.31981977  1
  O2-  O391  1  0.74981807  0.00425092  0.60156077  1
  O2-  O392  1  0.75066674  0.64899529  0.41648861  1
  O2-  O393  1  0.74991737  0.33600439  0.10772674  1
  O2-  O394  1  0.75070302  0.65745188  0.62018389  1
  O2-  O395  1  0.24995977  0.65888161  0.91518152  1
  O2-  O396  1  0.74992558  0.50364876  0.08325297  1
  O2-  O397  1  0.74858999  0.79885795  0.67077900  1
  O2-  O398  1  0.24993473  0.49947948  0.93769507  1
  O2-  O399  1  0.75030867  0.83706950  0.05988382  1
  O2-  O400  1  0.75036081  0.16672620  0.41500135  1
  O2-  O401  1  0.75111111  0.84718018  0.60116361  1
  O2-  O402  1  0.75010364  0.16723076  0.33497540  1
  O2-  O403  1  0.75011364  0.81655573  0.14585966  1
  O2-  O404  1  0.25021313  0.82723665  0.34265339  1
  O2-  O405  1  0.25017283  0.19474806  0.91039331  1
  O2-  O406  1  0.25007174  0.82807554  0.15319856  1
  O2-  O407  1  0.75020722  0.49623668  0.84981437  1
  O2-  O408  1  0.25030735  0.48204336  0.62149758  1
  O2-  O409  1  0.25048478  0.14902866  0.18807583  1
  O2-  O410  1  0.75066285  0.80188610  0.34908751  1
  O2-  O411  1  0.74984104  0.50128837  0.16929166  1
  O2-  O412  1  0.25036886  0.17253293  0.57358640  1
  O2-  O413  1  0.25020367  0.16958458  0.82521365  1
  O2-  O414  1  0.75014040  0.50755085  0.66514082  1
  O2-  O415  1  0.75014649  0.49671705  0.58257691  1
  O2-  O416  1  0.25006679  0.49980939  0.09837365  1
  O2-  O417  1  0.74977236  0.81416889  0.89820806  1
  O2-  O418  1  0.24980009  0.20396071  0.08891716  1
  O2-  O419  1  0.25040648  0.47925347  0.84654839  1
  O2-  O420  1  0.51973114  0.33174905  0.12383747  1
  O2-  O421  1  0.01288062  0.32082247  0.62971486  1
  O2-  O422  1  0.97288327  0.33314137  0.86734072  1
  O2-  O423  1  0.52499537  -0.00615215  0.37275401  1
  O2-  O424  1  0.03017372  0.01584013  0.12758375  1
  O2-  O425  1  0.04358518  -0.01287253  0.37074680  1
  O2-  O426  1  0.95892544  -0.01337960  0.35727210  1
  O2-  O427  1  0.54240653  0.00616067  0.88841251  1
  O2-  O428  1  0.48539503  0.67468427  0.63079716  1
  O2-  O429  1  0.54315552  0.01084698  0.13573926  1
  O2-  O430  1  0.54548035  0.66790700  0.86581163  1
  O2-  O431  1  0.45478748  0.66951050  0.87550295  1
  O2-  O432  1  0.02463063  0.66206594  0.85952211  1
  O2-  O433  1  0.45408585  0.67861319  0.37132485  1
  O2-  O434  1  0.02331908  0.66601562  0.63743457  1
  O2-  O435  1  0.97162697  -0.00601759  0.87015700  1
  O2-  O436  1  0.51949231  0.34381712  0.88369177  1
  O2-  O437  1  0.45635177  -0.01056005  0.10956459  1
  O2-  O438  1  0.51323266  0.66079602  0.12729754  1
  O2-  O439  1  0.54007423  0.65775598  0.38673083  1
  O2-  O440  1  0.48214676  -0.00158813  0.62700224  1
  O2-  O441  1  0.45366375  -0.00166305  0.87780542  1
  O2-  O442  1  0.98515252  0.34617557  0.11845779  1
  O2-  O443  1  0.97381553  -0.00428041  0.12129430  1
