# generated using pymatgen
data_La7(Ru4O11)2
_symmetry_space_group_name_H-M   'P 1'
_cell_length_a   23.99006497
_cell_length_b   16.82968459
_cell_length_c   15.42643414
_cell_angle_alpha   89.99957018
_cell_angle_beta   90.00042545
_cell_angle_gamma   90.00086218
_symmetry_Int_Tables_number   1
_chemical_formula_structural   La7(Ru4O11)2
_chemical_formula_sum   'La84 Ru96 O264'
_cell_volume   6228.34914754
_cell_formula_units_Z   12
loop_
 _symmetry_equiv_pos_site_id
 _symmetry_equiv_pos_as_xyz
  1  'x, y, z'
loop_
 _atom_type_symbol
 _atom_type_oxidation_number
  La3+  3.0
  Ru4+  4.0
  O2-  -2.0
loop_
 _atom_site_type_symbol
 _atom_site_label
 _atom_site_symmetry_multiplicity
 _atom_site_fract_x
 _atom_site_fract_y
 _atom_site_fract_z
 _atom_site_occupancy
  La3+  La0  1  0.13867180  0.00039735  0.12742090  1
  La3+  La1  1  0.14052331  0.00005208  0.37237672  1
  La3+  La2  1  0.13876465  -0.00152570  0.62464337  1
  La3+  La3  1  0.13936062  -0.00236055  0.87493105  1
  La3+  La4  1  0.13749678  0.33224274  0.12802266  1
  La3+  La5  1  0.14063311  0.33296428  0.37436548  1
  La3+  La6  1  0.14101309  0.33544288  0.62304711  1
  La3+  La7  1  0.13889408  0.33585307  0.87377401  1
  La3+  La8  1  0.13754350  0.66727311  0.12507743  1
  La3+  La9  1  0.13789592  0.66713884  0.37591829  1
  La3+  La10  1  0.13951768  0.66583664  0.62566779  1
  La3+  La11  1  0.13781927  0.66562980  0.87339453  1
  La3+  La12  1  0.63707098  0.00043353  0.12242302  1
  La3+  La13  1  0.63896077  0.00043425  0.37693832  1
  La3+  La14  1  0.63956361  -0.00039774  0.62317039  1
  La3+  La15  1  0.63906087  -0.00102276  0.87621956  1
  La3+  La16  1  0.63646298  0.33421861  0.12555820  1
  La3+  La17  1  0.63748731  0.33395033  0.37423124  1
  La3+  La18  1  0.63889399  0.33431998  0.62480866  1
  La3+  La19  1  0.63923916  0.33476364  0.87538545  1
  La3+  La20  1  0.64224833  0.66675706  0.12574619  1
  La3+  La21  1  0.63962286  0.66581995  0.37541458  1
  La3+  La22  1  0.64082164  0.66641384  0.62680053  1
  La3+  La23  1  0.64042537  0.66912999  0.87497936  1
  La3+  La24  1  0.36195354  0.00116500  0.12632663  1
  La3+  La25  1  0.35948661  -0.00115170  0.37428701  1
  La3+  La26  1  0.36156443  -0.00238167  0.62350249  1
  La3+  La27  1  0.36141271  -0.00104047  0.87472516  1
  La3+  La28  1  0.36027405  0.33166463  0.12706473  1
  La3+  La29  1  0.36278290  0.33736940  0.38061019  1
  La3+  La30  1  0.36292906  0.33849964  0.61862647  1
  La3+  La31  1  0.36077452  0.33429702  0.87395024  1
  La3+  La32  1  0.36245228  0.66754487  0.12458671  1
  La3+  La33  1  0.36223495  0.66844395  0.37656766  1
  La3+  La34  1  0.36006484  0.66676375  0.62661101  1
  La3+  La35  1  0.36341923  0.66657126  0.87179256  1
  La3+  La36  1  0.86309714  0.00052229  0.12370546  1
  La3+  La37  1  0.86152383  -0.00172313  0.37840643  1
  La3+  La38  1  0.86154900  -0.00026151  0.62449088  1
  La3+  La39  1  0.86028831  0.00126886  0.87748636  1
  La3+  La40  1  0.86285462  0.33461063  0.12297417  1
  La3+  La41  1  0.86189741  0.33562046  0.37712779  1
  La3+  La42  1  0.86221236  0.33591693  0.62431322  1
  La3+  La43  1  0.86216565  0.33360177  0.87689391  1
  La3+  La44  1  0.85973567  0.66749391  0.12411346  1
  La3+  La45  1  0.86071114  0.66522903  0.37496658  1
  La3+  La46  1  0.85824368  0.66687553  0.62497279  1
  La3+  La47  1  0.85850303  0.66652291  0.87701259  1
  La3+  La48  1  0.50557014  0.16524762  0.88104773  1
  La3+  La49  1  0.50007893  0.50137983  0.86779636  1
  La3+  La50  1  0.50133906  0.16898720  0.38438390  1
  La3+  La51  1  0.49634949  0.49563906  0.63345950  1
  La3+  La52  1  0.49906515  0.16557893  0.36261411  1
  La3+  La53  1  -0.00021245  0.16604238  0.13298476  1
  La3+  La54  1  0.00607009  0.83115718  0.12007082  1
  La3+  La55  1  0.50166525  0.83922124  0.11607876  1
  La3+  La56  1  -0.00062113  0.49981976  0.36598972  1
  La3+  La57  1  0.49939971  0.83383507  0.38397566  1
  La3+  La58  1  0.00293793  0.16317723  0.37962269  1
  La3+  La59  1  0.49891687  0.49559825  0.12978169  1
  La3+  La60  1  0.49920164  0.49771528  0.11277409  1
  La3+  La61  1  0.49837732  0.82766558  0.13432750  1
  La3+  La62  1  0.49692696  0.83030637  0.62022424  1
  La3+  La63  1  0.00067903  0.49886494  0.11325985  1
  La3+  La64  1  0.49702754  0.83245314  0.63723986  1
  La3+  La65  1  0.49858466  0.16686728  0.86159205  1
  La3+  La66  1  -0.00211111  0.83415288  0.13842033  1
  La3+  La67  1  0.00011963  0.50218896  0.61528084  1
  La3+  La68  1  0.49971711  0.49271910  0.37588907  1
  La3+  La69  1  0.00268967  0.16782518  0.88312273  1
  La3+  La70  1  -0.00171096  0.16949376  0.86186093  1
  La3+  La71  1  0.50206390  0.50027672  0.61296841  1
  La3+  La72  1  0.25006215  0.16906791  0.45298230  1
  La3+  La73  1  0.25046085  0.17103814  0.77453294  1
  La3+  La74  1  0.25021748  0.54631453  -0.02174323  1
  La3+  La75  1  0.25025688  0.45431514  0.27174423  1
  La3+  La76  1  0.75034738  0.20679467  0.76791980  1
  La3+  La77  1  0.74977396  0.17680935  0.25471852  1
  La3+  La78  1  0.75015905  0.86935955  0.48042355  1
  La3+  La79  1  0.75011263  0.50246502  0.24708865  1
  La3+  La80  1  0.74993486  0.13506176  0.49814187  1
  La3+  La81  1  0.75012298  0.13552058  0.02630659  1
  La3+  La82  1  0.75001173  0.78484758  0.24434138  1
  La3+  La83  1  0.25002067  0.86338167  0.02186815  1
  Ru4+  Ru84  1  0.00662223  0.00190136  0.00033028  1
  Ru4+  Ru85  1  -0.00286739  0.00195194  0.25283876  1
  Ru4+  Ru86  1  -0.00169597  -0.00285117  0.49732177  1
  Ru4+  Ru87  1  -0.00251777  -0.00156964  0.74995417  1
  Ru4+  Ru88  1  0.00207356  0.34159697  0.00066297  1
  Ru4+  Ru89  1  0.00203231  0.33339989  0.24841072  1
  Ru4+  Ru90  1  0.00133907  0.33417088  0.49969892  1
  Ru4+  Ru91  1  -0.00095790  0.33426013  0.75010681  1
  Ru4+  Ru92  1  0.00055169  0.66007540  -0.00594423  1
  Ru4+  Ru93  1  -0.00071215  0.66674579  0.25176417  1
  Ru4+  Ru94  1  0.00105929  0.66739239  0.49621091  1
  Ru4+  Ru95  1  0.00055378  0.66460412  0.75690587  1
  Ru4+  Ru96  1  0.50376588  -0.00258364  0.00375677  1
  Ru4+  Ru97  1  0.50041478  0.00197319  0.24975567  1
  Ru4+  Ru98  1  0.50425586  0.00732595  0.49518651  1
  Ru4+  Ru99  1  0.49992571  -0.00121892  0.74915311  1
  Ru4+  Ru100  1  0.50322559  0.33613367  0.00217007  1
  Ru4+  Ru101  1  0.49769659  0.33955498  0.25010856  1
  Ru4+  Ru102  1  0.49960414  0.33498209  0.50119151  1
  Ru4+  Ru103  1  0.50028303  0.33270465  0.74812761  1
  Ru4+  Ru104  1  0.49808612  0.66484345  -0.00407781  1
  Ru4+  Ru105  1  0.49909535  0.66654709  0.25242789  1
  Ru4+  Ru106  1  0.50356065  0.66470047  0.49542988  1
  Ru4+  Ru107  1  0.49935935  0.66817001  0.75499642  1
  Ru4+  Ru108  1  0.11334799  0.16514149  -0.00026231  1
  Ru4+  Ru109  1  0.11390245  0.16777696  0.25000757  1
  Ru4+  Ru110  1  0.11202422  0.16745734  0.49957762  1
  Ru4+  Ru111  1  0.11058912  0.16715658  0.75025432  1
  Ru4+  Ru112  1  0.11083810  0.49961629  -0.00108118  1
  Ru4+  Ru113  1  0.11109708  0.49754701  0.24914987  1
  Ru4+  Ru114  1  0.11356305  0.49940817  0.49998169  1
  Ru4+  Ru115  1  0.11343083  0.50167078  0.75069871  1
  Ru4+  Ru116  1  0.11261981  0.83401605  -0.00027081  1
  Ru4+  Ru117  1  0.11489676  0.83430906  0.25036304  1
  Ru4+  Ru118  1  0.11348655  0.83308614  0.50010144  1
  Ru4+  Ru119  1  0.11442067  0.83460043  0.74986593  1
  Ru4+  Ru120  1  0.61151709  0.16507465  0.00151566  1
  Ru4+  Ru121  1  0.61341631  0.16258232  0.24943030  1
  Ru4+  Ru122  1  0.61162027  0.16584864  0.50094392  1
  Ru4+  Ru123  1  0.61250193  0.16792758  0.74932462  1
  Ru4+  Ru124  1  0.61309936  0.49894408  -0.00019037  1
  Ru4+  Ru125  1  0.61293655  0.49883924  0.25062378  1
  Ru4+  Ru126  1  0.61579243  0.49851709  0.49981001  1
  Ru4+  Ru127  1  0.61319603  0.49998205  0.74986870  1
  Ru4+  Ru128  1  0.61560009  0.83390210  -0.00128590  1
  Ru4+  Ru129  1  0.61306625  0.83280679  0.25059048  1
  Ru4+  Ru130  1  0.61359440  0.83448927  0.49955352  1
  Ru4+  Ru131  1  0.61360170  0.83138541  0.74992088  1
  Ru4+  Ru132  1  0.38328125  0.16923909  0.00258134  1
  Ru4+  Ru133  1  0.38570455  0.16694016  0.25018294  1
  Ru4+  Ru134  1  0.38734165  0.16915381  0.50079452  1
  Ru4+  Ru135  1  0.38831362  0.16660588  0.75023335  1
  Ru4+  Ru136  1  0.38862509  0.50094419  -0.00025011  1
  Ru4+  Ru137  1  0.38908225  0.49734425  0.25129477  1
  Ru4+  Ru138  1  0.38663425  0.49479429  0.49972237  1
  Ru4+  Ru139  1  0.38478204  0.50126546  0.74931721  1
  Ru4+  Ru140  1  0.38757144  0.83306746  -0.00056099  1
  Ru4+  Ru141  1  0.38513241  0.83425803  0.25092021  1
  Ru4+  Ru142  1  0.38107997  0.83253244  0.49986683  1
  Ru4+  Ru143  1  0.38663854  0.83480985  0.75048809  1
  Ru4+  Ru144  1  0.88303365  0.16698582  0.00086636  1
  Ru4+  Ru145  1  0.88825987  0.16638897  0.25083692  1
  Ru4+  Ru146  1  0.88791041  0.16509094  0.50057713  1
  Ru4+  Ru147  1  0.88928452  0.16628227  0.74852795  1
  Ru4+  Ru148  1  0.88734639  0.49847797  -0.00028167  1
  Ru4+  Ru149  1  0.88816016  0.50036277  0.25061184  1
  Ru4+  Ru150  1  0.88448571  0.50029090  0.49961241  1
  Ru4+  Ru151  1  0.88808310  0.50013853  0.74912750  1
  Ru4+  Ru152  1  0.88134517  0.83253713  -0.00163252  1
  Ru4+  Ru153  1  0.88819748  0.83279269  0.25026258  1
  Ru4+  Ru154  1  0.89065803  0.83568690  0.50089801  1
  Ru4+  Ru155  1  0.88738710  0.83088731  0.75077913  1
  Ru4+  Ru156  1  0.74983085  0.57848898  0.00287182  1
  Ru4+  Ru157  1  0.75002936  0.72530276  0.50620974  1
  Ru4+  Ru158  1  0.24989984  0.04166485  0.74717093  1
  Ru4+  Ru159  1  0.74997505  0.42495746  0.74662098  1
  Ru4+  Ru160  1  0.24990528  0.75409307  0.24800240  1
  Ru4+  Ru161  1  0.25023631  0.75207061  0.74930365  1
  Ru4+  Ru162  1  0.75004116  0.06872673  0.75229852  1
  Ru4+  Ru163  1  0.24989719  0.57614734  0.50347887  1
  Ru4+  Ru164  1  0.75025573  0.92167865  0.23788603  1
  Ru4+  Ru165  1  0.74996053  0.58272801  0.74610008  1
  Ru4+  Ru166  1  0.25016861  0.60612448  0.24607899  1
  Ru4+  Ru167  1  0.74979834  0.27490954  0.00216744  1
  Ru4+  Ru168  1  0.24981118  0.91682737  0.50095699  1
  Ru4+  Ru169  1  0.74988413  0.91208431  0.75670911  1
  Ru4+  Ru170  1  0.75002201  0.05082900  0.22950299  1
  Ru4+  Ru171  1  0.75000268  0.27506681  0.50438154  1
  Ru4+  Ru172  1  0.74999925  0.30461970  0.24906928  1
  Ru4+  Ru173  1  0.25018328  0.39565201  -0.00778371  1
  Ru4+  Ru174  1  0.24980521  0.29822492  0.73283203  1
  Ru4+  Ru175  1  0.24967306  0.24439048  -0.00039854  1
  Ru4+  Ru176  1  0.74965364  0.90818642  -0.00115773  1
  Ru4+  Ru177  1  0.24990605  0.72619545  -0.00309532  1
  Ru4+  Ru178  1  0.24974029  0.74633899  0.50106182  1
  Ru4+  Ru179  1  0.24988669  0.08882830  -0.00061327  1
  O2-  O180  1  0.16828695  0.08131795  -0.00061389  1
  O2-  O181  1  0.16712974  0.08138299  0.24990771  1
  O2-  O182  1  0.16758784  0.07990798  0.50028725  1
  O2-  O183  1  0.16589177  0.07805118  0.74993466  1
  O2-  O184  1  0.16804920  0.41309955  -0.00012862  1
  O2-  O185  1  0.16550395  0.41314809  0.24907437  1
  O2-  O186  1  0.16516752  0.41578240  0.49962915  1
  O2-  O187  1  0.16535397  0.41547950  0.74885816  1
  O2-  O188  1  0.16670607  0.74576603  -0.00050604  1
  O2-  O189  1  0.16697786  0.74777556  0.24966508  1
  O2-  O190  1  0.16729218  0.74734272  0.49982489  1
  O2-  O191  1  0.16737909  0.74760452  0.75175734  1
  O2-  O192  1  0.66726533  0.07912446  -0.00151537  1
  O2-  O193  1  0.66548213  0.07872878  0.24884354  1
  O2-  O194  1  0.66486929  0.08066730  0.49961694  1
  O2-  O195  1  0.66657904  0.07950315  0.75015672  1
  O2-  O196  1  0.66541634  0.41458820  0.00085511  1
  O2-  O197  1  0.66828970  0.41387325  0.24937897  1
  O2-  O198  1  0.66579046  0.41493866  0.49996243  1
  O2-  O199  1  0.66754728  0.41356792  0.75001591  1
  O2-  O200  1  0.66825684  0.74859293  -0.00103543  1
  O2-  O201  1  0.66410378  0.74553971  0.25146410  1
  O2-  O202  1  0.66688991  0.74745426  0.50019511  1
  O2-  O203  1  0.66531183  0.74919725  0.75035558  1
  O2-  O204  1  0.33135889  0.25074845  -0.00082972  1
  O2-  O205  1  0.33357984  0.25201026  0.25043074  1
  O2-  O206  1  0.33389806  0.25151037  0.49913970  1
  O2-  O207  1  0.33415916  0.25406303  0.74873161  1
  O2-  O208  1  0.33618674  0.58843263  0.00140464  1
  O2-  O209  1  0.33295870  0.58822056  0.24911326  1
  O2-  O210  1  0.33219471  0.58601529  0.49847201  1
  O2-  O211  1  0.33245589  0.58478941  0.75054833  1
  O2-  O212  1  0.33446371  0.92180460  0.00014071  1
  O2-  O213  1  0.33418636  0.91904918  0.24776595  1
  O2-  O214  1  0.33240822  0.91881257  0.50044253  1
  O2-  O215  1  0.33471745  0.91792255  0.75057002  1
  O2-  O216  1  0.83293542  0.25346675  0.00113547  1
  O2-  O217  1  0.83432715  0.25458158  0.24933604  1
  O2-  O218  1  0.83201728  0.25329672  0.49980351  1
  O2-  O219  1  0.83573869  0.25531443  0.75012287  1
  O2-  O220  1  0.83243262  0.58520199  0.00063565  1
  O2-  O221  1  0.83095065  0.58572702  0.25042658  1
  O2-  O222  1  0.83443505  0.58431533  0.49858607  1
  O2-  O223  1  0.83183719  0.58356641  0.75045151  1
  O2-  O224  1  0.83094238  0.91841319  0.00071524  1
  O2-  O225  1  0.83248934  0.92050368  0.24992026  1
  O2-  O226  1  0.83548973  0.91961263  0.50088279  1
  O2-  O227  1  0.83235602  0.91800097  0.74936098  1
  O2-  O228  1  0.16911258  0.25216275  -0.00016155  1
  O2-  O229  1  0.16785404  0.25110492  0.25012631  1
  O2-  O230  1  0.16641160  0.25152388  0.49976102  1
  O2-  O231  1  0.16623779  0.25462718  0.74903019  1
  O2-  O232  1  0.16339726  0.58825197  0.00090211  1
  O2-  O233  1  0.16640713  0.58768255  0.24966512  1
  O2-  O234  1  0.16860221  0.58634279  0.49871633  1
  O2-  O235  1  0.16650590  0.58550400  0.75152951  1
  O2-  O236  1  0.16676957  0.92180251  -0.00106274  1
  O2-  O237  1  0.16690602  0.91809933  0.25041759  1
  O2-  O238  1  0.16671274  0.91936467  0.50023732  1
  O2-  O239  1  0.16549129  0.91807788  0.75044140  1
  O2-  O240  1  0.66650600  0.25364590  0.00073502  1
  O2-  O241  1  0.66690571  0.25517682  0.24942531  1
  O2-  O242  1  0.66793127  0.25382633  0.50045623  1
  O2-  O243  1  0.66550769  0.25481462  0.74871659  1
  O2-  O244  1  0.66847711  0.58621184  -0.00129959  1
  O2-  O245  1  0.66958986  0.58508434  0.25106280  1
  O2-  O246  1  0.66754035  0.58466976  0.49884272  1
  O2-  O247  1  0.66819612  0.58539217  0.75039747  1
  O2-  O248  1  0.66691893  0.91898377  0.00041718  1
  O2-  O249  1  0.66626795  0.91998250  0.25011498  1
  O2-  O250  1  0.66587249  0.91940063  0.50040440  1
  O2-  O251  1  0.66689975  0.91972749  0.75025165  1
  O2-  O252  1  0.33161506  0.08139941  0.00017044  1
  O2-  O253  1  0.33352029  0.08094756  0.24861192  1
  O2-  O254  1  0.33088497  0.08064873  0.49988003  1
  O2-  O255  1  0.33315332  0.07866544  0.74992496  1
  O2-  O256  1  0.33190780  0.41228375  -0.00030674  1
  O2-  O257  1  0.33570893  0.41246111  0.24945905  1
  O2-  O258  1  0.33223719  0.41581698  0.49875630  1
  O2-  O259  1  0.33390643  0.41450979  0.74930364  1
  O2-  O260  1  0.33263684  0.74634070  0.00050695  1
  O2-  O261  1  0.33237080  0.74665716  0.24924847  1
  O2-  O262  1  0.33250235  0.74717710  0.49924888  1
  O2-  O263  1  0.33079308  0.74718514  0.75130923  1
  O2-  O264  1  0.83355214  0.07994445  0.00011367  1
  O2-  O265  1  0.83265034  0.08039920  0.24966878  1
  O2-  O266  1  0.83518340  0.08115879  0.50003296  1
  O2-  O267  1  0.83236564  0.07953294  0.74991554  1
  O2-  O268  1  0.83449868  0.41464279  0.00091030  1
  O2-  O269  1  0.83180489  0.41298532  0.24903411  1
  O2-  O270  1  0.83243541  0.41492817  0.49919356  1
  O2-  O271  1  0.83285704  0.41450824  0.75029362  1
  O2-  O272  1  0.83305345  0.74717936  0.00110729  1
  O2-  O273  1  0.83686612  0.74507634  0.25106377  1
  O2-  O274  1  0.83333769  0.74780303  0.49929465  1
  O2-  O275  1  0.83240770  0.75080291  0.74976008  1
  O2-  O276  1  0.95280485  0.24138390  0.23611443  1
  O2-  O277  1  0.53806254  0.78032914  -0.00772265  1
  O2-  O278  1  0.54640718  0.76375911  0.51359045  1
  O2-  O279  1  0.95976898  0.22658449  0.47626565  1
  O2-  O280  1  0.93999278  0.41083184  0.52901845  1
  O2-  O281  1  0.45232782  0.09425841  0.98076394  1
  O2-  O282  1  0.04493530  0.56688924  0.23373275  1
  O2-  O283  1  0.45460865  0.09759163  0.01987702  1
  O2-  O284  1  0.97658381  0.78545549  0.76529135  1
  O2-  O285  1  0.95525894  0.56881483  0.48247634  1
  O2-  O286  1  0.54677239  0.76095390  0.24016747  1
  O2-  O287  1  0.96066050  0.11576018  0.25383914  1
  O2-  O288  1  0.54775400  0.23684281  0.26383015  1
  O2-  O289  1  0.44270949  0.74918166  0.77405913  1
  O2-  O290  1  0.45064649  0.42537016  0.48738175  1
  O2-  O291  1  0.96223691  0.89478533  0.99674196  1
  O2-  O292  1  0.04768797  0.42929091  0.51267272  1
  O2-  O293  1  0.54391152  0.55719883  0.46969633  1
  O2-  O294  1  0.95550541  0.56524841  0.98874949  1
  O2-  O295  1  0.45711686  0.43714904  0.51070754  1
  O2-  O296  1  0.54194609  0.89138617  0.53170409  1
  O2-  O297  1  0.96392554  0.55270408  0.74826053  1
  O2-  O298  1  0.54182814  0.55799669  0.22096963  1
  O2-  O299  1  0.54268541  0.77435613  0.97865260  1
  O2-  O300  1  0.95438866  0.42581678  0.73540254  1
  O2-  O301  1  0.05061042  0.56818953  0.76640563  1
  O2-  O302  1  0.05015833  0.09741810  0.25689099  1
  O2-  O303  1  0.95333898  0.89894070  0.51359874  1
  O2-  O304  1  0.54836904  0.90359569  0.24037344  1
  O2-  O305  1  0.04147540  0.22058424  0.03161100  1
  O2-  O306  1  0.95339273  0.09432251  0.98024734  1
  O2-  O307  1  0.45135703  0.90338701  0.23732521  1
  O2-  O308  1  0.97203849  0.88749951  0.75066933  1
  O2-  O309  1  0.03788762  0.88960878  0.28311018  1
  O2-  O310  1  0.95506153  0.76117994  0.98191129  1
  O2-  O311  1  0.96247891  0.89485847  -0.00324151  1
  O2-  O312  1  0.45686145  0.56370432  0.46831379  1
  O2-  O313  1  0.44826794  0.75954933  0.01510052  1
  O2-  O314  1  0.45458454  0.43185801  0.76390795  1
  O2-  O315  1  0.04983550  0.09792225  0.24679216  1
  O2-  O316  1  0.45905103  0.22920295  0.97463707  1
  O2-  O317  1  0.95449344  0.09879884  0.01913063  1
  O2-  O318  1  0.45280511  0.90743516  0.00975473  1
  O2-  O319  1  0.94958416  0.23794302  0.98406103  1
  O2-  O320  1  0.45203285  0.56849776  0.23702740  1
  O2-  O321  1  0.45002204  0.90044418  0.51481172  1
  O2-  O322  1  0.45027370  0.76408646  0.48586464  1
  O2-  O323  1  0.95230132  0.76005692  0.02092265  1
  O2-  O324  1  0.57330220  0.60532623  0.29609084  1
  O2-  O325  1  0.42876297  0.27173026  0.04998140  1
  O2-  O326  1  0.43302210  0.41003820  0.94536369  1
  O2-  O327  1  0.43506643  0.59300292  0.77940872  1
  O2-  O328  1  0.43529574  0.06839025  0.78317003  1
  O2-  O329  1  0.57119186  0.94531882  0.44564199  1
  O2-  O330  1  0.43549169  0.40649629  0.06155132  1
  O2-  O331  1  0.92106229  0.71951171  0.80930845  1
  O2-  O332  1  0.92858779  0.94365677  0.93787160  1
  O2-  O333  1  0.56514056  0.07160863  0.02637133  1
  O2-  O334  1  0.06614089  0.26022067  0.22045813  1
  O2-  O335  1  0.06407247  0.73519361  0.21642569  1
  O2-  O336  1  0.92077871  0.60871802  0.71072882  1
  O2-  O337  1  0.93082416  0.27043231  0.54684411  1
  O2-  O338  1  0.92221584  0.05131174  0.28804922  1
  O2-  O339  1  0.56499036  0.26083297  0.77669789  1
  O2-  O340  1  0.93648663  0.59763224  0.28273354  1
  O2-  O341  1  0.57976508  0.71530849  0.05551997  1
  O2-  O342  1  0.44704569  0.75874180  0.76747241  1
  O2-  O343  1  0.57259819  0.60490912  0.54452557  1
  O2-  O344  1  0.56489814  0.59327194  0.72291218  1
  O2-  O345  1  0.92574981  0.93853284  0.05628415  1
  O2-  O346  1  0.93428119  0.92501291  0.22133254  1
  O2-  O347  1  0.92813241  0.73815978  0.68894594  1
  O2-  O348  1  0.43115976  0.40007525  0.53178505  1
  O2-  O349  1  0.43468058  0.07482717  0.54937654  1
  O2-  O350  1  0.06970788  0.94150170  0.19873142  1
  O2-  O351  1  0.07089514  0.27240669  0.94710401  1
  O2-  O352  1  0.06637070  0.59487343  0.52852170  1
  O2-  O353  1  0.56399858  0.25899783  0.28192670  1
  O2-  O354  1  0.56331279  0.59190291  0.06155500  1
  O2-  O355  1  0.43819464  0.73658399  0.46879099  1
  O2-  O356  1  0.43563619  0.92573871  0.53114532  1
  O2-  O357  1  0.56489112  0.06752774  0.81002653  1
  O2-  O358  1  0.42559509  0.60344205  0.54475717  1
  O2-  O359  1  0.93494816  0.07589003  0.72157264  1
  O2-  O360  1  0.06325842  0.40684251  0.96925123  1
  O2-  O361  1  0.43394514  0.07261260  0.44985312  1
  O2-  O362  1  0.56390364  0.26398444  0.55848178  1
  O2-  O363  1  0.06433204  0.93161206  0.03184246  1
  O2-  O364  1  0.56384087  0.59618959  0.93919288  1
  O2-  O365  1  0.43606695  0.73505941  0.28205482  1
  O2-  O366  1  0.56619473  0.26065135  0.44613472  1
  O2-  O367  1  0.56698665  0.07553233  0.69675837  1
  O2-  O368  1  0.94827305  0.42319189  0.51950518  1
  O2-  O369  1  0.06437404  0.40762254  0.22156562  1
  O2-  O370  1  0.92265326  0.95412049  0.79456029  1
  O2-  O371  1  0.93752822  0.26500717  0.96669398  1
  O2-  O372  1  0.74999646  0.00192838  0.43248868  1
  O2-  O373  1  0.75002701  0.66612169  0.40407784  1
  O2-  O374  1  0.74991368  -0.00739256  0.66454690  1
  O2-  O375  1  0.75010274  0.33521407  0.40219440  1
  O2-  O376  1  0.75011154  0.33499121  0.90234740  1
  O2-  O377  1  0.25013640  0.33120866  0.33023320  1
  O2-  O378  1  0.24987998  -0.00274477  0.85339487  1
  O2-  O379  1  0.24972425  0.00337982  0.42102328  1
  O2-  O380  1  0.25015726  0.66972048  0.34794927  1
  O2-  O381  1  0.74982165  -0.00376949  0.85142771  1
  O2-  O382  1  0.24984806  0.32982613  0.60142880  1
  O2-  O383  1  0.75006987  0.66350939  0.16984788  1
  O2-  O384  1  0.74987983  -0.00409569  0.34012948  1
  O2-  O385  1  0.25012194  0.33433711  0.84922759  1
  O2-  O386  1  0.74956910  0.66182001  0.84341099  1
  O2-  O387  1  0.25004721  0.32982273  0.09749213  1
  O2-  O388  1  0.74998904  0.00022820  0.57327327  1
  O2-  O389  1  0.24986302  0.66976674  0.65732691  1
  O2-  O390  1  0.74993260  0.00016849  0.09220730  1
  O2-  O391  1  0.24986188  -0.00472346  0.64459814  1
  O2-  O392  1  0.74993169  0.66861334  0.07859404  1
  O2-  O393  1  0.24994013  -0.00015782  0.33069099  1
  O2-  O394  1  0.25007128  0.33177775  0.42009240  1
  O2-  O395  1  0.74985068  0.66438650  0.65744382  1
  O2-  O396  1  0.74986177  0.82714500  0.59828872  1
  O2-  O397  1  0.74981838  0.49921500  0.60112610  1
  O2-  O398  1  0.24991444  0.51074893  0.38523236  1
  O2-  O399  1  0.24996409  0.83051977  0.16183907  1
  O2-  O400  1  0.74981833  0.83877116  0.91275868  1
  O2-  O401  1  0.24989106  0.83501977  0.33007978  1
  O2-  O402  1  0.24987473  0.51666239  0.16400680  1
  O2-  O403  1  0.24995118  0.50537006  0.58479285  1
  O2-  O404  1  0.24986288  0.16575410  0.89942680  1
  O2-  O405  1  0.25002445  0.16698215  0.65302794  1
  O2-  O406  1  0.74989154  0.16379389  0.63636170  1
  O2-  O407  1  0.24997011  0.83205844  0.41868484  1
  O2-  O408  1  0.24990844  0.83470518  0.67246272  1
  O2-  O409  1  0.24987150  0.82622797  0.88534624  1
  O2-  O410  1  0.75002451  0.50192641  0.09035994  1
  O2-  O411  1  0.25011667  0.16495893  0.57348024  1
  O2-  O412  1  0.74987724  0.84378935  0.12483101  1
  O2-  O413  1  0.74994933  0.16488101  0.89507588  1
  O2-  O414  1  0.24995999  0.48963394  0.87119753  1
  O2-  O415  1  0.74990553  0.83627302  0.36057880  1
  O2-  O416  1  0.24990106  0.48371659  0.08648205  1
  O2-  O417  1  0.24988146  0.83227725  0.58183575  1
  O2-  O418  1  0.74993620  0.49886341  0.83982002  1
  O2-  O419  1  0.74997283  0.82764686  0.68370543  1
  O2-  O420  1  0.03042913  0.67015020  0.62969098  1
  O2-  O421  1  0.97642876  -0.00161114  0.38362614  1
  O2-  O422  1  0.97718275  0.66226361  0.87740902  1
  O2-  O423  1  0.52606041  -0.00287133  0.12849059  1
  O2-  O424  1  0.53116163  0.67608157  0.63089532  1
  O2-  O425  1  0.53677148  0.33865821  0.87966244  1
  O2-  O426  1  0.47417975  0.32905813  0.62967500  1
  O2-  O427  1  0.47445936  -0.00382395  0.36956366  1
  O2-  O428  1  0.96077838  0.33561627  0.37101132  1
  O2-  O429  1  0.47475759  0.66344001  0.88124296  1
  O2-  O430  1  0.52573257  0.67228246  0.37931515  1
  O2-  O431  1  0.52803711  0.33464751  0.12511991  1
  O2-  O432  1  0.02346418  0.33614652  0.12056214  1
  O2-  O433  1  0.03887122  0.33266059  0.37524246  1
  O2-  O434  1  0.97313045  0.66477585  0.61435400  1
  O2-  O435  1  0.52299248  0.34253785  0.37455680  1
  O2-  O436  1  0.46647987  0.67200266  0.62998744  1
  O2-  O437  1  0.46857637  -0.00284589  0.63836056  1
  O2-  O438  1  0.46525857  0.32695309  0.86670063  1
  O2-  O439  1  0.02789164  0.66651678  0.37719012  1
  O2-  O440  1  0.53219194  -0.00476201  0.61753712  1
  O2-  O441  1  0.97696152  0.00686737  0.12791458  1
  O2-  O442  1  0.03127824  0.00039786  0.62313000  1
  O2-  O443  1  0.97142781  -0.00129796  0.62132384  1
