# generated using pymatgen
data_La7(Ru4O11)2
_symmetry_space_group_name_H-M   'P 1'
_cell_length_a   23.98977600
_cell_length_b   16.83054300
_cell_length_c   15.42764066
_cell_angle_alpha   90.00057023
_cell_angle_beta   90.00023204
_cell_angle_gamma   89.99972839
_symmetry_Int_Tables_number   1
_chemical_formula_structural   La7(Ru4O11)2
_chemical_formula_sum   'La84 Ru96 O264'
_cell_volume   6229.07895015
_cell_formula_units_Z   12
loop_
 _symmetry_equiv_pos_site_id
 _symmetry_equiv_pos_as_xyz
  1  'x, y, z'
loop_
 _atom_type_symbol
 _atom_type_oxidation_number
  La3+  3.0
  Ru4+  4.0
  O2-  -2.0
loop_
 _atom_site_type_symbol
 _atom_site_label
 _atom_site_symmetry_multiplicity
 _atom_site_fract_x
 _atom_site_fract_y
 _atom_site_fract_z
 _atom_site_occupancy
  La3+  La0  1  0.13903984  0.00006485  0.12602774  1
  La3+  La1  1  0.14210375  0.00206599  0.37619127  1
  La3+  La2  1  0.13834393  0.00219403  0.62098920  1
  La3+  La3  1  0.13654310  0.00385203  0.87369594  1
  La3+  La4  1  0.13904705  0.33419782  0.12348238  1
  La3+  La5  1  0.13726334  0.33050449  0.37939552  1
  La3+  La6  1  0.13438070  0.33122365  0.62049319  1
  La3+  La7  1  0.13714640  0.33343629  0.87578285  1
  La3+  La8  1  0.13865142  0.66792230  0.12954725  1
  La3+  La9  1  0.13882895  0.66796472  0.37559239  1
  La3+  La10  1  0.13820317  0.66529395  0.62019305  1
  La3+  La11  1  0.13449755  0.66568783  0.87788255  1
  La3+  La12  1  0.63909304  -0.00146744  0.12884823  1
  La3+  La13  1  0.63992023  -0.00222760  0.37512119  1
  La3+  La14  1  0.63769761  0.00064501  0.62179288  1
  La3+  La15  1  0.63700916  -0.00008999  0.87499911  1
  La3+  La16  1  0.63844900  0.33120282  0.12883699  1
  La3+  La17  1  0.64263051  0.33328147  0.37598223  1
  La3+  La18  1  0.64064824  0.33631897  0.62427900  1
  La3+  La19  1  0.63752156  0.33417624  0.87226846  1
  La3+  La20  1  0.63639914  0.66797176  0.12864159  1
  La3+  La21  1  0.63952335  0.66911938  0.37516045  1
  La3+  La22  1  0.64153879  0.66725002  0.62292827  1
  La3+  La23  1  0.63831734  0.66783749  0.87092373  1
  La3+  La24  1  0.36533122  -0.00276708  0.11982768  1
  La3+  La25  1  0.35962371  0.00042242  0.37556725  1
  La3+  La26  1  0.36110851  0.00394597  0.62354031  1
  La3+  La27  1  0.36938891  -0.00078211  0.87869793  1
  La3+  La28  1  0.35983951  0.33190400  0.12339521  1
  La3+  La29  1  0.35926513  0.32997658  0.37408831  1
  La3+  La30  1  0.36159477  0.33107421  0.62222054  1
  La3+  La31  1  0.36370830  0.33282411  0.87861610  1
  La3+  La32  1  0.36214259  0.66651041  0.12830299  1
  La3+  La33  1  0.36158687  0.66779333  0.37530110  1
  La3+  La34  1  0.36296436  0.66698787  0.62156333  1
  La3+  La35  1  0.36769287  0.66664713  0.87459769  1
  La3+  La36  1  0.86506629  -0.00295592  0.13269056  1
  La3+  La37  1  0.86364240  -0.00522915  0.36771963  1
  La3+  La38  1  0.85962802  0.00016554  0.62434093  1
  La3+  La39  1  0.86261061  0.00106790  0.87646921  1
  La3+  La40  1  0.85983489  0.33031300  0.13013758  1
  La3+  La41  1  0.85860817  0.33520842  0.37689990  1
  La3+  La42  1  0.85926738  0.33768788  0.62219140  1
  La3+  La43  1  0.86360834  0.33370025  0.87333387  1
  La3+  La44  1  0.86484292  0.66823764  0.12867938  1
  La3+  La45  1  0.85926840  0.66776396  0.37555356  1
  La3+  La46  1  0.85642624  0.66665775  0.62358081  1
  La3+  La47  1  0.86158333  0.66813445  0.87067907  1
  La3+  La48  1  0.50203708  0.49619312  0.11281119  1
  La3+  La49  1  0.00111767  0.50472113  0.38200185  1
  La3+  La50  1  0.49850889  0.83114824  0.36957312  1
  La3+  La51  1  -0.00114812  0.16464550  0.61682424  1
  La3+  La52  1  0.50057276  0.16689935  0.62983921  1
  La3+  La53  1  0.49992995  0.50152175  0.13314747  1
  La3+  La54  1  -0.00263445  0.83676050  0.38209234  1
  La3+  La55  1  -0.00040862  0.16742503  0.38654924  1
  La3+  La56  1  0.49775849  0.83545983  0.87266229  1
  La3+  La57  1  -0.00013049  0.83945349  0.36213433  1
  La3+  La58  1  -0.00108357  0.16491031  0.12807684  1
  La3+  La59  1  0.50332321  0.50777945  0.38222997  1
  La3+  La60  1  -0.00022910  0.49774292  0.86366316  1
  La3+  La61  1  0.49870012  0.83211364  0.13042651  1
  La3+  La62  1  -0.00466703  0.84056880  0.12684349  1
  La3+  La63  1  0.00053841  0.17019769  0.36596666  1
  La3+  La64  1  0.00194222  0.82783072  0.86496085  1
  La3+  La65  1  0.50008627  0.50038108  0.36209673  1
  La3+  La66  1  0.00417923  0.17196037  0.63625559  1
  La3+  La67  1  0.49809307  0.17053770  0.11072653  1
  La3+  La68  1  -0.00246451  0.83249121  0.62835839  1
  La3+  La69  1  0.50048402  0.16886383  0.38692791  1
  La3+  La70  1  0.49776502  0.17127315  0.86729394  1
  La3+  La71  1  -0.00303085  0.49772862  0.36164652  1
  La3+  La72  1  0.24893155  0.84084749  0.01153673  1
  La3+  La73  1  0.24983676  0.20851747  0.23339437  1
  La3+  La74  1  0.74988818  0.83425609  0.22170935  1
  La3+  La75  1  0.25007785  0.83382321  0.30673821  1
  La3+  La76  1  0.25014262  0.16703762  -0.02538633  1
  La3+  La77  1  0.75005698  0.46682726  0.25982267  1
  La3+  La78  1  0.75012655  0.88036278  0.02272693  1
  La3+  La79  1  0.24991848  0.48108387  0.69711659  1
  La3+  La80  1  0.74984264  0.12662202  0.74348073  1
  La3+  La81  1  0.74975507  0.49458579  -0.05011458  1
  La3+  La82  1  0.24831371  0.86228484  0.72513779  1
  La3+  La83  1  0.74977888  0.16753706  0.50396153  1
  Ru4+  Ru84  1  -0.00086545  0.00199242  0.00040909  1
  Ru4+  Ru85  1  -0.00107956  -0.00068913  0.25033852  1
  Ru4+  Ru86  1  -0.00125521  0.00369114  0.49286176  1
  Ru4+  Ru87  1  0.00136054  -0.00111842  0.75301617  1
  Ru4+  Ru88  1  0.00194214  0.33319435  0.00276756  1
  Ru4+  Ru89  1  -0.00008308  0.33523815  0.24537905  1
  Ru4+  Ru90  1  0.00231652  0.33011850  0.50557529  1
  Ru4+  Ru91  1  -0.00037699  0.33316347  0.75330359  1
  Ru4+  Ru92  1  -0.00096086  0.66474411  -0.00198098  1
  Ru4+  Ru93  1  -0.00024131  0.65428388  0.25117323  1
  Ru4+  Ru94  1  0.00033754  0.66368345  0.50078756  1
  Ru4+  Ru95  1  -0.00036028  0.66634560  0.75079686  1
  Ru4+  Ru96  1  0.50030361  -0.00109890  0.00157013  1
  Ru4+  Ru97  1  0.49905909  0.00625969  0.24802781  1
  Ru4+  Ru98  1  0.49878377  -0.00921340  0.50707658  1
  Ru4+  Ru99  1  0.50178566  -0.00762678  0.74782588  1
  Ru4+  Ru100  1  0.50464450  0.33970305  0.00269054  1
  Ru4+  Ru101  1  0.50326244  0.33838506  0.24835375  1
  Ru4+  Ru102  1  0.50489330  0.33496717  0.49965945  1
  Ru4+  Ru103  1  0.49965400  0.33872380  0.75025760  1
  Ru4+  Ru104  1  0.49867993  0.66786671  -0.00292041  1
  Ru4+  Ru105  1  0.49533338  0.66193777  0.25387201  1
  Ru4+  Ru106  1  0.50084195  0.66533685  0.50399260  1
  Ru4+  Ru107  1  0.50444948  0.66102185  0.74655063  1
  Ru4+  Ru108  1  0.11040170  0.16620351  0.00059346  1
  Ru4+  Ru109  1  0.11140830  0.16584582  0.25124099  1
  Ru4+  Ru110  1  0.11391769  0.16584186  0.50045488  1
  Ru4+  Ru111  1  0.11350178  0.16657666  0.75000578  1
  Ru4+  Ru112  1  0.11233895  0.49610591  0.00187362  1
  Ru4+  Ru113  1  0.11231886  0.50077091  0.24849223  1
  Ru4+  Ru114  1  0.11534947  0.50026881  0.50102951  1
  Ru4+  Ru115  1  0.10979165  0.49898280  0.75179468  1
  Ru4+  Ru116  1  0.11007455  0.83294076  -0.00147296  1
  Ru4+  Ru117  1  0.11555816  0.83941131  0.24724069  1
  Ru4+  Ru118  1  0.11636747  0.82979935  0.50016062  1
  Ru4+  Ru119  1  0.11023274  0.83118925  0.75063225  1
  Ru4+  Ru120  1  0.61226165  0.16583053  0.00048280  1
  Ru4+  Ru121  1  0.61241601  0.16787441  0.24988108  1
  Ru4+  Ru122  1  0.61439346  0.17045346  0.49852930  1
  Ru4+  Ru123  1  0.61177541  0.16468548  0.75136413  1
  Ru4+  Ru124  1  0.60995710  0.49966873  0.00151468  1
  Ru4+  Ru125  1  0.60828899  0.49925231  0.24994907  1
  Ru4+  Ru126  1  0.61563864  0.50055932  0.49905685  1
  Ru4+  Ru127  1  0.61034487  0.49828890  0.74816265  1
  Ru4+  Ru128  1  0.61049547  0.83272386  -0.00067162  1
  Ru4+  Ru129  1  0.61663762  0.83319036  0.25008633  1
  Ru4+  Ru130  1  0.61351368  0.83257582  0.50110608  1
  Ru4+  Ru131  1  0.61302237  0.82938531  0.74922793  1
  Ru4+  Ru132  1  0.38441978  0.16176072  0.00174875  1
  Ru4+  Ru133  1  0.38610936  0.16322486  0.25054127  1
  Ru4+  Ru134  1  0.38338850  0.16089281  0.50013343  1
  Ru4+  Ru135  1  0.38271700  0.16949409  0.74995222  1
  Ru4+  Ru136  1  0.38690256  0.49631686  0.00039085  1
  Ru4+  Ru137  1  0.38802068  0.49870981  0.25082291  1
  Ru4+  Ru138  1  0.38213809  0.50069711  0.50111148  1
  Ru4+  Ru139  1  0.39019573  0.49677667  0.75114902  1
  Ru4+  Ru140  1  0.38839329  0.83316630  0.00072593  1
  Ru4+  Ru141  1  0.38826279  0.83358433  0.24893180  1
  Ru4+  Ru142  1  0.38769962  0.83209690  0.50038828  1
  Ru4+  Ru143  1  0.38753340  0.83807880  0.74873990  1
  Ru4+  Ru144  1  0.88834461  0.16397628  -0.00127844  1
  Ru4+  Ru145  1  0.88620590  0.16804723  0.24924065  1
  Ru4+  Ru146  1  0.88801656  0.16674582  0.49893616  1
  Ru4+  Ru147  1  0.88842751  0.16730912  0.75070012  1
  Ru4+  Ru148  1  0.89026054  0.50158056  0.00188374  1
  Ru4+  Ru149  1  0.88865903  0.49949623  0.24863540  1
  Ru4+  Ru150  1  0.88192312  0.50390496  0.50192524  1
  Ru4+  Ru151  1  0.88693883  0.49920338  0.74965345  1
  Ru4+  Ru152  1  0.88903318  0.83516922  0.00110956  1
  Ru4+  Ru153  1  0.88576909  0.84018661  0.25063037  1
  Ru4+  Ru154  1  0.88496089  0.83372111  0.50066704  1
  Ru4+  Ru155  1  0.88580227  0.83046418  0.75061928  1
  Ru4+  Ru156  1  0.25042146  0.98643885  0.73839083  1
  Ru4+  Ru157  1  0.74996954  0.58043251  0.73403855  1
  Ru4+  Ru158  1  0.25023777  0.06947948  0.26169271  1
  Ru4+  Ru159  1  0.24989739  0.24032762  0.74831605  1
  Ru4+  Ru160  1  0.24997818  0.57103740  0.01388557  1
  Ru4+  Ru161  1  0.75015254  0.90872589  0.74287404  1
  Ru4+  Ru162  1  0.25002641  0.92424126  0.49386148  1
  Ru4+  Ru163  1  0.25008487  0.24473901  0.49574280  1
  Ru4+  Ru164  1  0.75010654  0.91575047  0.50255552  1
  Ru4+  Ru165  1  0.74995694  0.27484838  0.75500113  1
  Ru4+  Ru166  1  0.74988419  0.60800169  0.01776952  1
  Ru4+  Ru167  1  0.75028524  0.09151145  0.00301755  1
  Ru4+  Ru168  1  0.24975819  0.36613868  0.76462878  1
  Ru4+  Ru169  1  0.24927571  0.96775870  -0.02488099  1
  Ru4+  Ru170  1  0.25017703  0.57648207  0.24760443  1
  Ru4+  Ru171  1  0.25004606  0.41896477  0.25043927  1
  Ru4+  Ru172  1  0.74991198  0.60780635  0.25100185  1
  Ru4+  Ru173  1  0.75028387  0.23412816  -0.00313724  1
  Ru4+  Ru174  1  0.25014042  0.70853730  0.02993060  1
  Ru4+  Ru175  1  0.75005014  0.74789291  -0.00404429  1
  Ru4+  Ru176  1  0.25015032  0.72975838  0.73645691  1
  Ru4+  Ru177  1  0.75014887  0.08199511  0.24124015  1
  Ru4+  Ru178  1  0.25003429  0.59831814  0.75076906  1
  Ru4+  Ru179  1  0.75042694  0.37479909  0.00825825  1
  O2-  O180  1  0.16815747  0.08103020  -0.00342338  1
  O2-  O181  1  0.16639170  0.07998851  0.24956142  1
  O2-  O182  1  0.16701748  0.08179275  0.49902253  1
  O2-  O183  1  0.16837671  0.08153226  0.75045530  1
  O2-  O184  1  0.16646766  0.41532686  -0.00050088  1
  O2-  O185  1  0.16775350  0.41455059  0.25059397  1
  O2-  O186  1  0.16640466  0.41275566  0.50021611  1
  O2-  O187  1  0.16704837  0.41113278  0.74941819  1
  O2-  O188  1  0.16720120  0.74412145  0.00032315  1
  O2-  O189  1  0.16683239  0.74765625  0.25283586  1
  O2-  O190  1  0.16595606  0.74594830  0.50037089  1
  O2-  O191  1  0.16525344  0.74519961  0.74965019  1
  O2-  O192  1  0.66995627  0.08085224  -0.00109170  1
  O2-  O193  1  0.66723208  0.08123602  0.24931270  1
  O2-  O194  1  0.66670203  0.07991948  0.50121473  1
  O2-  O195  1  0.66314963  0.07832641  0.75129749  1
  O2-  O196  1  0.66454677  0.41136900  -0.00090057  1
  O2-  O197  1  0.66520029  0.41115954  0.24771226  1
  O2-  O198  1  0.66437149  0.41438179  0.50087525  1
  O2-  O199  1  0.66690168  0.41620990  0.75234581  1
  O2-  O200  1  0.66535126  0.74628090  0.00029640  1
  O2-  O201  1  0.66802133  0.74773528  0.24839219  1
  O2-  O202  1  0.66415704  0.74925628  0.49884504  1
  O2-  O203  1  0.66513515  0.74858706  0.75082481  1
  O2-  O204  1  0.33204120  0.25283501  -0.00064410  1
  O2-  O205  1  0.33746846  0.25418482  0.24868609  1
  O2-  O206  1  0.33152219  0.25140574  0.50074294  1
  O2-  O207  1  0.33168380  0.25162006  0.75022326  1
  O2-  O208  1  0.33293714  0.58697054  0.00075296  1
  O2-  O209  1  0.33010434  0.58653791  0.25027378  1
  O2-  O210  1  0.33390662  0.58818646  0.50007133  1
  O2-  O211  1  0.33554865  0.58799082  0.74984790  1
  O2-  O212  1  0.33302219  0.92093906  -0.00070496  1
  O2-  O213  1  0.33471408  0.91833319  0.24939833  1
  O2-  O214  1  0.33341557  0.91945865  0.49887658  1
  O2-  O215  1  0.33313662  0.92103321  0.75182201  1
  O2-  O216  1  0.83361301  0.25118398  -0.00030304  1
  O2-  O217  1  0.83365059  0.25091947  0.25056027  1
  O2-  O218  1  0.83422992  0.25348849  0.50199960  1
  O2-  O219  1  0.83307441  0.25352909  0.75076551  1
  O2-  O220  1  0.83471941  0.58768435  -0.00122510  1
  O2-  O221  1  0.83312575  0.58742300  0.24830411  1
  O2-  O222  1  0.83308472  0.58454996  0.49982353  1
  O2-  O223  1  0.83170112  0.58412703  0.75014041  1
  O2-  O224  1  0.83353323  0.92180631  -0.00219439  1
  O2-  O225  1  0.83018770  0.91808945  0.24952302  1
  O2-  O226  1  0.83138027  0.91954683  0.49985484  1
  O2-  O227  1  0.83203348  0.91963562  0.75145901  1
  O2-  O228  1  0.16696233  0.25262666  -0.00072360  1
  O2-  O229  1  0.16241109  0.25561934  0.25058645  1
  O2-  O230  1  0.16941340  0.25216847  0.49956098  1
  O2-  O231  1  0.16888353  0.25166381  0.74954998  1
  O2-  O232  1  0.16840180  0.58540757  0.00000133  1
  O2-  O233  1  0.16832070  0.58460122  0.25163967  1
  O2-  O234  1  0.16559948  0.58590804  0.49991337  1
  O2-  O235  1  0.16470118  0.58820777  0.74938499  1
  O2-  O236  1  0.16459791  0.92164692  -0.00073209  1
  O2-  O237  1  0.16830370  0.91797148  0.25065309  1
  O2-  O238  1  0.16795718  0.91908796  0.49973147  1
  O2-  O239  1  0.16460854  0.92245738  0.75117131  1
  O2-  O240  1  0.66619401  0.25081343  -0.00057519  1
  O2-  O241  1  0.66451217  0.25106286  0.24925652  1
  O2-  O242  1  0.66742295  0.25249826  0.50098283  1
  O2-  O243  1  0.66708436  0.25423830  0.75087299  1
  O2-  O244  1  0.66631887  0.58886901  -0.00083154  1
  O2-  O245  1  0.66704676  0.58814257  0.24849913  1
  O2-  O246  1  0.66371266  0.58524125  0.49904136  1
  O2-  O247  1  0.66664366  0.58427110  0.75041244  1
  O2-  O248  1  0.66509285  0.92312574  -0.00099938  1
  O2-  O249  1  0.66695796  0.91711562  0.24894854  1
  O2-  O250  1  0.66873904  0.91940287  0.50125812  1
  O2-  O251  1  0.66700467  0.91935004  0.75186342  1
  O2-  O252  1  0.33171158  0.07982172  -0.00206029  1
  O2-  O253  1  0.33417911  0.08034064  0.24894240  1
  O2-  O254  1  0.33226087  0.08291218  0.49812109  1
  O2-  O255  1  0.33226541  0.08107179  0.75094702  1
  O2-  O256  1  0.33388682  0.41461641  0.00003650  1
  O2-  O257  1  0.33287354  0.41463350  0.24900912  1
  O2-  O258  1  0.33085005  0.41520842  0.50003336  1
  O2-  O259  1  0.33253560  0.41176327  0.74968074  1
  O2-  O260  1  0.33548574  0.74505388  -0.00019678  1
  O2-  O261  1  0.33137824  0.74655167  0.25025252  1
  O2-  O262  1  0.33525706  0.74814734  0.50061144  1
  O2-  O263  1  0.33433086  0.74630586  0.74991002  1
  O2-  O264  1  0.82922178  0.08073019  -0.00006631  1
  O2-  O265  1  0.83445696  0.08060786  0.25046327  1
  O2-  O266  1  0.83186333  0.07913035  0.50066513  1
  O2-  O267  1  0.83606538  0.07758616  0.75198830  1
  O2-  O268  1  0.83340942  0.41261731  -0.00176022  1
  O2-  O269  1  0.83521883  0.41220207  0.24842656  1
  O2-  O270  1  0.83477302  0.41584247  0.50182019  1
  O2-  O271  1  0.83278152  0.41590225  0.75099721  1
  O2-  O272  1  0.83479306  0.74704118  0.00004886  1
  O2-  O273  1  0.83228788  0.74870517  0.24814514  1
  O2-  O274  1  0.83484671  0.74963687  0.49928303  1
  O2-  O275  1  0.83523222  0.74872626  0.75122414  1
  O2-  O276  1  0.04459480  0.23922804  0.01278191  1
  O2-  O277  1  0.53425957  0.10665434  0.21278167  1
  O2-  O278  1  0.04898805  0.43299918  0.48934376  1
  O2-  O279  1  0.54540759  0.23562929  0.75963769  1
  O2-  O280  1  0.04316669  0.89397968  0.53432103  1
  O2-  O281  1  0.45345914  0.23442765  0.51562652  1
  O2-  O282  1  0.47104768  0.88534513  0.74460870  1
  O2-  O283  1  0.45359022  0.09968813  0.73013866  1
  O2-  O284  1  0.04587575  0.23247173  0.23767280  1
  O2-  O285  1  0.95183718  0.42810283  0.48715574  1
  O2-  O286  1  0.95434613  0.76010866  0.01235875  1
  O2-  O287  1  0.54657219  0.23922135  0.23775531  1
  O2-  O288  1  0.04857666  0.90033838  0.76101610  1
  O2-  O289  1  0.54871226  0.90132695  0.98764235  1
  O2-  O290  1  0.96461196  0.88996597  0.96545767  1
  O2-  O291  1  0.04691607  0.76113390  0.26777591  1
  O2-  O292  1  0.95305904  0.09897580  0.74006012  1
  O2-  O293  1  0.54817766  0.76744195  0.73871853  1
  O2-  O294  1  0.45387230  0.76505652  0.98797211  1
  O2-  O295  1  0.54496266  0.90459422  0.26821114  1
  O2-  O296  1  0.04172031  0.22732703  0.50810815  1
  O2-  O297  1  0.04975297  0.23705629  0.48498261  1
  O2-  O298  1  0.95419823  0.76393996  0.51607547  1
  O2-  O299  1  0.53705346  0.11374623  0.96670248  1
  O2-  O300  1  0.04718314  0.77003979  0.22984965  1
  O2-  O301  1  0.94762946  0.57552805  0.01191223  1
  O2-  O302  1  0.05278101  0.42636998  0.01091526  1
  O2-  O303  1  0.54780335  0.10085271  0.51518655  1
  O2-  O304  1  0.45319950  0.56575903  0.01308650  1
  O2-  O305  1  0.94934717  0.76734372  0.23358410  1
  O2-  O306  1  0.96211039  0.44351305  0.00494339  1
  O2-  O307  1  0.04634546  0.43371354  0.23674183  1
  O2-  O308  1  0.45321763  0.90830221  0.98666887  1
  O2-  O309  1  0.45238049  0.10047155  0.76934298  1
  O2-  O310  1  0.55010947  0.76215868  0.26329700  1
  O2-  O311  1  0.95150539  0.90699208  0.26656749  1
  O2-  O312  1  0.03688491  0.55637039  0.00379728  1
  O2-  O313  1  0.44988227  0.75934037  0.76290321  1
  O2-  O314  1  0.46697748  0.45144056  0.50787199  1
  O2-  O315  1  0.54535420  0.90391930  0.22919656  1
  O2-  O316  1  0.45177567  0.23390309  0.98495521  1
  O2-  O317  1  0.03736718  0.10963537  0.96846816  1
  O2-  O318  1  0.46696154  0.45135662  0.50756364  1
  O2-  O319  1  0.45424673  0.89945580  0.50797137  1
  O2-  O320  1  0.45023656  0.23444135  0.26872328  1
  O2-  O321  1  0.45476345  0.89295554  0.01013138  1
  O2-  O322  1  0.54670279  0.56948993  0.73908450  1
  O2-  O323  1  0.95046413  0.90035018  0.76120069  1
  O2-  O324  1  0.43738288  0.07356562  0.03459504  1
  O2-  O325  1  0.57107324  0.05291764  0.05667824  1
  O2-  O326  1  0.43288562  0.93317792  0.03642731  1
  O2-  O327  1  0.56402447  0.92947026  0.53087540  1
  O2-  O328  1  0.56232514  0.73485462  0.28059250  1
  O2-  O329  1  0.93233940  0.92888290  0.21874393  1
  O2-  O330  1  0.06406851  0.40767789  0.78410914  1
  O2-  O331  1  0.06999033  0.94439703  0.41634461  1
  O2-  O332  1  0.06829678  0.26619346  0.53124022  1
  O2-  O333  1  0.06446483  0.07331372  0.52751720  1
  O2-  O334  1  0.93687345  0.73763011  0.22358984  1
  O2-  O335  1  0.93185263  0.07606398  0.97248018  1
  O2-  O336  1  0.93196898  0.58966589  0.44532118  1
  O2-  O337  1  0.43641811  0.26079820  0.97400402  1
  O2-  O338  1  0.57174215  0.05626669  0.30854460  1
  O2-  O339  1  0.42647801  0.38549030  0.56962986  1
  O2-  O340  1  0.42745737  0.38205585  0.42649280  1
  O2-  O341  1  0.93152046  0.92090116  0.55837081  1
  O2-  O342  1  0.41975985  0.94769476  0.71521193  1
  O2-  O343  1  0.56335915  0.59756933  0.03365454  1
  O2-  O344  1  0.93687994  0.07215153  0.46663625  1
  O2-  O345  1  0.43779813  0.06856054  0.43582270  1
  O2-  O346  1  0.43358926  0.07753730  0.55654169  1
  O2-  O347  1  0.93821063  0.59811813  0.56248001  1
  O2-  O348  1  0.06153496  0.91531434  0.54683019  1
  O2-  O349  1  0.56373308  0.26333131  0.46577786  1
  O2-  O350  1  0.43644500  0.25736906  0.53066466  1
  O2-  O351  1  0.06360150  0.73710469  0.96500981  1
  O2-  O352  1  0.06573621  0.07524439  0.72328052  1
  O2-  O353  1  0.93640015  0.59693806  0.72002377  1
  O2-  O354  1  0.06473386  0.93185922  0.21565312  1
  O2-  O355  1  0.93573651  0.40732916  0.77620653  1
  O2-  O356  1  0.93647373  0.93001623  0.43545690  1
  O2-  O357  1  0.43550066  0.59124814  0.27738578  1
  O2-  O358  1  0.93710209  0.26352873  0.21559430  1
  O2-  O359  1  0.56350137  0.40110117  0.71713475  1
  O2-  O360  1  0.56061490  0.07247089  0.52927341  1
  O2-  O361  1  0.07734044  0.60788208  0.03334716  1
  O2-  O362  1  0.43524790  0.73496355  0.78027162  1
  O2-  O363  1  0.43515376  0.74393996  0.27902441  1
  O2-  O364  1  0.43867033  0.26392472  0.28313569  1
  O2-  O365  1  0.92481357  0.93744899  0.05031773  1
  O2-  O366  1  0.92754290  0.38468661  0.03960019  1
  O2-  O367  1  0.93981927  0.92400139  0.27829054  1
  O2-  O368  1  0.06366459  0.26148914  0.78051831  1
  O2-  O369  1  0.07130494  0.05728971  0.05241960  1
  O2-  O370  1  0.43442393  0.40701824  0.77447376  1
  O2-  O371  1  0.93448055  0.40578909  0.47281128  1
  O2-  O372  1  0.75002336  0.66739927  0.91065731  1
  O2-  O373  1  0.75012450  0.67575575  0.11739641  1
  O2-  O374  1  0.25039946  0.65073031  0.92739707  1
  O2-  O375  1  0.25006207  0.66582796  0.63508641  1
  O2-  O376  1  0.25023996  0.33749953  0.15658875  1
  O2-  O377  1  0.25009638  0.01333202  0.08404842  1
  O2-  O378  1  0.24986603  0.66464951  0.15495395  1
  O2-  O379  1  0.25030130  -0.00703954  0.35068531  1
  O2-  O380  1  0.75008109  0.33271268  0.65441707  1
  O2-  O381  1  0.24976942  0.67560306  0.84184669  1
  O2-  O382  1  0.25000705  -0.00459689  0.59727549  1
  O2-  O383  1  0.75004423  -0.00191665  0.65638356  1
  O2-  O384  1  0.75004669  -0.00292645  0.15228594  1
  O2-  O385  1  0.74990232  0.00271599  0.34402040  1
  O2-  O386  1  0.74978231  0.33240645  0.41971500  1
  O2-  O387  1  0.74992328  0.66758041  0.81095203  1
  O2-  O388  1  0.24978036  0.33746116  0.34311456  1
  O2-  O389  1  0.24993671  0.00497356  0.85670142  1
  O2-  O390  1  0.74998564  0.33433607  0.32959739  1
  O2-  O391  1  0.75003837  0.66116803  0.60463341  1
  O2-  O392  1  0.74980325  0.66841808  0.34715666  1
  O2-  O393  1  0.74968926  0.32801442  0.89166877  1
  O2-  O394  1  0.74981554  0.32299748  0.11322724  1
  O2-  O395  1  0.24995066  -0.01197840  0.17178703  1
  O2-  O396  1  0.75002777  0.17419772  0.87510269  1
  O2-  O397  1  0.75015825  0.82919162  0.43664938  1
  O2-  O398  1  0.24975187  0.82128069  0.53744656  1
  O2-  O399  1  0.75004403  0.16119019  0.15610958  1
  O2-  O400  1  0.75011787  0.17495802  0.62575603  1
  O2-  O401  1  0.25053317  0.82605127  0.12322814  1
  O2-  O402  1  0.25003702  0.50400030  0.84545504  1
  O2-  O403  1  0.25004960  0.49379888  0.93331836  1
  O2-  O404  1  0.75001000  0.83005827  0.88967887  1
  O2-  O405  1  0.25011551  0.84376877  0.89681256  1
  O2-  O406  1  0.74994802  0.50490408  0.59927203  1
  O2-  O407  1  0.25002810  0.16152274  0.36665291  1
  O2-  O408  1  0.24982574  0.50105767  0.57889168  1
  O2-  O409  1  0.74985786  0.17417097  0.30487288  1
  O2-  O410  1  0.75004909  0.50146209  0.10789613  1
  O2-  O411  1  0.75000618  0.83818942  0.66394382  1
  O2-  O412  1  0.24939618  0.83537657  0.19528420  1
  O2-  O413  1  0.75006420  0.83481654  0.34936812  1
  O2-  O414  1  0.25040014  0.80858626  0.83241704  1
  O2-  O415  1  0.74985460  0.50243264  0.40028912  1
  O2-  O416  1  0.75007028  0.16550764  0.38559896  1
  O2-  O417  1  0.24985666  0.16226397  0.10447060  1
  O2-  O418  1  0.25002424  0.83475167  0.42053789  1
  O2-  O419  1  0.25093721  0.82364626  0.61479371  1
  O2-  O420  1  0.48132554  -0.00002874  0.62857147  1
  O2-  O421  1  0.52594030  0.66735969  0.61992053  1
  O2-  O422  1  0.47706978  0.66457094  0.38461422  1
  O2-  O423  1  0.02958876  0.67078635  0.13266427  1
  O2-  O424  1  0.96614202  0.00720132  0.63270920  1
  O2-  O425  1  0.96919025  -0.00100951  0.87099691  1
  O2-  O426  1  0.97379565  0.32961171  0.88069536  1
  O2-  O427  1  0.45882046  0.00141027  0.87446660  1
  O2-  O428  1  0.53321603  0.33365860  0.87961228  1
  O2-  O429  1  0.52762576  0.33695000  0.12055649  1
  O2-  O430  1  0.02681068  0.33235997  0.12748632  1
  O2-  O431  1  0.03437398  -0.00269428  0.87490700  1
  O2-  O432  1  0.02562122  0.33740690  0.63113583  1
  O2-  O433  1  0.47332596  0.66752532  0.12658150  1
  O2-  O434  1  0.04383596  0.66353864  0.37827158  1
  O2-  O435  1  0.97778338  0.01263028  0.12629328  1
  O2-  O436  1  0.47276845  0.33145160  0.87398069  1
  O2-  O437  1  0.96059159  0.67537187  0.36179169  1
  O2-  O438  1  0.95988136  0.32616146  0.36728250  1
  O2-  O439  1  0.54258801  -0.00062572  0.86421529  1
  O2-  O440  1  0.47617029  0.66057457  0.87799424  1
  O2-  O441  1  0.97033371  0.66138690  0.12585051  1
  O2-  O442  1  0.04278130  0.33481848  0.36896013  1
  O2-  O443  1  0.02976862  -0.00093891  0.63235256  1
