# generated using pymatgen
data_La7(Ru4O11)2
_symmetry_space_group_name_H-M   'P 1'
_cell_length_a   23.98970418
_cell_length_b   16.82943928
_cell_length_c   15.42569962
_cell_angle_alpha   89.99847679
_cell_angle_beta   90.00044955
_cell_angle_gamma   90.00015660
_symmetry_Int_Tables_number   1
_chemical_formula_structural   La7(Ru4O11)2
_chemical_formula_sum   'La84 Ru96 O264'
_cell_volume   6227.86814498
_cell_formula_units_Z   12
loop_
 _symmetry_equiv_pos_site_id
 _symmetry_equiv_pos_as_xyz
  1  'x, y, z'
loop_
 _atom_type_symbol
 _atom_type_oxidation_number
  La3+  3.0
  Ru4+  4.0
  O2-  -2.0
loop_
 _atom_site_type_symbol
 _atom_site_label
 _atom_site_symmetry_multiplicity
 _atom_site_fract_x
 _atom_site_fract_y
 _atom_site_fract_z
 _atom_site_occupancy
  La3+  La0  1  0.13757583  0.00021307  0.12449991  1
  La3+  La1  1  0.13872671  -0.00121860  0.37651714  1
  La3+  La2  1  0.14039798  0.00030478  0.62395417  1
  La3+  La3  1  0.13809026  0.00119106  0.87391990  1
  La3+  La4  1  0.13705853  0.33396593  0.12280779  1
  La3+  La5  1  0.13858822  0.33428165  0.37539075  1
  La3+  La6  1  0.13988569  0.33412661  0.62603251  1
  La3+  La7  1  0.13945674  0.33399504  0.87511854  1
  La3+  La8  1  0.13879320  0.66579987  0.12576116  1
  La3+  La9  1  0.13882855  0.66764791  0.37494061  1
  La3+  La10  1  0.13920493  0.66622348  0.62341593  1
  La3+  La11  1  0.13844055  0.66531170  0.87616857  1
  La3+  La12  1  0.63825965  -0.00068031  0.12391032  1
  La3+  La13  1  0.63743781  0.00008488  0.37631649  1
  La3+  La14  1  0.64066403  -0.00069229  0.62479259  1
  La3+  La15  1  0.64000591  -0.00089711  0.87481068  1
  La3+  La16  1  0.63700671  0.33336895  0.12313733  1
  La3+  La17  1  0.63889659  0.33296482  0.37619161  1
  La3+  La18  1  0.64034480  0.33281105  0.62324910  1
  La3+  La19  1  0.63772252  0.33408653  0.87631657  1
  La3+  La20  1  0.63834359  0.66665305  0.12454579  1
  La3+  La21  1  0.64042371  0.66645506  0.37621821  1
  La3+  La22  1  0.64001754  0.66703900  0.62257811  1
  La3+  La23  1  0.63842504  0.66697933  0.87559828  1
  La3+  La24  1  0.36219716  -0.00033979  0.12449232  1
  La3+  La25  1  0.36145128  -0.00104927  0.37710145  1
  La3+  La26  1  0.36028747  -0.00027841  0.62319647  1
  La3+  La27  1  0.36256511  0.00075076  0.87512208  1
  La3+  La28  1  0.36233433  0.33384317  0.12227695  1
  La3+  La29  1  0.36155081  0.33481413  0.37706832  1
  La3+  La30  1  0.36000303  0.33385051  0.62509563  1
  La3+  La31  1  0.35953360  0.33379263  0.87513363  1
  La3+  La32  1  0.36123714  0.66489663  0.12477000  1
  La3+  La33  1  0.36034744  0.66676890  0.37591189  1
  La3+  La34  1  0.36115442  0.66632868  0.62261991  1
  La3+  La35  1  0.36214800  0.66468297  0.87551967  1
  La3+  La36  1  0.86158630  -0.00075444  0.12298902  1
  La3+  La37  1  0.86235030  -0.00025404  0.37648448  1
  La3+  La38  1  0.86071659  -0.00023703  0.62571193  1
  La3+  La39  1  0.86031590  -0.00059784  0.87437498  1
  La3+  La40  1  0.86199340  0.33264847  0.12326075  1
  La3+  La41  1  0.86120516  0.33325926  0.37666524  1
  La3+  La42  1  0.86036791  0.33282440  0.62439137  1
  La3+  La43  1  0.86176921  0.33274393  0.87567496  1
  La3+  La44  1  0.86177128  0.66600001  0.12470660  1
  La3+  La45  1  0.85972443  0.66690624  0.37774264  1
  La3+  La46  1  0.85947590  0.66772107  0.62415184  1
  La3+  La47  1  0.86179650  0.66662818  0.87510480  1
  La3+  La48  1  0.49989752  0.16633200  0.38409449  1
  La3+  La49  1  -0.00208674  0.16355326  0.61990543  1
  La3+  La50  1  0.49802610  0.16931807  0.61330709  1
  La3+  La51  1  0.49988954  0.16723173  0.89014451  1
  La3+  La52  1  -0.00180833  0.83391657  0.61019397  1
  La3+  La53  1  0.49993607  0.83262241  0.88133226  1
  La3+  La54  1  0.49944526  0.83511373  0.13864917  1
  La3+  La55  1  -0.00018597  0.50008337  0.88619505  1
  La3+  La56  1  0.00284076  0.83318715  0.63181987  1
  La3+  La57  1  0.50078599  0.49979659  0.36085014  1
  La3+  La58  1  0.50295832  0.83241830  0.11750568  1
  La3+  La59  1  -0.00020913  0.83305772  0.36599004  1
  La3+  La60  1  0.00012932  0.83116042  0.11694908  1
  La3+  La61  1  0.49521315  0.50367630  0.38094296  1
  La3+  La62  1  -0.00109789  0.83526371  0.88762254  1
  La3+  La63  1  0.00057210  0.83391802  0.13904740  1
  La3+  La64  1  0.00097825  0.49762748  0.13274757  1
  La3+  La65  1  0.00080348  0.16573099  0.36141831  1
  La3+  La66  1  0.00022022  0.50153898  0.36468523  1
  La3+  La67  1  0.50243263  0.50314726  0.87042560  1
  La3+  La68  1  0.00325637  0.83175609  0.86637421  1
  La3+  La69  1  -0.00226478  0.16779714  0.38355147  1
  La3+  La70  1  0.50024778  0.49906198  0.88684122  1
  La3+  La71  1  0.50025848  0.16579074  0.63545395  1
  La3+  La72  1  0.75014283  0.83149111  0.48339010  1
  La3+  La73  1  0.25008476  0.83837192  0.76812126  1
  La3+  La74  1  0.75006990  0.46897339  0.72733612  1
  La3+  La75  1  0.74992644  0.16786531  0.24913207  1
  La3+  La76  1  0.25017710  0.13612759  0.52816573  1
  La3+  La77  1  0.24988773  0.53088007  0.28150707  1
  La3+  La78  1  0.25018162  0.16795162  -0.03561878  1
  La3+  La79  1  0.24963551  0.16492794  0.28724815  1
  La3+  La80  1  0.75016622  0.53157902  -0.01969848  1
  La3+  La81  1  0.74995049  0.47074466  0.22764550  1
  La3+  La82  1  0.75007517  0.13380837  0.71990022  1
  La3+  La83  1  0.24966511  0.83274390  0.00486476  1
  Ru4+  Ru84  1  0.00130796  -0.00322794  0.00047831  1
  Ru4+  Ru85  1  0.00034738  -0.00038683  0.24817260  1
  Ru4+  Ru86  1  0.00049971  -0.00406991  0.50114879  1
  Ru4+  Ru87  1  -0.00246080  0.00424081  0.74928244  1
  Ru4+  Ru88  1  0.00040440  0.33144781  -0.00095984  1
  Ru4+  Ru89  1  0.00130061  0.33383652  0.24996824  1
  Ru4+  Ru90  1  0.00177520  0.33028275  0.49735239  1
  Ru4+  Ru91  1  0.00026880  0.33320674  0.75213877  1
  Ru4+  Ru92  1  0.00094327  0.66447978  0.00293234  1
  Ru4+  Ru93  1  0.00102092  0.66208361  0.25005975  1
  Ru4+  Ru94  1  -0.00037530  0.66866437  0.49622963  1
  Ru4+  Ru95  1  0.00189361  0.66068996  0.75045776  1
  Ru4+  Ru96  1  0.50349764  0.00490098  -0.00044761  1
  Ru4+  Ru97  1  0.49955300  0.00119482  0.24987090  1
  Ru4+  Ru98  1  0.49737413  -0.00642800  0.50165345  1
  Ru4+  Ru99  1  0.49901819  -0.00351744  0.74922846  1
  Ru4+  Ru100  1  0.49783312  0.32984676  0.00323576  1
  Ru4+  Ru101  1  0.50338117  0.33813177  0.24572791  1
  Ru4+  Ru102  1  0.49852862  0.33153003  0.50005788  1
  Ru4+  Ru103  1  0.49908201  0.33207712  0.75377364  1
  Ru4+  Ru104  1  0.50057555  0.66491737  0.00003035  1
  Ru4+  Ru105  1  0.50000592  0.66664870  0.25112133  1
  Ru4+  Ru106  1  0.50066958  0.66849079  0.49964922  1
  Ru4+  Ru107  1  0.50020698  0.66668440  0.75063891  1
  Ru4+  Ru108  1  0.11307548  0.16640213  -0.00056548  1
  Ru4+  Ru109  1  0.11179105  0.16697589  0.25012666  1
  Ru4+  Ru110  1  0.11387860  0.16556565  0.50028536  1
  Ru4+  Ru111  1  0.11420640  0.16712198  0.74980436  1
  Ru4+  Ru112  1  0.11421721  0.49894807  -0.00023282  1
  Ru4+  Ru113  1  0.11194702  0.50090621  0.24981135  1
  Ru4+  Ru114  1  0.11535351  0.49973037  0.50042845  1
  Ru4+  Ru115  1  0.11346294  0.49874436  0.75015389  1
  Ru4+  Ru116  1  0.11201422  0.83171108  0.00023377  1
  Ru4+  Ru117  1  0.11460988  0.83598618  0.25018229  1
  Ru4+  Ru118  1  0.11496351  0.83300038  0.49943841  1
  Ru4+  Ru119  1  0.11516848  0.82966523  0.75005380  1
  Ru4+  Ru120  1  0.61345238  0.16792489  -0.00036229  1
  Ru4+  Ru121  1  0.61138899  0.16615275  0.25086372  1
  Ru4+  Ru122  1  0.61558036  0.17029958  0.49945518  1
  Ru4+  Ru123  1  0.61477060  0.16573169  0.75042580  1
  Ru4+  Ru124  1  0.61302420  0.50296371  0.00092840  1
  Ru4+  Ru125  1  0.61169481  0.49940709  0.25006742  1
  Ru4+  Ru126  1  0.61496561  0.50247241  0.50092782  1
  Ru4+  Ru127  1  0.61249913  0.49967814  0.74929614  1
  Ru4+  Ru128  1  0.61388073  0.83365332  -0.00025951  1
  Ru4+  Ru129  1  0.61231053  0.83300812  0.24993299  1
  Ru4+  Ru130  1  0.61271982  0.83236650  0.49943212  1
  Ru4+  Ru131  1  0.61437132  0.83345565  0.74988750  1
  Ru4+  Ru132  1  0.38752748  0.16863818  0.00094375  1
  Ru4+  Ru133  1  0.38497026  0.16172424  0.24900844  1
  Ru4+  Ru134  1  0.38724039  0.16556734  0.49920373  1
  Ru4+  Ru135  1  0.38475945  0.16885205  0.75047615  1
  Ru4+  Ru136  1  0.38603862  0.50084293  0.00033335  1
  Ru4+  Ru137  1  0.38787496  0.50124503  0.25030685  1
  Ru4+  Ru138  1  0.38547454  0.49925419  0.50003526  1
  Ru4+  Ru139  1  0.38551147  0.50078506  0.74985885  1
  Ru4+  Ru140  1  0.38584979  0.83076293  -0.00044961  1
  Ru4+  Ru141  1  0.38773684  0.83358799  0.25060575  1
  Ru4+  Ru142  1  0.38677692  0.83511574  0.50023675  1
  Ru4+  Ru143  1  0.38918699  0.83361226  0.74968891  1
  Ru4+  Ru144  1  0.88447922  0.17169530  -0.00034868  1
  Ru4+  Ru145  1  0.88851059  0.16576319  0.24974007  1
  Ru4+  Ru146  1  0.88448726  0.16894255  0.49963809  1
  Ru4+  Ru147  1  0.88786047  0.16521890  0.74985340  1
  Ru4+  Ru148  1  0.88825954  0.50113600  -0.00014630  1
  Ru4+  Ru149  1  0.88689283  0.49875404  0.25068571  1
  Ru4+  Ru150  1  0.88327684  0.50394898  0.50119785  1
  Ru4+  Ru151  1  0.88799698  0.49926743  0.75006682  1
  Ru4+  Ru152  1  0.88478228  0.83576289  0.00042587  1
  Ru4+  Ru153  1  0.88661645  0.83448283  0.25058810  1
  Ru4+  Ru154  1  0.88676539  0.83260390  0.49920507  1
  Ru4+  Ru155  1  0.88307685  0.83721347  0.75030374  1
  Ru4+  Ru156  1  0.24968101  0.28278833  0.24156412  1
  Ru4+  Ru157  1  0.75008935  0.60396397  0.73912820  1
  Ru4+  Ru158  1  0.74987174  0.60744304  0.25401971  1
  Ru4+  Ru159  1  0.74978922  0.41808136  0.50467033  1
  Ru4+  Ru160  1  0.24996383  0.95521914  -0.00530531  1
  Ru4+  Ru161  1  0.25006361  0.71694209  0.74548060  1
  Ru4+  Ru162  1  0.24973845  0.57588578  0.75283539  1
  Ru4+  Ru163  1  0.24988795  0.75314324  0.25399634  1
  Ru4+  Ru164  1  0.74984522  0.90964602  0.24975991  1
  Ru4+  Ru165  1  0.75001323  0.75271021  0.25052711  1
  Ru4+  Ru166  1  0.25005764  0.27126107  0.50075469  1
  Ru4+  Ru167  1  0.24993381  0.04680354  0.23672685  1
  Ru4+  Ru168  1  0.74982533  0.08690638  0.00322002  1
  Ru4+  Ru169  1  0.75008772  0.76010017  0.00074554  1
  Ru4+  Ru170  1  0.74993110  0.75429919  0.74541049  1
  Ru4+  Ru171  1  0.75013731  0.40120784  0.00655001  1
  Ru4+  Ru172  1  0.75000105  0.26848740  0.74289832  1
  Ru4+  Ru173  1  0.25003143  0.90940747  0.25232260  1
  Ru4+  Ru174  1  0.24998679  0.40377164  0.24909767  1
  Ru4+  Ru175  1  0.25010468  0.96085991  0.74173578  1
  Ru4+  Ru176  1  0.24990370  0.71067947  -0.00383180  1
  Ru4+  Ru177  1  0.74992134  0.08673477  0.49998967  1
  Ru4+  Ru178  1  0.74991748  0.04336736  0.25831671  1
  Ru4+  Ru179  1  0.75011448  0.29271910  0.24378613  1
  O2-  O180  1  0.16895230  0.08087059  -0.00003677  1
  O2-  O181  1  0.16625618  0.07922489  0.24925006  1
  O2-  O182  1  0.16618222  0.08016103  0.49912338  1
  O2-  O183  1  0.16694807  0.08036397  0.75073021  1
  O2-  O184  1  0.16738020  0.41476902  0.00109053  1
  O2-  O185  1  0.16712146  0.41291094  0.24947723  1
  O2-  O186  1  0.16677659  0.41563896  0.50076853  1
  O2-  O187  1  0.16671234  0.41548667  0.74944138  1
  O2-  O188  1  0.16655288  0.74625518  -0.00028494  1
  O2-  O189  1  0.16870145  0.74755226  0.24915893  1
  O2-  O190  1  0.16690978  0.74771199  0.50067773  1
  O2-  O191  1  0.16637940  0.74635344  0.75009762  1
  O2-  O192  1  0.66724954  0.08041516  0.00048982  1
  O2-  O193  1  0.66662548  0.07938643  0.25015979  1
  O2-  O194  1  0.66842336  0.08032108  0.49963169  1
  O2-  O195  1  0.66675375  0.08119215  0.75086779  1
  O2-  O196  1  0.66689378  0.41334998  -0.00008210  1
  O2-  O197  1  0.66664309  0.41268000  0.24982640  1
  O2-  O198  1  0.66801558  0.41436957  0.49889666  1
  O2-  O199  1  0.66762300  0.41360118  0.75108553  1
  O2-  O200  1  0.66716894  0.74672458  0.00061513  1
  O2-  O201  1  0.66848310  0.74723664  0.24950324  1
  O2-  O202  1  0.66735244  0.74868030  0.50042844  1
  O2-  O203  1  0.66725477  0.74803658  0.75006245  1
  O2-  O204  1  0.33181161  0.25181076  0.00020028  1
  O2-  O205  1  0.33268183  0.25326461  0.24998310  1
  O2-  O206  1  0.33275817  0.25298092  0.49975759  1
  O2-  O207  1  0.33344946  0.25156925  0.75048114  1
  O2-  O208  1  0.33259223  0.58550328  -0.00069608  1
  O2-  O209  1  0.33289213  0.58667131  0.24868068  1
  O2-  O210  1  0.33357908  0.58570285  0.50102867  1
  O2-  O211  1  0.33236638  0.58534756  0.74982237  1
  O2-  O212  1  0.33340959  0.92062566  -0.00083326  1
  O2-  O213  1  0.33214839  0.91880457  0.24955235  1
  O2-  O214  1  0.33365018  0.91806042  0.49934384  1
  O2-  O215  1  0.33314381  0.92062172  0.75058201  1
  O2-  O216  1  0.83372282  0.25182729  -0.00024971  1
  O2-  O217  1  0.83380115  0.25389998  0.24965971  1
  O2-  O218  1  0.83275951  0.25196549  0.49979323  1
  O2-  O219  1  0.83337180  0.25346449  0.75020006  1
  O2-  O220  1  0.83286864  0.58665913  0.00049347  1
  O2-  O221  1  0.83190022  0.58630272  0.24921416  1
  O2-  O222  1  0.83312449  0.58374580  0.49969391  1
  O2-  O223  1  0.83299914  0.58681753  0.74998759  1
  O2-  O224  1  0.83287037  0.91901820  0.00030288  1
  O2-  O225  1  0.83244818  0.91907096  0.25012938  1
  O2-  O226  1  0.83280408  0.91974076  0.49931321  1
  O2-  O227  1  0.83320002  0.91766390  0.75022250  1
  O2-  O228  1  0.16759461  0.25220609  0.00082678  1
  O2-  O229  1  0.16730430  0.25366081  0.24933921  1
  O2-  O230  1  0.16740038  0.25302152  0.50036032  1
  O2-  O231  1  0.16661206  0.25191759  0.74992673  1
  O2-  O232  1  0.16659586  0.58582288  0.00025687  1
  O2-  O233  1  0.16650615  0.58681589  0.24866567  1
  O2-  O234  1  0.16739463  0.58512811  0.50027400  1
  O2-  O235  1  0.16877302  0.58537101  0.74965985  1
  O2-  O236  1  0.16672046  0.92158604  -0.00031093  1
  O2-  O237  1  0.16770032  0.91900239  0.24918803  1
  O2-  O238  1  0.16640103  0.91880209  0.49987012  1
  O2-  O239  1  0.16713442  0.92126455  0.74995780  1
  O2-  O240  1  0.66636610  0.25198858  -0.00023034  1
  O2-  O241  1  0.66607942  0.25380826  0.24932197  1
  O2-  O242  1  0.66675099  0.25177987  0.49917875  1
  O2-  O243  1  0.66723565  0.25303367  0.75042455  1
  O2-  O244  1  0.66593319  0.58724709  0.00095163  1
  O2-  O245  1  0.66751587  0.58720529  0.24929289  1
  O2-  O246  1  0.66583851  0.58409810  0.50001173  1
  O2-  O247  1  0.66655148  0.58678357  0.75022024  1
  O2-  O248  1  0.66693407  0.91947185  0.00059251  1
  O2-  O249  1  0.66811631  0.91979874  0.25026406  1
  O2-  O250  1  0.66717431  0.91951830  0.49905981  1
  O2-  O251  1  0.66739907  0.91773047  0.75033490  1
  O2-  O252  1  0.33144649  0.08026413  -0.00118741  1
  O2-  O253  1  0.33299930  0.07919640  0.24983850  1
  O2-  O254  1  0.33324673  0.08039134  0.49870889  1
  O2-  O255  1  0.33190919  0.08028497  0.75155814  1
  O2-  O256  1  0.33355209  0.41448556  0.00049135  1
  O2-  O257  1  0.33330186  0.41309217  0.24955050  1
  O2-  O258  1  0.33271170  0.41538713  0.50043451  1
  O2-  O259  1  0.33217858  0.41515238  0.75006262  1
  O2-  O260  1  0.33360107  0.74616790  -0.00047922  1
  O2-  O261  1  0.33169498  0.74749043  0.24943589  1
  O2-  O262  1  0.33370428  0.74796131  0.50102407  1
  O2-  O263  1  0.33428926  0.74641348  0.75009935  1
  O2-  O264  1  0.83222018  0.08110501  0.00042391  1
  O2-  O265  1  0.83322024  0.07967383  0.25023504  1
  O2-  O266  1  0.83141821  0.08046343  0.50010377  1
  O2-  O267  1  0.83310143  0.08114514  0.75093470  1
  O2-  O268  1  0.83304636  0.41328141  -0.00010381  1
  O2-  O269  1  0.83356271  0.41317367  0.25002039  1
  O2-  O270  1  0.83228955  0.41445925  0.49872127  1
  O2-  O271  1  0.83366380  0.41291634  0.75049949  1
  O2-  O272  1  0.83237071  0.74694392  0.00010087  1
  O2-  O273  1  0.83087727  0.74746041  0.24971855  1
  O2-  O274  1  0.83274641  0.74856149  0.50018455  1
  O2-  O275  1  0.83176845  0.74820952  0.74994121  1
  O2-  O276  1  0.04024344  0.22807795  0.52775511  1
  O2-  O277  1  0.54511727  0.56914232  0.01450632  1
  O2-  O278  1  0.94352465  0.08520258  0.52299119  1
  O2-  O279  1  0.53922788  0.22993088  0.77895337  1
  O2-  O280  1  0.04820366  0.90311890  0.74846448  1
  O2-  O281  1  0.95464486  0.23884688  0.01484394  1
  O2-  O282  1  0.94852214  0.57606631  0.21709338  1
  O2-  O283  1  0.04454742  0.56194595  0.47419546  1
  O2-  O284  1  0.03094430  0.54651844  0.75219042  1
  O2-  O285  1  0.45441675  0.90056466  0.51303616  1
  O2-  O286  1  0.45460627  0.76633434  0.26429519  1
  O2-  O287  1  0.45591825  0.43802847  0.77667404  1
  O2-  O288  1  0.95110972  0.90346525  0.75589453  1
  O2-  O289  1  0.46289414  0.22307727  0.24885159  1
  O2-  O290  1  0.45725288  0.10716881  0.77929156  1
  O2-  O291  1  0.54568764  0.09797624  0.47981533  1
  O2-  O292  1  0.54252702  0.10479638  0.77758705  1
  O2-  O293  1  0.53668916  0.45216530  0.74263970  1
  O2-  O294  1  0.95180627  0.90354551  0.74592970  1
  O2-  O295  1  0.95477430  0.09895352  0.02257626  1
  O2-  O296  1  0.04728703  0.43242122  0.26304632  1
  O2-  O297  1  0.95270175  0.42961844  0.26398912  1
  O2-  O298  1  0.04680516  0.76391686  0.26406292  1
  O2-  O299  1  0.46286021  0.22322058  0.24905583  1
  O2-  O300  1  0.53181485  0.78468153  0.49596490  1
  O2-  O301  1  0.54724213  0.42937368  0.98246066  1
  O2-  O302  1  0.95873363  0.43815763  0.49280447  1
  O2-  O303  1  0.95329731  0.76307194  0.76948991  1
  O2-  O304  1  0.95450384  0.23486924  0.23442695  1
  O2-  O305  1  0.45241438  0.90173322  0.98057348  1
  O2-  O306  1  0.04482078  0.43808267  0.52751745  1
  O2-  O307  1  0.45423999  0.76208735  0.01281753  1
  O2-  O308  1  0.04710090  0.09682736  0.48706187  1
  O2-  O309  1  0.04486496  0.90066461  0.48462783  1
  O2-  O310  1  0.96293196  0.55894905  0.50836821  1
  O2-  O311  1  0.04525121  0.56764111  0.01504753  1
  O2-  O312  1  0.04813546  0.90338353  0.75161374  1
  O2-  O313  1  0.45451635  0.89990882  0.73744210  1
  O2-  O314  1  0.54811754  0.90152403  0.98537704  1
  O2-  O315  1  0.95355516  0.76265668  0.73036276  1
  O2-  O316  1  0.95858734  0.43740226  0.49167400  1
  O2-  O317  1  0.54194690  0.43681715  0.47643514  1
  O2-  O318  1  0.54551743  0.57002990  0.48698040  1
  O2-  O319  1  0.03713053  0.12022518  0.99500425  1
  O2-  O320  1  0.04602976  0.90281501  0.01297988  1
  O2-  O321  1  0.95957187  0.10944426  0.98704959  1
  O2-  O322  1  0.45257249  0.90247472  0.01983017  1
  O2-  O323  1  0.54618174  0.09735841  0.51905667  1
  O2-  O324  1  0.57109341  0.26633476  0.70849765  1
  O2-  O325  1  0.07015427  0.39995842  0.45999018  1
  O2-  O326  1  0.43646872  0.26479552  0.03093621  1
  O2-  O327  1  0.42671548  0.27253736  0.30316337  1
  O2-  O328  1  0.56384002  0.06889882  0.28287753  1
  O2-  O329  1  0.93336004  0.73863003  0.04869533  1
  O2-  O330  1  0.43603462  0.06909151  0.46622316  1
  O2-  O331  1  0.43483685  0.26111962  0.52912497  1
  O2-  O332  1  0.43567034  0.06935120  0.95140056  1
  O2-  O333  1  0.93440274  0.07075746  0.27907570  1
  O2-  O334  1  0.56953195  0.06224372  0.70421384  1
  O2-  O335  1  0.07147642  0.26955358  0.45711889  1
  O2-  O336  1  0.94618466  0.57909486  0.20539873  1
  O2-  O337  1  0.06336448  0.74025091  0.27804135  1
  O2-  O338  1  0.43402157  0.40599310  0.46974712  1
  O2-  O339  1  0.43560237  0.59808183  0.03233768  1
  O2-  O340  1  0.93450996  0.59364556  0.96981840  1
  O2-  O341  1  0.93548745  0.07167857  0.72096647  1
  O2-  O342  1  0.43486834  0.59556040  0.27868289  1
  O2-  O343  1  0.57707931  0.39016512  0.71197295  1
  O2-  O344  1  0.07534612  0.04834486  0.95708873  1
  O2-  O345  1  0.93697710  0.73638746  0.46706905  1
  O2-  O346  1  0.06448215  0.40442601  0.97038192  1
  O2-  O347  1  0.57547672  0.71622904  0.45743033  1
  O2-  O348  1  0.93538528  0.26339448  0.46684449  1
  O2-  O349  1  0.07934219  0.61581495  0.78897574  1
  O2-  O350  1  0.57146654  0.39755004  0.54083206  1
  O2-  O351  1  0.43625485  0.06953470  0.04840124  1
  O2-  O352  1  0.92229920  0.38855797  0.54255558  1
  O2-  O353  1  0.06983105  0.60196595  0.53961302  1
  O2-  O354  1  0.56478766  0.92862688  0.79473978  1
  O2-  O355  1  0.93377325  0.73934671  0.95195343  1
  O2-  O356  1  0.42922055  0.39700903  0.70940243  1
  O2-  O357  1  0.93634891  0.93086936  0.03391796  1
  O2-  O358  1  0.93523576  0.73837266  0.30029174  1
  O2-  O359  1  0.43594241  0.59793697  0.78314086  1
  O2-  O360  1  0.93002230  0.60527337  0.31799774  1
  O2-  O361  1  0.93321014  0.73863469  0.20265766  1
  O2-  O362  1  0.56402960  0.92860135  0.70205398  1
  O2-  O363  1  0.94512792  0.08686904  0.52252499  1
  O2-  O364  1  0.06559060  0.26220442  0.27864897  1
  O2-  O365  1  0.42953952  0.06198014  0.70825518  1
  O2-  O366  1  0.42958407  0.27570934  0.19319020  1
  O2-  O367  1  0.92386899  0.61072785  0.53740933  1
  O2-  O368  1  0.93608417  0.40294006  0.03257840  1
  O2-  O369  1  0.56192245  0.40487227  0.96503473  1
  O2-  O370  1  0.43559267  0.06758067  0.21800553  1
  O2-  O371  1  0.92808254  0.05593124  0.95810618  1
  O2-  O372  1  0.24998507  -0.00300272  0.34811744  1
  O2-  O373  1  0.25008233  0.66009525  0.64766145  1
  O2-  O374  1  0.75019238  0.33385781  0.59346570  1
  O2-  O375  1  0.24998416  0.00275437  0.09695671  1
  O2-  O376  1  0.25008855  0.33227895  0.91852533  1
  O2-  O377  1  0.24993501  0.66489549  0.09787294  1
  O2-  O378  1  0.74987068  0.32535137  0.91877224  1
  O2-  O379  1  0.24988411  0.33416018  0.59510758  1
  O2-  O380  1  0.75009881  -0.00425746  0.14973807  1
  O2-  O381  1  0.25003265  0.66279778  0.84995875  1
  O2-  O382  1  0.74994488  0.00128175  0.83091057  1
  O2-  O383  1  0.24972658  0.00040895  0.59582192  1
  O2-  O384  1  0.74985873  0.66671353  0.59936533  1
  O2-  O385  1  0.74998633  0.33709767  0.34924060  1
  O2-  O386  1  0.74998684  0.34073983  0.83059566  1
  O2-  O387  1  0.75003675  0.33100719  0.09724704  1
  O2-  O388  1  0.25008883  0.33298563  0.83179475  1
  O2-  O389  1  0.74997876  0.67255791  0.83271128  1
  O2-  O390  1  0.25002526  0.66834844  0.34072948  1
  O2-  O391  1  0.25010505  0.33431598  0.40339545  1
  O2-  O392  1  0.75005568  0.66564138  0.92534168  1
  O2-  O393  1  0.74983083  0.66837177  0.40115977  1
  O2-  O394  1  0.74983323  0.00412096  0.65318626  1
  O2-  O395  1  0.74989636  -0.00070939  0.91949924  1
  O2-  O396  1  0.75009909  0.50283036  0.34692867  1
  O2-  O397  1  0.75002952  0.16973899  0.93070992  1
  O2-  O398  1  0.25006471  0.50159740  0.90606949  1
  O2-  O399  1  0.74997221  0.16378259  0.41088941  1
  O2-  O400  1  0.74997178  0.16432768  0.09042190  1
  O2-  O401  1  0.25024946  0.16574995  0.16396954  1
  O2-  O402  1  0.24997309  0.16755559  0.65770753  1
  O2-  O403  1  0.24994749  0.16948101  0.40307607  1
  O2-  O404  1  0.25010334  0.83354763  0.12552642  1
  O2-  O405  1  0.25005253  0.49935448  0.40763463  1
  O2-  O406  1  0.25003613  0.49748069  0.15239826  1
  O2-  O407  1  0.74986672  0.16837823  0.84502684  1
  O2-  O408  1  0.74998624  0.49851113  0.10495527  1
  O2-  O409  1  0.74993236  0.50248779  0.43016334  1
  O2-  O410  1  0.74997140  0.83017522  0.09054068  1
  O2-  O411  1  0.24997884  0.83331800  0.88615488  1
  O2-  O412  1  0.74996568  0.49846200  0.58719880  1
  O2-  O413  1  0.24993343  0.83341405  0.40400658  1
  O2-  O414  1  0.24997136  0.83204766  0.64119963  1
  O2-  O415  1  0.24998865  0.49963518  0.07098582  1
  O2-  O416  1  0.24985085  0.16692246  0.08399886  1
  O2-  O417  1  0.74997165  0.83199268  0.60999675  1
  O2-  O418  1  0.74999251  0.82969582  0.91111924  1
  O2-  O419  1  0.74997718  0.50076446  0.85563631  1
  O2-  O420  1  0.53530128  0.33215012  0.37487166  1
  O2-  O421  1  0.52634855  0.00279870  0.87810365  1
  O2-  O422  1  0.96981079  0.66386082  0.86756399  1
  O2-  O423  1  0.96681706  -0.00318602  0.37800174  1
  O2-  O424  1  0.02548426  0.33130479  0.87091033  1
  O2-  O425  1  0.02696648  0.66473360  0.37753402  1
  O2-  O426  1  0.02766720  0.33394616  0.12465358  1
  O2-  O427  1  0.47384621  0.00012922  0.62190379  1
  O2-  O428  1  0.02835989  -0.00009332  0.12719660  1
  O2-  O429  1  0.47033435  0.33240885  0.62229847  1
  O2-  O430  1  0.02260125  0.33504357  0.37223519  1
  O2-  O431  1  0.03106227  0.66976224  0.87992741  1
  O2-  O432  1  0.97500346  -0.00427477  0.62324930  1
  O2-  O433  1  0.46928098  0.33462373  0.37726721  1
  O2-  O434  1  0.03512076  -0.00047144  0.37318063  1
  O2-  O435  1  0.03113296  0.33338633  0.62842919  1
  O2-  O436  1  0.97789282  0.66535152  0.12167174  1
  O2-  O437  1  0.52739906  0.32972777  0.62124054  1
  O2-  O438  1  0.47348415  0.66789054  0.37918448  1
  O2-  O439  1  0.52838825  -0.00043141  0.12516469  1
  O2-  O440  1  0.97026962  0.66810098  0.62849004  1
  O2-  O441  1  0.52826961  0.33341424  0.12605737  1
  O2-  O442  1  0.97102552  0.32971848  0.63083860  1
  O2-  O443  1  0.03015726  0.66958508  0.62932636  1
