# generated using pymatgen
data_La7(Ru4O11)2
_symmetry_space_group_name_H-M   'P 1'
_cell_length_a   23.99069760
_cell_length_b   16.83095452
_cell_length_c   15.42737379
_cell_angle_alpha   89.99765887
_cell_angle_beta   89.99846380
_cell_angle_gamma   90.00007808
_symmetry_Int_Tables_number   1
_chemical_formula_structural   La7(Ru4O11)2
_chemical_formula_sum   'La84 Ru96 O264'
_cell_volume   6229.36279456
_cell_formula_units_Z   12
loop_
 _symmetry_equiv_pos_site_id
 _symmetry_equiv_pos_as_xyz
  1  'x, y, z'
loop_
 _atom_type_symbol
 _atom_type_oxidation_number
  La3+  3.0
  Ru4+  4.0
  O2-  -2.0
loop_
 _atom_site_type_symbol
 _atom_site_label
 _atom_site_symmetry_multiplicity
 _atom_site_fract_x
 _atom_site_fract_y
 _atom_site_fract_z
 _atom_site_occupancy
  La3+  La0  1  0.13949906  0.00335003  0.12220895  1
  La3+  La1  1  0.13833087  0.00223557  0.37485621  1
  La3+  La2  1  0.13713636  -0.00062579  0.62542053  1
  La3+  La3  1  0.13996597  0.00528030  0.87940112  1
  La3+  La4  1  0.14077576  0.33402230  0.12094278  1
  La3+  La5  1  0.13586704  0.33243588  0.37819961  1
  La3+  La6  1  0.13667618  0.33260660  0.62401277  1
  La3+  La7  1  0.13890427  0.33391991  0.87840012  1
  La3+  La8  1  0.14582156  0.66498475  0.12628456  1
  La3+  La9  1  0.13749184  0.66583289  0.36931247  1
  La3+  La10  1  0.13555442  0.66743115  0.62600238  1
  La3+  La11  1  0.14058699  0.66395148  0.87838279  1
  La3+  La12  1  0.63765962  -0.00244557  0.12399033  1
  La3+  La13  1  0.63773040  -0.00117052  0.37502479  1
  La3+  La14  1  0.63792832  0.00000429  0.62671732  1
  La3+  La15  1  0.63997308  -0.00073767  0.87279565  1
  La3+  La16  1  0.63836731  0.33776953  0.12843767  1
  La3+  La17  1  0.63989656  0.33441380  0.37438243  1
  La3+  La18  1  0.64295560  0.33470934  0.62838655  1
  La3+  La19  1  0.64009468  0.33446110  0.87064277  1
  La3+  La20  1  0.64025382  0.67059614  0.12708567  1
  La3+  La21  1  0.62842180  0.66165619  0.38204816  1
  La3+  La22  1  0.63351302  0.66062718  0.62292279  1
  La3+  La23  1  0.64476595  0.67048253  0.87612340  1
  La3+  La24  1  0.35843141  0.00180238  0.12088908  1
  La3+  La25  1  0.36257413  0.00310401  0.37450378  1
  La3+  La26  1  0.36693837  -0.00450604  0.63060267  1
  La3+  La27  1  0.36502634  -0.00505933  0.86593902  1
  La3+  La28  1  0.35858817  0.33355385  0.12007926  1
  La3+  La29  1  0.36511950  0.33085965  0.37686643  1
  La3+  La30  1  0.36201310  0.33224116  0.62361907  1
  La3+  La31  1  0.36151023  0.33347721  0.87829418  1
  La3+  La32  1  0.35468024  0.66696928  0.12338688  1
  La3+  La33  1  0.36278088  0.66653916  0.36940420  1
  La3+  La34  1  0.36382615  0.66511784  0.62639335  1
  La3+  La35  1  0.36249005  0.66832084  0.88089821  1
  La3+  La36  1  0.86537303  0.00010160  0.12413345  1
  La3+  La37  1  0.86338245  -0.00153848  0.37337211  1
  La3+  La38  1  0.86238607  -0.00079990  0.62580769  1
  La3+  La39  1  0.86108440  0.00202512  0.87594803  1
  La3+  La40  1  0.87218962  0.32755686  0.11937880  1
  La3+  La41  1  0.86676990  0.33541529  0.37539970  1
  La3+  La42  1  0.86030405  0.33466196  0.62704647  1
  La3+  La43  1  0.86549925  0.32975915  0.87761614  1
  La3+  La44  1  0.85650658  0.67358210  0.12168102  1
  La3+  La45  1  0.85925077  0.66851178  0.37382773  1
  La3+  La46  1  0.85874985  0.66925429  0.62619727  1
  La3+  La47  1  0.85592231  0.66911916  0.88008292  1
  La3+  La48  1  0.49983914  0.83322919  0.38495122  1
  La3+  La49  1  -0.00904385  0.83014985  0.13170630  1
  La3+  La50  1  0.00135259  0.82963856  0.87993546  1
  La3+  La51  1  0.50173237  0.82842781  0.13603737  1
  La3+  La52  1  0.50264372  0.17650079  0.12485708  1
  La3+  La53  1  -0.00145007  0.49948189  0.61193028  1
  La3+  La54  1  0.00046313  0.16538954  0.36570820  1
  La3+  La55  1  -0.01023111  0.83779290  0.11733454  1
  La3+  La56  1  0.49810906  0.49821119  0.61717335  1
  La3+  La57  1  0.50332067  0.50311963  0.88667071  1
  La3+  La58  1  0.49960792  0.16790338  0.14483819  1
  La3+  La59  1  -0.00092864  0.16839098  0.63374064  1
  La3+  La60  1  -0.00076143  0.49714674  0.36425863  1
  La3+  La61  1  0.49156614  0.15450898  0.87868692  1
  La3+  La62  1  -0.00491214  0.17561413  0.11441316  1
  La3+  La63  1  0.50283400  0.16809458  0.63116886  1
  La3+  La64  1  0.50364420  0.50550719  0.39525702  1
  La3+  La65  1  -0.00159527  0.83602947  0.38516622  1
  La3+  La66  1  -0.00211602  0.16945655  0.87035044  1
  La3+  La67  1  0.50068568  0.49750257  0.13607581  1
  La3+  La68  1  0.49182673  0.83765694  0.85918330  1
  La3+  La69  1  0.50214506  0.83013448  0.64102396  1
  La3+  La70  1  0.00058127  0.49292202  0.63262742  1
  La3+  La71  1  0.50557078  0.82251641  0.11548212  1
  La3+  La72  1  0.74971561  0.54541758  0.01947738  1
  La3+  La73  1  0.25019668  0.20991987  0.77101998  1
  La3+  La74  1  0.75066126  0.53130165  0.54182213  1
  La3+  La75  1  0.75057475  0.17827934  0.29538338  1
  La3+  La76  1  0.75014270  0.10338718  -0.00157526  1
  La3+  La77  1  0.74993780  0.21111160  0.53384114  1
  La3+  La78  1  0.74962828  0.17024915  0.70577246  1
  La3+  La79  1  0.25021356  0.45467502  0.46940891  1
  La3+  La80  1  0.24952132  0.84210551  0.49143387  1
  La3+  La81  1  0.24951270  0.88207449  0.74740630  1
  La3+  La82  1  0.24938247  0.46105796  0.76364348  1
  La3+  La83  1  0.25036963  0.16698917  0.51607253  1
  Ru4+  Ru84  1  0.00001307  -0.00796716  -0.00224562  1
  Ru4+  Ru85  1  0.00192532  0.00780678  0.24970766  1
  Ru4+  Ru86  1  -0.00094952  -0.00062369  0.50766124  1
  Ru4+  Ru87  1  -0.00070030  0.00226688  0.74913654  1
  Ru4+  Ru88  1  -0.00147785  0.33720639  0.00413578  1
  Ru4+  Ru89  1  0.00370120  0.33996198  0.24776572  1
  Ru4+  Ru90  1  0.00234230  0.32677136  0.49856585  1
  Ru4+  Ru91  1  0.00066770  0.33099684  0.74926862  1
  Ru4+  Ru92  1  0.00385146  0.65565608  -0.00627852  1
  Ru4+  Ru93  1  -0.00299011  0.65664181  0.25128985  1
  Ru4+  Ru94  1  0.00086648  0.66522684  0.49894521  1
  Ru4+  Ru95  1  0.00296552  0.66682710  0.75142312  1
  Ru4+  Ru96  1  0.50437461  -0.00062334  -0.00061878  1
  Ru4+  Ru97  1  0.50289320  0.00126858  0.25557229  1
  Ru4+  Ru98  1  0.49772541  0.00072609  0.49748561  1
  Ru4+  Ru99  1  0.50033567  -0.00070500  0.74658408  1
  Ru4+  Ru100  1  0.49947068  0.33560882  -0.00673222  1
  Ru4+  Ru101  1  0.50036645  0.33405584  0.25249960  1
  Ru4+  Ru102  1  0.49899678  0.33087678  0.49201831  1
  Ru4+  Ru103  1  0.50001430  0.33265075  0.76009983  1
  Ru4+  Ru104  1  0.50340944  0.65715470  0.00159689  1
  Ru4+  Ru105  1  0.49622427  0.65595947  0.25350513  1
  Ru4+  Ru106  1  0.50056442  0.66340743  0.49536955  1
  Ru4+  Ru107  1  0.50420060  0.67005831  0.75234292  1
  Ru4+  Ru108  1  0.11737802  0.17012958  -0.00128773  1
  Ru4+  Ru109  1  0.11259116  0.16752273  0.25084369  1
  Ru4+  Ru110  1  0.11065222  0.16692017  0.49929584  1
  Ru4+  Ru111  1  0.10882075  0.16805958  0.74893220  1
  Ru4+  Ru112  1  0.11319484  0.50412956  -0.00122680  1
  Ru4+  Ru113  1  0.11190553  0.50294102  0.24814786  1
  Ru4+  Ru114  1  0.10883582  0.49964709  0.49923554  1
  Ru4+  Ru115  1  0.10865172  0.49859387  0.74799038  1
  Ru4+  Ru116  1  0.11608364  0.83067062  -0.00120210  1
  Ru4+  Ru117  1  0.11424153  0.83137102  0.25208835  1
  Ru4+  Ru118  1  0.10804606  0.83498064  0.50075965  1
  Ru4+  Ru119  1  0.10823347  0.83145279  0.74938399  1
  Ru4+  Ru120  1  0.61240133  0.16903573  -0.00177122  1
  Ru4+  Ru121  1  0.61079526  0.16351792  0.25501991  1
  Ru4+  Ru122  1  0.61030456  0.16585561  0.50213842  1
  Ru4+  Ru123  1  0.61238526  0.16623629  0.74957489  1
  Ru4+  Ru124  1  0.60966003  0.50161257  0.00126738  1
  Ru4+  Ru125  1  0.61286498  0.49928421  0.25051320  1
  Ru4+  Ru126  1  0.61125542  0.50062573  0.50022019  1
  Ru4+  Ru127  1  0.61325895  0.50171579  0.75150189  1
  Ru4+  Ru128  1  0.61468256  0.83159277  -0.00177363  1
  Ru4+  Ru129  1  0.61866390  0.83588614  0.25301618  1
  Ru4+  Ru130  1  0.61137890  0.83169533  0.49925898  1
  Ru4+  Ru131  1  0.61419932  0.83039727  0.75009071  1
  Ru4+  Ru132  1  0.38128855  0.16683824  -0.00256474  1
  Ru4+  Ru133  1  0.38704641  0.16646594  0.25142253  1
  Ru4+  Ru134  1  0.39069232  0.16791266  0.49981060  1
  Ru4+  Ru135  1  0.38900838  0.16898153  0.74964606  1
  Ru4+  Ru136  1  0.38456759  0.49957128  0.00041801  1
  Ru4+  Ru137  1  0.38779312  0.50301654  0.24983697  1
  Ru4+  Ru138  1  0.38931436  0.50111478  0.50027635  1
  Ru4+  Ru139  1  0.38630611  0.49448840  0.74863589  1
  Ru4+  Ru140  1  0.38188741  0.83531742  -0.00467607  1
  Ru4+  Ru141  1  0.38459321  0.83138503  0.25236210  1
  Ru4+  Ru142  1  0.39162482  0.83608494  0.50164567  1
  Ru4+  Ru143  1  0.38895877  0.83365903  0.74976537  1
  Ru4+  Ru144  1  0.88443666  0.17353782  -0.00175090  1
  Ru4+  Ru145  1  0.88522252  0.16135146  0.24862986  1
  Ru4+  Ru146  1  0.89103905  0.16693736  0.50181947  1
  Ru4+  Ru147  1  0.89014444  0.16776659  0.75171392  1
  Ru4+  Ru148  1  0.88997975  0.49703048  0.00023080  1
  Ru4+  Ru149  1  0.89051627  0.50669530  0.24778198  1
  Ru4+  Ru150  1  0.88534963  0.50630321  0.50126901  1
  Ru4+  Ru151  1  0.88614093  0.49691399  0.74983942  1
  Ru4+  Ru152  1  0.88305908  0.83787856  -0.00306464  1
  Ru4+  Ru153  1  0.88213564  0.82739169  0.25203453  1
  Ru4+  Ru154  1  0.88720187  0.83550277  0.50028383  1
  Ru4+  Ru155  1  0.88531079  0.83081687  0.74993318  1
  Ru4+  Ru156  1  0.25032390  0.97590281  0.47161974  1
  Ru4+  Ru157  1  0.74883879  0.26480054  0.00551067  1
  Ru4+  Ru158  1  0.74978131  0.04505626  0.22839658  1
  Ru4+  Ru159  1  0.74949278  0.75198096  0.49979356  1
  Ru4+  Ru160  1  0.25044688  0.73878118  0.73875426  1
  Ru4+  Ru161  1  0.24961258  0.91986487  0.24694131  1
  Ru4+  Ru162  1  0.75006275  0.58195827  0.76606333  1
  Ru4+  Ru163  1  0.75002644  0.91143579  0.75322302  1
  Ru4+  Ru164  1  0.24963155  0.07242889  0.76365023  1
  Ru4+  Ru165  1  0.75023041  0.05975389  0.49258236  1
  Ru4+  Ru166  1  0.74987567  0.30193344  0.24123804  1
  Ru4+  Ru167  1  0.74959497  0.90715719  -0.00342808  1
  Ru4+  Ru168  1  0.24961064  0.59578313  0.74112318  1
  Ru4+  Ru169  1  0.74978375  0.40471782  0.00669841  1
  Ru4+  Ru170  1  0.75059880  0.90735014  0.24638573  1
  Ru4+  Ru171  1  0.24981960  0.25758634  0.24739408  1
  Ru4+  Ru172  1  0.24992090  0.07095696  0.23825792  1
  Ru4+  Ru173  1  0.75000445  0.58410634  0.24697013  1
  Ru4+  Ru174  1  0.25010879  0.91968731  0.00563995  1
  Ru4+  Ru175  1  0.74998608  0.39301068  0.50253149  1
  Ru4+  Ru176  1  0.25006159  0.71248036  0.47831271  1
  Ru4+  Ru177  1  0.25036320  0.42629814  0.24464588  1
  Ru4+  Ru178  1  0.24925724  0.58535721  0.50420897  1
  Ru4+  Ru179  1  0.74946352  0.91631767  0.50208768  1
  O2-  O180  1  0.16548177  0.08111514  0.00174069  1
  O2-  O181  1  0.16823615  0.07952510  0.24803089  1
  O2-  O182  1  0.16480056  0.08037467  0.50112727  1
  O2-  O183  1  0.16594146  0.07975744  0.74954415  1
  O2-  O184  1  0.16263636  0.41446923  -0.00147556  1
  O2-  O185  1  0.16590282  0.41412084  0.25235708  1
  O2-  O186  1  0.16742538  0.40915072  0.50202601  1
  O2-  O187  1  0.16344703  0.40833336  0.74894716  1
  O2-  O188  1  0.16757101  0.75048047  0.00312491  1
  O2-  O189  1  0.16517998  0.74890175  0.25331349  1
  O2-  O190  1  0.16344294  0.74495432  0.49770151  1
  O2-  O191  1  0.16626711  0.74659290  0.74837713  1
  O2-  O192  1  0.66003622  0.07769762  -0.00101486  1
  O2-  O193  1  0.66800959  0.07786234  0.25022755  1
  O2-  O194  1  0.66795130  0.07931313  0.49896457  1
  O2-  O195  1  0.66825142  0.08314656  0.74827261  1
  O2-  O196  1  0.66611279  0.41296321  0.00099905  1
  O2-  O197  1  0.66900663  0.41428728  0.25073793  1
  O2-  O198  1  0.66679903  0.41490292  0.49920134  1
  O2-  O199  1  0.66372324  0.41757504  0.75054888  1
  O2-  O200  1  0.66443617  0.74814182  0.00408847  1
  O2-  O201  1  0.66527089  0.74788717  0.25165948  1
  O2-  O202  1  0.66535114  0.74567564  0.49860223  1
  O2-  O203  1  0.66695791  0.75031443  0.74868484  1
  O2-  O204  1  0.33292968  0.25209779  -0.00215621  1
  O2-  O205  1  0.33321953  0.25407016  0.25081819  1
  O2-  O206  1  0.33125707  0.25304996  0.49987256  1
  O2-  O207  1  0.33657421  0.25597700  0.74898633  1
  O2-  O208  1  0.33699113  0.58479253  0.00203565  1
  O2-  O209  1  0.33591656  0.58535815  0.25329321  1
  O2-  O210  1  0.33310596  0.58623061  0.49732706  1
  O2-  O211  1  0.33441306  0.58596772  0.74900407  1
  O2-  O212  1  0.33075560  0.91870275  0.00258221  1
  O2-  O213  1  0.33162338  0.91908337  0.24914318  1
  O2-  O214  1  0.33142339  0.92079604  0.50137280  1
  O2-  O215  1  0.33700248  0.92159982  0.74708773  1
  O2-  O216  1  0.83165275  0.25442652  0.00209371  1
  O2-  O217  1  0.83357862  0.25630026  0.24748640  1
  O2-  O218  1  0.83651989  0.25442215  0.49957147  1
  O2-  O219  1  0.83485231  0.25124576  0.74818051  1
  O2-  O220  1  0.83667761  0.58644723  -0.00037416  1
  O2-  O221  1  0.83028348  0.58436301  0.24947445  1
  O2-  O222  1  0.83319186  0.58916375  0.50079336  1
  O2-  O223  1  0.83209190  0.58610177  0.75048184  1
  O2-  O224  1  0.83139576  0.92048683  0.00011102  1
  O2-  O225  1  0.83307907  0.91821951  0.24938925  1
  O2-  O226  1  0.83276157  0.91810829  0.49982597  1
  O2-  O227  1  0.83282191  0.91889388  0.74891560  1
  O2-  O228  1  0.16470719  0.25367697  -0.00196229  1
  O2-  O229  1  0.16571641  0.25314346  0.24975966  1
  O2-  O230  1  0.16869190  0.25533948  0.50124456  1
  O2-  O231  1  0.16307797  0.25777920  0.74860870  1
  O2-  O232  1  0.16483873  0.58402035  0.00218537  1
  O2-  O233  1  0.16670917  0.58372733  0.25492676  1
  O2-  O234  1  0.16441370  0.58665682  0.49922756  1
  O2-  O235  1  0.16598009  0.58712957  0.74719464  1
  O2-  O236  1  0.16576029  0.91951918  0.00115695  1
  O2-  O237  1  0.17072567  0.91894463  0.24774808  1
  O2-  O238  1  0.16763051  0.92187873  0.49997868  1
  O2-  O239  1  0.16339298  0.92088153  0.74696110  1
  O2-  O240  1  0.66881847  0.25279924  -0.00143788  1
  O2-  O241  1  0.66663106  0.25483524  0.24949037  1
  O2-  O242  1  0.66338172  0.25288527  0.49839029  1
  O2-  O243  1  0.66902453  0.24876511  0.75130283  1
  O2-  O244  1  0.66158993  0.58771026  0.00293893  1
  O2-  O245  1  0.66510900  0.58597887  0.25110227  1
  O2-  O246  1  0.66768326  0.58791926  0.49727380  1
  O2-  O247  1  0.67034649  0.58480473  0.74889498  1
  O2-  O248  1  0.66837359  0.91890139  -0.00050363  1
  O2-  O249  1  0.66907011  0.91919310  0.24979684  1
  O2-  O250  1  0.66600059  0.91959184  0.49942989  1
  O2-  O251  1  0.66862102  0.91798862  0.74914459  1
  O2-  O252  1  0.33275654  0.08156961  0.00179355  1
  O2-  O253  1  0.33336849  0.08054723  0.24779954  1
  O2-  O254  1  0.33475509  0.08006345  0.49986642  1
  O2-  O255  1  0.33378590  0.07907621  0.74800860  1
  O2-  O256  1  0.33632478  0.41514097  -0.00072699  1
  O2-  O257  1  0.33306276  0.41318529  0.25217607  1
  O2-  O258  1  0.33518880  0.41080152  0.49927220  1
  O2-  O259  1  0.33303164  0.41025165  0.75041439  1
  O2-  O260  1  0.33470087  0.74880887  0.00200928  1
  O2-  O261  1  0.33350307  0.74835043  0.25341380  1
  O2-  O262  1  0.33645760  0.74579685  0.49847221  1
  O2-  O263  1  0.33456782  0.74789481  0.74907553  1
  O2-  O264  1  0.84098300  0.07821710  0.00051235  1
  O2-  O265  1  0.83206381  0.07850702  0.24885649  1
  O2-  O266  1  0.83364175  0.07812296  0.49997207  1
  O2-  O267  1  0.83305631  0.08005471  0.74677614  1
  O2-  O268  1  0.83435482  0.41409501  0.00311890  1
  O2-  O269  1  0.83705355  0.41536238  0.24809577  1
  O2-  O270  1  0.83252398  0.41203118  0.50143967  1
  O2-  O271  1  0.83624489  0.41613048  0.74960690  1
  O2-  O272  1  0.83459017  0.75077988  -0.00140632  1
  O2-  O273  1  0.83279372  0.74872708  0.25182230  1
  O2-  O274  1  0.83252001  0.74794557  0.50274718  1
  O2-  O275  1  0.83504720  0.74830363  0.74977752  1
  O2-  O276  1  0.95020188  0.76571994  0.01145575  1
  O2-  O277  1  0.05018484  0.10238025  0.98286522  1
  O2-  O278  1  0.45656782  0.11105717  0.03256153  1
  O2-  O279  1  0.45022342  0.76046300  0.26959174  1
  O2-  O280  1  0.53483528  0.21823898  0.78400454  1
  O2-  O281  1  0.55454879  0.58150877  0.70376603  1
  O2-  O282  1  0.94869688  0.90182279  0.24203447  1
  O2-  O283  1  0.03621032  0.89829890  0.73747840  1
  O2-  O284  1  0.55106218  0.09370321  0.01001034  1
  O2-  O285  1  0.45318490  0.09909138  0.51544278  1
  O2-  O286  1  0.54999356  0.23581541  0.26706091  1
  O2-  O287  1  0.54864725  0.76734667  0.26892629  1
  O2-  O288  1  0.94936180  0.09654402  0.97663684  1
  O2-  O289  1  0.04805537  0.09157116  0.02016317  1
  O2-  O290  1  0.04674223  0.42996793  0.24191883  1
  O2-  O291  1  0.45231310  0.43193968  0.50858012  1
  O2-  O292  1  0.95438482  0.76173022  0.24217586  1
  O2-  O293  1  0.95658098  0.56182752  0.96827572  1
  O2-  O294  1  0.45695551  0.89598726  0.74090556  1
  O2-  O295  1  0.04700388  0.75857889  0.74647873  1
  O2-  O296  1  0.95213120  0.23600312  0.25671275  1
  O2-  O297  1  0.97465234  0.52868367  0.22911243  1
  O2-  O298  1  0.45081616  0.23516520  0.26478313  1
  O2-  O299  1  0.45692526  0.75843129  0.51319063  1
  O2-  O300  1  0.45381250  0.09851982  0.73563487  1
  O2-  O301  1  0.94843797  0.23707908  0.01629051  1
  O2-  O302  1  0.45300329  0.76421581  0.98028034  1
  O2-  O303  1  0.53628979  0.22436670  0.96483489  1
  O2-  O304  1  0.96293426  0.77687811  0.53297283  1
  O2-  O305  1  0.04306887  0.88969296  0.21615742  1
  O2-  O306  1  0.45572671  0.57732682  0.76589128  1
  O2-  O307  1  0.96019251  0.23612929  0.99378587  1
  O2-  O308  1  0.95555663  0.56948674  0.73598094  1
  O2-  O309  1  0.94899129  0.09477765  0.01568711  1
  O2-  O310  1  0.54482181  0.56381083  0.50988049  1
  O2-  O311  1  0.46744792  0.44088658  0.78412292  1
  O2-  O312  1  0.95551316  0.42995585  0.48659464  1
  O2-  O313  1  0.02979038  0.89994745  0.73052625  1
  O2-  O314  1  0.45030928  0.90299881  0.76624454  1
  O2-  O315  1  0.45113682  0.90819371  0.24010545  1
  O2-  O316  1  0.54901804  0.57292226  0.48389495  1
  O2-  O317  1  0.04743654  0.76079378  0.75554129  1
  O2-  O318  1  0.04338121  0.77543597  0.03423553  1
  O2-  O319  1  0.55013487  0.75745203  0.23131815  1
  O2-  O320  1  0.46742703  0.89257880  0.53997343  1
  O2-  O321  1  0.05103913  0.56429009  0.98867844  1
  O2-  O322  1  0.46118850  0.89398268  0.02950897  1
  O2-  O323  1  0.44878507  0.56819029  0.72957418  1
  O2-  O324  1  0.93682751  0.26102014  0.27217796  1
  O2-  O325  1  0.93237435  0.26515463  0.96496694  1
  O2-  O326  1  0.56389290  0.07057896  0.31853962  1
  O2-  O327  1  0.93392550  0.92464151  0.47257459  1
  O2-  O328  1  0.07795126  0.93322122  0.30219488  1
  O2-  O329  1  0.06437329  0.92954115  0.53265931  1
  O2-  O330  1  0.56076989  0.74529242  0.77543726  1
  O2-  O331  1  0.56729526  0.92629611  0.02565356  1
  O2-  O332  1  0.92254499  0.59485771  0.32115397  1
  O2-  O333  1  0.56667190  0.92493823  0.22324307  1
  O2-  O334  1  0.43722004  0.73746128  0.78266171  1
  O2-  O335  1  0.56800167  0.60415963  0.53101170  1
  O2-  O336  1  0.06195710  0.25812063  0.46900506  1
  O2-  O337  1  0.43464580  0.26114333  0.47422311  1
  O2-  O338  1  0.92617290  0.62019535  0.18236237  1
  O2-  O339  1  0.42249551  0.06572941  0.94887771  1
  O2-  O340  1  0.56285958  0.06756861  0.53149611  1
  O2-  O341  1  0.56350860  0.41110499  0.22744913  1
  O2-  O342  1  0.93673916  0.92840536  0.93023645  1
  O2-  O343  1  0.56310229  0.07161453  0.71602094  1
  O2-  O344  1  0.57609369  0.58950674  0.82351954  1
  O2-  O345  1  0.56915440  0.08029687  0.18822855  1
  O2-  O346  1  0.56991754  0.41489719  0.55778848  1
  O2-  O347  1  0.43323700  0.25989249  0.02656833  1
  O2-  O348  1  0.94141207  0.74463353  0.04011752  1
  O2-  O349  1  0.55443139  0.58006203  0.70326121  1
  O2-  O350  1  0.06483983  0.60097915  0.21932172  1
  O2-  O351  1  0.06316194  0.40795922  0.46610478  1
  O2-  O352  1  0.93390340  0.41269297  0.47894939  1
  O2-  O353  1  0.08386856  0.94880878  0.80150789  1
  O2-  O354  1  0.43786808  0.73722634  0.96920634  1
  O2-  O355  1  0.92603879  0.73440032  0.45678482  1
  O2-  O356  1  0.43341790  0.93506028  0.71753152  1
  O2-  O357  1  0.93705028  0.40674102  0.96803906  1
  O2-  O358  1  0.93410868  0.60083566  0.04215597  1
  O2-  O359  1  0.93687602  0.92217777  0.21522187  1
  O2-  O360  1  0.93128611  0.92254044  0.06135429  1
  O2-  O361  1  0.56278216  0.92504018  0.71620946  1
  O2-  O362  1  0.58182452  0.27046663  0.04982565  1
  O2-  O363  1  0.06317864  0.08001153  0.27678524  1
  O2-  O364  1  0.57929124  0.27051701  0.70191311  1
  O2-  O365  1  0.93540918  0.07640843  0.27724357  1
  O2-  O366  1  0.42076297  0.93024043  0.94568089  1
  O2-  O367  1  0.07470247  0.72574204  0.94872292  1
  O2-  O368  1  0.43507431  0.59823804  0.53455734  1
  O2-  O369  1  0.42345651  0.39748033  0.70118577  1
  O2-  O370  1  0.42232847  0.93894026  0.44954984  1
  O2-  O371  1  0.56266158  0.39979099  0.43049477  1
  O2-  O372  1  0.75009572  -0.00079037  0.60222750  1
  O2-  O373  1  0.74981083  0.33167234  0.81974321  1
  O2-  O374  1  0.24991805  -0.00174906  0.34515622  1
  O2-  O375  1  0.24989698  0.01769915  0.58342174  1
  O2-  O376  1  0.24976941  -0.00303306  0.09861968  1
  O2-  O377  1  0.25027790  0.66694908  0.15219190  1
  O2-  O378  1  0.25013942  0.33453469  0.07689321  1
  O2-  O379  1  0.75051455  0.33421428  0.90838388  1
  O2-  O380  1  0.25050136  0.66763972  0.83843414  1
  O2-  O381  1  0.25009471  -0.00635970  0.85261073  1
  O2-  O382  1  0.75057720  0.33015351  0.64147911  1
  O2-  O383  1  0.75045371  -0.00006256  0.81327180  1
  O2-  O384  1  0.75050902  0.66673899  0.67418064  1
  O2-  O385  1  0.24995800  0.33799030  0.16677290  1
  O2-  O386  1  0.75020760  -0.00229556  0.35226192  1
  O2-  O387  1  0.75114096  0.65892756  0.89556503  1
  O2-  O388  1  0.75006035  -0.00338605  0.09929290  1
  O2-  O389  1  0.25028406  0.66613024  0.61020252  1
  O2-  O390  1  0.74903850  0.66186798  0.15430425  1
  O2-  O391  1  0.25007964  0.66781812  0.92872166  1
  O2-  O392  1  0.74996009  0.32657998  0.39966817  1
  O2-  O393  1  0.74979946  0.66304629  0.58136276  1
  O2-  O394  1  0.25043470  -0.00853871  0.67038692  1
  O2-  O395  1  0.74979331  -0.00280358  0.92885601  1
  O2-  O396  1  0.25005103  0.49618442  0.16515528  1
  O2-  O397  1  0.74991243  0.49498324  0.40493661  1
  O2-  O398  1  0.25000331  0.16327591  0.30593039  1
  O2-  O399  1  0.75015758  0.19358228  0.90980914  1
  O2-  O400  1  0.25003490  0.16423223  0.16630027  1
  O2-  O401  1  0.24990880  0.16271940  0.64353862  1
  O2-  O402  1  0.75022012  0.82808749  0.31867567  1
  O2-  O403  1  0.75006080  0.83895785  0.91064727  1
  O2-  O404  1  0.24995516  0.82786920  0.94644369  1
  O2-  O405  1  0.24986446  0.81784018  0.85884177  1
  O2-  O406  1  0.24984199  0.16215978  0.89457917  1
  O2-  O407  1  0.74945006  0.14840994  0.16769119  1
  O2-  O408  1  0.75000718  0.49632924  0.31473670  1
  O2-  O409  1  0.24997995  0.50371974  0.61244939  1
  O2-  O410  1  0.74987501  0.15105596  0.41996530  1
  O2-  O411  1  0.74967636  0.19657439  0.09534502  1
  O2-  O412  1  0.25011234  0.16721063  0.08268366  1
  O2-  O413  1  0.75026391  0.83509271  0.42675902  1
  O2-  O414  1  0.75009913  0.49896238  0.88382486  1
  O2-  O415  1  0.75006347  0.15628038  0.82947077  1
  O2-  O416  1  0.24995833  0.16460393  0.38994543  1
  O2-  O417  1  0.25039830  0.50029516  0.89426799  1
  O2-  O418  1  0.75021762  0.83418688  0.59407641  1
  O2-  O419  1  0.25003336  0.81775893  0.62675986  1
  O2-  O420  1  0.97957235  0.33403945  0.37424661  1
  O2-  O421  1  0.54517849  -0.00090030  0.87728414  1
  O2-  O422  1  0.46795924  0.00584033  0.86127761  1
  O2-  O423  1  0.02837471  0.32783908  0.12232888  1
  O2-  O424  1  0.97113940  -0.00069156  0.37392835  1
  O2-  O425  1  0.53303603  0.33613608  0.12520480  1
  O2-  O426  1  0.52058683  0.67245778  0.89115927  1
  O2-  O427  1  0.52445370  0.33320199  0.62570556  1
  O2-  O428  1  0.47445156  0.34271729  0.37089194  1
  O2-  O429  1  0.52805190  0.66916991  0.37268012  1
  O2-  O430  1  0.97203725  0.00450759  0.62632337  1
  O2-  O431  1  0.51572652  0.00014390  0.12165493  1
  O2-  O432  1  0.02721903  0.65982778  0.62043292  1
  O2-  O433  1  0.54418691  0.34371377  0.87517356  1
  O2-  O434  1  0.46814089  0.32177953  0.61779519  1
  O2-  O435  1  0.98564063  0.66994630  0.37792179  1
  O2-  O436  1  0.45511390  0.32919436  0.87736584  1
  O2-  O437  1  0.45800119  0.34340275  0.13126764  1
  O2-  O438  1  0.47594226  0.00622703  0.36766829  1
  O2-  O439  1  0.98232387  0.01382133  0.12811070  1
  O2-  O440  1  0.02888844  0.00416994  0.38936695  1
  O2-  O441  1  0.02341435  0.00562147  0.88086673  1
  O2-  O442  1  0.97380127  0.33246700  0.62358522  1
  O2-  O443  1  0.02028028  0.65764920  0.86647584  1
