# generated using pymatgen
data_La7(Ru4O11)2
_symmetry_space_group_name_H-M   'P 1'
_cell_length_a   23.99498383
_cell_length_b   16.83297713
_cell_length_c   15.43080165
_cell_angle_alpha   89.99844349
_cell_angle_beta   89.99931833
_cell_angle_gamma   89.99822884
_symmetry_Int_Tables_number   1
_chemical_formula_structural   La7(Ru4O11)2
_chemical_formula_sum   'La84 Ru96 O264'
_cell_volume   6232.60901525
_cell_formula_units_Z   12
loop_
 _symmetry_equiv_pos_site_id
 _symmetry_equiv_pos_as_xyz
  1  'x, y, z'
loop_
 _atom_type_symbol
 _atom_type_oxidation_number
  La3+  3.0
  Ru4+  4.0
  O2-  -2.0
loop_
 _atom_site_type_symbol
 _atom_site_label
 _atom_site_symmetry_multiplicity
 _atom_site_fract_x
 _atom_site_fract_y
 _atom_site_fract_z
 _atom_site_occupancy
  La3+  La0  1  0.13469319  -0.00360358  0.12521383  1
  La3+  La1  1  0.15248260  0.00062940  0.37587823  1
  La3+  La2  1  0.14134080  -0.00121411  0.62065605  1
  La3+  La3  1  0.14027628  0.00025122  0.87289526  1
  La3+  La4  1  0.14207073  0.33537562  0.12055547  1
  La3+  La5  1  0.14145787  0.33439485  0.37453948  1
  La3+  La6  1  0.14031969  0.32884514  0.62501760  1
  La3+  La7  1  0.14029557  0.32958845  0.88319834  1
  La3+  La8  1  0.15136793  0.67354989  0.12156805  1
  La3+  La9  1  0.14606427  0.66589781  0.37624843  1
  La3+  La10  1  0.14333366  0.67070565  0.62504111  1
  La3+  La11  1  0.14710416  0.66906303  0.87970963  1
  La3+  La12  1  0.63590182  0.00033689  0.12712702  1
  La3+  La13  1  0.64958269  -0.00702800  0.37042421  1
  La3+  La14  1  0.64381088  -0.00653955  0.63130317  1
  La3+  La15  1  0.64390121  0.00755390  0.87336196  1
  La3+  La16  1  0.64105336  0.33463446  0.12643451  1
  La3+  La17  1  0.63358252  0.33935877  0.37255562  1
  La3+  La18  1  0.64028668  0.33148947  0.61939977  1
  La3+  La19  1  0.63704886  0.33507346  0.87288137  1
  La3+  La20  1  0.63449794  0.67437617  0.13584096  1
  La3+  La21  1  0.64195989  0.66830067  0.36945001  1
  La3+  La22  1  0.63862849  0.67369003  0.62118899  1
  La3+  La23  1  0.63538918  0.66681088  0.87262203  1
  La3+  La24  1  0.36356044  -0.00752356  0.12420240  1
  La3+  La25  1  0.35465232  -0.00346455  0.37549823  1
  La3+  La26  1  0.35536722  -0.00678577  0.61859829  1
  La3+  La27  1  0.35801022  -0.00563780  0.87644643  1
  La3+  La28  1  0.35862634  0.33482755  0.12086855  1
  La3+  La29  1  0.35689348  0.33229029  0.37572598  1
  La3+  La30  1  0.35686300  0.33308303  0.62463536  1
  La3+  La31  1  0.35743033  0.32955655  0.87939316  1
  La3+  La32  1  0.35113911  0.67114260  0.12698831  1
  La3+  La33  1  0.35508932  0.66656326  0.37601527  1
  La3+  La34  1  0.34801104  0.65904675  0.61611670  1
  La3+  La35  1  0.35609370  0.67121384  0.87467977  1
  La3+  La36  1  0.86001950  -0.00368461  0.12836469  1
  La3+  La37  1  0.85894504  -0.00353446  0.37459934  1
  La3+  La38  1  0.86308082  0.00111312  0.63066780  1
  La3+  La39  1  0.85798655  0.00781853  0.87233117  1
  La3+  La40  1  0.85951753  0.33338333  0.12664897  1
  La3+  La41  1  0.86438296  0.33547790  0.37004432  1
  La3+  La42  1  0.85258526  0.33692926  0.61878480  1
  La3+  La43  1  0.85986870  0.33626703  0.87435242  1
  La3+  La44  1  0.86148423  0.66988802  0.13317050  1
  La3+  La45  1  0.85866825  0.66836706  0.36747529  1
  La3+  La46  1  0.86742983  0.66774537  0.62512283  1
  La3+  La47  1  0.86388823  0.66385721  0.87332661  1
  La3+  La48  1  0.50073951  0.16549837  0.35524722  1
  La3+  La49  1  0.49304790  0.17376629  0.37223879  1
  La3+  La50  1  -0.00342273  0.83446482  0.37242608  1
  La3+  La51  1  0.00528558  0.16504119  0.10865117  1
  La3+  La52  1  -0.00568970  0.82899763  0.11605580  1
  La3+  La53  1  0.49883579  0.16727831  0.64155447  1
  La3+  La54  1  -0.00203462  0.49885538  0.62691915  1
  La3+  La55  1  0.49906219  0.49207684  0.11592233  1
  La3+  La56  1  0.00362941  0.81986928  0.13018199  1
  La3+  La57  1  0.49509200  0.16328985  0.88880955  1
  La3+  La58  1  -0.00148610  0.83484972  0.86150874  1
  La3+  La59  1  0.49285634  0.82268630  0.62710313  1
  La3+  La60  1  -0.00071480  0.49639741  0.87476357  1
  La3+  La61  1  0.50954947  0.49855547  0.37098295  1
  La3+  La62  1  0.49592800  0.17132993  0.62630456  1
  La3+  La63  1  -0.00100204  0.16423705  0.37128802  1
  La3+  La64  1  -0.00162574  0.49700735  0.11514114  1
  La3+  La65  1  0.50432074  0.16142362  0.87174617  1
  La3+  La66  1  0.50170840  0.49326369  0.38063869  1
  La3+  La67  1  0.49970585  0.16190192  0.11805863  1
  La3+  La68  1  -0.00195582  0.82407488  0.39173901  1
  La3+  La69  1  0.50433946  0.49958361  0.13545709  1
  La3+  La70  1  0.49217903  0.83543116  0.14841614  1
  La3+  La71  1  0.51177876  0.48592272  0.87087806  1
  La3+  La72  1  0.75068495  0.53836418  0.71241394  1
  La3+  La73  1  0.24603756  0.47739770  0.75956115  1
  La3+  La74  1  0.74948337  0.22133466  0.26470220  1
  La3+  La75  1  0.24967170  0.49629262  0.02063959  1
  La3+  La76  1  0.25153435  0.82389683  0.01963889  1
  La3+  La77  1  0.75078881  0.79600305  0.77192696  1
  La3+  La78  1  0.74885338  0.79618678  0.01027238  1
  La3+  La79  1  0.24882162  0.11592041  0.18550334  1
  La3+  La80  1  0.75269238  0.09975437  0.50729770  1
  La3+  La81  1  0.24912924  0.16030922  0.51190854  1
  La3+  La82  1  0.74962982  0.46620404  0.00203082  1
  La3+  La83  1  0.25143032  0.83302484  0.28346370  1
  Ru4+  Ru84  1  0.00112642  0.00583418  -0.00192293  1
  Ru4+  Ru85  1  -0.00172557  0.00610600  0.24992290  1
  Ru4+  Ru86  1  0.00071709  0.00234232  0.50650498  1
  Ru4+  Ru87  1  -0.00103042  -0.00950020  0.73917553  1
  Ru4+  Ru88  1  0.00101328  0.32990613  -0.00333959  1
  Ru4+  Ru89  1  -0.00111075  0.33741575  0.25083527  1
  Ru4+  Ru90  1  -0.00135338  0.32924186  0.51275875  1
  Ru4+  Ru91  1  -0.00746866  0.31331027  0.74417962  1
  Ru4+  Ru92  1  -0.00068466  0.66056809  0.00505799  1
  Ru4+  Ru93  1  0.01270484  0.64776579  0.23883966  1
  Ru4+  Ru94  1  0.00139292  0.65865959  0.51018512  1
  Ru4+  Ru95  1  -0.00401882  0.67032417  0.75325962  1
  Ru4+  Ru96  1  0.50040029  -0.00733968  0.01060900  1
  Ru4+  Ru97  1  0.49190809  -0.00336908  0.24720791  1
  Ru4+  Ru98  1  0.51675811  -0.00074723  0.49174744  1
  Ru4+  Ru99  1  0.50561374  -0.01446934  0.75334730  1
  Ru4+  Ru100  1  0.50193750  0.33173269  0.00486176  1
  Ru4+  Ru101  1  0.49912526  0.32828010  0.24212506  1
  Ru4+  Ru102  1  0.49861853  0.33710150  0.51530464  1
  Ru4+  Ru103  1  0.49439857  0.33294463  0.74400481  1
  Ru4+  Ru104  1  0.49385178  0.65696479  -0.00822315  1
  Ru4+  Ru105  1  0.49718542  0.67031043  0.26026214  1
  Ru4+  Ru106  1  0.49202782  0.67659085  0.49062289  1
  Ru4+  Ru107  1  0.50002472  0.67840478  0.76154308  1
  Ru4+  Ru108  1  0.11383478  0.16867382  -0.00162838  1
  Ru4+  Ru109  1  0.10882837  0.16709863  0.24734171  1
  Ru4+  Ru110  1  0.10578078  0.16753354  0.49974733  1
  Ru4+  Ru111  1  0.11002862  0.16164439  0.75353898  1
  Ru4+  Ru112  1  0.10962989  0.50072033  -0.00254426  1
  Ru4+  Ru113  1  0.10316643  0.50586052  0.24852803  1
  Ru4+  Ru114  1  0.11077684  0.50431402  0.49852893  1
  Ru4+  Ru115  1  0.10733969  0.49885486  0.75008778  1
  Ru4+  Ru116  1  0.11560066  0.83411986  -0.00551079  1
  Ru4+  Ru117  1  0.11595591  0.83089830  0.25078476  1
  Ru4+  Ru118  1  0.11366944  0.83312437  0.50316941  1
  Ru4+  Ru119  1  0.11150198  0.83021576  0.74721026  1
  Ru4+  Ru120  1  0.61392356  0.17290925  0.00090852  1
  Ru4+  Ru121  1  0.61542494  0.17108370  0.24552195  1
  Ru4+  Ru122  1  0.61079369  0.16520164  0.50169140  1
  Ru4+  Ru123  1  0.61719810  0.16200808  0.74822713  1
  Ru4+  Ru124  1  0.60997188  0.49936848  -0.00188726  1
  Ru4+  Ru125  1  0.62204987  0.50918103  0.25190181  1
  Ru4+  Ru126  1  0.61233648  0.50178804  0.50404199  1
  Ru4+  Ru127  1  0.61376479  0.50107140  0.74275020  1
  Ru4+  Ru128  1  0.60651283  0.84245272  -0.00135590  1
  Ru4+  Ru129  1  0.61796180  0.83188507  0.25264455  1
  Ru4+  Ru130  1  0.61055931  0.83441377  0.49948038  1
  Ru4+  Ru131  1  0.60473647  0.83701815  0.75444033  1
  Ru4+  Ru132  1  0.38838675  0.16714425  0.00119798  1
  Ru4+  Ru133  1  0.38299123  0.16425458  0.24415330  1
  Ru4+  Ru134  1  0.38873740  0.16756803  0.50375130  1
  Ru4+  Ru135  1  0.38232631  0.17008141  0.75050362  1
  Ru4+  Ru136  1  0.38929516  0.50553860  0.00071179  1
  Ru4+  Ru137  1  0.38199228  0.50383138  0.25109785  1
  Ru4+  Ru138  1  0.39074843  0.49312493  0.49876744  1
  Ru4+  Ru139  1  0.38703524  0.49049785  0.75202641  1
  Ru4+  Ru140  1  0.38984575  0.83494121  -0.00180347  1
  Ru4+  Ru141  1  0.38964663  0.83378396  0.25144195  1
  Ru4+  Ru142  1  0.39232332  0.83464374  0.49459777  1
  Ru4+  Ru143  1  0.39231261  0.82251822  0.75086844  1
  Ru4+  Ru144  1  0.88987706  0.16823557  -0.00087092  1
  Ru4+  Ru145  1  0.89250861  0.16559290  0.25393756  1
  Ru4+  Ru146  1  0.89220118  0.16902298  0.49796172  1
  Ru4+  Ru147  1  0.90070890  0.18289139  0.74411240  1
  Ru4+  Ru148  1  0.89090196  0.49692900  0.00102667  1
  Ru4+  Ru149  1  0.88968125  0.49919523  0.25418961  1
  Ru4+  Ru150  1  0.88715846  0.49980591  0.50467753  1
  Ru4+  Ru151  1  0.89086074  0.50017926  0.74979039  1
  Ru4+  Ru152  1  0.88733919  0.83499811  -0.00442144  1
  Ru4+  Ru153  1  0.88072301  0.83430637  0.25084538  1
  Ru4+  Ru154  1  0.88634287  0.83005888  0.50264764  1
  Ru4+  Ru155  1  0.89492886  0.84183740  0.74794226  1
  Ru4+  Ru156  1  0.25057316  0.91790975  0.73205193  1
  Ru4+  Ru157  1  0.75046494  0.94119478  0.01897472  1
  Ru4+  Ru158  1  0.25020938  0.08432164  -0.00332331  1
  Ru4+  Ru159  1  0.24887480  0.27728741  0.23013748  1
  Ru4+  Ru160  1  0.24911185  0.62029316  0.75132365  1
  Ru4+  Ru161  1  0.75092237  0.06061053  0.24675652  1
  Ru4+  Ru162  1  0.24831103  0.41475313  0.24792249  1
  Ru4+  Ru163  1  0.24858056  0.59063866  0.25116078  1
  Ru4+  Ru164  1  0.75149334  0.94522386  0.74350226  1
  Ru4+  Ru165  1  0.75015277  0.76018296  0.50302163  1
  Ru4+  Ru166  1  0.74980888  0.61142214  0.00346664  1
  Ru4+  Ru167  1  0.74934515  0.57752012  0.49712689  1
  Ru4+  Ru168  1  0.75068845  0.90176098  0.50709595  1
  Ru4+  Ru169  1  0.75013118  0.08094368  -0.02274597  1
  Ru4+  Ru170  1  0.25021023  0.07222971  0.74528909  1
  Ru4+  Ru171  1  0.24991915  0.33334771  0.78503902  1
  Ru4+  Ru172  1  0.75022277  0.41782907  0.25023871  1
  Ru4+  Ru173  1  0.75123665  0.39997412  0.76142162  1
  Ru4+  Ru174  1  0.25051408  0.75891897  0.50280679  1
  Ru4+  Ru175  1  0.75056299  0.25151359  -0.02648832  1
  Ru4+  Ru176  1  0.75012962  0.42405975  0.49562691  1
  Ru4+  Ru177  1  0.75084635  0.27386865  0.49948739  1
  Ru4+  Ru178  1  0.24875858  0.41582861  0.48519724  1
  Ru4+  Ru179  1  0.74964196  0.24704067  0.76181427  1
  O2-  O180  1  0.17073383  0.08165654  0.00218980  1
  O2-  O181  1  0.16665211  0.07964430  0.24579825  1
  O2-  O182  1  0.16271720  0.08309236  0.50128700  1
  O2-  O183  1  0.16762772  0.07916256  0.74873570  1
  O2-  O184  1  0.16673361  0.41391601  0.00190698  1
  O2-  O185  1  0.16326763  0.41834534  0.25039008  1
  O2-  O186  1  0.16256226  0.41409676  0.49872129  1
  O2-  O187  1  0.16033152  0.40967470  0.75047652  1
  O2-  O188  1  0.16982218  0.74999205  -0.00436933  1
  O2-  O189  1  0.16623366  0.74810279  0.25216777  1
  O2-  O190  1  0.16752419  0.74825540  0.50331387  1
  O2-  O191  1  0.16277569  0.74971438  0.75080205  1
  O2-  O192  1  0.66837303  0.08091977  0.00200310  1
  O2-  O193  1  0.66893427  0.08041170  0.25046909  1
  O2-  O194  1  0.66046797  0.07745371  0.50047139  1
  O2-  O195  1  0.66865153  0.08388807  0.74990910  1
  O2-  O196  1  0.66245701  0.40947920  -0.00045432  1
  O2-  O197  1  0.66860333  0.41652129  0.24961995  1
  O2-  O198  1  0.67192650  0.41526681  0.49634490  1
  O2-  O199  1  0.67115389  0.41550495  0.75228275  1
  O2-  O200  1  0.65695418  0.74587383  0.00183680  1
  O2-  O201  1  0.67002647  0.74663188  0.25180942  1
  O2-  O202  1  0.66795884  0.75103914  0.49948660  1
  O2-  O203  1  0.66734177  0.74607739  0.74793237  1
  O2-  O204  1  0.33726978  0.25146197  0.00049065  1
  O2-  O205  1  0.33507590  0.25647889  0.24406872  1
  O2-  O206  1  0.33591151  0.25200299  0.49640235  1
  O2-  O207  1  0.33246843  0.25198876  0.75347784  1
  O2-  O208  1  0.33314689  0.58379582  0.00049391  1
  O2-  O209  1  0.33079325  0.58631626  0.25022833  1
  O2-  O210  1  0.33967131  0.57850503  0.49461640  1
  O2-  O211  1  0.32937138  0.58767870  0.75683686  1
  O2-  O212  1  0.32874114  0.92048676  0.00111535  1
  O2-  O213  1  0.33162752  0.91923162  0.24697871  1
  O2-  O214  1  0.33456117  0.91272447  0.50120347  1
  O2-  O215  1  0.33613693  0.91706566  0.74894734  1
  O2-  O216  1  0.83437073  0.25388084  -0.00042780  1
  O2-  O217  1  0.84044801  0.25735602  0.24686116  1
  O2-  O218  1  0.83403564  0.25409953  0.49543571  1
  O2-  O219  1  0.83108636  0.25151546  0.74951703  1
  O2-  O220  1  0.82951800  0.58636147  0.00151058  1
  O2-  O221  1  0.83628367  0.58622270  0.25074433  1
  O2-  O222  1  0.83056359  0.58479793  0.49916848  1
  O2-  O223  1  0.83253560  0.59226429  0.74783542  1
  O2-  O224  1  0.83168861  0.92074701  0.00102745  1
  O2-  O225  1  0.83236344  0.92301447  0.25111192  1
  O2-  O226  1  0.83122426  0.91867067  0.50300626  1
  O2-  O227  1  0.83239732  0.91844057  0.74879383  1
  O2-  O228  1  0.16685728  0.24854049  0.00185206  1
  O2-  O229  1  0.16169829  0.25501790  0.24848004  1
  O2-  O230  1  0.16320120  0.25070086  0.49748241  1
  O2-  O231  1  0.15746607  0.24903274  0.75136606  1
  O2-  O232  1  0.16328062  0.58406644  0.00235615  1
  O2-  O233  1  0.16874941  0.58180179  0.25486257  1
  O2-  O234  1  0.16205863  0.58418618  0.50285776  1
  O2-  O235  1  0.16491940  0.58941286  0.74992431  1
  O2-  O236  1  0.16725234  0.92314718  0.00086467  1
  O2-  O237  1  0.16800172  0.92175146  0.24813057  1
  O2-  O238  1  0.16324756  0.91879401  0.50165156  1
  O2-  O239  1  0.16580272  0.92116432  0.74869465  1
  O2-  O240  1  0.66752372  0.25517458  -0.00248261  1
  O2-  O241  1  0.65919265  0.26326849  0.25166294  1
  O2-  O242  1  0.66935829  0.25200342  0.49523198  1
  O2-  O243  1  0.66558768  0.25533539  0.75260728  1
  O2-  O244  1  0.67082818  0.58707397  0.00573471  1
  O2-  O245  1  0.67428716  0.58958817  0.24423556  1
  O2-  O246  1  0.66731808  0.58532264  0.50004304  1
  O2-  O247  1  0.67033602  0.58518459  0.75536547  1
  O2-  O248  1  0.67254695  0.91742197  0.00297080  1
  O2-  O249  1  0.66406580  0.91922195  0.24539776  1
  O2-  O250  1  0.66977986  0.91386706  0.50103060  1
  O2-  O251  1  0.67185799  0.91574416  0.75377233  1
  O2-  O252  1  0.33029541  0.08001799  0.00155897  1
  O2-  O253  1  0.32975255  0.07934560  0.24450296  1
  O2-  O254  1  0.33746025  0.07977870  0.50062347  1
  O2-  O255  1  0.33423807  0.07732814  0.74745195  1
  O2-  O256  1  0.33756916  0.41540065  0.00070293  1
  O2-  O257  1  0.33156621  0.41315650  0.25069382  1
  O2-  O258  1  0.33188946  0.41277083  0.49611799  1
  O2-  O259  1  0.33186233  0.41280212  0.75321774  1
  O2-  O260  1  0.33721582  0.74836122  0.00054424  1
  O2-  O261  1  0.33766356  0.75001377  0.25175804  1
  O2-  O262  1  0.32911077  0.75329361  0.49781004  1
  O2-  O263  1  0.33074338  0.75508929  0.76296823  1
  O2-  O264  1  0.83251666  0.07970672  0.00176490  1
  O2-  O265  1  0.83461771  0.08032191  0.25004931  1
  O2-  O266  1  0.84774067  0.07378441  0.50164660  1
  O2-  O267  1  0.84885328  0.08907622  0.74786056  1
  O2-  O268  1  0.83746340  0.41132665  0.00317630  1
  O2-  O269  1  0.83074700  0.41572731  0.24899311  1
  O2-  O270  1  0.83069082  0.41860944  0.49157563  1
  O2-  O271  1  0.83527836  0.41547653  0.74914342  1
  O2-  O272  1  0.83895910  0.74371346  0.00086784  1
  O2-  O273  1  0.83204718  0.74621554  0.25509786  1
  O2-  O274  1  0.83227006  0.74723736  0.50276469  1
  O2-  O275  1  0.83787790  0.74650690  0.74818197  1
  O2-  O276  1  0.95598886  0.89266149  0.68914826  1
  O2-  O277  1  0.54591593  0.43166008  0.25892983  1
  O2-  O278  1  0.53371455  0.43784233  0.73312167  1
  O2-  O279  1  0.05069320  0.75362377  0.73427758  1
  O2-  O280  1  0.46355140  0.77378322  0.78656126  1
  O2-  O281  1  0.94461984  0.41961983  0.26885274  1
  O2-  O282  1  0.95253569  0.76265292  0.98821793  1
  O2-  O283  1  0.04471358  0.09160201  0.48152760  1
  O2-  O284  1  0.95486701  0.76464357  0.23937774  1
  O2-  O285  1  0.05589377  0.91109607  0.77299268  1
  O2-  O286  1  0.45284700  0.10020445  0.75662872  1
  O2-  O287  1  0.98108875  0.19064121  0.73230244  1
  O2-  O288  1  0.54758942  0.89752198  0.50502735  1
  O2-  O289  1  0.47271549  0.78284751  0.77932775  1
  O2-  O290  1  0.55656334  0.75018548  0.21629636  1
  O2-  O291  1  0.54648888  0.10165706  0.99995159  1
  O2-  O292  1  0.52872821  0.13023166  0.49231925  1
  O2-  O293  1  0.44126178  0.92279609  0.72654377  1
  O2-  O294  1  0.05064823  0.91095912  0.26116197  1
  O2-  O295  1  0.94277321  0.91380977  0.23467798  1
  O2-  O296  1  0.05065859  0.90942437  0.01316310  1
  O2-  O297  1  0.94823091  0.90549344  0.49566989  1
  O2-  O298  1  0.45839727  0.54968487  0.96069004  1
  O2-  O299  1  0.44763978  0.42657458  0.23721966  1
  O2-  O300  1  0.55151432  0.08263554  0.25967495  1
  O2-  O301  1  0.04594624  0.57446729  0.76291865  1
  O2-  O302  1  0.95380934  0.75369035  0.27659935  1
  O2-  O303  1  0.45448719  0.56625446  0.77087518  1
  O2-  O304  1  0.94486789  0.75718763  0.76626888  1
  O2-  O305  1  0.53465490  0.86228580  0.03440786  1
  O2-  O306  1  0.55914171  0.91593111  0.69085014  1
  O2-  O307  1  0.05114408  0.91196397  0.24139089  1
  O2-  O308  1  0.95299210  0.09677340  0.99710741  1
  O2-  O309  1  0.01566527  0.53328885  0.24464504  1
  O2-  O310  1  0.54790012  0.23525367  0.74698218  1
  O2-  O311  1  0.04448360  0.24063731  0.49937116  1
  O2-  O312  1  0.04435410  0.56383558  0.49601063  1
  O2-  O313  1  0.03927522  0.42378117  0.74964675  1
  O2-  O314  1  0.45098082  0.23431823  0.23082238  1
  O2-  O315  1  0.47813022  0.79172944  0.48600388  1
  O2-  O316  1  0.54377297  0.56504733  0.75160841  1
  O2-  O317  1  0.95086631  0.09640544  0.00623908  1
  O2-  O318  1  0.45627106  0.56329503  0.75488192  1
  O2-  O319  1  0.52278920  0.12122736  0.50471488  1
  O2-  O320  1  0.54592642  0.10718440  0.23216567  1
  O2-  O321  1  0.94752132  0.91517689  0.98291599  1
  O2-  O322  1  0.04856194  0.90087451  0.50685401  1
  O2-  O323  1  0.46032007  0.56217714  0.48593999  1
  O2-  O324  1  0.06176976  0.61973766  0.33423345  1
  O2-  O325  1  0.93999814  0.40811525  0.52935152  1
  O2-  O326  1  0.57147169  0.03462371  0.40832428  1
  O2-  O327  1  0.55448627  0.90992427  0.69196035  1
  O2-  O328  1  0.41789262  0.59722465  0.70456419  1
  O2-  O329  1  0.43880079  0.91744369  0.27062310  1
  O2-  O330  1  0.58075547  0.94722118  0.96419602  1
  O2-  O331  1  0.56591163  0.59280450  0.98321954  1
  O2-  O332  1  0.06019113  0.41332144  0.96687503  1
  O2-  O333  1  0.93603490  0.95222851  0.81714416  1
  O2-  O334  1  0.43420277  0.62949039  0.06805463  1
  O2-  O335  1  0.08652110  0.59772664  0.18644637  1
  O2-  O336  1  0.05991348  0.25375249  0.97283724  1
  O2-  O337  1  0.92723360  0.29195228  0.67603512  1
  O2-  O338  1  0.06194059  0.73366321  0.46997559  1
  O2-  O339  1  0.56865976  0.74143578  0.77361587  1
  O2-  O340  1  0.06494328  0.74182838  0.00533296  1
  O2-  O341  1  0.93813931  0.58447589  0.01414225  1
  O2-  O342  1  0.43059051  0.07678124  0.27803549  1
  O2-  O343  1  0.43679632  0.25875071  0.79181422  1
  O2-  O344  1  0.94098685  0.41347939  0.27232229  1
  O2-  O345  1  0.43596551  0.91787831  0.02689379  1
  O2-  O346  1  0.43838287  0.59134323  0.21763232  1
  O2-  O347  1  0.55766000  0.74869605  0.21608661  1
  O2-  O348  1  0.56722229  0.26068821  0.52051304  1
  O2-  O349  1  0.56106483  0.58596150  0.27429271  1
  O2-  O350  1  0.58178464  0.90785044  0.83435058  1
  O2-  O351  1  0.43563311  0.93237925  0.48743554  1
  O2-  O352  1  0.56451286  0.03125823  0.58181566  1
  O2-  O353  1  0.56484511  0.42508384  0.28375446  1
  O2-  O354  1  0.58302132  0.38862931  0.73290575  1
  O2-  O355  1  0.43697909  0.40576165  0.41828215  1
  O2-  O356  1  0.41340972  0.71457876  0.47656607  1
  O2-  O357  1  0.05889259  0.07464426  0.21589329  1
  O2-  O358  1  0.56375700  0.41762051  0.51709249  1
  O2-  O359  1  0.06275386  0.39979308  0.21370359  1
  O2-  O360  1  0.93656314  0.58888675  0.77480534  1
  O2-  O361  1  0.58346347  0.61174736  0.71674590  1
  O2-  O362  1  0.55717871  0.08139175  0.72521847  1
  O2-  O363  1  0.06046180  0.06918947  0.78334234  1
  O2-  O364  1  0.92497527  0.25411939  0.82871540  1
  O2-  O365  1  0.40489798  0.73883053  0.67606095  1
  O2-  O366  1  0.43142311  0.42290458  0.56452833  1
  O2-  O367  1  0.94251554  0.25585080  0.28511342  1
  O2-  O368  1  0.43199497  0.40232869  0.73146554  1
  O2-  O369  1  0.44236810  0.41900703  0.22994448  1
  O2-  O370  1  0.93369998  0.59009914  0.52290204  1
  O2-  O371  1  0.06550043  0.07484982  0.03426863  1
  O2-  O372  1  0.24988747  -0.00175890  0.32573681  1
  O2-  O373  1  0.24862252  0.65962383  0.56820497  1
  O2-  O374  1  0.24871622  -0.00012552  0.84672809  1
  O2-  O375  1  0.75052199  0.34152031  0.35219224  1
  O2-  O376  1  0.24984730  0.32561185  0.54670139  1
  O2-  O377  1  0.25002194  0.33603812  0.90433064  1
  O2-  O378  1  0.75179050  -0.00323924  0.86093412  1
  O2-  O379  1  0.75034644  0.67769528  0.89242921  1
  O2-  O380  1  0.24870134  0.33461710  0.12020480  1
  O2-  O381  1  0.75443095  0.00354012  0.63799992  1
  O2-  O382  1  0.75268821  -0.01065068  0.40192737  1
  O2-  O383  1  0.24798407  0.32350168  0.67094649  1
  O2-  O384  1  0.24847791  0.69426536  0.65394979  1
  O2-  O385  1  0.75153218  0.33999570  0.14976953  1
  O2-  O386  1  0.25049007  0.00437445  0.62599163  1
  O2-  O387  1  0.25073050  0.66310641  0.93019477  1
  O2-  O388  1  0.25023374  0.00278446  0.41807887  1
  O2-  O389  1  0.25033847  0.66992075  0.34703441  1
  O2-  O390  1  0.25027277  0.66379892  0.15012224  1
  O2-  O391  1  0.75100183  0.67051616  0.41062886  1
  O2-  O392  1  0.24847672  0.33866640  0.36079142  1
  O2-  O393  1  0.74888805  0.33035454  0.65148878  1
  O2-  O394  1  0.24953780  0.69312434  0.84521095  1
  O2-  O395  1  0.74937288  0.32626736  0.87025327  1
  O2-  O396  1  0.25163899  0.50552370  0.63051748  1
  O2-  O397  1  0.25018816  0.50160358  0.16563498  1
  O2-  O398  1  0.25020732  0.16424005  0.64497043  1
  O2-  O399  1  0.25038888  0.19100362  0.30284343  1
  O2-  O400  1  0.24995623  0.51212388  0.88813018  1
  O2-  O401  1  0.24905287  0.84217006  0.14900672  1
  O2-  O402  1  0.25067156  0.50022576  0.32376665  1
  O2-  O403  1  0.24947497  0.84371600  0.88340177  1
  O2-  O404  1  0.24988397  0.18119353  0.73225035  1
  O2-  O405  1  0.75028732  0.17185283  0.04830146  1
  O2-  O406  1  0.24955577  0.84215678  0.65435846  1
  O2-  O407  1  0.75106618  0.48854585  0.85659133  1
  O2-  O408  1  0.75079051  0.18142942  0.39793261  1
  O2-  O409  1  0.74900971  0.19355980  0.60866677  1
  O2-  O410  1  0.75089206  0.12957041  0.16079948  1
  O2-  O411  1  0.74963554  0.17551469  0.85743122  1
  O2-  O412  1  0.75021037  0.83678825  0.61956512  1
  O2-  O413  1  0.25050273  0.15147446  0.37917617  1
  O2-  O414  1  0.24914156  0.82531532  0.80100116  1
  O2-  O415  1  0.75112531  0.84679311  0.13281242  1
  O2-  O416  1  0.24979755  0.50721632  0.41239488  1
  O2-  O417  1  0.24840243  0.83494282  0.42524369  1
  O2-  O418  1  0.74979526  0.15563722  0.68913145  1
  O2-  O419  1  0.24973075  0.51188824  0.54294376  1
  O2-  O420  1  0.45455614  0.65005040  0.35832063  1
  O2-  O421  1  0.98395798  0.66594048  0.88231608  1
  O2-  O422  1  0.53616385  0.03398204  0.86266417  1
  O2-  O423  1  0.02698717  0.00485338  0.62657387  1
  O2-  O424  1  0.45160876  0.29894715  0.62907847  1
  O2-  O425  1  0.03638407  0.67810281  0.11873777  1
  O2-  O426  1  0.53604787  0.33011872  0.62619936  1
  O2-  O427  1  0.97777391  0.35358547  0.88060623  1
  O2-  O428  1  0.46950747  0.66958148  0.62078292  1
  O2-  O429  1  0.45319360  0.32500759  0.10154247  1
  O2-  O430  1  0.48021399  0.00731180  0.37391550  1
  O2-  O431  1  0.52515410  0.32313712  0.37826081  1
  O2-  O432  1  0.54763323  0.67546179  0.39636723  1
  O2-  O433  1  0.54261043  0.67852342  0.59674709  1
  O2-  O434  1  0.97173306  0.00284095  0.37538191  1
  O2-  O435  1  0.97684323  0.67021319  0.62961168  1
  O2-  O436  1  0.54765008  0.33431969  0.12062692  1
  O2-  O437  1  0.54591925  -0.00582989  0.12702041  1
  O2-  O438  1  0.45600265  0.01787995  0.12828026  1
  O2-  O439  1  0.95106292  0.66114293  0.14101209  1
  O2-  O440  1  0.52768882  0.33545128  0.87625095  1
  O2-  O441  1  0.02931562  0.33623497  0.62983645  1
  O2-  O442  1  0.52308161  0.66760094  0.87984743  1
  O2-  O443  1  0.44865553  0.00481877  0.89478992  1
