# generated using pymatgen
data_La7(Ru4O11)2
_symmetry_space_group_name_H-M   'P 1'
_cell_length_a   23.99123541
_cell_length_b   16.83085643
_cell_length_c   15.42781897
_cell_angle_alpha   90.00314962
_cell_angle_beta   90.00084860
_cell_angle_gamma   90.00032756
_symmetry_Int_Tables_number   1
_chemical_formula_structural   La7(Ru4O11)2
_chemical_formula_sum   'La84 Ru96 O264'
_cell_volume   6229.64589231
_cell_formula_units_Z   12
loop_
 _symmetry_equiv_pos_site_id
 _symmetry_equiv_pos_as_xyz
  1  'x, y, z'
loop_
 _atom_type_symbol
 _atom_type_oxidation_number
  La3+  3.0
  Ru4+  4.0
  O2-  -2.0
loop_
 _atom_site_type_symbol
 _atom_site_label
 _atom_site_symmetry_multiplicity
 _atom_site_fract_x
 _atom_site_fract_y
 _atom_site_fract_z
 _atom_site_occupancy
  La3+  La0  1  0.13799792  0.00073540  0.12678797  1
  La3+  La1  1  0.13767250  -0.00017715  0.37274472  1
  La3+  La2  1  0.13783975  -0.00235059  0.62876027  1
  La3+  La3  1  0.14152624  -0.00062858  0.87114130  1
  La3+  La4  1  0.13481496  0.33434700  0.12244444  1
  La3+  La5  1  0.13846398  0.33505508  0.37548657  1
  La3+  La6  1  0.14118675  0.33521681  0.62635616  1
  La3+  La7  1  0.13686855  0.33585518  0.87642647  1
  La3+  La8  1  0.14120848  0.66771125  0.12938267  1
  La3+  La9  1  0.13862834  0.66600933  0.37368882  1
  La3+  La10  1  0.14352522  0.66445340  0.62284309  1
  La3+  La11  1  0.13654609  0.66452228  0.87412740  1
  La3+  La12  1  0.63978273  -0.00119132  0.12430286  1
  La3+  La13  1  0.63709068  -0.00337687  0.37262094  1
  La3+  La14  1  0.63550957  -0.00243741  0.62045921  1
  La3+  La15  1  0.64061305  0.00203254  0.87857324  1
  La3+  La16  1  0.64075538  0.33406359  0.12515309  1
  La3+  La17  1  0.63777573  0.32949441  0.37266038  1
  La3+  La18  1  0.63837707  0.33594910  0.62491728  1
  La3+  La19  1  0.64655445  0.33299510  0.87685561  1
  La3+  La20  1  0.63064035  0.67534599  0.13392926  1
  La3+  La21  1  0.63477488  0.67297213  0.36919339  1
  La3+  La22  1  0.64129009  0.66074396  0.62638670  1
  La3+  La23  1  0.63818988  0.66299588  0.87774288  1
  La3+  La24  1  0.36584425  0.00382515  0.14120343  1
  La3+  La25  1  0.36905239  0.00491771  0.36702527  1
  La3+  La26  1  0.36198723  -0.00233675  0.62787180  1
  La3+  La27  1  0.35491347  -0.00299988  0.87180988  1
  La3+  La28  1  0.36365676  0.33535578  0.12295155  1
  La3+  La29  1  0.36154829  0.33624977  0.37670475  1
  La3+  La30  1  0.36008725  0.33658747  0.62686988  1
  La3+  La31  1  0.36383433  0.33583548  0.87823472  1
  La3+  La32  1  0.36137344  0.66771795  0.12877097  1
  La3+  La33  1  0.36211167  0.66724480  0.37630049  1
  La3+  La34  1  0.35859069  0.66344972  0.62186955  1
  La3+  La35  1  0.36022058  0.66470282  0.87123781  1
  La3+  La36  1  0.86191564  -0.00130288  0.12492623  1
  La3+  La37  1  0.86249417  0.00057385  0.37607125  1
  La3+  La38  1  0.86045218  0.00183985  0.62168130  1
  La3+  La39  1  0.85807247  0.00176737  0.87717859  1
  La3+  La40  1  0.86302831  0.33121246  0.12336031  1
  La3+  La41  1  0.86080779  0.32873292  0.37646197  1
  La3+  La42  1  0.85927353  0.33338934  0.62590300  1
  La3+  La43  1  0.85721726  0.33557125  0.87356173  1
  La3+  La44  1  0.86028647  0.66956303  0.12753504  1
  La3+  La45  1  0.85953635  0.66880576  0.37420627  1
  La3+  La46  1  0.85859650  0.66326711  0.62684347  1
  La3+  La47  1  0.85851766  0.66276591  0.87766133  1
  La3+  La48  1  0.00333535  0.50231710  0.12562416  1
  La3+  La49  1  0.49605419  0.50730963  0.86247795  1
  La3+  La50  1  0.49812662  0.50246537  0.88437736  1
  La3+  La51  1  0.00383923  0.83545633  0.88170717  1
  La3+  La52  1  0.50589696  0.83617258  0.14529219  1
  La3+  La53  1  -0.00281859  0.50314482  0.38420938  1
  La3+  La54  1  -0.00332651  0.17118948  0.88671805  1
  La3+  La55  1  0.49650924  0.16009855  0.36832306  1
  La3+  La56  1  0.50129931  0.50335728  0.37566060  1
  La3+  La57  1  0.49829882  0.83016705  0.61352097  1
  La3+  La58  1  0.00130777  0.16559025  0.86658958  1
  La3+  La59  1  0.00248399  0.50275066  0.62261719  1
  La3+  La60  1  0.00544588  0.84562888  0.61989458  1
  La3+  La61  1  -0.00019860  0.83489647  0.36460158  1
  La3+  La62  1  0.00486665  0.50371962  0.36531670  1
  La3+  La63  1  0.50188454  0.49758910  0.12655323  1
  La3+  La64  1  -0.00032486  0.16774634  0.62852168  1
  La3+  La65  1  0.49487793  0.82326652  0.36859638  1
  La3+  La66  1  0.49880076  0.17018041  0.87169073  1
  La3+  La67  1  0.00471360  0.83409464  0.86541205  1
  La3+  La68  1  0.50069983  0.83145880  0.88557963  1
  La3+  La69  1  -0.00161016  0.49569715  0.64264174  1
  La3+  La70  1  0.49374961  0.15998703  0.38477881  1
  La3+  La71  1  -0.00472861  0.49690533  0.10833034  1
  La3+  La72  1  0.74962305  0.16716924  0.00892352  1
  La3+  La73  1  0.24976531  0.49739302  0.71588892  1
  La3+  La74  1  0.25019902  0.83590275  -0.03512832  1
  La3+  La75  1  0.24920491  0.12479373  0.73575263  1
  La3+  La76  1  0.74921781  0.86257160  0.74899950  1
  La3+  La77  1  0.24919377  0.12909279  0.23866632  1
  La3+  La78  1  0.74936131  0.21851764  0.75833972  1
  La3+  La79  1  0.75047866  0.46233448  -0.03360801  1
  La3+  La80  1  0.74953131  0.17302684  0.51724479  1
  La3+  La81  1  0.25102382  0.55786901  0.00847537  1
  La3+  La82  1  0.74892288  0.53205984  0.25477743  1
  La3+  La83  1  0.24981554  0.16405269  0.43918717  1
  Ru4+  Ru84  1  0.00128867  -0.00152986  0.00005507  1
  Ru4+  Ru85  1  0.00224105  0.00094909  0.26020501  1
  Ru4+  Ru86  1  -0.00147639  -0.00054394  0.49952509  1
  Ru4+  Ru87  1  0.00176788  0.00525800  0.74262261  1
  Ru4+  Ru88  1  -0.00586625  0.32680360  0.00058924  1
  Ru4+  Ru89  1  0.00072746  0.32725066  0.25278567  1
  Ru4+  Ru90  1  -0.00199929  0.32582111  0.50136175  1
  Ru4+  Ru91  1  -0.00197402  0.33345496  0.74411961  1
  Ru4+  Ru92  1  -0.00082355  0.66617747  0.00041851  1
  Ru4+  Ru93  1  0.00544941  0.67093691  0.24679543  1
  Ru4+  Ru94  1  0.00201689  0.67022425  0.50270613  1
  Ru4+  Ru95  1  0.00053828  0.66589607  0.75175440  1
  Ru4+  Ru96  1  0.49736985  0.00946858  0.00489040  1
  Ru4+  Ru97  1  0.49913892  0.00342836  0.24622351  1
  Ru4+  Ru98  1  0.49606952  0.00518905  0.50185401  1
  Ru4+  Ru99  1  0.49786963  0.00196598  0.74364479  1
  Ru4+  Ru100  1  0.50690038  0.32581974  -0.00907830  1
  Ru4+  Ru101  1  0.50152253  0.33004503  0.25513064  1
  Ru4+  Ru102  1  0.50260708  0.33428162  0.50178135  1
  Ru4+  Ru103  1  0.49849962  0.32751676  0.74995095  1
  Ru4+  Ru104  1  0.49630698  0.67686886  0.00370033  1
  Ru4+  Ru105  1  0.50048919  0.66658949  0.25239542  1
  Ru4+  Ru106  1  0.50175355  0.66236986  0.49835279  1
  Ru4+  Ru107  1  0.50093667  0.66644593  0.74794528  1
  Ru4+  Ru108  1  0.11332473  0.16833043  -0.00082735  1
  Ru4+  Ru109  1  0.10960088  0.16620144  0.25351261  1
  Ru4+  Ru110  1  0.10853716  0.16664838  0.50092796  1
  Ru4+  Ru111  1  0.10733370  0.16591834  0.74982234  1
  Ru4+  Ru112  1  0.11185508  0.50821149  -0.00287064  1
  Ru4+  Ru113  1  0.11343901  0.50279991  0.25261993  1
  Ru4+  Ru114  1  0.11805484  0.50138106  0.50034823  1
  Ru4+  Ru115  1  0.11065082  0.50207620  0.74963423  1
  Ru4+  Ru116  1  0.11177840  0.83327450  0.00444624  1
  Ru4+  Ru117  1  0.11404952  0.83026727  0.24951052  1
  Ru4+  Ru118  1  0.11087426  0.83238577  0.50033501  1
  Ru4+  Ru119  1  0.11455009  0.83531684  0.74787959  1
  Ru4+  Ru120  1  0.60926278  0.16659415  -0.00018745  1
  Ru4+  Ru121  1  0.61242890  0.17133999  0.24544384  1
  Ru4+  Ru122  1  0.60946550  0.16948369  0.50369600  1
  Ru4+  Ru123  1  0.61139752  0.16751886  0.74824844  1
  Ru4+  Ru124  1  0.61565746  0.49789871  0.00177864  1
  Ru4+  Ru125  1  0.61098756  0.50125051  0.24899853  1
  Ru4+  Ru126  1  0.61076031  0.50403554  0.50113867  1
  Ru4+  Ru127  1  0.61598089  0.50077426  0.74584357  1
  Ru4+  Ru128  1  0.61279350  0.83229598  0.00278420  1
  Ru4+  Ru129  1  0.61156635  0.83427171  0.24852555  1
  Ru4+  Ru130  1  0.61518659  0.82624744  0.49986888  1
  Ru4+  Ru131  1  0.60944584  0.83589013  0.75159842  1
  Ru4+  Ru132  1  0.39034448  0.15893020  0.00531228  1
  Ru4+  Ru133  1  0.39122761  0.16708101  0.24995149  1
  Ru4+  Ru134  1  0.39090228  0.16570632  0.49460770  1
  Ru4+  Ru135  1  0.39249417  0.16471780  0.74858628  1
  Ru4+  Ru136  1  0.38477443  0.50549369  0.00393328  1
  Ru4+  Ru137  1  0.38715711  0.50307791  0.25048750  1
  Ru4+  Ru138  1  0.38561270  0.50204049  0.50022483  1
  Ru4+  Ru139  1  0.38724148  0.49985311  0.74782614  1
  Ru4+  Ru140  1  0.39097982  0.83090651  -0.00124535  1
  Ru4+  Ru141  1  0.38702901  0.83079669  0.24967318  1
  Ru4+  Ru142  1  0.38713382  0.83259488  0.49963427  1
  Ru4+  Ru143  1  0.38667899  0.83440281  0.75027231  1
  Ru4+  Ru144  1  0.88883540  0.16737381  -0.00061965  1
  Ru4+  Ru145  1  0.88674939  0.17026238  0.24973081  1
  Ru4+  Ru146  1  0.88976584  0.16866477  0.49934224  1
  Ru4+  Ru147  1  0.89012575  0.16547372  0.74867166  1
  Ru4+  Ru148  1  0.88831317  0.50075775  -0.00197531  1
  Ru4+  Ru149  1  0.88464873  0.50432278  0.24905845  1
  Ru4+  Ru150  1  0.88314669  0.50489302  0.49887580  1
  Ru4+  Ru151  1  0.88435525  0.50155270  0.74954149  1
  Ru4+  Ru152  1  0.88570115  0.83011453  0.00287359  1
  Ru4+  Ru153  1  0.88190231  0.83899222  0.24942940  1
  Ru4+  Ru154  1  0.88836184  0.83374430  0.50040195  1
  Ru4+  Ru155  1  0.88888971  0.83246480  0.74829085  1
  Ru4+  Ru156  1  0.25043808  0.90817397  0.23817673  1
  Ru4+  Ru157  1  0.75037841  0.75180575  0.50205510  1
  Ru4+  Ru158  1  0.24955661  0.27631207  0.51505021  1
  Ru4+  Ru159  1  0.75015254  0.06627033  0.74118795  1
  Ru4+  Ru160  1  0.24974703  0.26658971  0.77142751  1
  Ru4+  Ru161  1  0.74947335  0.41779495  0.50707359  1
  Ru4+  Ru162  1  0.24987636  0.70191048  -0.00545898  1
  Ru4+  Ru163  1  0.74985190  0.38817460  0.24487933  1
  Ru4+  Ru164  1  0.25020108  0.42421091  0.25605218  1
  Ru4+  Ru165  1  0.74962116  0.60612113  0.00450163  1
  Ru4+  Ru166  1  0.75050247  0.91242270  0.49787090  1
  Ru4+  Ru167  1  0.24912906  0.75125369  0.50791534  1
  Ru4+  Ru168  1  0.25028524  0.24541227  -0.00396044  1
  Ru4+  Ru169  1  0.24976238  0.75311653  0.74611955  1
  Ru4+  Ru170  1  0.75047498  0.75465813  0.25093541  1
  Ru4+  Ru171  1  0.24983166  0.90413719  0.51293309  1
  Ru4+  Ru172  1  0.25032383  0.39395083  0.01136078  1
  Ru4+  Ru173  1  0.25016228  0.05303506  0.52072600  1
  Ru4+  Ru174  1  0.74939723  0.71695237  0.75590105  1
  Ru4+  Ru175  1  0.25008688  0.27202804  0.22822183  1
  Ru4+  Ru176  1  0.25064249  0.95738966  0.03632200  1
  Ru4+  Ru177  1  0.74988923  0.08293798  0.24768120  1
  Ru4+  Ru178  1  0.25032425  0.09566631  -0.00503774  1
  Ru4+  Ru179  1  0.74980326  0.90861750  0.00595021  1
  O2-  O180  1  0.16548673  0.08088224  0.00121332  1
  O2-  O181  1  0.16312570  0.08007046  0.24904878  1
  O2-  O182  1  0.16530421  0.07695115  0.49881765  1
  O2-  O183  1  0.16096541  0.07745511  0.74843140  1
  O2-  O184  1  0.16519189  0.41239030  0.00196812  1
  O2-  O185  1  0.16613163  0.41168160  0.24853349  1
  O2-  O186  1  0.16392852  0.41426238  0.50023278  1
  O2-  O187  1  0.16487125  0.41377542  0.75188475  1
  O2-  O188  1  0.16814190  0.74551881  -0.00254600  1
  O2-  O189  1  0.16726660  0.74751066  0.25184380  1
  O2-  O190  1  0.16600487  0.74676404  0.49981126  1
  O2-  O191  1  0.16761844  0.74670717  0.74836862  1
  O2-  O192  1  0.66846567  0.08205217  0.00112648  1
  O2-  O193  1  0.66761769  0.08236635  0.24909135  1
  O2-  O194  1  0.66606103  0.07920066  0.49910275  1
  O2-  O195  1  0.66881612  0.07928964  0.74968891  1
  O2-  O196  1  0.66426030  0.41222704  0.00187405  1
  O2-  O197  1  0.66838183  0.41423214  0.25167244  1
  O2-  O198  1  0.66626635  0.41439834  0.49809288  1
  O2-  O199  1  0.66691924  0.41650463  0.74579137  1
  O2-  O200  1  0.66227570  0.74874297  -0.00119848  1
  O2-  O201  1  0.66989033  0.75031018  0.24742631  1
  O2-  O202  1  0.66891059  0.74807710  0.49914883  1
  O2-  O203  1  0.66710776  0.74666961  0.75236541  1
  O2-  O204  1  0.33340530  0.24928321  -0.00046138  1
  O2-  O205  1  0.33582592  0.25244719  0.24916932  1
  O2-  O206  1  0.33280299  0.25572730  0.50051753  1
  O2-  O207  1  0.33182167  0.25177438  0.74841648  1
  O2-  O208  1  0.33990513  0.59364928  -0.00083202  1
  O2-  O209  1  0.33670329  0.58647654  0.24979757  1
  O2-  O210  1  0.33489982  0.58538336  0.49869423  1
  O2-  O211  1  0.33389704  0.58799977  0.74767188  1
  O2-  O212  1  0.33534752  0.91910260  0.00197832  1
  O2-  O213  1  0.33417933  0.91838055  0.25195123  1
  O2-  O214  1  0.33341278  0.91805872  0.50091049  1
  O2-  O215  1  0.33571457  0.91625099  0.74611664  1
  O2-  O216  1  0.83418257  0.25294377  0.00337334  1
  O2-  O217  1  0.83617213  0.24997570  0.24805239  1
  O2-  O218  1  0.83188869  0.25310172  0.49943101  1
  O2-  O219  1  0.83798022  0.25699013  0.74946447  1
  O2-  O220  1  0.83117731  0.58654420  0.00257415  1
  O2-  O221  1  0.83368837  0.58915363  0.25152182  1
  O2-  O222  1  0.83178799  0.58593433  0.50003542  1
  O2-  O223  1  0.83389050  0.58508786  0.74964457  1
  O2-  O224  1  0.83402184  0.91827688  -0.00062228  1
  O2-  O225  1  0.83052388  0.91851454  0.24873093  1
  O2-  O226  1  0.83070622  0.92089873  0.50013347  1
  O2-  O227  1  0.83181240  0.91896217  0.75142713  1
  O2-  O228  1  0.16730753  0.25270524  0.00130290  1
  O2-  O229  1  0.16655874  0.25335442  0.24743630  1
  O2-  O230  1  0.16534586  0.25501946  0.49875976  1
  O2-  O231  1  0.16629027  0.25437631  0.75231150  1
  O2-  O232  1  0.16298019  0.59009668  -0.00177305  1
  O2-  O233  1  0.16416815  0.58656848  0.25240395  1
  O2-  O234  1  0.16765781  0.58666982  0.49916955  1
  O2-  O235  1  0.16628706  0.58706662  0.74883925  1
  O2-  O236  1  0.16721262  0.92127054  0.00101257  1
  O2-  O237  1  0.16631887  0.91929814  0.24854617  1
  O2-  O238  1  0.16604272  0.91899859  0.50061793  1
  O2-  O239  1  0.16682169  0.91724171  0.74926126  1
  O2-  O240  1  0.66689503  0.25042743  0.00253958  1
  O2-  O241  1  0.66841261  0.25088991  0.25058738  1
  O2-  O242  1  0.66778012  0.25413286  0.49872943  1
  O2-  O243  1  0.65919735  0.25574100  0.74681393  1
  O2-  O244  1  0.66659849  0.58718610  0.00196621  1
  O2-  O245  1  0.66464678  0.58976903  0.24961102  1
  O2-  O246  1  0.66567671  0.58377928  0.49858373  1
  O2-  O247  1  0.66602789  0.58557427  0.75286042  1
  O2-  O248  1  0.66822219  0.91855329  -0.00136002  1
  O2-  O249  1  0.66756594  0.91796107  0.25255194  1
  O2-  O250  1  0.66607717  0.91791453  0.49925770  1
  O2-  O251  1  0.66406756  0.92062466  0.74822300  1
  O2-  O252  1  0.33086332  0.08441451  -0.00030653  1
  O2-  O253  1  0.33329778  0.07979567  0.25212866  1
  O2-  O254  1  0.33524906  0.07744267  0.50011344  1
  O2-  O255  1  0.33673405  0.08003410  0.74722540  1
  O2-  O256  1  0.33271766  0.41240548  0.00294919  1
  O2-  O257  1  0.33411769  0.41333372  0.24967075  1
  O2-  O258  1  0.33778425  0.41549290  0.50025420  1
  O2-  O259  1  0.33536835  0.41374418  0.75067696  1
  O2-  O260  1  0.33245970  0.74629479  0.00092221  1
  O2-  O261  1  0.33575437  0.74726755  0.24956194  1
  O2-  O262  1  0.33109294  0.74648115  0.50098214  1
  O2-  O263  1  0.33252703  0.74727042  0.74739602  1
  O2-  O264  1  0.83052356  0.07931962  0.00276949  1
  O2-  O265  1  0.83015919  0.07849057  0.24888795  1
  O2-  O266  1  0.83377149  0.08069131  0.49966782  1
  O2-  O267  1  0.83399354  0.07957485  0.75023782  1
  O2-  O268  1  0.83830438  0.41073590  0.00403257  1
  O2-  O269  1  0.83355627  0.41128770  0.24920202  1
  O2-  O270  1  0.83287653  0.41319869  0.49839176  1
  O2-  O271  1  0.83703047  0.41417339  0.74923811  1
  O2-  O272  1  0.83298868  0.75121295  -0.00240093  1
  O2-  O273  1  0.83255389  0.75141861  0.24976931  1
  O2-  O274  1  0.83509329  0.74777790  0.50107884  1
  O2-  O275  1  0.82964231  0.74844816  0.74829928  1
  O2-  O276  1  0.45100012  0.56808840  0.51163991  1
  O2-  O277  1  0.54496263  0.76574703  0.76195791  1
  O2-  O278  1  0.53738021  0.90023359  0.28477340  1
  O2-  O279  1  0.46460078  0.77863323  0.04029198  1
  O2-  O280  1  0.54468605  0.42682405  0.51509392  1
  O2-  O281  1  0.95955802  0.90102808  0.78114046  1
  O2-  O282  1  0.55381487  0.90211860  0.51356069  1
  O2-  O283  1  0.95403509  0.90211087  0.00986329  1
  O2-  O284  1  0.95780140  0.11170922  0.27583438  1
  O2-  O285  1  0.55008655  0.75869909  0.23605569  1
  O2-  O286  1  0.94607400  0.75941457  0.23076096  1
  O2-  O287  1  0.53667702  0.44018926  0.72281333  1
  O2-  O288  1  0.04644700  0.10013586  0.98811180  1
  O2-  O289  1  0.43979167  0.74754593  0.47906394  1
  O2-  O290  1  0.46780880  0.22009294  0.70701683  1
  O2-  O291  1  0.54830842  0.91228300  0.47682019  1
  O2-  O292  1  0.54137114  0.10689297  0.77637710  1
  O2-  O293  1  0.94584583  0.75851144  0.26977669  1
  O2-  O294  1  0.04868012  0.42846524  0.48744850  1
  O2-  O295  1  0.55506525  0.24841430  0.29780724  1
  O2-  O296  1  0.54204501  0.77247223  0.46429843  1
  O2-  O297  1  0.04953910  0.76518267  0.25399470  1
  O2-  O298  1  0.04416946  0.43171171  0.76551321  1
  O2-  O299  1  0.96616337  0.77073998  0.70621578  1
  O2-  O300  1  0.55028551  0.23548975  0.00922745  1
  O2-  O301  1  0.95091568  0.43543258  0.51314054  1
  O2-  O302  1  0.95310387  0.77154769  0.96448997  1
  O2-  O303  1  0.04094102  0.43089071  0.98399904  1
  O2-  O304  1  0.45149303  0.09530404  0.23885170  1
  O2-  O305  1  0.05193224  0.42731900  0.01932169  1
  O2-  O306  1  0.53768084  0.44731200  0.73183006  1
  O2-  O307  1  0.45648576  0.90022503  0.76307272  1
  O2-  O308  1  0.45484861  0.10086482  0.26587650  1
  O2-  O309  1  0.04736901  0.77393317  0.97166421  1
  O2-  O310  1  0.54925715  0.57175241  0.51341155  1
  O2-  O311  1  0.04954238  0.76278645  0.24522706  1
  O2-  O312  1  0.44923904  0.42953030  0.99488985  1
  O2-  O313  1  0.96053705  0.89498716  0.22192692  1
  O2-  O314  1  0.55346427  0.24767957  0.51724194  1
  O2-  O315  1  0.45399168  0.90884526  0.98547296  1
  O2-  O316  1  0.95094827  0.43406276  0.24704008  1
  O2-  O317  1  0.54327902  0.77246425  0.25808611  1
  O2-  O318  1  0.54911018  0.57481394  0.99096610  1
  O2-  O319  1  0.95590011  0.42729152  0.25018779  1
  O2-  O320  1  0.44935071  0.90521589  0.49243210  1
  O2-  O321  1  0.45382160  0.23698353  0.97093843  1
  O2-  O322  1  0.55061842  0.42594943  0.99186644  1
  O2-  O323  1  0.48287825  0.12297404  0.02602957  1
  O2-  O324  1  0.91757210  0.73489799  0.80427068  1
  O2-  O325  1  0.06434444  0.59073241  0.07492689  1
  O2-  O326  1  0.93087351  0.71959121  0.06507264  1
  O2-  O327  1  0.57418602  0.06331822  0.70595858  1
  O2-  O328  1  0.43534049  0.40777090  0.97210339  1
  O2-  O329  1  0.93592253  0.59846295  0.46537123  1
  O2-  O330  1  0.93834480  0.25436316  0.72651298  1
  O2-  O331  1  0.93005649  0.93317813  0.29169640  1
  O2-  O332  1  0.56411708  0.06893679  0.96170253  1
  O2-  O333  1  0.54979846  0.23418264  0.29663844  1
  O2-  O334  1  0.06521430  0.58692985  0.93913219  1
  O2-  O335  1  0.43656477  0.06929127  0.80866041  1
  O2-  O336  1  0.58097946  0.25575400  0.16751765  1
  O2-  O337  1  0.56054123  0.59514512  0.96389569  1
  O2-  O338  1  0.92739629  0.07089138  0.21113658  1
  O2-  O339  1  0.56144675  0.59109030  0.20995804  1
  O2-  O340  1  0.56239501  0.92793125  0.03155986  1
  O2-  O341  1  0.57307346  0.73460878  0.27653323  1
  O2-  O342  1  0.57221816  0.72219081  0.56421329  1
  O2-  O343  1  0.93787427  0.59507943  0.71138807  1
  O2-  O344  1  0.06287944  0.26497648  0.27977539  1
  O2-  O345  1  0.91880676  0.93499093  0.69542312  1
  O2-  O346  1  0.06290285  0.06884062  0.28107563  1
  O2-  O347  1  0.42932659  0.71997802  0.93814069  1
  O2-  O348  1  0.93614868  0.06977754  0.96352556  1
  O2-  O349  1  0.42217069  0.26998174  0.79755777  1
  O2-  O350  1  0.57187573  0.94870030  0.18963778  1
  O2-  O351  1  0.41841122  0.06110876  0.05952558  1
  O2-  O352  1  0.56337613  0.41266472  0.22414095  1
  O2-  O353  1  0.44296300  0.75306977  0.48515019  1
  O2-  O354  1  0.55425073  0.24958437  0.52635184  1
  O2-  O355  1  0.06428112  0.92353687  0.72494625  1
  O2-  O356  1  0.56241525  0.59984499  0.71887697  1
  O2-  O357  1  0.42497600  0.26534122  0.04363543  1
  O2-  O358  1  0.43703536  0.06971064  0.68333256  1
  O2-  O359  1  0.43269014  0.05859357  0.92651330  1
  O2-  O360  1  0.42780049  0.06332600  0.27971360  1
  O2-  O361  1  0.57632620  0.37024906  0.81434439  1
  O2-  O362  1  0.56426263  0.07477137  0.29102631  1
  O2-  O363  1  0.93521680  0.25786420  0.47565297  1
  O2-  O364  1  0.94043409  0.59616707  0.21668545  1
  O2-  O365  1  0.07203764  0.72651515  0.06331545  1
  O2-  O366  1  0.93410102  0.92337985  0.47393168  1
  O2-  O367  1  0.06711169  0.92779170  0.97175788  1
  O2-  O368  1  0.06354149  0.26459407  0.96425681  1
  O2-  O369  1  0.06508410  0.59153888  0.47603869  1
  O2-  O370  1  0.43755873  0.26228966  0.46436679  1
  O2-  O371  1  0.93602596  0.58654276  0.97819915  1
  O2-  O372  1  0.25021857  0.32919485  0.32568899  1
  O2-  O373  1  0.25000382  0.67398122  0.60046226  1
  O2-  O374  1  0.25002562  -0.01779210  0.61995004  1
  O2-  O375  1  0.75041490  0.32738729  0.92317411  1
  O2-  O376  1  0.24943333  -0.00019016  0.82075487  1
  O2-  O377  1  0.74993785  0.33758614  0.83067575  1
  O2-  O378  1  0.25029728  0.66261192  0.11123729  1
  O2-  O379  1  0.74973407  0.66680513  0.32725762  1
  O2-  O380  1  0.24931477  0.00129064  0.15354563  1
  O2-  O381  1  0.24960864  0.00928214  0.91881620  1
  O2-  O382  1  0.24980690  -0.01725359  0.42323054  1
  O2-  O383  1  0.25056624  0.34308969  0.68137424  1
  O2-  O384  1  0.74948726  0.66950456  0.10259040  1
  O2-  O385  1  0.74976977  -0.00978745  0.83223749  1
  O2-  O386  1  0.74929676  0.67136037  0.89966146  1
  O2-  O387  1  0.25061958  0.36256437  0.59082120  1
  O2-  O388  1  0.75020982  -0.00006114  0.92576645  1
  O2-  O389  1  0.74950789  0.33271920  0.59329971  1
  O2-  O390  1  0.75045345  0.66920951  0.64680788  1
  O2-  O391  1  0.75033631  0.66521655  0.41950477  1
  O2-  O392  1  0.25006942  0.00470886  0.30520647  1
  O2-  O393  1  0.25001811  0.35785150  0.43056912  1
  O2-  O394  1  0.75026748  0.33421646  0.35129431  1
  O2-  O395  1  0.24969463  0.32855220  0.90155535  1
  O2-  O396  1  0.24992499  0.84545975  0.12022986  1
  O2-  O397  1  0.25009325  0.51896289  0.18915962  1
  O2-  O398  1  0.75009435  0.83360794  0.40626936  1
  O2-  O399  1  0.25019482  0.51790513  0.84641880  1
  O2-  O400  1  0.24990542  0.50272180  0.59429190  1
  O2-  O401  1  0.24972409  0.16987856  0.09483690  1
  O2-  O402  1  0.24991594  0.17885060  0.86954622  1
  O2-  O403  1  0.75008641  0.83904191  0.08833681  1
  O2-  O404  1  0.75013184  0.50535357  0.84618842  1
  O2-  O405  1  0.24930797  0.46377805  0.91579332  1
  O2-  O406  1  0.75040532  0.14321084  0.64463317  1
  O2-  O407  1  0.25005690  0.49480526  0.33916764  1
  O2-  O408  1  0.24996933  0.17017984  0.59556223  1
  O2-  O409  1  0.75012708  0.50315338  0.11357504  1
  O2-  O410  1  0.75036886  0.49609272  0.66413234  1
  O2-  O411  1  0.25010190  0.82836835  0.42797550  1
  O2-  O412  1  0.75026238  0.17442041  0.30453315  1
  O2-  O413  1  0.24962569  0.47048775  0.11273547  1
  O2-  O414  1  0.75025457  0.15247535  0.87595204  1
  O2-  O415  1  0.75032272  0.50249901  0.57998402  1
  O2-  O416  1  0.24969992  0.83273107  0.31146031  1
  O2-  O417  1  0.75024990  0.16218690  0.39010156  1
  O2-  O418  1  0.25013084  0.82820514  0.82679426  1
  O2-  O419  1  0.74993060  0.83517468  0.59590820  1
  O2-  O420  1  0.04417672  0.00743329  0.61297224  1
  O2-  O421  1  0.97671004  0.33740391  0.37464813  1
  O2-  O422  1  0.52234728  -0.00923402  0.61763908  1
  O2-  O423  1  0.97334216  0.00115090  0.11469650  1
  O2-  O424  1  0.46661389  0.34400725  0.14246921  1
  O2-  O425  1  0.02490857  0.66807523  0.37310617  1
  O2-  O426  1  0.48169730  0.33770665  0.87352677  1
  O2-  O427  1  0.45548757  0.65740094  0.35835525  1
  O2-  O428  1  0.95847019  0.34094961  0.62074329  1
  O2-  O429  1  0.52342771  0.34262512  0.11216096  1
  O2-  O430  1  0.52347735  0.34832269  0.37912586  1
  O2-  O431  1  0.95982074  0.01534873  0.61312710  1
  O2-  O432  1  0.47658204  -0.01547221  0.13302427  1
  O2-  O433  1  0.96702430  0.65852317  0.87853955  1
  O2-  O434  1  0.02440640  0.00563597  0.86762798  1
  O2-  O435  1  0.97233574  0.32969155  0.87415613  1
  O2-  O436  1  0.03282432  -0.00186529  0.12734354  1
  O2-  O437  1  0.47608755  -0.00054520  0.37889922  1
  O2-  O438  1  0.04636557  0.33182407  0.62506808  1
  O2-  O439  1  0.47070151  0.66061453  0.13152253  1
  O2-  O440  1  0.04318280  0.68244894  0.85091321  1
  O2-  O441  1  0.98174675  0.00846007  0.38112013  1
  O2-  O442  1  0.54153519  0.65120502  0.37909960  1
  O2-  O443  1  0.97280835  0.33215023  0.12322619  1
