# generated using pymatgen
data_La7(Ru4O11)2
_symmetry_space_group_name_H-M   'P 1'
_cell_length_a   24.00024111
_cell_length_b   16.83975674
_cell_length_c   15.43657171
_cell_angle_alpha   89.99971416
_cell_angle_beta   89.99645317
_cell_angle_gamma   90.00087893
_symmetry_Int_Tables_number   1
_chemical_formula_structural   La7(Ru4O11)2
_chemical_formula_sum   'La84 Ru96 O264'
_cell_volume   6238.81736157
_cell_formula_units_Z   12
loop_
 _symmetry_equiv_pos_site_id
 _symmetry_equiv_pos_as_xyz
  1  'x, y, z'
loop_
 _atom_type_symbol
 _atom_type_oxidation_number
  La3+  3.0
  Ru4+  4.0
  O2-  -2.0
loop_
 _atom_site_type_symbol
 _atom_site_label
 _atom_site_symmetry_multiplicity
 _atom_site_fract_x
 _atom_site_fract_y
 _atom_site_fract_z
 _atom_site_occupancy
  La3+  La0  1  0.14778680  0.00450139  0.12203368  1
  La3+  La1  1  0.13672198  0.00133026  0.37640678  1
  La3+  La2  1  0.14032908  0.00284435  0.62500395  1
  La3+  La3  1  0.14056768  0.00667049  0.87018472  1
  La3+  La4  1  0.14442271  0.33700216  0.12342342  1
  La3+  La5  1  0.14733795  0.32706409  0.37987597  1
  La3+  La6  1  0.14518020  0.34103172  0.62706893  1
  La3+  La7  1  0.15032202  0.32644954  0.86942691  1
  La3+  La8  1  0.14847884  0.66544907  0.12839849  1
  La3+  La9  1  0.13516519  0.65636495  0.38140183  1
  La3+  La10  1  0.14670006  0.66876538  0.63042623  1
  La3+  La11  1  0.15210305  0.66049238  0.87201272  1
  La3+  La12  1  0.63568950  0.00282054  0.13076341  1
  La3+  La13  1  0.62112207  0.00271535  0.38266454  1
  La3+  La14  1  0.63871241  0.00365705  0.61985005  1
  La3+  La15  1  0.63904518  -0.00362015  0.87323864  1
  La3+  La16  1  0.63862183  0.34137628  0.12562096  1
  La3+  La17  1  0.65176261  0.33186702  0.37582009  1
  La3+  La18  1  0.63423130  0.33993940  0.62171883  1
  La3+  La19  1  0.64201813  0.32801802  0.86905458  1
  La3+  La20  1  0.63314166  0.66298527  0.12740611  1
  La3+  La21  1  0.63844689  0.66298283  0.37326422  1
  La3+  La22  1  0.63583512  0.65498694  0.62145857  1
  La3+  La23  1  0.63770886  0.66413223  0.87982428  1
  La3+  La24  1  0.35118725  0.00747302  0.12383898  1
  La3+  La25  1  0.34810451  -0.00258973  0.36899414  1
  La3+  La26  1  0.36086491  -0.00057144  0.61597009  1
  La3+  La27  1  0.35935914  -0.00468393  0.86547858  1
  La3+  La28  1  0.35710503  0.33811340  0.12212526  1
  La3+  La29  1  0.35747295  0.32994648  0.38110408  1
  La3+  La30  1  0.35842567  0.33756977  0.62662187  1
  La3+  La31  1  0.34855750  0.33323553  0.87161171  1
  La3+  La32  1  0.34825349  0.67256749  0.12497631  1
  La3+  La33  1  0.36557817  0.65452693  0.37777613  1
  La3+  La34  1  0.35156558  0.65903406  0.61912462  1
  La3+  La35  1  0.34979665  0.67312140  0.86334460  1
  La3+  La36  1  0.86543319  0.00244269  0.12770887  1
  La3+  La37  1  0.87261059  0.00025817  0.37883806  1
  La3+  La38  1  0.85705572  0.00684606  0.62164956  1
  La3+  La39  1  0.85505052  0.01044114  0.87571287  1
  La3+  La40  1  0.86516734  0.34156747  0.13543476  1
  La3+  La41  1  0.84398877  0.32449128  0.37665128  1
  La3+  La42  1  0.85237344  0.32505059  0.62410385  1
  La3+  La43  1  0.87234356  0.33442672  0.86991105  1
  La3+  La44  1  0.86081379  0.67112113  0.13017427  1
  La3+  La45  1  0.85708540  0.66581382  0.36933352  1
  La3+  La46  1  0.86848235  0.66663177  0.62820684  1
  La3+  La47  1  0.86461132  0.66193905  0.86917185  1
  La3+  La48  1  -0.00023812  0.17380636  0.13305890  1
  La3+  La49  1  0.01521604  0.48417841  0.34721387  1
  La3+  La50  1  0.49456896  0.16535518  0.38608083  1
  La3+  La51  1  0.49327657  0.50970457  0.16405550  1
  La3+  La52  1  0.51212926  0.49065967  0.39276470  1
  La3+  La53  1  0.50188421  0.82936622  0.11350928  1
  La3+  La54  1  0.00115555  0.52257813  0.87204671  1
  La3+  La55  1  -0.00139723  0.82676230  0.13269515  1
  La3+  La56  1  0.00607253  0.82840823  0.60599128  1
  La3+  La57  1  0.00647693  0.52103307  0.62425635  1
  La3+  La58  1  0.49775232  0.83543286  0.13390074  1
  La3+  La59  1  -0.00433302  0.83898011  0.85716261  1
  La3+  La60  1  0.50160919  0.84487588  0.63173644  1
  La3+  La61  1  0.00094070  0.83365435  0.37564284  1
  La3+  La62  1  0.50250506  0.49775910  0.87198451  1
  La3+  La63  1  0.00116281  0.84241348  0.86979086  1
  La3+  La64  1  0.00052703  0.17195007  0.38139659  1
  La3+  La65  1  0.49814303  0.50947806  0.14932617  1
  La3+  La66  1  0.49778236  0.17783388  0.87562467  1
  La3+  La67  1  -0.00874089  0.51713668  0.12401958  1
  La3+  La68  1  0.50041547  0.16515787  0.85836465  1
  La3+  La69  1  -0.00342575  0.14827432  0.88417085  1
  La3+  La70  1  0.00309565  0.51480236  0.88585739  1
  La3+  La71  1  0.50152647  0.16271060  0.13067794  1
  La3+  La72  1  0.25428360  0.84038673  0.71076077  1
  La3+  La73  1  0.75040812  0.10671735  0.29652366  1
  La3+  La74  1  0.75474144  0.22239999  0.03940645  1
  La3+  La75  1  0.74725122  0.22587239  0.69548871  1
  La3+  La76  1  0.25119186  0.49141495  0.79275092  1
  La3+  La77  1  0.24893612  0.20817662  0.54988300  1
  La3+  La78  1  0.74828477  0.88464991  0.46957617  1
  La3+  La79  1  0.75183345  0.81443602  -0.05912733  1
  La3+  La80  1  0.74683680  0.74906129  0.71354157  1
  La3+  La81  1  0.24940325  0.85585781  -0.02348537  1
  La3+  La82  1  0.75221698  0.49972243  -0.09134385  1
  La3+  La83  1  0.25074781  0.78245727  0.32052418  1
  Ru4+  Ru84  1  0.00216812  0.00107125  0.01989819  1
  Ru4+  Ru85  1  0.00155353  0.00871401  0.25305604  1
  Ru4+  Ru86  1  -0.00429573  0.00313663  0.50422964  1
  Ru4+  Ru87  1  0.00543223  0.00889113  0.71632438  1
  Ru4+  Ru88  1  0.00991493  0.33936684  -0.00589791  1
  Ru4+  Ru89  1  0.00399537  0.33569299  0.25893846  1
  Ru4+  Ru90  1  0.00396061  0.34220591  0.49936592  1
  Ru4+  Ru91  1  0.00044483  0.32440928  0.72215770  1
  Ru4+  Ru92  1  0.00404896  0.67159877  0.00838079  1
  Ru4+  Ru93  1  0.00462708  0.66752488  0.23894237  1
  Ru4+  Ru94  1  -0.00676320  0.66538381  0.48534312  1
  Ru4+  Ru95  1  0.00459942  0.68060675  0.75464990  1
  Ru4+  Ru96  1  0.49818145  -0.00165992  0.00032909  1
  Ru4+  Ru97  1  0.50050965  -0.00334381  0.25594877  1
  Ru4+  Ru98  1  0.50000681  0.02413104  0.51444466  1
  Ru4+  Ru99  1  0.50353343  0.00059270  0.73290609  1
  Ru4+  Ru100  1  0.50562670  0.34314895  0.00030475  1
  Ru4+  Ru101  1  0.50268831  0.33306157  0.24428639  1
  Ru4+  Ru102  1  0.49449185  0.33490570  0.49596685  1
  Ru4+  Ru103  1  0.49575161  0.33689325  0.73929639  1
  Ru4+  Ru104  1  0.49913677  0.66171932  -0.02023593  1
  Ru4+  Ru105  1  0.50065819  0.67065517  0.26613182  1
  Ru4+  Ru106  1  0.48519273  0.66772882  0.48887373  1
  Ru4+  Ru107  1  0.49185784  0.69207508  0.75952664  1
  Ru4+  Ru108  1  0.11366695  0.16535808  -0.00090191  1
  Ru4+  Ru109  1  0.11430239  0.16144751  0.24981572  1
  Ru4+  Ru110  1  0.10596249  0.16449190  0.49561646  1
  Ru4+  Ru111  1  0.10931553  0.17475641  0.74512074  1
  Ru4+  Ru112  1  0.10902242  0.48454781  -0.00076004  1
  Ru4+  Ru113  1  0.11316877  0.49530846  0.25125497  1
  Ru4+  Ru114  1  0.11362893  0.50657236  0.50022684  1
  Ru4+  Ru115  1  0.11322134  0.49985135  0.74210444  1
  Ru4+  Ru116  1  0.11158387  0.83159736  0.00630390  1
  Ru4+  Ru117  1  0.10602704  0.83247959  0.24982331  1
  Ru4+  Ru118  1  0.11362534  0.82987743  0.49681146  1
  Ru4+  Ru119  1  0.11685565  0.84012098  0.74590713  1
  Ru4+  Ru120  1  0.61029857  0.16589771  0.00050955  1
  Ru4+  Ru121  1  0.60738831  0.17320801  0.24916381  1
  Ru4+  Ru122  1  0.62261336  0.16181066  0.50296228  1
  Ru4+  Ru123  1  0.60563534  0.15973967  0.74889587  1
  Ru4+  Ru124  1  0.61105248  0.49138064  -0.01143465  1
  Ru4+  Ru125  1  0.60945758  0.50055752  0.25210700  1
  Ru4+  Ru126  1  0.61024305  0.49618611  0.50762172  1
  Ru4+  Ru127  1  0.61033687  0.49873133  0.75309436  1
  Ru4+  Ru128  1  0.60768559  0.83480175  0.00178001  1
  Ru4+  Ru129  1  0.61089531  0.83732757  0.24706345  1
  Ru4+  Ru130  1  0.60568501  0.83292241  0.49867471  1
  Ru4+  Ru131  1  0.60699878  0.83296418  0.74697381  1
  Ru4+  Ru132  1  0.38686782  0.15839199  0.00415582  1
  Ru4+  Ru133  1  0.38723767  0.16205131  0.24659626  1
  Ru4+  Ru134  1  0.39155823  0.15599792  0.49611305  1
  Ru4+  Ru135  1  0.38735495  0.17798600  0.72983143  1
  Ru4+  Ru136  1  0.38998056  0.50914964  -0.00757070  1
  Ru4+  Ru137  1  0.38643428  0.50610118  0.25326190  1
  Ru4+  Ru138  1  0.39449504  0.51023097  0.51092948  1
  Ru4+  Ru139  1  0.39124619  0.50125197  0.74817798  1
  Ru4+  Ru140  1  0.39206241  0.82862454  0.00344803  1
  Ru4+  Ru141  1  0.39443049  0.83328909  0.24531865  1
  Ru4+  Ru142  1  0.39066834  0.81625130  0.49335035  1
  Ru4+  Ru143  1  0.39699765  0.81631274  0.75294236  1
  Ru4+  Ru144  1  0.89523012  0.17324473  0.00109803  1
  Ru4+  Ru145  1  0.89505151  0.16741500  0.24564668  1
  Ru4+  Ru146  1  0.88571262  0.17347835  0.50094452  1
  Ru4+  Ru147  1  0.89327508  0.16879396  0.75157533  1
  Ru4+  Ru148  1  0.88521141  0.49210912  -0.00545122  1
  Ru4+  Ru149  1  0.88670957  0.50223311  0.25514844  1
  Ru4+  Ru150  1  0.89945452  0.50949030  0.48495693  1
  Ru4+  Ru151  1  0.88335206  0.49246410  0.74362203  1
  Ru4+  Ru152  1  0.88757864  0.83554130  0.00893908  1
  Ru4+  Ru153  1  0.88714509  0.83394816  0.25129914  1
  Ru4+  Ru154  1  0.88624001  0.83533859  0.49170745  1
  Ru4+  Ru155  1  0.89065326  0.83825449  0.74861897  1
  Ru4+  Ru156  1  0.74977136  0.92972322  0.25540716  1
  Ru4+  Ru157  1  0.24716519  0.93226261  0.26720211  1
  Ru4+  Ru158  1  0.75084169  0.59030037  0.03033255  1
  Ru4+  Ru159  1  0.74751963  0.42158445  0.74312874  1
  Ru4+  Ru160  1  0.24936568  0.57492698  0.25703237  1
  Ru4+  Ru161  1  0.74829056  0.93299819  0.73562581  1
  Ru4+  Ru162  1  0.25113286  0.69450140  -0.00896994  1
  Ru4+  Ru163  1  0.25240715  0.42012838  0.50577726  1
  Ru4+  Ru164  1  0.74957591  0.07378463  -0.00450339  1
  Ru4+  Ru165  1  0.25151718  0.43160350  0.24497640  1
  Ru4+  Ru166  1  0.74920706  0.37248061  -0.00635911  1
  Ru4+  Ru167  1  0.24805143  0.06220890  0.48059121  1
  Ru4+  Ru168  1  0.74863868  0.26309003  0.25271364  1
  Ru4+  Ru169  1  0.25162572  0.23899511  0.24707611  1
  Ru4+  Ru170  1  0.74761200  0.74131156  0.25591108  1
  Ru4+  Ru171  1  0.74812542  0.72439424  0.06707400  1
  Ru4+  Ru172  1  0.74804909  0.73005138  0.49498243  1
  Ru4+  Ru173  1  0.25079247  0.08979008  0.75220173  1
  Ru4+  Ru174  1  0.74953061  0.43383104  0.50942245  1
  Ru4+  Ru175  1  0.74890125  0.07518245  0.73415004  1
  Ru4+  Ru176  1  0.74778766  0.93887441  0.03181241  1
  Ru4+  Ru177  1  0.25112673  0.24464566  -0.00361378  1
  Ru4+  Ru178  1  0.25023232  1.02194225  -0.04047844  1
  Ru4+  Ru179  1  0.74903081  0.56972533  0.50134650  1
  O2-  O180  1  0.16790933  0.08285063  -0.00047578  1
  O2-  O181  1  0.16038871  0.07824238  0.25248884  1
  O2-  O182  1  0.16625549  0.08145111  0.49751546  1
  O2-  O183  1  0.16770598  0.08617349  0.74567698  1
  O2-  O184  1  0.16718302  0.41620434  -0.00432912  1
  O2-  O185  1  0.17050156  0.41580508  0.24215076  1
  O2-  O186  1  0.16967048  0.41985204  0.49873629  1
  O2-  O187  1  0.16588075  0.41681725  0.75305362  1
  O2-  O188  1  0.16946817  0.74619575  -0.00085367  1
  O2-  O189  1  0.15951596  0.74844786  0.25914319  1
  O2-  O190  1  0.16465148  0.74796063  0.49973050  1
  O2-  O191  1  0.17111686  0.75554568  0.73988605  1
  O2-  O192  1  0.66474369  0.08058402  -0.00022396  1
  O2-  O193  1  0.65718081  0.07483021  0.25480970  1
  O2-  O194  1  0.66924395  0.07566308  0.49159184  1
  O2-  O195  1  0.66332733  0.07964720  0.75232468  1
  O2-  O196  1  0.67218843  0.41238158  0.00042968  1
  O2-  O197  1  0.65922631  0.41520811  0.24740397  1
  O2-  O198  1  0.67018371  0.41765450  0.50033046  1
  O2-  O199  1  0.66894173  0.41789684  0.74897329  1
  O2-  O200  1  0.66854988  0.74585470  0.00617790  1
  O2-  O201  1  0.66448562  0.74444548  0.24695290  1
  O2-  O202  1  0.66311426  0.74677870  0.49799153  1
  O2-  O203  1  0.65212078  0.73982069  0.75172852  1
  O2-  O204  1  0.33665883  0.25280478  -0.00074924  1
  O2-  O205  1  0.33779892  0.25478265  0.24939670  1
  O2-  O206  1  0.33614463  0.24662463  0.50674482  1
  O2-  O207  1  0.32816714  0.25149734  0.73898337  1
  O2-  O208  1  0.33304955  0.58380431  -0.00225064  1
  O2-  O209  1  0.33079521  0.58996508  0.25441111  1
  O2-  O210  1  0.33411644  0.58091790  0.49430898  1
  O2-  O211  1  0.33148416  0.58137847  0.75020968  1
  O2-  O212  1  0.33820667  0.92185303  -0.00397756  1
  O2-  O213  1  0.33793594  0.91869252  0.24322207  1
  O2-  O214  1  0.34203244  0.90444485  0.50544824  1
  O2-  O215  1  0.34365761  0.91311895  0.74285895  1
  O2-  O216  1  0.84581398  0.25934718  -0.00565168  1
  O2-  O217  1  0.83187438  0.25164475  0.24166447  1
  O2-  O218  1  0.83104863  0.24813354  0.50326613  1
  O2-  O219  1  0.83783582  0.25230399  0.76281673  1
  O2-  O220  1  0.83382163  0.58427113  0.00117933  1
  O2-  O221  1  0.82869956  0.58174459  0.25805994  1
  O2-  O222  1  0.82759960  0.58172263  0.49579224  1
  O2-  O223  1  0.83038759  0.58194758  0.75580504  1
  O2-  O224  1  0.83120751  0.92282474  0.00542657  1
  O2-  O225  1  0.83468336  0.92260547  0.25195220  1
  O2-  O226  1  0.83514693  0.92672071  0.49846481  1
  O2-  O227  1  0.83031273  0.92314026  0.74126760  1
  O2-  O228  1  0.16600028  0.25200108  0.00108821  1
  O2-  O229  1  0.16790649  0.25125693  0.24604094  1
  O2-  O230  1  0.15892343  0.24870068  0.50772327  1
  O2-  O231  1  0.17237307  0.24478964  0.74563770  1
  O2-  O232  1  0.15434645  0.57825900  0.00207472  1
  O2-  O233  1  0.16791014  0.58156926  0.25093769  1
  O2-  O234  1  0.17312306  0.58240970  0.48954034  1
  O2-  O235  1  0.17369569  0.58268780  0.74691242  1
  O2-  O236  1  0.16382814  0.92322283  -0.00267260  1
  O2-  O237  1  0.16046339  0.92164796  0.25591637  1
  O2-  O238  1  0.16244168  0.91916280  0.50040020  1
  O2-  O239  1  0.17650189  0.92286357  0.74011256  1
  O2-  O240  1  0.66196428  0.25577579  0.00065300  1
  O2-  O241  1  0.66369734  0.25399877  0.24486154  1
  O2-  O242  1  0.65925480  0.26182772  0.50792941  1
  O2-  O243  1  0.65770483  0.25583248  0.74368683  1
  O2-  O244  1  0.66805457  0.57958324  0.00317216  1
  O2-  O245  1  0.66036810  0.58941094  0.24653618  1
  O2-  O246  1  0.66611801  0.58254488  0.49711242  1
  O2-  O247  1  0.66099178  0.58670759  0.74855575  1
  O2-  O248  1  0.66294910  0.92094633  0.00535093  1
  O2-  O249  1  0.66477345  0.92180082  0.25287788  1
  O2-  O250  1  0.65948984  0.92554226  0.49675014  1
  O2-  O251  1  0.66587343  0.92180612  0.74834456  1
  O2-  O252  1  0.33565752  0.07671331  -0.00992962  1
  O2-  O253  1  0.33257309  0.08670539  0.24629337  1
  O2-  O254  1  0.32427747  0.08687642  0.51332775  1
  O2-  O255  1  0.33818452  0.08312659  0.74632550  1
  O2-  O256  1  0.34059329  0.42246222  -0.00064621  1
  O2-  O257  1  0.33534696  0.41943895  0.25047655  1
  O2-  O258  1  0.33840282  0.41873953  0.49783662  1
  O2-  O259  1  0.33439054  0.41795504  0.74977765  1
  O2-  O260  1  0.33291362  0.74930220  -0.00613927  1
  O2-  O261  1  0.33955739  0.74886483  0.25850568  1
  O2-  O262  1  0.32709325  0.74692442  0.49790453  1
  O2-  O263  1  0.32899786  0.75286232  0.73594536  1
  O2-  O264  1  0.83438636  0.08452580  0.01059437  1
  O2-  O265  1  0.84576444  0.07711084  0.25349431  1
  O2-  O266  1  0.84459728  0.07856609  0.49051749  1
  O2-  O267  1  0.83308427  0.08320476  0.74692304  1
  O2-  O268  1  0.82725737  0.41125398  -0.00671932  1
  O2-  O269  1  0.83501129  0.41925164  0.24555726  1
  O2-  O270  1  0.82420348  0.41859537  0.49968287  1
  O2-  O271  1  0.82298280  0.42060917  0.76767080  1
  O2-  O272  1  0.83240673  0.74728165  -0.00298873  1
  O2-  O273  1  0.82975745  0.75156866  0.24917067  1
  O2-  O274  1  0.82986846  0.74496436  0.49800500  1
  O2-  O275  1  0.83327330  0.75074755  0.76579519  1
  O2-  O276  1  0.04101730  0.55591328  0.45939771  1
  O2-  O277  1  0.44864200  0.42516771  0.97656331  1
  O2-  O278  1  0.45020003  0.23227313  0.00861169  1
  O2-  O279  1  0.05084441  0.76239797  0.99396509  1
  O2-  O280  1  0.95174987  0.57278922  0.75268151  1
  O2-  O281  1  0.54860634  0.75751108  0.23635520  1
  O2-  O282  1  0.94740888  0.42023760  0.21934681  1
  O2-  O283  1  0.98193101  0.41671593  0.79287783  1
  O2-  O284  1  0.45245754  0.90609478  0.00384932  1
  O2-  O285  1  0.96080576  0.39948311  0.58848657  1
  O2-  O286  1  0.94455990  0.91724381  0.03877421  1
  O2-  O287  1  0.46366269  0.12767528  0.53029897  1
  O2-  O288  1  0.05166029  0.90992845  0.02300370  1
  O2-  O289  1  0.94842244  0.09138328  0.75886225  1
  O2-  O290  1  0.95144310  0.09563454  0.02810393  1
  O2-  O291  1  0.95596434  0.90501554  0.26292966  1
  O2-  O292  1  0.02097652  0.25015027  0.80590262  1
  O2-  O293  1  0.96551436  0.90041085  0.71244037  1
  O2-  O294  1  0.93492793  0.60360752  0.43929474  1
  O2-  O295  1  0.56113040  0.08792992  0.47284855  1
  O2-  O296  1  0.55147357  0.43692231  0.06270155  1
  O2-  O297  1  0.44689499  0.57254497  0.44522463  1
  O2-  O298  1  0.45272572  0.43154699  0.75385993  1
  O2-  O299  1  0.05446289  0.45060147  0.19020820  1
  O2-  O300  1  0.45875318  0.12120979  0.54495758  1
  O2-  O301  1  0.94713533  0.76663824  0.98158605  1
  O2-  O302  1  0.54663919  0.09961177  0.26408034  1
  O2-  O303  1  0.05568117  0.24189044  0.26046333  1
  O2-  O304  1  0.44867281  0.57971545  0.29787450  1
  O2-  O305  1  0.93525992  0.74340145  0.72610721  1
  O2-  O306  1  0.04809501  0.77958788  0.73437071  1
  O2-  O307  1  0.46867576  0.55626429  0.02587703  1
  O2-  O308  1  0.55241750  0.24542242  0.02188706  1
  O2-  O309  1  0.94648630  0.76047995  0.49006941  1
  O2-  O310  1  0.95884899  0.57858509  0.28790956  1
  O2-  O311  1  0.56435714  0.08846740  0.47247236  1
  O2-  O312  1  0.04158008  0.79267324  0.73652163  1
  O2-  O313  1  0.54462548  0.89843022  0.50102165  1
  O2-  O314  1  0.55350750  0.57654607  0.50305365  1
  O2-  O315  1  0.44948176  0.42834777  0.49761712  1
  O2-  O316  1  0.45567487  0.22932138  0.24311660  1
  O2-  O317  1  0.54203044  0.23485093  0.73886351  1
  O2-  O318  1  0.05554133  0.09490571  0.73716511  1
  O2-  O319  1  0.94984993  0.56859390  -0.00118784  1
  O2-  O320  1  0.96912435  0.46287267  0.46842282  1
  O2-  O321  1  0.54022096  0.90591491  0.50227136  1
  O2-  O322  1  0.46750684  0.80060569  0.80167222  1
  O2-  O323  1  0.54739443  0.08830515  0.98793327  1
  O2-  O324  1  0.91110819  0.57088216  0.16717446  1
  O2-  O325  1  0.07407330  0.91946123  0.67641054  1
  O2-  O326  1  0.45672209  0.56938121  0.29181156  1
  O2-  O327  1  0.44634752  0.75499040  0.55995514  1
  O2-  O328  1  0.56280305  0.39659242  0.52631024  1
  O2-  O329  1  0.07114014  0.40537223  0.47472534  1
  O2-  O330  1  0.56700616  0.58756167  0.97813825  1
  O2-  O331  1  0.90411636  0.40964493  0.55948452  1
  O2-  O332  1  0.41865603  0.23824646  0.82818599  1
  O2-  O333  1  0.91531161  0.91589356  0.83580497  1
  O2-  O334  1  0.57039218  0.39532077  0.92974132  1
  O2-  O335  1  0.43716276  0.07195148  0.26398716  1
  O2-  O336  1  0.08927409  0.59801773  0.55888552  1
  O2-  O337  1  0.94098014  0.26092505  0.21328668  1
  O2-  O338  1  0.06097926  0.07607538  0.98292289  1
  O2-  O339  1  0.42518139  0.70879371  0.70519441  1
  O2-  O340  1  0.06266096  0.58173925  0.78638583  1
  O2-  O341  1  0.07302561  0.71382889  0.85399330  1
  O2-  O342  1  0.07862703  0.26485656  0.69546431  1
  O2-  O343  1  0.56233900  0.40437655  0.76410332  1
  O2-  O344  1  0.05999867  0.39982749  0.06084145  1
  O2-  O345  1  0.91013069  0.38640180  0.71662042  1
  O2-  O346  1  0.55598582  0.74694807  0.98896080  1
  O2-  O347  1  0.93885438  0.74860149  0.73189651  1
  O2-  O348  1  0.94187873  0.40271224  0.97005063  1
  O2-  O349  1  0.43435357  0.60176006  0.58034466  1
  O2-  O350  1  0.08189172  0.39094523  0.30573512  1
  O2-  O351  1  0.43048846  0.62720019  0.91827543  1
  O2-  O352  1  0.93364565  0.59934843  0.43853260  1
  O2-  O353  1  0.94599456  0.24508136  0.47634299  1
  O2-  O354  1  0.95167184  0.57093427  0.74590498  1
  O2-  O355  1  0.56149595  0.92281608  0.74737509  1
  O2-  O356  1  0.43366030  0.26386933  0.46649790  1
  O2-  O357  1  0.43558892  0.74365001  0.41468480  1
  O2-  O358  1  0.91745573  0.39454172  0.38570407  1
  O2-  O359  1  0.06545951  0.40957817  0.90774136  1
  O2-  O360  1  0.43962241  0.26837233  0.67458536  1
  O2-  O361  1  0.90942648  0.54891493  0.59773338  1
  O2-  O362  1  0.94446746  0.75683066  0.49829176  1
  O2-  O363  1  0.05738794  0.25104025  0.97373404  1
  O2-  O364  1  0.43535010  0.41305014  0.22581575  1
  O2-  O365  1  0.04730188  0.22838411  0.25426977  1
  O2-  O366  1  0.94049374  0.74660595  0.24423703  1
  O2-  O367  1  0.07112563  0.59803114  0.27140042  1
  O2-  O368  1  0.94187956  0.92556589  0.45596186  1
  O2-  O369  1  0.41003916  0.57455190  0.15003051  1
  O2-  O370  1  0.41441399  0.02525870  0.45307898  1
  O2-  O371  1  0.08310303  0.90492047  0.83947480  1
  O2-  O372  1  0.74785151  -0.00711354  0.89395863  1
  O2-  O373  1  0.25121569  0.33845526  0.05402602  1
  O2-  O374  1  0.24917826  0.67427309  0.18393949  1
  O2-  O375  1  0.74827242  0.65877883  0.90118502  1
  O2-  O376  1  0.24882771  0.64064032  0.09820120  1
  O2-  O377  1  0.25045918  0.34553937  0.82187439  1
  O2-  O378  1  0.24505322  -0.00116768  0.37393069  1
  O2-  O379  1  0.25267992  0.33423813  0.17647237  1
  O2-  O380  1  0.74694534  -0.00489032  0.63175925  1
  O2-  O381  1  0.25113018  0.32514471  0.44797788  1
  O2-  O382  1  0.25168825  0.00784634  0.07497602  1
  O2-  O383  1  0.25229565  0.64711271  0.87409847  1
  O2-  O384  1  0.24957464  0.34270042  0.91429632  1
  O2-  O385  1  0.74541015  0.64949612  0.60551261  1
  O2-  O386  1  0.74822330  0.33505139  0.13519308  1
  O2-  O387  1  0.74629869  0.35511036  0.63545323  1
  O2-  O388  1  0.25177354  0.33825084  0.60600177  1
  O2-  O389  1  0.75020655  0.00206644  0.14536268  1
  O2-  O390  1  0.74454211  0.34056970  0.34601851  1
  O2-  O391  1  0.24727268  0.65681570  0.35206384  1
  O2-  O392  1  0.24811628  0.01812591  0.20353898  1
  O2-  O393  1  0.74744685  0.67308698  0.36524596  1
  O2-  O394  1  0.25301548  0.00019807  0.83557983  1
  O2-  O395  1  0.25146207  0.33354220  0.31813519  1
  O2-  O396  1  0.24917600  0.15120201  0.32211669  1
  O2-  O397  1  0.75183939  0.13816954  0.60276179  1
  O2-  O398  1  0.74784504  0.17230479  0.16953699  1
  O2-  O399  1  0.25103340  0.15063027  0.91399836  1
  O2-  O400  1  0.74981728  0.15805987  0.91140643  1
  O2-  O401  1  0.74884565  0.83861081  0.09809312  1
  O2-  O402  1  0.74963842  0.83609025  0.33403442  1
  O2-  O403  1  0.74647725  0.84761043  0.81077993  1
  O2-  O404  1  0.25011639  0.49538501  0.65092267  1
  O2-  O405  1  0.74892534  0.15776865  0.82124580  1
  O2-  O406  1  0.25253089  0.80662843  0.11075891  1
  O2-  O407  1  0.24978274  0.49641070  0.34638114  1
  O2-  O408  1  0.74878498  0.82513886  0.59779188  1
  O2-  O409  1  0.25039462  0.49978312  0.14956196  1
  O2-  O410  1  0.25020050  0.15731759  0.16456545  1
  O2-  O411  1  0.25144608  0.51544154  0.56596918  1
  O2-  O412  1  0.25240602  0.17167553  0.82913897  1
  O2-  O413  1  0.74885755  0.83746614  0.18888814  1
  O2-  O414  1  0.25261827  0.82180386  0.84304037  1
  O2-  O415  1  0.24851011  0.84558969  0.19140723  1
  O2-  O416  1  0.74956363  0.19180642  0.38968671  1
  O2-  O417  1  0.75020974  0.50935078  0.10550393  1
  O2-  O418  1  0.25110854  0.16345480  0.07647204  1
  O2-  O419  1  0.24882188  0.15917368  0.40936122  1
  O2-  O420  1  0.49565779  -0.01645366  0.36966898  1
  O2-  O421  1  0.54116106  0.02103622  0.62370070  1
  O2-  O422  1  0.52990144  0.65330365  0.85589366  1
  O2-  O423  1  0.48373721  0.33330043  0.12081435  1
  O2-  O424  1  0.96167588  0.26405996  0.65005210  1
  O2-  O425  1  0.53418862  0.66991242  0.38290636  1
  O2-  O426  1  0.95275174  0.01060657  0.61218000  1
  O2-  O427  1  0.02956239  0.00311871  0.38264714  1
  O2-  O428  1  0.01662430  0.00130572  0.84657053  1
  O2-  O429  1  0.48783463  0.34235724  0.36395628  1
  O2-  O430  1  0.04745241  0.66466629  0.65534881  1
  O2-  O431  1  0.52818303  -0.00622113  0.13032295  1
  O2-  O432  1  0.05112779  0.66119389  0.12529699  1
  O2-  O433  1  0.48247571  0.69018639  0.11586922  1
  O2-  O434  1  0.96938013  0.01228885  0.90561843  1
  O2-  O435  1  0.01439519  0.30987043  0.38622514  1
  O2-  O436  1  0.95967591  0.68559273  0.11158817  1
  O2-  O437  1  0.48947417  0.32451628  0.87458469  1
  O2-  O438  1  0.96780695  0.66223226  0.59858149  1
  O2-  O439  1  0.44654401  -0.02792627  0.65144392  1
  O2-  O440  1  0.02577923  0.69857229  0.36592268  1
  O2-  O441  1  0.04724848  0.02575325  0.58718977  1
  O2-  O442  1  0.97289554  0.66604921  0.88179430  1
  O2-  O443  1  0.04379643  0.36114003  0.61108339  1
