# generated using pymatgen
data_La7(Ru4O11)2
_symmetry_space_group_name_H-M   'P 1'
_cell_length_a   23.99044863
_cell_length_b   16.83075626
_cell_length_c   15.42757423
_cell_angle_alpha   90.00103302
_cell_angle_beta   89.99977440
_cell_angle_gamma   89.99900813
_symmetry_Int_Tables_number   1
_chemical_formula_structural   La7(Ru4O11)2
_chemical_formula_sum   'La84 Ru96 O264'
_cell_volume   6229.30570680
_cell_formula_units_Z   12
loop_
 _symmetry_equiv_pos_site_id
 _symmetry_equiv_pos_as_xyz
  1  'x, y, z'
loop_
 _atom_type_symbol
 _atom_type_oxidation_number
  La3+  3.0
  Ru4+  4.0
  O2-  -2.0
loop_
 _atom_site_type_symbol
 _atom_site_label
 _atom_site_symmetry_multiplicity
 _atom_site_fract_x
 _atom_site_fract_y
 _atom_site_fract_z
 _atom_site_occupancy
  La3+  La0  1  0.13675048  0.00489640  0.12356937  1
  La3+  La1  1  0.14143250  0.00398529  0.38047510  1
  La3+  La2  1  0.13791590  0.00310535  0.62190409  1
  La3+  La3  1  0.13760052  0.00253131  0.87417597  1
  La3+  La4  1  0.13064394  0.33680431  0.11690669  1
  La3+  La5  1  0.14301376  0.33284330  0.37982298  1
  La3+  La6  1  0.14087631  0.32908179  0.62246466  1
  La3+  La7  1  0.13378660  0.33996120  0.88490166  1
  La3+  La8  1  0.13973450  0.66420028  0.12044577  1
  La3+  La9  1  0.13576703  0.66612607  0.37957214  1
  La3+  La10  1  0.13660787  0.66368392  0.62521862  1
  La3+  La11  1  0.14090744  0.66201726  0.87543264  1
  La3+  La12  1  0.63960780  -0.00090934  0.12599125  1
  La3+  La13  1  0.64138243  -0.00211923  0.37317088  1
  La3+  La14  1  0.63714661  -0.00193950  0.62504374  1
  La3+  La15  1  0.63892988  0.00099197  0.87507152  1
  La3+  La16  1  0.63967864  0.33517931  0.12603194  1
  La3+  La17  1  0.63981490  0.33668671  0.37346399  1
  La3+  La18  1  0.63732222  0.33348720  0.62418206  1
  La3+  La19  1  0.63788339  0.33125572  0.87231097  1
  La3+  La20  1  0.63925237  0.66794367  0.12775910  1
  La3+  La21  1  0.64062474  0.66705888  0.37347676  1
  La3+  La22  1  0.64035441  0.66646038  0.62481699  1
  La3+  La23  1  0.64216760  0.66490671  0.87328813  1
  La3+  La24  1  0.36107778  0.00201478  0.12651588  1
  La3+  La25  1  0.35976376  0.00316822  0.37974541  1
  La3+  La26  1  0.36408504  0.00046627  0.62344559  1
  La3+  La27  1  0.36254123  -0.00196278  0.87170140  1
  La3+  La28  1  0.36417570  0.33226548  0.11728819  1
  La3+  La29  1  0.36084864  0.33067876  0.37938875  1
  La3+  La30  1  0.35916944  0.32995302  0.62151983  1
  La3+  La31  1  0.35821817  0.32949318  0.87793175  1
  La3+  La32  1  0.36178244  0.66428440  0.12241189  1
  La3+  La33  1  0.36622813  0.66738845  0.38135632  1
  La3+  La34  1  0.36479714  0.66956975  0.61940803  1
  La3+  La35  1  0.35898595  0.66193158  0.87315096  1
  La3+  La36  1  0.85846522  -0.00106403  0.12601079  1
  La3+  La37  1  0.85930181  -0.00133498  0.37314000  1
  La3+  La38  1  0.86428396  -0.00093732  0.62670196  1
  La3+  La39  1  0.86140056  0.00011016  0.87433797  1
  La3+  La40  1  0.86127683  0.32689654  0.12940338  1
  La3+  La41  1  0.86386941  0.33163082  0.36969025  1
  La3+  La42  1  0.86014744  0.33522304  0.62423953  1
  La3+  La43  1  0.85816002  0.33026324  0.87620833  1
  La3+  La44  1  0.86051996  0.66671835  0.12978799  1
  La3+  La45  1  0.86952544  0.67500413  0.38437970  1
  La3+  La46  1  0.86619376  0.67268963  0.61661687  1
  La3+  La47  1  0.86155584  0.66615246  0.87369633  1
  La3+  La48  1  0.49900790  0.50516123  0.88290041  1
  La3+  La49  1  0.49431607  0.17700081  0.87110949  1
  La3+  La50  1  -0.00288607  0.82664050  0.37552527  1
  La3+  La51  1  0.00317976  0.50686260  0.62059685  1
  La3+  La52  1  -0.00507955  0.16377775  0.62212954  1
  La3+  La53  1  -0.00845532  0.16383605  0.13457860  1
  La3+  La54  1  0.49651857  0.83416960  0.63158048  1
  La3+  La55  1  0.50185291  0.83352875  0.86528323  1
  La3+  La56  1  0.49596626  0.83639988  0.88568812  1
  La3+  La57  1  0.49700846  0.82692398  0.39020390  1
  La3+  La58  1  0.50456435  0.16213359  0.38581055  1
  La3+  La59  1  0.50132583  0.17103890  0.63392263  1
  La3+  La60  1  0.49629202  0.83859782  0.13364647  1
  La3+  La61  1  0.50070375  0.16858052  0.12040795  1
  La3+  La62  1  0.00331372  0.83598886  0.13430693  1
  La3+  La63  1  0.50133337  0.49807245  0.61257987  1
  La3+  La64  1  -0.00124266  0.17446348  0.12268113  1
  La3+  La65  1  0.00319203  0.49803787  0.11612685  1
  La3+  La66  1  -0.00031938  0.83183484  0.61400671  1
  La3+  La67  1  0.00264766  0.49500998  0.87557482  1
  La3+  La68  1  0.00048585  0.83524866  0.86708475  1
  La3+  La69  1  0.00472652  0.16300240  0.88412434  1
  La3+  La70  1  0.50220192  0.16916416  0.88786423  1
  La3+  La71  1  -0.00204426  0.83100313  0.11415529  1
  La3+  La72  1  0.74990522  0.16708223  0.00725609  1
  La3+  La73  1  0.75046261  0.53466120  0.03825975  1
  La3+  La74  1  0.25004226  0.47892354  0.18191773  1
  La3+  La75  1  0.25050629  0.49735954  0.52884892  1
  La3+  La76  1  0.24952194  0.86387185  0.78192190  1
  La3+  La77  1  0.75003255  0.21176771  0.74607727  1
  La3+  La78  1  0.75039910  0.83409656  0.01070855  1
  La3+  La79  1  0.75018989  0.82956364  0.74971608  1
  La3+  La80  1  0.24971525  0.84191511  0.23233821  1
  La3+  La81  1  0.75059012  0.11210324  0.50472763  1
  La3+  La82  1  0.25014223  0.83635769  0.50570290  1
  La3+  La83  1  0.74814209  0.78562730  0.50370903  1
  Ru4+  Ru84  1  -0.00434617  -0.00395039  0.00258573  1
  Ru4+  Ru85  1  -0.00115770  -0.00066395  0.25188805  1
  Ru4+  Ru86  1  0.00184665  0.00087589  0.50030857  1
  Ru4+  Ru87  1  0.00163260  -0.00139075  0.74601524  1
  Ru4+  Ru88  1  -0.00108927  0.33438607  0.00001971  1
  Ru4+  Ru89  1  0.00150783  0.33418413  0.25461999  1
  Ru4+  Ru90  1  -0.00229740  0.33039800  0.49403552  1
  Ru4+  Ru91  1  -0.00326620  0.33791788  0.74760248  1
  Ru4+  Ru92  1  -0.00097625  0.66581420  -0.00647747  1
  Ru4+  Ru93  1  -0.00143627  0.65905554  0.25360415  1
  Ru4+  Ru94  1  -0.00327155  0.66889417  0.50012306  1
  Ru4+  Ru95  1  0.00206467  0.66789678  0.75166668  1
  Ru4+  Ru96  1  0.49931134  0.00261813  0.00194950  1
  Ru4+  Ru97  1  0.50047968  -0.00024694  0.25050898  1
  Ru4+  Ru98  1  0.49699628  -0.00181306  0.50142021  1
  Ru4+  Ru99  1  0.50643937  0.00139158  0.74593580  1
  Ru4+  Ru100  1  0.50247644  0.34125773  0.00994486  1
  Ru4+  Ru101  1  0.50239184  0.33942815  0.24725078  1
  Ru4+  Ru102  1  0.50537953  0.33746362  0.50328611  1
  Ru4+  Ru103  1  0.49478726  0.34411091  0.74565774  1
  Ru4+  Ru104  1  0.50124824  0.66405111  0.00282644  1
  Ru4+  Ru105  1  0.49872378  0.66653336  0.25861995  1
  Ru4+  Ru106  1  0.50304717  0.65960640  0.49516768  1
  Ru4+  Ru107  1  0.50114207  0.66062152  0.74898771  1
  Ru4+  Ru108  1  0.11773889  0.17501512  -0.00187309  1
  Ru4+  Ru109  1  0.11499331  0.16478990  0.25215353  1
  Ru4+  Ru110  1  0.11384177  0.16449993  0.49933463  1
  Ru4+  Ru111  1  0.11430465  0.16773747  0.75296487  1
  Ru4+  Ru112  1  0.11267645  0.50003416  -0.00106774  1
  Ru4+  Ru113  1  0.10807539  0.49879754  0.24806697  1
  Ru4+  Ru114  1  0.11283527  0.49810925  0.49868899  1
  Ru4+  Ru115  1  0.11399788  0.50273464  0.75257613  1
  Ru4+  Ru116  1  0.11473830  0.83274900  -0.00077549  1
  Ru4+  Ru117  1  0.10875059  0.83358857  0.25181689  1
  Ru4+  Ru118  1  0.11069619  0.83046815  0.49904200  1
  Ru4+  Ru119  1  0.10968136  0.83710967  0.74934380  1
  Ru4+  Ru120  1  0.61299252  0.17101593  0.00203088  1
  Ru4+  Ru121  1  0.61196575  0.16787910  0.25186458  1
  Ru4+  Ru122  1  0.61124698  0.16832037  0.50080506  1
  Ru4+  Ru123  1  0.61594359  0.16362645  0.74836087  1
  Ru4+  Ru124  1  0.61046605  0.50459044  0.00313882  1
  Ru4+  Ru125  1  0.61357597  0.49428340  0.25178554  1
  Ru4+  Ru126  1  0.61419260  0.49806903  0.50059021  1
  Ru4+  Ru127  1  0.61159661  0.50190729  0.74832315  1
  Ru4+  Ru128  1  0.61206215  0.83050506  0.00152039  1
  Ru4+  Ru129  1  0.61469845  0.83055166  0.24942872  1
  Ru4+  Ru130  1  0.60887776  0.83372109  0.49873484  1
  Ru4+  Ru131  1  0.61167622  0.83098909  0.74632828  1
  Ru4+  Ru132  1  0.38089701  0.16429628  0.00209182  1
  Ru4+  Ru133  1  0.38509625  0.16634695  0.24727666  1
  Ru4+  Ru134  1  0.38361560  0.16187881  0.50100920  1
  Ru4+  Ru135  1  0.38450013  0.17085839  0.74936379  1
  Ru4+  Ru136  1  0.38650804  0.50276497  -0.00023921  1
  Ru4+  Ru137  1  0.39256619  0.49871456  0.25291875  1
  Ru4+  Ru138  1  0.39069785  0.49785472  0.49653517  1
  Ru4+  Ru139  1  0.38660211  0.50283040  0.75113239  1
  Ru4+  Ru140  1  0.38650904  0.83579423  0.00241662  1
  Ru4+  Ru141  1  0.39180570  0.83394757  0.24791625  1
  Ru4+  Ru142  1  0.38603320  0.83735251  0.49969577  1
  Ru4+  Ru143  1  0.38279897  0.82904262  0.74978531  1
  Ru4+  Ru144  1  0.88644109  0.16998937  -0.00133119  1
  Ru4+  Ru145  1  0.88513705  0.16605308  0.25542407  1
  Ru4+  Ru146  1  0.89058451  0.16991301  0.49545960  1
  Ru4+  Ru147  1  0.88980179  0.16777446  0.74889431  1
  Ru4+  Ru148  1  0.88919471  0.49823380  0.00010092  1
  Ru4+  Ru149  1  0.88866518  0.49717055  0.24907372  1
  Ru4+  Ru150  1  0.88612215  0.49942591  0.50020146  1
  Ru4+  Ru151  1  0.88821406  0.49883560  0.75146638  1
  Ru4+  Ru152  1  0.88766205  0.83444426  -0.00154902  1
  Ru4+  Ru153  1  0.88382720  0.83537765  0.25384551  1
  Ru4+  Ru154  1  0.89105240  0.83319188  0.50164278  1
  Ru4+  Ru155  1  0.89003834  0.83507200  0.74786229  1
  Ru4+  Ru156  1  0.74916725  0.26043055  0.24503089  1
  Ru4+  Ru157  1  0.24995829  0.23095178  0.26360791  1
  Ru4+  Ru158  1  0.25008868  0.09259465  0.74386655  1
  Ru4+  Ru159  1  0.74985284  0.69417171  0.01629037  1
  Ru4+  Ru160  1  0.24994417  0.90560507  -0.00204347  1
  Ru4+  Ru161  1  0.24997645  0.59116138  0.26788879  1
  Ru4+  Ru162  1  0.75011793  0.57980989  0.49116197  1
  Ru4+  Ru163  1  0.75001545  0.93493746  0.50673214  1
  Ru4+  Ru164  1  0.25138120  0.42149146  -0.01704636  1
  Ru4+  Ru165  1  0.24924726  0.72440463  0.74966656  1
  Ru4+  Ru166  1  0.74995421  0.97383921  -0.01466222  1
  Ru4+  Ru167  1  0.75032457  0.57720883  0.25711272  1
  Ru4+  Ru168  1  0.25020179  0.96806108  0.25782618  1
  Ru4+  Ru169  1  0.74993876  0.39177691  -0.00758978  1
  Ru4+  Ru170  1  0.25005167  0.36849494  0.27629651  1
  Ru4+  Ru171  1  0.75005187  0.07770130  0.23916159  1
  Ru4+  Ru172  1  0.25028721  0.75775578  -0.00610179  1
  Ru4+  Ru173  1  0.75043606  0.06180367  0.75042519  1
  Ru4+  Ru174  1  0.24991591  0.09504965  -0.00119186  1
  Ru4+  Ru175  1  0.75024294  0.58232213  0.74472530  1
  Ru4+  Ru176  1  0.24992376  0.41804642  0.74243672  1
  Ru4+  Ru177  1  0.25037521  0.72059190  0.26941723  1
  Ru4+  Ru178  1  0.75010266  0.27333375  0.49428268  1
  Ru4+  Ru179  1  0.74988709  0.41245824  0.74476761  1
  O2-  O180  1  0.16749056  0.08107457  0.00022916  1
  O2-  O181  1  0.16528119  0.08128257  0.24997929  1
  O2-  O182  1  0.16626935  0.08240447  0.49993279  1
  O2-  O183  1  0.16989960  0.07962588  0.75086087  1
  O2-  O184  1  0.16915786  0.41481848  0.00113373  1
  O2-  O185  1  0.16554094  0.41236140  0.24741696  1
  O2-  O186  1  0.16574523  0.41544963  0.50233637  1
  O2-  O187  1  0.16790169  0.41410858  0.75331989  1
  O2-  O188  1  0.16743005  0.74913116  -0.00004302  1
  O2-  O189  1  0.16573179  0.74298651  0.24949450  1
  O2-  O190  1  0.16668994  0.74670552  0.50066955  1
  O2-  O191  1  0.16622435  0.74706485  0.75006825  1
  O2-  O192  1  0.66820022  0.08149959  0.00062277  1
  O2-  O193  1  0.66678154  0.08017984  0.24825708  1
  O2-  O194  1  0.65944800  0.07642416  0.50036369  1
  O2-  O195  1  0.66762590  0.07841397  0.74660872  1
  O2-  O196  1  0.66764272  0.41275030  -0.00008432  1
  O2-  O197  1  0.66541177  0.41650276  0.24969915  1
  O2-  O198  1  0.66812086  0.41560717  0.49882648  1
  O2-  O199  1  0.66503732  0.41558491  0.74954748  1
  O2-  O200  1  0.66904612  0.74524466  0.00344597  1
  O2-  O201  1  0.66478761  0.75026720  0.25119819  1
  O2-  O202  1  0.65990280  0.74292245  0.49814297  1
  O2-  O203  1  0.66882086  0.74689361  0.74978291  1
  O2-  O204  1  0.33317131  0.25148961  -0.00161793  1
  O2-  O205  1  0.32796942  0.25001696  0.25087607  1
  O2-  O206  1  0.33537302  0.25092599  0.50190532  1
  O2-  O207  1  0.33452418  0.25249993  0.75270892  1
  O2-  O208  1  0.33742298  0.58573827  0.00094573  1
  O2-  O209  1  0.33365116  0.58605069  0.24860747  1
  O2-  O210  1  0.33426651  0.58666359  0.50238792  1
  O2-  O211  1  0.33192546  0.58603139  0.74829731  1
  O2-  O212  1  0.33279911  0.91884923  -0.00033866  1
  O2-  O213  1  0.33427276  0.92379965  0.25067533  1
  O2-  O214  1  0.33404624  0.92087333  0.50177271  1
  O2-  O215  1  0.33348138  0.92182779  0.74714882  1
  O2-  O216  1  0.83012977  0.25187613  0.00170615  1
  O2-  O217  1  0.83060333  0.25269441  0.24864975  1
  O2-  O218  1  0.82982066  0.25405867  0.50007450  1
  O2-  O219  1  0.83658053  0.25443537  0.75309742  1
  O2-  O220  1  0.83608221  0.58866610  0.00017506  1
  O2-  O221  1  0.83473096  0.58446122  0.25139214  1
  O2-  O222  1  0.83046698  0.58546193  0.49777114  1
  O2-  O223  1  0.83443768  0.58463936  0.74951964  1
  O2-  O224  1  0.83199085  0.92323670  -0.00022121  1
  O2-  O225  1  0.83268373  0.92032838  0.24895363  1
  O2-  O226  1  0.83596083  0.91896937  0.49996752  1
  O2-  O227  1  0.83460044  0.91966735  0.74842814  1
  O2-  O228  1  0.16617716  0.25648560  0.00012544  1
  O2-  O229  1  0.16875216  0.25111056  0.24864444  1
  O2-  O230  1  0.16576000  0.24828184  0.50320192  1
  O2-  O231  1  0.16305582  0.25134195  0.75261821  1
  O2-  O232  1  0.16142396  0.58473202  0.00072335  1
  O2-  O233  1  0.16530354  0.58765338  0.25018659  1
  O2-  O234  1  0.16751009  0.58786367  0.50096076  1
  O2-  O235  1  0.16825103  0.58510499  0.75041172  1
  O2-  O236  1  0.16756674  0.91889049  0.00097317  1
  O2-  O237  1  0.16300305  0.92354936  0.24915128  1
  O2-  O238  1  0.16541386  0.91982532  0.50174778  1
  O2-  O239  1  0.16775974  0.92313546  0.74862653  1
  O2-  O240  1  0.66949387  0.25301690  0.00088845  1
  O2-  O241  1  0.66758631  0.25226106  0.24833958  1
  O2-  O242  1  0.67000249  0.25284056  0.49920679  1
  O2-  O243  1  0.66169967  0.25511864  0.74963420  1
  O2-  O244  1  0.66545180  0.58530028  0.00099609  1
  O2-  O245  1  0.66468810  0.58520350  0.24907427  1
  O2-  O246  1  0.66853228  0.58365767  0.49712791  1
  O2-  O247  1  0.66855175  0.58472918  0.74833585  1
  O2-  O248  1  0.66528455  0.92245918  -0.00049144  1
  O2-  O249  1  0.66342175  0.92009956  0.25024147  1
  O2-  O250  1  0.66662046  0.92150858  0.50141293  1
  O2-  O251  1  0.66459761  0.91954639  0.74752539  1
  O2-  O252  1  0.33242409  0.07922570  -0.00194093  1
  O2-  O253  1  0.33551138  0.08124539  0.24998692  1
  O2-  O254  1  0.33206291  0.08296965  0.50166402  1
  O2-  O255  1  0.33177738  0.07842689  0.75083963  1
  O2-  O256  1  0.33430869  0.41375121  -0.00076737  1
  O2-  O257  1  0.33288809  0.41155362  0.24847941  1
  O2-  O258  1  0.33220226  0.41499528  0.50088479  1
  O2-  O259  1  0.33303489  0.41572775  0.75141722  1
  O2-  O260  1  0.33260833  0.74728892  0.00034421  1
  O2-  O261  1  0.33702036  0.74427439  0.25029593  1
  O2-  O262  1  0.33162829  0.74639355  0.50164368  1
  O2-  O263  1  0.33018051  0.74481114  0.74838760  1
  O2-  O264  1  0.83278514  0.07976553  0.00024322  1
  O2-  O265  1  0.83438320  0.08144375  0.24776613  1
  O2-  O266  1  0.84167284  0.07770096  0.50188222  1
  O2-  O267  1  0.83224774  0.08127051  0.74865568  1
  O2-  O268  1  0.83190980  0.41299561  0.00136944  1
  O2-  O269  1  0.83484904  0.41741194  0.25155008  1
  O2-  O270  1  0.83532930  0.41681727  0.49840934  1
  O2-  O271  1  0.83224321  0.41622066  0.74826055  1
  O2-  O272  1  0.83475308  0.74363544  0.00188610  1
  O2-  O273  1  0.83699457  0.74785027  0.25037818  1
  O2-  O274  1  0.83517236  0.74153863  0.49771388  1
  O2-  O275  1  0.83397143  0.74596830  0.75055318  1
  O2-  O276  1  0.04930466  0.56741867  0.26343634  1
  O2-  O277  1  0.95059551  0.56740095  0.01155901  1
  O2-  O278  1  0.04554745  0.57037924  0.49542132  1
  O2-  O279  1  0.94691666  0.57524260  0.23237792  1
  O2-  O280  1  0.95326984  0.57128916  0.76153512  1
  O2-  O281  1  0.95391402  0.23883814  0.22541228  1
  O2-  O282  1  0.04292802  0.23654799  0.53869106  1
  O2-  O283  1  0.05590209  0.08561845  0.52003377  1
  O2-  O284  1  0.44867351  0.75973150  0.01383008  1
  O2-  O285  1  0.04542341  0.57024879  0.49904773  1
  O2-  O286  1  0.45362766  0.23302315  0.01033525  1
  O2-  O287  1  0.95649042  0.76932857  0.50649299  1
  O2-  O288  1  0.04966006  0.57175406  0.98867943  1
  O2-  O289  1  0.54538567  0.09708019  0.51654959  1
  O2-  O290  1  0.54658451  0.90540787  0.01291006  1
  O2-  O291  1  0.97451814  0.44553697  0.25617879  1
  O2-  O292  1  0.95006439  0.09700344  0.98972509  1
  O2-  O293  1  0.05083434  0.10318303  0.98952300  1
  O2-  O294  1  0.54098670  0.77104810  0.04440603  1
  O2-  O295  1  0.55015154  0.09541249  0.75548026  1
  O2-  O296  1  0.04688602  0.90341692  0.01037333  1
  O2-  O297  1  0.46432357  0.22088125  0.27288179  1
  O2-  O298  1  0.96605153  0.22313465  0.78571560  1
  O2-  O299  1  0.44899643  0.09860442  0.75803071  1
  O2-  O300  1  0.54696955  0.42947133  0.99000372  1
  O2-  O301  1  0.95433103  0.22380628  0.24899634  1
  O2-  O302  1  0.54831991  0.23780712  0.76270687  1
  O2-  O303  1  0.05341292  0.23988766  0.23972427  1
  O2-  O304  1  0.45210581  0.76628471  0.51740831  1
  O2-  O305  1  0.05263093  0.42797241  0.97949375  1
  O2-  O306  1  0.95109444  0.76613618  0.98833465  1
  O2-  O307  1  0.45564653  0.90413764  0.76091996  1
  O2-  O308  1  0.95714246  0.44186639  0.71341749  1
  O2-  O309  1  0.95374639  0.76591583  0.24018921  1
  O2-  O310  1  0.05151523  0.43195392  0.74614535  1
  O2-  O311  1  0.45256898  0.24012626  0.47947513  1
  O2-  O312  1  0.04680762  0.09987433  0.02789787  1
  O2-  O313  1  0.95449954  0.76631708  0.75744989  1
  O2-  O314  1  0.04853338  0.09103097  0.24271751  1
  O2-  O315  1  0.46235971  0.21866501  0.26151308  1
  O2-  O316  1  0.04831406  0.76294358  0.98813966  1
  O2-  O317  1  0.94887693  0.75940446  0.48305402  1
  O2-  O318  1  0.04222301  0.42841296  0.00337539  1
  O2-  O319  1  0.54628262  0.43108951  0.01033078  1
  O2-  O320  1  0.04411710  0.90218421  0.48537054  1
  O2-  O321  1  0.45262266  0.23376431  0.51817359  1
  O2-  O322  1  0.44686034  0.57603826  0.77089311  1
  O2-  O323  1  0.45409358  0.56422263  0.48989881  1
  O2-  O324  1  0.06258344  0.92873012  0.67628506  1
  O2-  O325  1  0.06506419  0.59319559  0.72288368  1
  O2-  O326  1  0.44537336  0.58486383  0.77465418  1
  O2-  O327  1  0.93453920  0.92522580  0.97404226  1
  O2-  O328  1  0.43361486  0.41160161  0.55447337  1
  O2-  O329  1  0.43484443  0.59170097  0.27122356  1
  O2-  O330  1  0.56433488  0.26294905  0.93123653  1
  O2-  O331  1  0.05534035  0.08102915  0.52871956  1
  O2-  O332  1  0.43737772  0.40661051  0.28195444  1
  O2-  O333  1  0.56803866  0.58423470  0.80997266  1
  O2-  O334  1  0.43613916  0.92979555  0.21654528  1
  O2-  O335  1  0.56164942  0.59774794  0.03397369  1
  O2-  O336  1  0.93909997  0.26751568  0.96860415  1
  O2-  O337  1  0.56841309  0.74668829  0.80899582  1
  O2-  O338  1  0.57998740  0.73241953  0.94664038  1
  O2-  O339  1  0.06481642  0.07801502  0.77550490  1
  O2-  O340  1  0.93866485  0.92997136  0.28496470  1
  O2-  O341  1  0.56371673  0.26021114  0.28326369  1
  O2-  O342  1  0.93556534  0.07420961  0.72244614  1
  O2-  O343  1  0.93434482  0.26196264  0.46705472  1
  O2-  O344  1  0.56186873  0.59129373  0.68434780  1
  O2-  O345  1  0.92950609  0.38709023  0.81732837  1
  O2-  O346  1  0.41419316  0.27680213  0.19760304  1
  O2-  O347  1  0.06803272  0.91709514  0.81334233  1
  O2-  O348  1  0.92227600  0.38721175  0.19699113  1
  O2-  O349  1  0.43893493  0.73814361  0.53053367  1
  O2-  O350  1  0.92348796  0.26749699  0.69568925  1
  O2-  O351  1  0.56402289  0.25829099  0.52349634  1
  O2-  O352  1  0.56398956  0.59635478  0.53210657  1
  O2-  O353  1  0.56028602  0.73544810  0.21580354  1
  O2-  O354  1  0.93279094  0.73572447  0.53671916  1
  O2-  O355  1  0.43862070  0.40277280  0.43702884  1
  O2-  O356  1  0.07078448  0.39669852  0.02610697  1
  O2-  O357  1  0.93328500  0.26283513  0.28253310  1
  O2-  O358  1  0.06342350  0.24395166  0.55938661  1
  O2-  O359  1  0.93355291  0.59023474  0.53641225  1
  O2-  O360  1  0.56172774  0.41352291  0.52393666  1
  O2-  O361  1  0.43674349  0.73884392  0.78297825  1
  O2-  O362  1  0.56087099  0.26261749  0.78335954  1
  O2-  O363  1  0.56482140  0.25901487  0.07270182  1
  O2-  O364  1  0.56070748  0.74392295  0.67543415  1
  O2-  O365  1  0.43555322  0.92008238  0.77705848  1
  O2-  O366  1  0.07418930  0.26333644  0.41659434  1
  O2-  O367  1  0.56533333  0.07603561  0.97729315  1
  O2-  O368  1  0.06207223  0.73766803  0.28377896  1
  O2-  O369  1  0.43434637  0.07392783  0.52676416  1
  O2-  O370  1  0.43753811  0.25776594  0.02333592  1
  O2-  O371  1  0.56118008  0.40740052  0.28161342  1
  O2-  O372  1  0.74985635  0.66250920  0.34953435  1
  O2-  O373  1  0.25006715  0.66317983  0.15702471  1
  O2-  O374  1  0.75071937  0.66284512  0.89680747  1
  O2-  O375  1  0.24979239  -0.00176195  0.90494170  1
  O2-  O376  1  0.75015846  0.00711607  0.10763189  1
  O2-  O377  1  0.75034964  -0.00541048  0.85116259  1
  O2-  O378  1  0.74994558  0.66325466  0.14958658  1
  O2-  O379  1  0.74987314  0.00321178  0.40057313  1
  O2-  O380  1  0.24977934  0.66565855  0.37945270  1
  O2-  O381  1  0.74982574  0.32838497  0.34682935  1
  O2-  O382  1  0.74999120  0.33088182  0.14924606  1
  O2-  O383  1  0.74958535  0.33677003  0.84684136  1
  O2-  O384  1  0.25060007  0.67654692  0.90057188  1
  O2-  O385  1  0.25081059  0.33494626  0.39249381  1
  O2-  O386  1  0.75029867  0.66399519  0.57670473  1
  O2-  O387  1  0.25004501  0.33860405  0.66025705  1
  O2-  O388  1  0.25017241  0.33520685  0.90362484  1
  O2-  O389  1  0.24988531  -0.00689661  0.43018754  1
  O2-  O390  1  0.25012538  0.66304987  0.05913600  1
  O2-  O391  1  0.74980262  0.33422284  0.65091402  1
  O2-  O392  1  0.75033294  0.67279793  0.66971106  1
  O2-  O393  1  0.24976971  0.02828407  0.16035359  1
  O2-  O394  1  0.24998098  0.03352209  0.35191670  1
  O2-  O395  1  0.24999754  -0.00248009  0.06356564  1
  O2-  O396  1  0.74992404  0.48773422  0.90823671  1
  O2-  O397  1  0.24996605  0.50239300  0.40501607  1
  O2-  O398  1  0.75016336  0.84866373  0.38469608  1
  O2-  O399  1  0.75010998  0.85527745  0.61702309  1
  O2-  O400  1  0.74994951  0.83101556  0.13523626  1
  O2-  O401  1  0.75005312  0.83358925  0.30368126  1
  O2-  O402  1  0.24981266  0.82596544  0.64655287  1
  O2-  O403  1  0.74988627  0.83609954  0.87772037  1
  O2-  O404  1  0.74967194  0.50754189  0.34287077  1
  O2-  O405  1  0.74993564  0.50043806  0.17131056  1
  O2-  O406  1  0.75010931  0.49921463  0.81925882  1
  O2-  O407  1  0.24988178  0.49706954  0.66148214  1
  O2-  O408  1  0.74990867  0.17258142  0.61890907  1
  O2-  O409  1  0.24993081  0.16282120  0.08653485  1
  O2-  O410  1  0.75010449  0.16357469  0.30808669  1
  O2-  O411  1  0.25010370  0.83162819  0.09746690  1
  O2-  O412  1  0.25021011  0.16069662  0.66371396  1
  O2-  O413  1  0.74996212  0.15549381  0.87284913  1
  O2-  O414  1  0.24984495  0.83036215  0.37221735  1
  O2-  O415  1  0.24999206  0.49006591  0.32126996  1
  O2-  O416  1  0.25017437  0.50491272  0.06126737  1
  O2-  O417  1  0.25027392  0.49539798  0.90619687  1
  O2-  O418  1  0.24997117  0.17553851  0.39184032  1
  O2-  O419  1  0.74964750  0.18696183  0.39636058  1
  O2-  O420  1  0.96147738  0.34101329  0.59936644  1
  O2-  O421  1  0.45575546  0.00655484  0.89477155  1
  O2-  O422  1  0.02590781  -0.00394265  0.12581547  1
  O2-  O423  1  0.95701488  0.66558542  0.87748314  1
  O2-  O424  1  0.45977536  0.68060600  0.37996108  1
  O2-  O425  1  0.02390526  0.33260855  0.12938111  1
  O2-  O426  1  0.53959668  0.33395746  0.63914276  1
  O2-  O427  1  0.97697162  0.67132275  0.12175512  1
  O2-  O428  1  0.47672915  -0.00750262  0.62929035  1
  O2-  O429  1  0.02577114  0.67773159  0.62235275  1
  O2-  O430  1  0.47435470  0.00042590  0.37455862  1
  O2-  O431  1  0.04313625  0.66807191  0.86777581  1
  O2-  O432  1  0.97266985  0.66409558  0.37355260  1
  O2-  O433  1  0.02582137  0.00494513  0.88631852  1
  O2-  O434  1  0.02089181  0.34680992  0.36872149  1
  O2-  O435  1  0.52738368  0.00422178  0.12865704  1
  O2-  O436  1  0.54271540  -0.01250646  0.86345537  1
  O2-  O437  1  0.97315869  -0.00670137  0.61925476  1
  O2-  O438  1  0.45695459  0.32381396  0.64321082  1
  O2-  O439  1  0.51208154  0.65820522  0.88524337  1
  O2-  O440  1  0.96624843  0.00246534  0.86386209  1
  O2-  O441  1  0.47859563  0.34584091  0.12539199  1
  O2-  O442  1  0.04063025  0.34087548  0.64253306  1
  O2-  O443  1  0.54447839  0.66656837  0.37240560  1
