# generated using pymatgen
data_La7(Ru4O11)2
_symmetry_space_group_name_H-M   'P 1'
_cell_length_a   23.99165300
_cell_length_b   16.83259196
_cell_length_c   15.42770378
_cell_angle_alpha   90.00076698
_cell_angle_beta   90.00024137
_cell_angle_gamma   90.00001896
_symmetry_Int_Tables_number   1
_chemical_formula_structural   La7(Ru4O11)2
_chemical_formula_sum   'La84 Ru96 O264'
_cell_volume   6230.35020457
_cell_formula_units_Z   12
loop_
 _symmetry_equiv_pos_site_id
 _symmetry_equiv_pos_as_xyz
  1  'x, y, z'
loop_
 _atom_type_symbol
 _atom_type_oxidation_number
  La3+  3.0
  Ru4+  4.0
  O2-  -2.0
loop_
 _atom_site_type_symbol
 _atom_site_label
 _atom_site_symmetry_multiplicity
 _atom_site_fract_x
 _atom_site_fract_y
 _atom_site_fract_z
 _atom_site_occupancy
  La3+  La0  1  0.14281947  0.00689325  0.11715945  1
  La3+  La1  1  0.13882625  0.00045460  0.37184308  1
  La3+  La2  1  0.13733175  -0.00001193  0.62659973  1
  La3+  La3  1  0.14201911  0.00242791  0.87837106  1
  La3+  La4  1  0.14438451  0.33285110  0.12140806  1
  La3+  La5  1  0.13949988  0.33238441  0.37153573  1
  La3+  La6  1  0.13930820  0.33534969  0.62628792  1
  La3+  La7  1  0.13885061  0.33487948  0.88107851  1
  La3+  La8  1  0.13953628  0.66410179  0.12485231  1
  La3+  La9  1  0.13853401  0.66574442  0.37478292  1
  La3+  La10  1  0.14006135  0.66728977  0.62729153  1
  La3+  La11  1  0.14481560  0.66619014  0.87225128  1
  La3+  La12  1  0.63648653  -0.00204422  0.12312780  1
  La3+  La13  1  0.63607831  0.00217996  0.37186447  1
  La3+  La14  1  0.63642717  0.00241162  0.62324503  1
  La3+  La15  1  0.64089498  0.00063004  0.87637186  1
  La3+  La16  1  0.63799917  0.33235613  0.12128901  1
  La3+  La17  1  0.63678975  0.33189333  0.37802489  1
  La3+  La18  1  0.63900852  0.33467683  0.62236397  1
  La3+  La19  1  0.63524937  0.32930770  0.87400027  1
  La3+  La20  1  0.63973401  0.66702729  0.12283885  1
  La3+  La21  1  0.63899234  0.66913059  0.37391703  1
  La3+  La22  1  0.63944910  0.67070918  0.62940395  1
  La3+  La23  1  0.63726819  0.66963178  0.87804332  1
  La3+  La24  1  0.35979850  0.00224353  0.12240552  1
  La3+  La25  1  0.35881637  0.00293928  0.37519874  1
  La3+  La26  1  0.35760025  -0.00226838  0.62880002  1
  La3+  La27  1  0.35705534  0.00139223  0.87862483  1
  La3+  La28  1  0.35711200  0.33180477  0.12354242  1
  La3+  La29  1  0.36153906  0.33295657  0.37260218  1
  La3+  La30  1  0.36457003  0.33666669  0.62732099  1
  La3+  La31  1  0.35961991  0.33344048  0.87848737  1
  La3+  La32  1  0.35869519  0.66453003  0.12210711  1
  La3+  La33  1  0.35818624  0.66971956  0.37500830  1
  La3+  La34  1  0.36227901  0.66795605  0.62484872  1
  La3+  La35  1  0.35540879  0.66522470  0.87101783  1
  La3+  La36  1  0.86252966  -0.00092674  0.12124439  1
  La3+  La37  1  0.86339609  0.00272012  0.37499292  1
  La3+  La38  1  0.86441123  0.00458645  0.62487683  1
  La3+  La39  1  0.86350348  0.00071152  0.87864179  1
  La3+  La40  1  0.86349874  0.33203606  0.12182118  1
  La3+  La41  1  0.86156843  0.33425110  0.37682061  1
  La3+  La42  1  0.86502334  0.32937630  0.62123248  1
  La3+  La43  1  0.86064907  0.33016735  0.87686337  1
  La3+  La44  1  0.85939411  0.66796369  0.12095742  1
  La3+  La45  1  0.86553203  0.66710158  0.37308371  1
  La3+  La46  1  0.86238833  0.66561412  0.62454944  1
  La3+  La47  1  0.86015313  0.66983091  0.87855237  1
  La3+  La48  1  0.49715540  0.50319073  0.37373048  1
  La3+  La49  1  0.00221448  0.16995202  0.86864240  1
  La3+  La50  1  0.00100774  0.49946760  0.63305154  1
  La3+  La51  1  -0.00038616  0.49990682  0.37037299  1
  La3+  La52  1  0.49745787  0.16416296  0.63246788  1
  La3+  La53  1  0.49837093  0.16716137  0.88165846  1
  La3+  La54  1  -0.00206287  0.83260300  0.63145082  1
  La3+  La55  1  0.00052981  0.49142592  0.13311022  1
  La3+  La56  1  -0.00051289  0.16790277  0.13212582  1
  La3+  La57  1  0.50327353  0.83631728  0.13464992  1
  La3+  La58  1  0.50296526  0.83536644  0.38438959  1
  La3+  La59  1  0.49715486  0.82909880  0.11586321  1
  La3+  La60  1  -0.00357078  0.83166072  0.13221283  1
  La3+  La61  1  0.49916316  0.16821042  0.11867912  1
  La3+  La62  1  0.00566372  0.83328412  0.11480012  1
  La3+  La63  1  0.00184411  0.50200262  0.11387155  1
  La3+  La64  1  -0.00126547  0.50090511  0.88473756  1
  La3+  La65  1  0.49894273  0.49868051  0.88144987  1
  La3+  La66  1  0.00366485  0.49598284  0.86460570  1
  La3+  La67  1  0.00002183  0.17064574  0.62814474  1
  La3+  La68  1  0.50421613  0.17537684  0.61602954  1
  La3+  La69  1  0.49711161  0.83112920  0.36422470  1
  La3+  La70  1  0.00176865  0.50120111  0.61213189  1
  La3+  La71  1  -0.00119262  0.83436406  0.61437643  1
  La3+  La72  1  0.74981615  0.86159804  0.24101374  1
  La3+  La73  1  0.74995783  0.55385283  0.27934648  1
  La3+  La74  1  0.74972393  0.51154029  0.76215042  1
  La3+  La75  1  0.75044265  0.20167797  0.71511301  1
  La3+  La76  1  0.74983887  0.78664769  0.75328968  1
  La3+  La77  1  0.75107967  0.14134468  0.25877948  1
  La3+  La78  1  0.74974985  0.16947441  -0.00658004  1
  La3+  La79  1  0.25055146  0.49897370  0.00087690  1
  La3+  La80  1  0.24968691  0.46440449  0.46407403  1
  La3+  La81  1  0.75042064  0.84295995  0.48724042  1
  La3+  La82  1  0.74986639  0.48889622  0.55096394  1
  La3+  La83  1  0.24945047  0.12957045  0.52271527  1
  Ru4+  Ru84  1  -0.00112256  -0.00279196  -0.00263733  1
  Ru4+  Ru85  1  0.00399085  -0.00378531  0.25578336  1
  Ru4+  Ru86  1  0.00007774  0.00428678  0.49603824  1
  Ru4+  Ru87  1  -0.00048503  -0.00201051  0.75351706  1
  Ru4+  Ru88  1  -0.00340331  0.32439667  -0.00345341  1
  Ru4+  Ru89  1  -0.00103402  0.33070259  0.25443929  1
  Ru4+  Ru90  1  0.00412747  0.32832678  0.49667416  1
  Ru4+  Ru91  1  0.00026734  0.33246056  0.75056125  1
  Ru4+  Ru92  1  0.00141015  0.66858516  -0.00346607  1
  Ru4+  Ru93  1  -0.00188009  0.67302786  0.25815865  1
  Ru4+  Ru94  1  0.00114496  0.66649004  0.49770375  1
  Ru4+  Ru95  1  -0.00141575  0.66790826  0.75106151  1
  Ru4+  Ru96  1  0.49891114  -0.00038827  -0.00312402  1
  Ru4+  Ru97  1  0.49566973  0.01022158  0.24515876  1
  Ru4+  Ru98  1  0.50388068  -0.00387123  0.50416800  1
  Ru4+  Ru99  1  0.49932551  -0.00460424  0.74653414  1
  Ru4+  Ru100  1  0.49787465  0.33366754  0.00316383  1
  Ru4+  Ru101  1  0.49730485  0.33315792  0.24773337  1
  Ru4+  Ru102  1  0.49894694  0.33817742  0.49854360  1
  Ru4+  Ru103  1  0.49979773  0.33865704  0.74882561  1
  Ru4+  Ru104  1  0.50190212  0.66288347  0.00022150  1
  Ru4+  Ru105  1  0.49831324  0.66197658  0.24921872  1
  Ru4+  Ru106  1  0.50176719  0.65998998  0.49768326  1
  Ru4+  Ru107  1  0.50325279  0.66454042  0.75365652  1
  Ru4+  Ru108  1  0.11621218  0.17254754  0.00190960  1
  Ru4+  Ru109  1  0.11622154  0.16679052  0.25031589  1
  Ru4+  Ru110  1  0.11181234  0.16350041  0.50044632  1
  Ru4+  Ru111  1  0.11506213  0.16519677  0.74919030  1
  Ru4+  Ru112  1  0.11807310  0.50457103  -0.00022164  1
  Ru4+  Ru113  1  0.11810807  0.49231149  0.24976898  1
  Ru4+  Ru114  1  0.11051890  0.49984363  0.49963059  1
  Ru4+  Ru115  1  0.11254613  0.50255709  0.74939487  1
  Ru4+  Ru116  1  0.11558047  0.83567792  -0.00068750  1
  Ru4+  Ru117  1  0.11185262  0.83372919  0.25338366  1
  Ru4+  Ru118  1  0.11404355  0.83188838  0.50064363  1
  Ru4+  Ru119  1  0.11550813  0.82883942  0.75275530  1
  Ru4+  Ru120  1  0.61045838  0.16714324  0.00089226  1
  Ru4+  Ru121  1  0.60968019  0.16569685  0.24768260  1
  Ru4+  Ru122  1  0.61674493  0.16520026  0.49793910  1
  Ru4+  Ru123  1  0.61212107  0.17085399  0.75175490  1
  Ru4+  Ru124  1  0.61140320  0.50005123  -0.00075041  1
  Ru4+  Ru125  1  0.60933445  0.49791998  0.24826730  1
  Ru4+  Ru126  1  0.60688912  0.50352603  0.50163006  1
  Ru4+  Ru127  1  0.60617602  0.50062134  0.74799491  1
  Ru4+  Ru128  1  0.61520694  0.83634950  -0.00345622  1
  Ru4+  Ru129  1  0.61666011  0.82940136  0.24960317  1
  Ru4+  Ru130  1  0.60918278  0.83671110  0.50253580  1
  Ru4+  Ru131  1  0.61003668  0.83072404  0.74848484  1
  Ru4+  Ru132  1  0.38475918  0.16742322  -0.00025280  1
  Ru4+  Ru133  1  0.38520116  0.16956881  0.25007866  1
  Ru4+  Ru134  1  0.38750706  0.16516177  0.49710922  1
  Ru4+  Ru135  1  0.38362545  0.16302735  0.75132892  1
  Ru4+  Ru136  1  0.38964856  0.49952943  0.00028033  1
  Ru4+  Ru137  1  0.38670832  0.49832793  0.25005615  1
  Ru4+  Ru138  1  0.38995494  0.50058177  0.49828631  1
  Ru4+  Ru139  1  0.38655475  0.50240353  0.75080238  1
  Ru4+  Ru140  1  0.38523206  0.83558411  -0.00174577  1
  Ru4+  Ru141  1  0.38564248  0.83464538  0.24869697  1
  Ru4+  Ru142  1  0.38520375  0.82897634  0.50386194  1
  Ru4+  Ru143  1  0.38500242  0.83140415  0.75018331  1
  Ru4+  Ru144  1  0.88810044  0.16449044  0.00129512  1
  Ru4+  Ru145  1  0.89117209  0.16634353  0.24974716  1
  Ru4+  Ru146  1  0.88513189  0.16615079  0.49797496  1
  Ru4+  Ru147  1  0.88470696  0.17374729  0.75016854  1
  Ru4+  Ru148  1  0.88733735  0.49922740  -0.00030187  1
  Ru4+  Ru149  1  0.88770329  0.49719156  0.25103396  1
  Ru4+  Ru150  1  0.88634574  0.50594389  0.50010312  1
  Ru4+  Ru151  1  0.88902310  0.50323567  0.74946879  1
  Ru4+  Ru152  1  0.88379105  0.83242349  -0.00155936  1
  Ru4+  Ru153  1  0.88868432  0.83515885  0.25159897  1
  Ru4+  Ru154  1  0.89145269  0.83634609  0.50094555  1
  Ru4+  Ru155  1  0.89136423  0.83180904  0.75005397  1
  Ru4+  Ru156  1  0.74998605  0.92720767  0.77294037  1
  Ru4+  Ru157  1  0.24996140  0.91431610  0.49615792  1
  Ru4+  Ru158  1  0.75049965  0.72676611  0.23305767  1
  Ru4+  Ru159  1  0.24998592  0.91975277  0.25362279  1
  Ru4+  Ru160  1  0.75002799  0.41705530  0.24477762  1
  Ru4+  Ru161  1  0.24997399  0.75319076  -0.01435902  1
  Ru4+  Ru162  1  0.75039307  0.07139058  0.76962593  1
  Ru4+  Ru163  1  0.75014938  0.01190425  0.24725257  1
  Ru4+  Ru164  1  0.25008564  0.56958179  0.24278183  1
  Ru4+  Ru165  1  0.75030879  0.35765435  0.52419243  1
  Ru4+  Ru166  1  0.24992616  0.42290540  0.76023769  1
  Ru4+  Ru167  1  0.74980507  0.59852969  0.47366353  1
  Ru4+  Ru168  1  0.75012320  0.42339716  -0.01223511  1
  Ru4+  Ru169  1  0.74971963  0.26971469  0.24686175  1
  Ru4+  Ru170  1  0.75018459  0.64294256  0.75054713  1
  Ru4+  Ru171  1  0.24995876  0.60293532  0.51581066  1
  Ru4+  Ru172  1  0.25017734  0.75557495  0.24903600  1
  Ru4+  Ru173  1  0.75007426  0.38102866  0.74367333  1
  Ru4+  Ru174  1  0.74999962  0.58976480  -0.00483690  1
  Ru4+  Ru175  1  0.75042228  0.71874264  0.51703250  1
  Ru4+  Ru176  1  0.25000467  0.27014445  0.49500721  1
  Ru4+  Ru177  1  0.74969198  0.97389948  0.48550575  1
  Ru4+  Ru178  1  0.25000392  0.91455109  0.75639501  1
  Ru4+  Ru179  1  0.24999215  0.23842604  0.75619470  1
  O2-  O180  1  0.16607882  0.08374241  -0.00159977  1
  O2-  O181  1  0.16422134  0.08223506  0.25037237  1
  O2-  O182  1  0.16364468  0.07676528  0.49946140  1
  O2-  O183  1  0.16555287  0.08067380  0.74883016  1
  O2-  O184  1  0.16694782  0.41406210  -0.00170633  1
  O2-  O185  1  0.16805420  0.41310078  0.25222658  1
  O2-  O186  1  0.16327032  0.41192412  0.50197664  1
  O2-  O187  1  0.16691036  0.41251967  0.75050044  1
  O2-  O188  1  0.16562843  0.74633663  -0.00044903  1
  O2-  O189  1  0.16682082  0.74762207  0.25038513  1
  O2-  O190  1  0.16471529  0.74881328  0.50178752  1
  O2-  O191  1  0.16535226  0.74790105  0.74713394  1
  O2-  O192  1  0.66797555  0.07875592  0.00152900  1
  O2-  O193  1  0.66593195  0.07653392  0.24804769  1
  O2-  O194  1  0.66683660  0.08149023  0.49836224  1
  O2-  O195  1  0.66656677  0.07999966  0.74940693  1
  O2-  O196  1  0.66575944  0.41518247  -0.00069399  1
  O2-  O197  1  0.66682005  0.41443833  0.25219934  1
  O2-  O198  1  0.66671464  0.41332464  0.49829107  1
  O2-  O199  1  0.66591868  0.41325096  0.75106707  1
  O2-  O200  1  0.66524369  0.75029932  -0.00242005  1
  O2-  O201  1  0.66915323  0.74607455  0.24741186  1
  O2-  O202  1  0.66460135  0.74785844  0.50078479  1
  O2-  O203  1  0.66271060  0.74416317  0.75369769  1
  O2-  O204  1  0.33297376  0.25067806  -0.00239473  1
  O2-  O205  1  0.33195407  0.25155729  0.25102386  1
  O2-  O206  1  0.33239177  0.25348191  0.50009305  1
  O2-  O207  1  0.33273737  0.25463826  0.74912411  1
  O2-  O208  1  0.33561258  0.58578936  0.00006899  1
  O2-  O209  1  0.33325704  0.58569134  0.24832282  1
  O2-  O210  1  0.33023615  0.58489082  0.50350071  1
  O2-  O211  1  0.33451142  0.58364055  0.74772688  1
  O2-  O212  1  0.33404538  0.91845172  0.00153410  1
  O2-  O213  1  0.33166386  0.92054467  0.24945464  1
  O2-  O214  1  0.33220244  0.91918383  0.50006804  1
  O2-  O215  1  0.33206440  0.91752373  0.75018343  1
  O2-  O216  1  0.83526663  0.25200762  0.00099653  1
  O2-  O217  1  0.83471561  0.25707103  0.24926988  1
  O2-  O218  1  0.83316592  0.25046045  0.50084470  1
  O2-  O219  1  0.83572532  0.25594226  0.75081749  1
  O2-  O220  1  0.83232971  0.58697655  -0.00162015  1
  O2-  O221  1  0.83788863  0.59060563  0.24835188  1
  O2-  O222  1  0.83397609  0.58862219  0.49848109  1
  O2-  O223  1  0.83424310  0.58920617  0.75076848  1
  O2-  O224  1  0.83527441  0.92071259  -0.00209883  1
  O2-  O225  1  0.83337466  0.92205139  0.25214476  1
  O2-  O226  1  0.83561909  0.92178814  0.49937503  1
  O2-  O227  1  0.83504553  0.91986089  0.75144827  1
  O2-  O228  1  0.16779610  0.25008279  -0.00238990  1
  O2-  O229  1  0.16422601  0.25210867  0.25092306  1
  O2-  O230  1  0.16749821  0.25304924  0.50017296  1
  O2-  O231  1  0.16624671  0.25365650  0.74971832  1
  O2-  O232  1  0.16838153  0.58751733  -0.00169063  1
  O2-  O233  1  0.16625432  0.58526532  0.25044963  1
  O2-  O234  1  0.16765839  0.58715222  0.50265441  1
  O2-  O235  1  0.16391290  0.58600155  0.74777592  1
  O2-  O236  1  0.16461086  0.91750776  0.00049191  1
  O2-  O237  1  0.16918895  0.91725877  0.25175981  1
  O2-  O238  1  0.16920337  0.92060449  0.50078981  1
  O2-  O239  1  0.16985301  0.91952561  0.74751197  1
  O2-  O240  1  0.66477349  0.25248926  -0.00077761  1
  O2-  O241  1  0.66452916  0.25577325  0.25153704  1
  O2-  O242  1  0.66372033  0.25261961  0.49814818  1
  O2-  O243  1  0.66586291  0.25452634  0.75229844  1
  O2-  O244  1  0.66662387  0.58599213  -0.00134937  1
  O2-  O245  1  0.66263082  0.58694966  0.24636029  1
  O2-  O246  1  0.66711720  0.58467732  0.49933340  1
  O2-  O247  1  0.66571616  0.58677876  0.75175752  1
  O2-  O248  1  0.66983183  0.91636006  0.00238932  1
  O2-  O249  1  0.66566135  0.92242532  0.24859429  1
  O2-  O250  1  0.66643006  0.92134473  0.50140727  1
  O2-  O251  1  0.66504815  0.91886638  0.75114359  1
  O2-  O252  1  0.33222811  0.08210601  0.00158945  1
  O2-  O253  1  0.33676980  0.08217356  0.24932520  1
  O2-  O254  1  0.33374146  0.07951690  0.49817272  1
  O2-  O255  1  0.33433166  0.08016041  0.74929689  1
  O2-  O256  1  0.33363861  0.41488337  -0.00113936  1
  O2-  O257  1  0.33604489  0.41517821  0.25062309  1
  O2-  O258  1  0.33422407  0.41302533  0.50238032  1
  O2-  O259  1  0.33216755  0.41430950  0.75062402  1
  O2-  O260  1  0.33405645  0.74647454  0.00030737  1
  O2-  O261  1  0.33491849  0.74776335  0.24815387  1
  O2-  O262  1  0.33218014  0.75014174  0.50191802  1
  O2-  O263  1  0.33554251  0.74904259  0.74743860  1
  O2-  O264  1  0.83051157  0.07977585  -0.00146198  1
  O2-  O265  1  0.83679388  0.07545429  0.24986612  1
  O2-  O266  1  0.83608119  0.08082780  0.49880074  1
  O2-  O267  1  0.83400207  0.07875312  0.75158478  1
  O2-  O268  1  0.83421971  0.41414252  -0.00061935  1
  O2-  O269  1  0.83433100  0.41316466  0.24953714  1
  O2-  O270  1  0.83342387  0.41180713  0.50062082  1
  O2-  O271  1  0.83213404  0.41018486  0.74956390  1
  O2-  O272  1  0.83419578  0.74865149  -0.00241635  1
  O2-  O273  1  0.83432639  0.74643370  0.25143810  1
  O2-  O274  1  0.83574620  0.74497310  0.49915863  1
  O2-  O275  1  0.83723721  0.74270899  0.75176314  1
  O2-  O276  1  0.04721999  0.10088645  0.98044253  1
  O2-  O277  1  0.04571259  0.22836978  0.46639830  1
  O2-  O278  1  0.44898122  0.56893158  0.25945147  1
  O2-  O279  1  0.95139139  0.43122176  0.51702623  1
  O2-  O280  1  0.95414777  0.76269250  0.51373027  1
  O2-  O281  1  0.54719411  0.75635496  0.48967966  1
  O2-  O282  1  0.03682453  0.88630536  0.26369784  1
  O2-  O283  1  0.95343357  0.90571044  0.00921892  1
  O2-  O284  1  0.04646200  0.09931481  0.01980306  1
  O2-  O285  1  0.05009932  0.09832096  0.73434895  1
  O2-  O286  1  0.46045889  0.10600582  0.46979369  1
  O2-  O287  1  0.55181076  0.09434005  0.73953972  1
  O2-  O288  1  0.44669723  0.89944533  0.98609169  1
  O2-  O289  1  0.04958267  0.56944388  0.23086565  1
  O2-  O290  1  0.53980025  0.88685304  0.54364713  1
  O2-  O291  1  0.96482149  0.78454268  0.79155483  1
  O2-  O292  1  0.55771442  0.24328964  0.80533433  1
  O2-  O293  1  0.54410833  0.56122356  0.21766583  1
  O2-  O294  1  0.44122740  0.24942577  0.22428535  1
  O2-  O295  1  0.05533636  0.91247115  0.71331765  1
  O2-  O296  1  0.46042372  0.23551275  0.46918924  1
  O2-  O297  1  0.54740181  0.90220376  0.26063834  1
  O2-  O298  1  0.94923731  0.09012850  0.51292778  1
  O2-  O299  1  0.45141580  0.23684818  0.75539726  1
  O2-  O300  1  0.46543190  0.10430907  0.48793390  1
  O2-  O301  1  0.53872619  0.43606878  0.28449136  1
  O2-  O302  1  0.03312726  0.88354065  0.27270349  1
  O2-  O303  1  0.53299404  0.88588122  1.00099124  1
  O2-  O304  1  0.55072353  0.56507673  0.98727475  1
  O2-  O305  1  0.95025671  0.09543936  0.77182600  1
  O2-  O306  1  0.54698091  0.42917263  0.73678316  1
  O2-  O307  1  0.45166140  0.09281502  0.76398783  1
  O2-  O308  1  0.95635537  0.43259506  0.47859161  1
  O2-  O309  1  0.45217595  0.57048421  0.01347507  1
  O2-  O310  1  0.04961546  0.56627270  0.26984987  1
  O2-  O311  1  0.54611796  0.57107372  0.73587091  1
  O2-  O312  1  0.53782980  0.76866305  0.96345550  1
  O2-  O313  1  0.44714669  0.90652821  0.48672341  1
  O2-  O314  1  0.05033630  0.09576097  0.51899794  1
  O2-  O315  1  0.95258684  0.76522213  0.26266537  1
  O2-  O316  1  0.04375761  0.43206390  0.98870818  1
  O2-  O317  1  0.95380813  0.22827465  0.99005367  1
  O2-  O318  1  0.53638912  0.52397193  0.52269095  1
  O2-  O319  1  0.95025353  0.09653989  0.73240930  1
  O2-  O320  1  0.45122725  0.23719709  0.75183496  1
  O2-  O321  1  0.94982645  0.57376631  0.23540684  1
  O2-  O322  1  0.95821368  0.21800531  0.49324909  1
  O2-  O323  1  0.46208910  0.54343982  0.50925485  1
  O2-  O324  1  0.57426318  0.73050854  0.04622749  1
  O2-  O325  1  0.07248794  0.93027522  0.80226753  1
  O2-  O326  1  0.06317868  0.73490086  0.31584325  1
  O2-  O327  1  0.42614603  0.26701779  0.54073070  1
  O2-  O328  1  0.56854874  0.59950834  0.29193136  1
  O2-  O329  1  0.43605652  0.93605844  0.32090942  1
  O2-  O330  1  0.57107250  0.62520899  0.57057521  1
  O2-  O331  1  0.56213100  0.73654900  0.71805631  1
  O2-  O332  1  0.42230008  0.03778516  0.56419051  1
  O2-  O333  1  0.43591199  0.40597638  0.96425901  1
  O2-  O334  1  0.43663178  0.25501655  0.02616084  1
  O2-  O335  1  0.56770171  0.60620098  0.42814277  1
  O2-  O336  1  0.43168295  0.92011478  0.18606230  1
  O2-  O337  1  0.43811135  0.73663737  0.53576994  1
  O2-  O338  1  0.43331849  0.40723481  0.72745133  1
  O2-  O339  1  0.56361255  0.73924898  0.28087503  1
  O2-  O340  1  0.55680133  0.24132967  0.79330379  1
  O2-  O341  1  0.06349527  0.41487111  0.97294168  1
  O2-  O342  1  0.06286631  0.92853840  0.53335659  1
  O2-  O343  1  0.44968359  0.23743228  0.23306745  1
  O2-  O344  1  0.56573260  0.07435963  0.52949545  1
  O2-  O345  1  0.43530377  0.07425897  0.97550519  1
  O2-  O346  1  0.57419854  0.38658057  0.19382130  1
  O2-  O347  1  0.58387914  0.95616087  0.96610873  1
  O2-  O348  1  0.06370858  0.26204793  0.03862474  1
  O2-  O349  1  0.57137262  0.94514997  0.44130117  1
  O2-  O350  1  0.43679760  0.59756201  0.78347948  1
  O2-  O351  1  0.07217100  0.26645441  0.54028618  1
  O2-  O352  1  0.93591071  0.06981350  0.03584713  1
  O2-  O353  1  0.06583096  0.59302644  0.02379369  1
  O2-  O354  1  0.93135617  0.41534296  0.81125866  1
  O2-  O355  1  0.56204668  0.07109784  0.21630983  1
  O2-  O356  1  0.07044228  0.74440009  0.19212138  1
  O2-  O357  1  0.93667677  0.73818077  0.03071498  1
  O2-  O358  1  0.93425721  0.93452621  0.21544818  1
  O2-  O359  1  0.93207371  0.41359260  0.68754604  1
  O2-  O360  1  0.08694005  0.95782521  0.20045595  1
  O2-  O361  1  0.56070620  0.92380671  0.28429412  1
  O2-  O362  1  0.06441577  0.40143383  0.21570738  1
  O2-  O363  1  0.41565598  0.61717031  0.45938459  1
  O2-  O364  1  0.92728453  0.28463052  0.45890298  1
  O2-  O365  1  0.06242297  0.59590209  0.46816088  1
  O2-  O366  1  0.56413448  0.39753236  0.52843068  1
  O2-  O367  1  0.93098817  0.71979639  0.68926504  1
  O2-  O368  1  0.93609109  0.59350352  0.03390335  1
  O2-  O369  1  0.43283172  0.40632257  0.47145528  1
  O2-  O370  1  0.05525554  0.91236574  0.71294932  1
  O2-  O371  1  0.56937725  0.27333405  0.66323394  1
  O2-  O372  1  0.75037242  0.01406395  0.37615033  1
  O2-  O373  1  0.24968417  0.33441543  0.09509775  1
  O2-  O374  1  0.74950857  0.30820785  0.42019913  1
  O2-  O375  1  0.75007343  0.66225531  0.09433275  1
  O2-  O376  1  0.24991750  0.33783962  0.39940587  1
  O2-  O377  1  0.75033099  0.31241584  0.83752691  1
  O2-  O378  1  0.25020456  0.66505699  0.17576376  1
  O2-  O379  1  0.74979166  0.32793383  0.06052028  1
  O2-  O380  1  0.75010783  -0.00359805  0.67314853  1
  O2-  O381  1  0.75046095  0.32178327  0.63843198  1
  O2-  O382  1  0.25020436  0.66203518  0.31538228  1
  O2-  O383  1  0.25006323  0.67258902  0.85945752  1
  O2-  O384  1  0.25002989  0.33252392  0.84322806  1
  O2-  O385  1  0.25031189  -0.00283248  0.91619603  1
  O2-  O386  1  0.75024939  0.02778260  0.58863161  1
  O2-  O387  1  0.75035281  0.66456965  0.89985852  1
  O2-  O388  1  0.24967567  0.67576947  0.43339256  1
  O2-  O389  1  0.25027847  0.00045898  0.82759068  1
  O2-  O390  1  0.75066790  0.66924569  0.35085140  1
  O2-  O391  1  0.75013018  0.34110071  0.15206341  1
  O2-  O392  1  0.75018200  0.34744325  0.34048569  1
  O2-  O393  1  0.24994124  0.66588842  0.06652604  1
  O2-  O394  1  0.75001069  0.32475336  0.92901699  1
  O2-  O395  1  0.24998234  -0.00394178  0.34635336  1
  O2-  O396  1  0.24987308  0.17193723  0.66156937  1
  O2-  O397  1  0.24997423  0.83536281  0.33467447  1
  O2-  O398  1  0.24993307  0.17152327  0.83748878  1
  O2-  O399  1  0.25003961  0.50302133  0.33242761  1
  O2-  O400  1  0.24963057  0.50614134  0.68551951  1
  O2-  O401  1  0.24985392  0.83611972  0.16622067  1
  O2-  O402  1  0.74987766  0.17309919  0.12604887  1
  O2-  O403  1  0.25002497  0.50599404  0.14054779  1
  O2-  O404  1  0.24997344  0.49275237  0.86127778  1
  O2-  O405  1  0.74981116  0.17335194  0.38097112  1
  O2-  O406  1  0.25008016  0.83080015  0.42409781  1
  O2-  O407  1  0.24988981  0.17654311  0.39393924  1
  O2-  O408  1  0.25014401  0.83036808  0.90978686  1
  O2-  O409  1  0.75009315  0.84170650  0.62743345  1
  O2-  O410  1  0.74993111  0.49374988  0.15718674  1
  O2-  O411  1  0.24964703  0.16698936  0.15886275  1
  O2-  O412  1  0.75014487  0.85226958  0.87168561  1
  O2-  O413  1  0.75014522  0.49228980  0.40253901  1
  O2-  O414  1  0.74997763  0.50276554  0.06707432  1
  O2-  O415  1  0.74981106  0.16539173  0.59492038  1
  O2-  O416  1  0.75015961  0.83038168  0.11046159  1
  O2-  O417  1  0.74997011  0.15705607  0.85688595  1
  O2-  O418  1  0.24977181  0.50678881  0.59743929  1
  O2-  O419  1  0.25002417  0.83630861  0.07591067  1
  O2-  O420  1  0.96993309  0.66213050  0.37628692  1
  O2-  O421  1  0.47690287  0.01013969  0.11603453  1
  O2-  O422  1  0.04372028  0.32553679  0.86363912  1
  O2-  O423  1  0.02570923  0.00420350  0.37592807  1
  O2-  O424  1  0.97038110  -0.00686625  0.62625065  1
  O2-  O425  1  0.52546044  0.66464822  0.87344343  1
  O2-  O426  1  0.47870803  0.33518015  0.62398302  1
  O2-  O427  1  0.47474851  0.67759883  0.36946985  1
  O2-  O428  1  0.02134612  0.00573343  0.88156430  1
  O2-  O429  1  0.02801958  0.33692742  0.37204245  1
  O2-  O430  1  0.52853226  0.00609780  0.86636031  1
  O2-  O431  1  0.97128209  0.33295716  0.12647458  1
  O2-  O432  1  0.96197366  0.31688760  0.61310898  1
  O2-  O433  1  0.52104005  0.66570070  0.12810325  1
  O2-  O434  1  0.52460198  0.34452939  0.88668231  1
  O2-  O435  1  0.01915221  0.66655435  0.12321796  1
  O2-  O436  1  0.47024503  -0.00615379  0.86965024  1
  O2-  O437  1  0.04319082  0.34527642  0.64260946  1
  O2-  O438  1  0.01949256  0.00499981  0.11999007  1
  O2-  O439  1  0.52385570  -0.00311941  0.63423422  1
  O2-  O440  1  0.95953133  0.32611522  0.88358893  1
  O2-  O441  1  0.47900911  0.34508771  0.12292128  1
  O2-  O442  1  0.47779698  0.33372388  0.36858065  1
  O2-  O443  1  0.02820855  0.66395293  0.87568979  1
