# generated using pymatgen
data_La7(Ru4O11)2
_symmetry_space_group_name_H-M   'P 1'
_cell_length_a   23.98965130
_cell_length_b   16.82989473
_cell_length_c   15.42624422
_cell_angle_alpha   90.00022108
_cell_angle_beta   90.00025352
_cell_angle_gamma   90.00153814
_symmetry_Int_Tables_number   1
_chemical_formula_structural   La7(Ru4O11)2
_chemical_formula_sum   'La84 Ru96 O264'
_cell_volume   6228.24283517
_cell_formula_units_Z   12
loop_
 _symmetry_equiv_pos_site_id
 _symmetry_equiv_pos_as_xyz
  1  'x, y, z'
loop_
 _atom_type_symbol
 _atom_type_oxidation_number
  La3+  3.0
  Ru4+  4.0
  O2-  -2.0
loop_
 _atom_site_type_symbol
 _atom_site_label
 _atom_site_symmetry_multiplicity
 _atom_site_fract_x
 _atom_site_fract_y
 _atom_site_fract_z
 _atom_site_occupancy
  La3+  La0  1  0.13677338  -0.00051049  0.12756633  1
  La3+  La1  1  0.13876862  -0.00161795  0.37274777  1
  La3+  La2  1  0.13794187  -0.00115404  0.62581456  1
  La3+  La3  1  0.13783871  -0.00007887  0.87388063  1
  La3+  La4  1  0.13569828  0.33408436  0.12391278  1
  La3+  La5  1  0.13709700  0.33399973  0.37561596  1
  La3+  La6  1  0.14058449  0.33377638  0.62777946  1
  La3+  La7  1  0.13943672  0.33304561  0.87362709  1
  La3+  La8  1  0.13933606  0.66640568  0.12477235  1
  La3+  La9  1  0.13824880  0.66688878  0.37520557  1
  La3+  La10  1  0.13979758  0.66677792  0.62914555  1
  La3+  La11  1  0.13900735  0.66485793  0.87209148  1
  La3+  La12  1  0.64000063  -0.00016772  0.12538887  1
  La3+  La13  1  0.63825825  0.00131362  0.37209880  1
  La3+  La14  1  0.63887161  0.00147548  0.62561107  1
  La3+  La15  1  0.64153206  -0.00128854  0.87461201  1
  La3+  La16  1  0.64136922  0.33224130  0.12329057  1
  La3+  La17  1  0.63689528  0.33288366  0.37675820  1
  La3+  La18  1  0.64103327  0.33236414  0.62296327  1
  La3+  La19  1  0.64234759  0.33391186  0.87616441  1
  La3+  La20  1  0.64139059  0.66659312  0.12230928  1
  La3+  La21  1  0.63914544  0.66446095  0.37229769  1
  La3+  La22  1  0.63920582  0.66625392  0.62648202  1
  La3+  La23  1  0.64038074  0.66586795  0.87674765  1
  La3+  La24  1  0.36510504  -0.00125761  0.12795578  1
  La3+  La25  1  0.36156583  -0.00160518  0.37232677  1
  La3+  La26  1  0.36514261  0.00133497  0.63023478  1
  La3+  La27  1  0.36508560  0.00291061  0.87111253  1
  La3+  La28  1  0.36345499  0.33306115  0.12525043  1
  La3+  La29  1  0.36284231  0.33422060  0.37621141  1
  La3+  La30  1  0.36027957  0.33349746  0.63060020  1
  La3+  La31  1  0.36154141  0.33409687  0.87066225  1
  La3+  La32  1  0.36265433  0.66576182  0.12374547  1
  La3+  La33  1  0.36178208  0.66728129  0.37640687  1
  La3+  La34  1  0.36058007  0.66740176  0.62762046  1
  La3+  La35  1  0.35896957  0.66562171  0.87302686  1
  La3+  La36  1  0.86023472  0.00067415  0.12587342  1
  La3+  La37  1  0.86372255  0.00160595  0.37216233  1
  La3+  La38  1  0.86119576  0.00192575  0.62576541  1
  La3+  La39  1  0.85924066  0.00114247  0.87569691  1
  La3+  La40  1  0.85842099  0.33354267  0.12338318  1
  La3+  La41  1  0.86024756  0.33293991  0.37537192  1
  La3+  La42  1  0.85735515  0.33276809  0.62512826  1
  La3+  La43  1  0.85758912  0.33317227  0.87483677  1
  La3+  La44  1  0.85893589  0.66616505  0.12246898  1
  La3+  La45  1  0.86112631  0.66614881  0.37347340  1
  La3+  La46  1  0.86080502  0.66581797  0.62688427  1
  La3+  La47  1  0.85924438  0.66615826  0.87652728  1
  La3+  La48  1  -0.00108393  0.83239631  0.88112903  1
  La3+  La49  1  0.50277969  0.49998673  0.12846471  1
  La3+  La50  1  0.49809245  0.83081083  0.86470086  1
  La3+  La51  1  0.00023518  0.16777148  0.88405589  1
  La3+  La52  1  -0.00191573  0.83041305  0.61270029  1
  La3+  La53  1  0.00455444  0.82871925  0.63056606  1
  La3+  La54  1  -0.00001187  0.16904967  0.36658363  1
  La3+  La55  1  -0.00050974  0.16757800  0.61834514  1
  La3+  La56  1  0.49926049  0.83405317  0.38180492  1
  La3+  La57  1  0.49847144  0.49783431  0.61230373  1
  La3+  La58  1  0.50119203  0.83310022  0.88651499  1
  La3+  La59  1  0.50148169  0.16830635  0.38504503  1
  La3+  La60  1  -0.00183063  0.16689276  0.38650625  1
  La3+  La61  1  0.00064414  0.16629999  0.11794328  1
  La3+  La62  1  0.00256033  0.50509176  0.61976797  1
  La3+  La63  1  0.49548334  0.16977547  0.86721704  1
  La3+  La64  1  0.49840438  0.16494704  0.63582459  1
  La3+  La65  1  -0.00070778  0.49869003  0.36092330  1
  La3+  La66  1  0.00333621  0.83026063  0.11921010  1
  La3+  La67  1  0.50144962  0.49982580  0.63458717  1
  La3+  La68  1  0.00059043  0.49978753  0.88370989  1
  La3+  La69  1  -0.00295598  0.50582617  0.63421100  1
  La3+  La70  1  0.49875543  0.50005398  0.86398948  1
  La3+  La71  1  -0.00374043  0.83139233  0.13868062  1
  La3+  La72  1  0.25035596  0.13026064  0.28599755  1
  La3+  La73  1  0.25022437  0.82309226  -0.00047297  1
  La3+  La74  1  0.74982860  0.16899028  0.02939537  1
  La3+  La75  1  0.74996013  0.53054228  0.21495558  1
  La3+  La76  1  0.25013305  0.17678274  0.45262804  1
  La3+  La77  1  0.74995299  0.49947558  0.73380056  1
  La3+  La78  1  0.24975888  0.17131996  -0.05177460  1
  La3+  La79  1  0.25011981  0.86356230  0.47780473  1
  La3+  La80  1  0.75060485  0.83421960  0.51502301  1
  La3+  La81  1  0.74981120  0.16953635  0.50667818  1
  La3+  La82  1  0.25002162  0.50069118  0.76934476  1
  La3+  La83  1  0.24967529  0.50269638  0.29123184  1
  Ru4+  Ru84  1  0.00169860  0.00369277  -0.00164772  1
  Ru4+  Ru85  1  0.00036527  -0.00623591  0.25400698  1
  Ru4+  Ru86  1  -0.00099721  -0.00169540  0.49781457  1
  Ru4+  Ru87  1  0.00135768  0.00323812  0.75030378  1
  Ru4+  Ru88  1  0.00293070  0.33392663  0.00000394  1
  Ru4+  Ru89  1  0.00075711  0.33470169  0.24851814  1
  Ru4+  Ru90  1  0.00209625  0.33029174  0.50085779  1
  Ru4+  Ru91  1  -0.00298715  0.33309183  0.75317930  1
  Ru4+  Ru92  1  -0.00020353  0.66484405  -0.00101452  1
  Ru4+  Ru93  1  0.00008130  0.66493663  0.25075735  1
  Ru4+  Ru94  1  -0.00184226  0.66899233  0.49692582  1
  Ru4+  Ru95  1  -0.00287795  0.67176816  0.75175226  1
  Ru4+  Ru96  1  0.49866823  0.00167869  0.00228223  1
  Ru4+  Ru97  1  0.50310951  0.00299550  0.24256084  1
  Ru4+  Ru98  1  0.50099017  0.00499653  0.50449918  1
  Ru4+  Ru99  1  0.49665775  -0.00059200  0.74698106  1
  Ru4+  Ru100  1  0.49980291  0.33482588  0.00180908  1
  Ru4+  Ru101  1  0.50310276  0.32697373  0.25012492  1
  Ru4+  Ru102  1  0.49840742  0.33503217  0.49618276  1
  Ru4+  Ru103  1  0.50125478  0.32816818  0.75043670  1
  Ru4+  Ru104  1  0.50047801  0.66454356  -0.00108573  1
  Ru4+  Ru105  1  0.50018948  0.66603335  0.25218534  1
  Ru4+  Ru106  1  0.49819750  0.66763412  0.49726291  1
  Ru4+  Ru107  1  0.49954143  0.66756296  0.75194344  1
  Ru4+  Ru108  1  0.11051210  0.16679121  -0.00036151  1
  Ru4+  Ru109  1  0.11250280  0.16658255  0.24910833  1
  Ru4+  Ru110  1  0.11120057  0.16856456  0.50084397  1
  Ru4+  Ru111  1  0.11412767  0.16689894  0.74986524  1
  Ru4+  Ru112  1  0.11261863  0.49981823  0.00164314  1
  Ru4+  Ru113  1  0.11008785  0.49933504  0.24977132  1
  Ru4+  Ru114  1  0.11360169  0.49881676  0.49949947  1
  Ru4+  Ru115  1  0.11689196  0.49778292  0.75091784  1
  Ru4+  Ru116  1  0.11203257  0.83338884  -0.00106876  1
  Ru4+  Ru117  1  0.11392161  0.83452991  0.25085461  1
  Ru4+  Ru118  1  0.11142591  0.83252357  0.50016336  1
  Ru4+  Ru119  1  0.11319139  0.83155351  0.74998263  1
  Ru4+  Ru120  1  0.61123170  0.16666044  0.00109361  1
  Ru4+  Ru121  1  0.61301433  0.16579071  0.24957700  1
  Ru4+  Ru122  1  0.61414770  0.16370368  0.49941856  1
  Ru4+  Ru123  1  0.61603897  0.16753636  0.74941564  1
  Ru4+  Ru124  1  0.61560773  0.50191798  -0.00006936  1
  Ru4+  Ru125  1  0.61104081  0.49947940  0.25056093  1
  Ru4+  Ru126  1  0.61390318  0.49794712  0.49965902  1
  Ru4+  Ru127  1  0.61235131  0.49977179  0.75043028  1
  Ru4+  Ru128  1  0.61496838  0.83271149  -0.00033923  1
  Ru4+  Ru129  1  0.61283529  0.83455093  0.25054390  1
  Ru4+  Ru130  1  0.61237804  0.83348758  0.50060233  1
  Ru4+  Ru131  1  0.61350905  0.83183966  0.75030601  1
  Ru4+  Ru132  1  0.38848347  0.16355409  -0.00121941  1
  Ru4+  Ru133  1  0.38949036  0.16795845  0.24962665  1
  Ru4+  Ru134  1  0.38896435  0.16723472  0.50043350  1
  Ru4+  Ru135  1  0.38747144  0.16713346  0.75008352  1
  Ru4+  Ru136  1  0.38724879  0.50224925  0.00081277  1
  Ru4+  Ru137  1  0.38464618  0.50396638  0.24890944  1
  Ru4+  Ru138  1  0.38710785  0.50170624  0.49760176  1
  Ru4+  Ru139  1  0.38484133  0.50321650  0.75086379  1
  Ru4+  Ru140  1  0.38924216  0.83263812  -0.00013508  1
  Ru4+  Ru141  1  0.38458399  0.83098146  0.24973743  1
  Ru4+  Ru142  1  0.38853930  0.83114773  0.50058375  1
  Ru4+  Ru143  1  0.38635038  0.83109026  0.74887380  1
  Ru4+  Ru144  1  0.88757098  0.16790671  0.00007086  1
  Ru4+  Ru145  1  0.88274333  0.16980614  0.24877419  1
  Ru4+  Ru146  1  0.88774673  0.16703976  0.50030235  1
  Ru4+  Ru147  1  0.88552957  0.16718721  0.75011488  1
  Ru4+  Ru148  1  0.88405990  0.50028833  0.00003921  1
  Ru4+  Ru149  1  0.88817920  0.50058453  0.25070016  1
  Ru4+  Ru150  1  0.88506587  0.49998244  0.49860408  1
  Ru4+  Ru151  1  0.88696649  0.50061438  0.75078223  1
  Ru4+  Ru152  1  0.88288916  0.83172548  -0.00196862  1
  Ru4+  Ru153  1  0.88765463  0.83458419  0.25190987  1
  Ru4+  Ru154  1  0.88913907  0.83321634  0.50050141  1
  Ru4+  Ru155  1  0.88629885  0.83143566  0.75060352  1
  Ru4+  Ru156  1  0.25003480  0.90987950  0.75117880  1
  Ru4+  Ru157  1  0.25028404  0.75663812  0.24791786  1
  Ru4+  Ru158  1  0.24990373  0.62262873  0.23213257  1
  Ru4+  Ru159  1  0.25010615  0.42218169  -0.00143835  1
  Ru4+  Ru160  1  0.24956975  0.38454746  0.23876589  1
  Ru4+  Ru161  1  0.74989522  0.75592889  0.75286183  1
  Ru4+  Ru162  1  0.25005701  0.05962259  0.50565798  1
  Ru4+  Ru163  1  0.25009333  0.57818452  0.50230975  1
  Ru4+  Ru164  1  0.75016590  0.70581477  0.49687741  1
  Ru4+  Ru165  1  0.25020651  0.42327768  0.50758658  1
  Ru4+  Ru166  1  0.74988786  0.57804673  0.50390795  1
  Ru4+  Ru167  1  0.74979838  0.74511637  0.24191705  1
  Ru4+  Ru168  1  0.24998202  0.69911536  -0.01204113  1
  Ru4+  Ru169  1  0.25000188  0.06444360  0.02164635  1
  Ru4+  Ru170  1  0.24997362  0.73050887  0.49327721  1
  Ru4+  Ru171  1  0.75020888  0.96263505  0.49695665  1
  Ru4+  Ru172  1  0.24999536  0.29181855  0.52273135  1
  Ru4+  Ru173  1  0.25009744  0.26044977  0.24858522  1
  Ru4+  Ru174  1  0.24991197  0.28410189  0.02348570  1
  Ru4+  Ru175  1  0.75012231  0.90858371  0.75392019  1
  Ru4+  Ru176  1  0.75004761  0.39317043  0.24723966  1
  Ru4+  Ru177  1  0.74986017  0.91888427  0.24389462  1
  Ru4+  Ru178  1  0.25021714  0.94412691  0.00717549  1
  Ru4+  Ru179  1  0.24972028  0.08588586  0.75478836  1
  O2-  O180  1  0.16541438  0.07911279  0.00062752  1
  O2-  O181  1  0.16652599  0.07961144  0.24909783  1
  O2-  O182  1  0.16592612  0.07815336  0.49988982  1
  O2-  O183  1  0.16630772  0.08032942  0.75027539  1
  O2-  O184  1  0.16681748  0.41474866  0.00034454  1
  O2-  O185  1  0.16575390  0.41300334  0.25035475  1
  O2-  O186  1  0.16686169  0.41472026  0.49960978  1
  O2-  O187  1  0.16736088  0.41557782  0.74926153  1
  O2-  O188  1  0.16576321  0.74582073  0.00002112  1
  O2-  O189  1  0.16793954  0.74812378  0.25040247  1
  O2-  O190  1  0.16661836  0.74618443  0.49880699  1
  O2-  O191  1  0.16570424  0.74915331  0.75019520  1
  O2-  O192  1  0.66886860  0.08233278  -0.00049657  1
  O2-  O193  1  0.66782505  0.08235409  0.25090332  1
  O2-  O194  1  0.66832760  0.08077911  0.49960367  1
  O2-  O195  1  0.66787532  0.08099843  0.75088586  1
  O2-  O196  1  0.66603350  0.41597373  -0.00090475  1
  O2-  O197  1  0.66761852  0.41317335  0.25059100  1
  O2-  O198  1  0.66674108  0.41541534  0.49845346  1
  O2-  O199  1  0.66663418  0.41313796  0.74982880  1
  O2-  O200  1  0.66537206  0.74903177  0.00031673  1
  O2-  O201  1  0.66723897  0.74818868  0.24938907  1
  O2-  O202  1  0.66719717  0.74562354  0.50115300  1
  O2-  O203  1  0.66829902  0.74835935  0.74896674  1
  O2-  O204  1  0.33298121  0.25415269  0.00024447  1
  O2-  O205  1  0.33250941  0.25389085  0.25089249  1
  O2-  O206  1  0.33398600  0.25362149  0.49995349  1
  O2-  O207  1  0.33603151  0.24993059  0.75021638  1
  O2-  O208  1  0.33244061  0.58483937  -0.00084759  1
  O2-  O209  1  0.33251561  0.58871217  0.24928252  1
  O2-  O210  1  0.33218937  0.58515234  0.50054368  1
  O2-  O211  1  0.33382331  0.58570541  0.75050907  1
  O2-  O212  1  0.33475637  0.92125247  0.00072668  1
  O2-  O213  1  0.33253982  0.91883798  0.24908347  1
  O2-  O214  1  0.33344552  0.92086070  0.50084159  1
  O2-  O215  1  0.33153905  0.91943722  0.75061127  1
  O2-  O216  1  0.83359141  0.25143840  0.00030973  1
  O2-  O217  1  0.83301360  0.25185805  0.24991954  1
  O2-  O218  1  0.83283684  0.25216192  0.49891305  1
  O2-  O219  1  0.83313358  0.25166501  0.74953639  1
  O2-  O220  1  0.83529507  0.58375236  -0.00014928  1
  O2-  O221  1  0.83462944  0.58713681  0.25064107  1
  O2-  O222  1  0.83320442  0.58606200  0.49969533  1
  O2-  O223  1  0.83283240  0.58600365  0.74911668  1
  O2-  O224  1  0.83273282  0.91842005  0.00089614  1
  O2-  O225  1  0.83176850  0.91836677  0.24990666  1
  O2-  O226  1  0.83370170  0.92202436  0.50037828  1
  O2-  O227  1  0.83025915  0.91945994  0.74877223  1
  O2-  O228  1  0.16753574  0.25446450  0.00123823  1
  O2-  O229  1  0.16638470  0.25380601  0.25003748  1
  O2-  O230  1  0.16603582  0.25424182  0.49944448  1
  O2-  O231  1  0.16690844  0.25080848  0.74971139  1
  O2-  O232  1  0.16761650  0.58446529  -0.00113318  1
  O2-  O233  1  0.16619874  0.58798140  0.25005045  1
  O2-  O234  1  0.16785745  0.58584766  0.49924488  1
  O2-  O235  1  0.16653163  0.58443594  0.74985760  1
  O2-  O236  1  0.16522038  0.92119771  0.00043784  1
  O2-  O237  1  0.16666744  0.91863306  0.24965092  1
  O2-  O238  1  0.16569220  0.92165641  0.49999843  1
  O2-  O239  1  0.16803086  0.92025043  0.75060440  1
  O2-  O240  1  0.66710508  0.25026214  -0.00042548  1
  O2-  O241  1  0.66672263  0.25178884  0.25107178  1
  O2-  O242  1  0.66806105  0.25213603  0.49828503  1
  O2-  O243  1  0.66585000  0.25190913  0.75083210  1
  O2-  O244  1  0.66609214  0.58361486  0.00021127  1
  O2-  O245  1  0.66568515  0.58630456  0.24952907  1
  O2-  O246  1  0.66695620  0.58660563  0.50010827  1
  O2-  O247  1  0.66622852  0.58688396  0.74915478  1
  O2-  O248  1  0.66608452  0.91825133  -0.00052115  1
  O2-  O249  1  0.66844588  0.91845876  0.25065369  1
  O2-  O250  1  0.66698681  0.92128053  0.49985676  1
  O2-  O251  1  0.66843998  0.91872737  0.74904775  1
  O2-  O252  1  0.33379644  0.07995996  0.00102372  1
  O2-  O253  1  0.33402453  0.07997853  0.24857849  1
  O2-  O254  1  0.33418024  0.07900231  0.50006020  1
  O2-  O255  1  0.33176520  0.07987466  0.74967367  1
  O2-  O256  1  0.33301675  0.41426214  -0.00046536  1
  O2-  O257  1  0.33272910  0.41333870  0.25104133  1
  O2-  O258  1  0.33206460  0.41421290  0.50002177  1
  O2-  O259  1  0.33283777  0.41517298  0.75072747  1
  O2-  O260  1  0.33448656  0.74576605  -0.00059959  1
  O2-  O261  1  0.33246361  0.74959383  0.24952508  1
  O2-  O262  1  0.33343434  0.74679929  0.49997330  1
  O2-  O263  1  0.33369734  0.74971352  0.75058445  1
  O2-  O264  1  0.83237677  0.08077701  -0.00012638  1
  O2-  O265  1  0.83226242  0.08187765  0.25051304  1
  O2-  O266  1  0.83037402  0.07979405  0.50084600  1
  O2-  O267  1  0.83401660  0.08065261  0.74903793  1
  O2-  O268  1  0.83384373  0.41594660  0.00073361  1
  O2-  O269  1  0.83268865  0.41278701  0.25003652  1
  O2-  O270  1  0.83276506  0.41525365  0.49982894  1
  O2-  O271  1  0.83356252  0.41348480  0.74894113  1
  O2-  O272  1  0.83359623  0.74941241  0.00091704  1
  O2-  O273  1  0.83276231  0.74735891  0.24984709  1
  O2-  O274  1  0.83391359  0.74455912  0.49962351  1
  O2-  O275  1  0.83273142  0.74842153  0.74956128  1
  O2-  O276  1  0.95931033  0.89365613  0.72339756  1
  O2-  O277  1  0.95234356  0.23677517  0.23314725  1
  O2-  O278  1  0.95271208  0.76397281  0.26684814  1
  O2-  O279  1  0.04810968  0.09424250  0.26164917  1
  O2-  O280  1  0.45200570  0.57463522  0.21314497  1
  O2-  O281  1  0.52686239  0.12745922  0.98458140  1
  O2-  O282  1  0.54503929  0.56728098  0.48723489  1
  O2-  O283  1  0.45371514  0.90070164  0.27089704  1
  O2-  O284  1  0.95673209  0.44129898  0.52882018  1
  O2-  O285  1  0.46083322  0.44292256  0.25312772  1
  O2-  O286  1  0.54256872  0.10305652  0.77721762  1
  O2-  O287  1  0.54716155  0.23286377  0.51879943  1
  O2-  O288  1  0.46079252  0.44309903  0.25313038  1
  O2-  O289  1  0.04993037  0.42976017  0.01349518  1
  O2-  O290  1  0.95660651  0.43910649  0.02657290  1
  O2-  O291  1  0.04762783  0.43022841  0.48355310  1
  O2-  O292  1  0.04621942  0.90407219  0.51242195  1
  O2-  O293  1  0.03220161  0.55460881  0.00675647  1
  O2-  O294  1  0.54109445  0.77415583  0.51947598  1
  O2-  O295  1  0.04658330  0.56905258  0.76576254  1
  O2-  O296  1  0.04589845  0.09728578  0.51607128  1
  O2-  O297  1  0.04831835  0.76175671  0.23647153  1
  O2-  O298  1  0.53822972  0.78105884  0.50521964  1
  O2-  O299  1  0.54542241  0.23805532  0.73630741  1
  O2-  O300  1  0.95084803  0.09752637  0.26200096  1
  O2-  O301  1  0.04479606  0.56872236  0.23582452  1
  O2-  O302  1  0.45979562  0.89606163  0.52701558  1
  O2-  O303  1  0.45561457  0.10744675  0.75959532  1
  O2-  O304  1  0.45553364  0.90035226  0.01367580  1
  O2-  O305  1  0.45293623  0.09657468  0.73378962  1
  O2-  O306  1  0.45433785  0.09877908  0.48802468  1
  O2-  O307  1  0.04099218  0.43818898  0.72423698  1
  O2-  O308  1  0.54605075  0.90222428  0.76482366  1
  O2-  O309  1  0.44839033  0.76113494  0.51502831  1
  O2-  O310  1  0.55043791  0.43165739  0.26243805  1
  O2-  O311  1  0.45358641  0.43112275  0.73614035  1
  O2-  O312  1  0.54625343  0.23330769  0.26329958  1
  O2-  O313  1  0.45172474  0.43373882  0.98542708  1
  O2-  O314  1  0.95512111  0.09901238  0.01190123  1
  O2-  O315  1  0.45163064  0.42106912  0.45342767  1
  O2-  O316  1  0.04619383  0.76416604  0.98636163  1
  O2-  O317  1  0.04854408  0.23618480  0.23537680  1
  O2-  O318  1  0.45514371  0.90105082  0.23177124  1
  O2-  O319  1  0.04666139  0.90469957  0.23829982  1
  O2-  O320  1  0.04720534  0.90496727  0.98284261  1
  O2-  O321  1  0.03823528  0.56119392  0.46694204  1
  O2-  O322  1  0.95658058  0.89265709  0.02580170  1
  O2-  O323  1  0.54235346  0.43981032  0.97225230  1
  O2-  O324  1  0.56542922  0.73899342  0.77828737  1
  O2-  O325  1  0.43461703  0.59474021  0.02817944  1
  O2-  O326  1  0.56856250  0.39663305  0.04550660  1
  O2-  O327  1  0.43297603  0.07264013  0.97090320  1
  O2-  O328  1  0.43398714  0.25905742  0.04496078  1
  O2-  O329  1  0.93061859  0.94218345  0.95017270  1
  O2-  O330  1  0.93033439  0.39025852  0.44786147  1
  O2-  O331  1  0.06467932  0.59159351  0.77806957  1
  O2-  O332  1  0.07394093  0.60374653  0.54356896  1
  O2-  O333  1  0.06564338  0.25975423  0.70229350  1
  O2-  O334  1  0.56602528  0.92595321  0.28061381  1
  O2-  O335  1  0.93700607  0.26353553  0.78189930  1
  O2-  O336  1  0.07287491  0.39783580  0.79404626  1
  O2-  O337  1  0.56677481  0.92698673  0.54596890  1
  O2-  O338  1  0.06571663  0.25770039  0.79807550  1
  O2-  O339  1  0.42955924  0.60822140  0.32192605  1
  O2-  O340  1  0.56514341  0.59446444  0.97110088  1
  O2-  O341  1  0.93592318  0.59769909  0.78373348  1
  O2-  O342  1  0.56668912  0.92627332  0.45328682  1
  O2-  O343  1  0.42700814  0.39823756  0.56687291  1
  O2-  O344  1  0.57483806  0.04930422  0.93608460  1
  O2-  O345  1  0.44215262  0.58250690  0.20593033  1
  O2-  O346  1  0.42920928  0.93398436  0.46011991  1
  O2-  O347  1  0.43573394  0.92897567  0.71721184  1
  O2-  O348  1  0.43453946  0.25774310  0.22223130  1
  O2-  O349  1  0.42554042  0.39536773  0.19674365  1
  O2-  O350  1  0.93664301  0.73499253  0.96657586  1
  O2-  O351  1  0.93596720  0.07356804  0.27998771  1
  O2-  O352  1  0.93420208  0.92744002  0.27807513  1
  O2-  O353  1  0.56261447  0.06934113  0.21920492  1
  O2-  O354  1  0.43458038  0.26005345  0.95389867  1
  O2-  O355  1  0.93447683  0.07180365  0.47346197  1
  O2-  O356  1  0.44533687  0.42343204  0.45954396  1
  O2-  O357  1  0.43656524  0.40910011  0.72035165  1
  O2-  O358  1  0.93181788  0.39543980  0.95653042  1
  O2-  O359  1  0.42930215  0.38847853  0.30691869  1
  O2-  O360  1  0.92975875  0.94306536  0.80046208  1
  O2-  O361  1  0.06448913  0.26044653  0.97193000  1
  O2-  O362  1  0.57277720  0.06449704  0.70813857  1
  O2-  O363  1  0.56436575  0.40491481  0.53480939  1
  O2-  O364  1  0.07414899  0.61538145  0.04131771  1
  O2-  O365  1  0.58243967  0.71216332  0.45210604  1
  O2-  O366  1  0.56409558  0.26172345  0.03145675  1
  O2-  O367  1  0.43592240  0.59819755  0.46976321  1
  O2-  O368  1  0.56952680  0.06060735  0.06466461  1
  O2-  O369  1  0.43671009  0.73518799  0.71830445  1
  O2-  O370  1  0.43094312  0.06833044  0.78015774  1
  O2-  O371  1  0.56043633  0.26134811  0.53149944  1
  O2-  O372  1  0.25008820  -0.01827018  0.58861317  1
  O2-  O373  1  0.75028891  0.33279333  0.09989907  1
  O2-  O374  1  0.74991250  0.66852889  0.10130939  1
  O2-  O375  1  0.25012087  0.33732979  0.40043681  1
  O2-  O376  1  0.24986290  0.66647412  0.67471207  1
  O2-  O377  1  0.24976492  0.33337277  0.64778215  1
  O2-  O378  1  0.74983067  0.66846242  0.65633164  1
  O2-  O379  1  0.24999308  -0.00043260  0.67710536  1
  O2-  O380  1  0.25005456  0.66600170  0.84912399  1
  O2-  O381  1  0.74983478  0.33210705  0.90550153  1
  O2-  O382  1  0.75014419  0.66806706  0.91803644  1
  O2-  O383  1  0.25012084  0.00087030  0.32338609  1
  O2-  O384  1  0.24977828  0.67116689  0.35009305  1
  O2-  O385  1  0.75027387  0.66753454  0.34326674  1
  O2-  O386  1  0.75007968  0.00235752  0.17003703  1
  O2-  O387  1  0.24981640  0.00080039  0.89438264  1
  O2-  O388  1  0.24985762  0.66079089  0.58571988  1
  O2-  O389  1  0.75009422  0.66609024  0.82948575  1
  O2-  O390  1  0.25003054  0.33923228  0.91361695  1
  O2-  O391  1  0.24992458  0.33436351  0.82380166  1
  O2-  O392  1  0.25001978  -0.01319858  0.41310112  1
  O2-  O393  1  0.75015471  0.33126138  0.59400672  1
  O2-  O394  1  0.24998263  0.66386676  0.09972733  1
  O2-  O395  1  0.75024152  0.00051639  0.07989106  1
  O2-  O396  1  0.75011552  0.16608343  0.90156442  1
  O2-  O397  1  0.74997226  0.16663306  0.82017492  1
  O2-  O398  1  0.75017202  0.49598692  0.43176474  1
  O2-  O399  1  0.24994314  0.49998028  0.63466488  1
  O2-  O400  1  0.24995219  0.16481635  0.59466949  1
  O2-  O401  1  0.75007419  0.16624687  0.65378507  1
  O2-  O402  1  0.74976464  0.83385388  0.63905619  1
  O2-  O403  1  0.75004672  0.50319490  0.58766757  1
  O2-  O404  1  0.24990479  0.49914843  0.41685307  1
  O2-  O405  1  0.25012949  0.16661526  0.08213099  1
  O2-  O406  1  0.24988902  0.83169109  0.61167336  1
  O2-  O407  1  0.75006501  0.49976339  0.85832393  1
  O2-  O408  1  0.75003798  0.49871440  0.09203057  1
  O2-  O409  1  0.25012275  0.50108418  0.15451287  1
  O2-  O410  1  0.24996444  0.50443474  0.06826636  1
  O2-  O411  1  0.24984697  0.83477646  0.12736934  1
  O2-  O412  1  0.75012923  0.83204792  0.31233228  1
  O2-  O413  1  0.74999423  0.49643165  0.34533893  1
  O2-  O414  1  0.24990475  0.16992704  0.68264881  1
  O2-  O415  1  0.74994841  0.83405922  0.90042803  1
  O2-  O416  1  0.24985813  0.17126321  0.16707608  1
  O2-  O417  1  0.24990924  0.83447327  0.87282751  1
  O2-  O418  1  0.24990088  0.16593032  0.82968789  1
  O2-  O419  1  0.74968413  0.83276619  0.39353348  1
  O2-  O420  1  0.02613186  0.66963200  0.87696812  1
  O2-  O421  1  0.47572585  -0.00740332  0.87516363  1
  O2-  O422  1  0.96081348  0.66704104  0.62486973  1
  O2-  O423  1  0.02678643  0.33262247  0.12502566  1
  O2-  O424  1  0.52852685  0.33123810  0.37615974  1
  O2-  O425  1  0.03606421  0.67241453  0.63264382  1
  O2-  O426  1  0.97798116  -0.00394360  0.37810635  1
  O2-  O427  1  0.52511708  0.66537384  0.36616793  1
  O2-  O428  1  0.47591726  0.33530146  0.86882131  1
  O2-  O429  1  0.02741263  0.33245782  0.37339203  1
  O2-  O430  1  0.47733309  0.32375295  0.62673226  1
  O2-  O431  1  0.52313280  0.00246841  0.62543593  1
  O2-  O432  1  0.53147936  0.66690605  0.12545127  1
  O2-  O433  1  0.52793056  0.00799469  0.37309383  1
  O2-  O434  1  0.96119208  0.00044447  0.12787024  1
  O2-  O435  1  0.02499509  0.33501880  0.61969497  1
  O2-  O436  1  0.47277252  0.67608911  0.12204396  1
  O2-  O437  1  0.47218495  0.00190885  0.12635340  1
  O2-  O438  1  0.02051396  0.33624528  0.88001858  1
  O2-  O439  1  0.52343085  0.66701102  0.87585116  1
  O2-  O440  1  0.46999168  0.00422599  0.36988950  1
  O2-  O441  1  0.47949141  0.33803720  0.12397032  1
  O2-  O442  1  0.03951578  0.00225738  0.12316606  1
  O2-  O443  1  0.97174332  0.66694467  0.12419970  1
