# generated using pymatgen
data_La7(Ru4O11)2
_symmetry_space_group_name_H-M   'P 1'
_cell_length_a   23.99420901
_cell_length_b   16.83708249
_cell_length_c   15.43317120
_cell_angle_alpha   89.99692327
_cell_angle_beta   90.00387617
_cell_angle_gamma   89.99252248
_symmetry_Int_Tables_number   1
_chemical_formula_structural   La7(Ru4O11)2
_chemical_formula_sum   'La84 Ru96 O264'
_cell_volume   6234.88497387
_cell_formula_units_Z   12
loop_
 _symmetry_equiv_pos_site_id
 _symmetry_equiv_pos_as_xyz
  1  'x, y, z'
loop_
 _atom_type_symbol
 _atom_type_oxidation_number
  La3+  3.0
  Ru4+  4.0
  O2-  -2.0
loop_
 _atom_site_type_symbol
 _atom_site_label
 _atom_site_symmetry_multiplicity
 _atom_site_fract_x
 _atom_site_fract_y
 _atom_site_fract_z
 _atom_site_occupancy
  La3+  La0  1  0.13844694  -0.00660131  0.10905687  1
  La3+  La1  1  0.13173355  -0.00318179  0.38018440  1
  La3+  La2  1  0.14218037  0.00039656  0.62930923  1
  La3+  La3  1  0.14001674  0.00945267  0.87111030  1
  La3+  La4  1  0.13537057  0.32871222  0.12367680  1
  La3+  La5  1  0.13500026  0.33176290  0.38113064  1
  La3+  La6  1  0.15085487  0.33114740  0.62180275  1
  La3+  La7  1  0.14285629  0.33142049  0.87173608  1
  La3+  La8  1  0.13311475  0.66827317  0.11896266  1
  La3+  La9  1  0.13217564  0.66568459  0.38230117  1
  La3+  La10  1  0.14230263  0.64730217  0.63401279  1
  La3+  La11  1  0.14058672  0.65890300  0.86967803  1
  La3+  La12  1  0.64344801  0.01655291  0.11011895  1
  La3+  La13  1  0.63701300  0.00182106  0.38134340  1
  La3+  La14  1  0.64479025  0.00026966  0.61673607  1
  La3+  La15  1  0.63129174  0.00410080  0.87005119  1
  La3+  La16  1  0.64665946  0.34004577  0.11881305  1
  La3+  La17  1  0.64391403  0.33911907  0.37857688  1
  La3+  La18  1  0.63700107  0.33517118  0.62652959  1
  La3+  La19  1  0.64187083  0.33529129  0.88092192  1
  La3+  La20  1  0.63599394  0.66764725  0.12940424  1
  La3+  La21  1  0.63345466  0.66977558  0.38011215  1
  La3+  La22  1  0.63538956  0.66300760  0.62506813  1
  La3+  La23  1  0.65056342  0.66802986  0.87223055  1
  La3+  La24  1  0.36803728  -0.00163657  0.11098142  1
  La3+  La25  1  0.36190283  0.00612138  0.37762570  1
  La3+  La26  1  0.35942113  0.00164558  0.63366970  1
  La3+  La27  1  0.36725290  -0.00422474  0.88112184  1
  La3+  La28  1  0.36386346  0.33055271  0.12270398  1
  La3+  La29  1  0.36246243  0.32868492  0.38350811  1
  La3+  La30  1  0.35021732  0.33395249  0.62027423  1
  La3+  La31  1  0.35304634  0.32669830  0.87580948  1
  La3+  La32  1  0.36658439  0.66592791  0.12319076  1
  La3+  La33  1  0.36476210  0.65752367  0.38396008  1
  La3+  La34  1  0.36954725  0.65452511  0.62824263  1
  La3+  La35  1  0.36256835  0.65996565  0.86959777  1
  La3+  La36  1  0.86546018  0.00131142  0.12195230  1
  La3+  La37  1  0.85983317  -0.00140395  0.38281454  1
  La3+  La38  1  0.86468089  -0.00266103  0.61949409  1
  La3+  La39  1  0.86226167  0.00610483  0.87731065  1
  La3+  La40  1  0.85933199  0.33184572  0.11625794  1
  La3+  La41  1  0.85872771  0.33480711  0.38392721  1
  La3+  La42  1  0.84897214  0.33340714  0.62811911  1
  La3+  La43  1  0.86151724  0.33228836  0.87899663  1
  La3+  La44  1  0.87020042  0.67030770  0.13048115  1
  La3+  La45  1  0.86462123  0.66302391  0.38301842  1
  La3+  La46  1  0.85231246  0.66507913  0.61912648  1
  La3+  La47  1  0.85090735  0.65635648  0.86989132  1
  La3+  La48  1  -0.00701987  0.83966314  0.36127196  1
  La3+  La49  1  0.00101712  0.15962893  0.38813807  1
  La3+  La50  1  0.50191622  0.84388109  0.11230577  1
  La3+  La51  1  -0.00496355  0.17090890  0.38005684  1
  La3+  La52  1  0.48973932  0.16340629  0.86120665  1
  La3+  La53  1  0.00479037  0.84415462  0.13850012  1
  La3+  La54  1  0.50580692  0.82882359  0.40124278  1
  La3+  La55  1  0.49938670  0.50350780  0.36691595  1
  La3+  La56  1  0.48678879  0.16249280  0.87798659  1
  La3+  La57  1  0.49752777  0.82226519  0.38418560  1
  La3+  La58  1  0.00158391  0.83510030  0.88848949  1
  La3+  La59  1  0.49232339  0.49385753  0.62279034  1
  La3+  La60  1  0.49276849  0.83623389  0.12739717  1
  La3+  La61  1  0.50373059  0.15691934  0.62816211  1
  La3+  La62  1  -0.00186367  0.48960939  0.86049653  1
  La3+  La63  1  0.49780353  0.50473340  0.86026119  1
  La3+  La64  1  0.50060443  0.16163904  0.38389346  1
  La3+  La65  1  0.48947524  0.50368804  0.60373525  1
  La3+  La66  1  0.50052833  0.17755353  0.12526138  1
  La3+  La67  1  -0.00276987  0.84283602  0.86871730  1
  La3+  La68  1  0.00328454  0.50449332  0.12532855  1
  La3+  La69  1  0.48542729  0.82097895  0.88117939  1
  La3+  La70  1  -0.01390786  0.84211308  0.38123243  1
  La3+  La71  1  0.00834740  0.83644942  0.61764326  1
  La3+  La72  1  0.75155846  0.51148358  0.51853715  1
  La3+  La73  1  0.75042021  0.20769451  0.78304940  1
  La3+  La74  1  0.25276619  0.54968698  -0.01266073  1
  La3+  La75  1  0.75108368  0.55305877  0.23289499  1
  La3+  La76  1  0.25014853  0.91671259  0.24325930  1
  La3+  La77  1  0.25286720  0.48046208  0.22781169  1
  La3+  La78  1  0.74987135  0.82745522  0.33751709  1
  La3+  La79  1  0.75055873  0.18307870  0.32505356  1
  La3+  La80  1  0.74859587  0.85991095  -0.05830726  1
  La3+  La81  1  0.24920621  0.82328545  -0.06211089  1
  La3+  La82  1  0.24917354  0.17301963  0.01035318  1
  La3+  La83  1  0.25233150  0.82097899  0.55280221  1
  Ru4+  Ru84  1  -0.00920693  0.02068131  0.00556026  1
  Ru4+  Ru85  1  0.01036982  0.01417576  0.24468504  1
  Ru4+  Ru86  1  -0.00078630  0.01167594  0.50621033  1
  Ru4+  Ru87  1  0.00601980  0.02152445  0.75672050  1
  Ru4+  Ru88  1  0.00321666  0.30854002  -0.00495166  1
  Ru4+  Ru89  1  0.00136124  0.33682557  0.23986965  1
  Ru4+  Ru90  1  -0.00791160  0.36562315  0.51296031  1
  Ru4+  Ru91  1  -0.00465352  0.32735774  0.74589271  1
  Ru4+  Ru92  1  -0.00489266  0.67111156  0.00238422  1
  Ru4+  Ru93  1  0.00054959  0.65388435  0.25256739  1
  Ru4+  Ru94  1  -0.00812682  0.65389771  0.50190959  1
  Ru4+  Ru95  1  -0.00884635  0.66923138  0.74281552  1
  Ru4+  Ru96  1  0.50265117  0.01217769  0.00243001  1
  Ru4+  Ru97  1  0.51006733  0.00386573  0.26000283  1
  Ru4+  Ru98  1  0.50062482  -0.00454564  0.50784536  1
  Ru4+  Ru99  1  0.50878424  -0.01069735  0.74196262  1
  Ru4+  Ru100  1  0.49880949  0.34490445  0.00691556  1
  Ru4+  Ru101  1  0.49450486  0.33164420  0.24863997  1
  Ru4+  Ru102  1  0.49851415  0.33189371  0.49370308  1
  Ru4+  Ru103  1  0.50036795  0.33202950  0.75236450  1
  Ru4+  Ru104  1  0.51499977  0.66073777  -0.00758801  1
  Ru4+  Ru105  1  0.49577656  0.65442398  0.25179448  1
  Ru4+  Ru106  1  0.50357691  0.67000276  0.50529650  1
  Ru4+  Ru107  1  0.50401943  0.67164321  0.74540912  1
  Ru4+  Ru108  1  0.10101793  0.17211324  -0.00314814  1
  Ru4+  Ru109  1  0.11485096  0.16255008  0.24524181  1
  Ru4+  Ru110  1  0.11219249  0.16795856  0.49982837  1
  Ru4+  Ru111  1  0.10471031  0.16272394  0.75023929  1
  Ru4+  Ru112  1  0.10785785  0.50020487  0.00795382  1
  Ru4+  Ru113  1  0.11061827  0.49845943  0.25015659  1
  Ru4+  Ru114  1  0.10796034  0.48482916  0.49898521  1
  Ru4+  Ru115  1  0.11284773  0.49438490  0.75200494  1
  Ru4+  Ru116  1  0.11390184  0.82811522  -0.00058952  1
  Ru4+  Ru117  1  0.11420801  0.82920737  0.24492416  1
  Ru4+  Ru118  1  0.11399928  0.82358022  0.50719096  1
  Ru4+  Ru119  1  0.10987673  0.83716391  0.75306505  1
  Ru4+  Ru120  1  0.61357143  0.17329415  0.00430294  1
  Ru4+  Ru121  1  0.60927890  0.17358414  0.25055024  1
  Ru4+  Ru122  1  0.61935659  0.17111728  0.49896474  1
  Ru4+  Ru123  1  0.61449799  0.16800509  0.74040893  1
  Ru4+  Ru124  1  0.60781759  0.51427863  0.00899304  1
  Ru4+  Ru125  1  0.60478732  0.49639398  0.24973671  1
  Ru4+  Ru126  1  0.60820937  0.49772980  0.49221040  1
  Ru4+  Ru127  1  0.61610882  0.50753534  0.75603191  1
  Ru4+  Ru128  1  0.60862435  0.82636491  -0.00480233  1
  Ru4+  Ru129  1  0.61579467  0.84500211  0.24325023  1
  Ru4+  Ru130  1  0.61794718  0.83313913  0.50949860  1
  Ru4+  Ru131  1  0.60300139  0.84042605  0.74215093  1
  Ru4+  Ru132  1  0.39563508  0.16337073  0.00062138  1
  Ru4+  Ru133  1  0.39221702  0.16529299  0.24780181  1
  Ru4+  Ru134  1  0.38583953  0.16980802  0.49834190  1
  Ru4+  Ru135  1  0.38447920  0.16663448  0.75011547  1
  Ru4+  Ru136  1  0.40096753  0.48449876  -0.00097573  1
  Ru4+  Ru137  1  0.39356760  0.49948126  0.24627754  1
  Ru4+  Ru138  1  0.38000832  0.49774358  0.49280931  1
  Ru4+  Ru139  1  0.37886058  0.49536694  0.75321913  1
  Ru4+  Ru140  1  0.38162944  0.82865963  -0.00333945  1
  Ru4+  Ru141  1  0.38625552  0.83344972  0.24760655  1
  Ru4+  Ru142  1  0.38745576  0.83090398  0.50516800  1
  Ru4+  Ru143  1  0.38670234  0.83519924  0.75084289  1
  Ru4+  Ru144  1  0.89400404  0.15796647  0.00331460  1
  Ru4+  Ru145  1  0.88901756  0.16952198  0.24444241  1
  Ru4+  Ru146  1  0.89050847  0.17219271  0.51034585  1
  Ru4+  Ru147  1  0.89388987  0.16524540  0.74225693  1
  Ru4+  Ru148  1  0.88743927  0.50057600  0.00112269  1
  Ru4+  Ru149  1  0.89410542  0.49479565  0.25243345  1
  Ru4+  Ru150  1  0.90895563  0.49378795  0.49935790  1
  Ru4+  Ru151  1  0.88776419  0.49940006  0.75166044  1
  Ru4+  Ru152  1  0.88977523  0.82588435  -0.00299688  1
  Ru4+  Ru153  1  0.88081440  0.83644720  0.24339222  1
  Ru4+  Ru154  1  0.87869606  0.82810616  0.50794684  1
  Ru4+  Ru155  1  0.89091473  0.83030114  0.74989802  1
  Ru4+  Ru156  1  0.74984113  0.26931088  0.20105838  1
  Ru4+  Ru157  1  0.75129771  0.92023193  0.74247139  1
  Ru4+  Ru158  1  0.75094561  0.72863797  0.00943338  1
  Ru4+  Ru159  1  0.24871342  0.23873546  0.76906340  1
  Ru4+  Ru160  1  0.24689933  0.35998167  0.30357911  1
  Ru4+  Ru161  1  0.74893444  0.24325633  0.51745781  1
  Ru4+  Ru162  1  0.75041172  0.69800249  0.27523886  1
  Ru4+  Ru163  1  0.75080236  0.06529803  0.74347072  1
  Ru4+  Ru164  1  0.25032082  0.96046323  0.49646285  1
  Ru4+  Ru165  1  0.25047990  0.67539098  0.50957302  1
  Ru4+  Ru166  1  0.24945934  0.09899204  0.50809559  1
  Ru4+  Ru167  1  0.24820428  0.61293282  0.25216870  1
  Ru4+  Ru168  1  0.75149087  0.99770883  0.00291144  1
  Ru4+  Ru169  1  0.24863151  0.42355753  0.75597813  1
  Ru4+  Ru170  1  0.25263363  0.22409823  0.24982922  1
  Ru4+  Ru171  1  0.24832154  0.40382258  -0.01778665  1
  Ru4+  Ru172  1  0.75120255  0.92835308  0.22931263  1
  Ru4+  Ru173  1  0.74895550  0.41279490  0.76705179  1
  Ru4+  Ru174  1  0.74943663  0.07326149  0.22800319  1
  Ru4+  Ru175  1  0.74999513  0.40865266  0.22833065  1
  Ru4+  Ru176  1  0.25263989  0.09033881  0.25097027  1
  Ru4+  Ru177  1  0.24999839  0.74764066  0.74676346  1
  Ru4+  Ru178  1  0.74954185  0.73649858  0.72355359  1
  Ru4+  Ru179  1  0.25169245  0.74370996  0.23982668  1
  O2-  O180  1  0.16664405  0.08559475  0.00173952  1
  O2-  O181  1  0.17368223  0.08192774  0.25250790  1
  O2-  O182  1  0.16891358  0.08274087  0.49860925  1
  O2-  O183  1  0.16765957  0.08593578  0.75347890  1
  O2-  O184  1  0.16340731  0.41446710  0.00026393  1
  O2-  O185  1  0.16820023  0.41137036  0.24991797  1
  O2-  O186  1  0.16768622  0.41857482  0.49256367  1
  O2-  O187  1  0.16696406  0.41357716  0.74962071  1
  O2-  O188  1  0.16679426  0.74558773  -0.00237031  1
  O2-  O189  1  0.16529146  0.74360764  0.24770470  1
  O2-  O190  1  0.17678446  0.74329722  0.49517039  1
  O2-  O191  1  0.16384430  0.74574777  0.75361642  1
  O2-  O192  1  0.67004734  0.08805362  -0.01438838  1
  O2-  O193  1  0.66541465  0.08249382  0.25181189  1
  O2-  O194  1  0.66584619  0.08416171  0.49289624  1
  O2-  O195  1  0.66883801  0.08195689  0.75414079  1
  O2-  O196  1  0.65459163  0.41990624  -0.00406171  1
  O2-  O197  1  0.66220350  0.41556285  0.25144008  1
  O2-  O198  1  0.66433260  0.41202342  0.50481273  1
  O2-  O199  1  0.66357088  0.41279271  0.75086035  1
  O2-  O200  1  0.66794584  0.74403968  0.00396920  1
  O2-  O201  1  0.66500986  0.74997079  0.25722709  1
  O2-  O202  1  0.66568862  0.74702275  0.49695657  1
  O2-  O203  1  0.66136022  0.75165055  0.74083429  1
  O2-  O204  1  0.34005199  0.24913276  0.00457105  1
  O2-  O205  1  0.33449485  0.24857988  0.25167240  1
  O2-  O206  1  0.33090287  0.24817047  0.49985000  1
  O2-  O207  1  0.33094198  0.25011202  0.74879879  1
  O2-  O208  1  0.34670343  0.58428013  0.00429566  1
  O2-  O209  1  0.33208296  0.58806398  0.25146007  1
  O2-  O210  1  0.33081113  0.59018147  0.50148727  1
  O2-  O211  1  0.33372025  0.58628185  0.75247903  1
  O2-  O212  1  0.33007444  0.92132459  -0.00670427  1
  O2-  O213  1  0.34483965  0.92928787  0.24694833  1
  O2-  O214  1  0.33450859  0.92774335  0.50357905  1
  O2-  O215  1  0.33832185  0.92144012  0.75707367  1
  O2-  O216  1  0.84014226  0.24538778  -0.00156517  1
  O2-  O217  1  0.83432955  0.25418567  0.24632984  1
  O2-  O218  1  0.82965732  0.24951012  0.50012754  1
  O2-  O219  1  0.83591942  0.25141281  0.75979933  1
  O2-  O220  1  0.84395454  0.58650674  0.00370292  1
  O2-  O221  1  0.84485198  0.59111463  0.24934001  1
  O2-  O222  1  0.83841796  0.57757520  0.49539867  1
  O2-  O223  1  0.83853344  0.58185509  0.74450238  1
  O2-  O224  1  0.83404946  0.91847623  0.00053827  1
  O2-  O225  1  0.83137373  0.92196514  0.25017420  1
  O2-  O226  1  0.83716038  0.91946150  0.50156090  1
  O2-  O227  1  0.83637931  0.91943128  0.74846551  1
  O2-  O228  1  0.16276489  0.24582175  0.00603567  1
  O2-  O229  1  0.16858393  0.24618666  0.25097667  1
  O2-  O230  1  0.16219793  0.25075437  0.49531625  1
  O2-  O231  1  0.16617313  0.24495451  0.75257888  1
  O2-  O232  1  0.16417710  0.59065632  0.00426954  1
  O2-  O233  1  0.16444916  0.58931086  0.25075621  1
  O2-  O234  1  0.15620463  0.58186295  0.49583200  1
  O2-  O235  1  0.16482673  0.57949559  0.75766180  1
  O2-  O236  1  0.16981638  0.91794639  -0.01596518  1
  O2-  O237  1  0.15796718  0.92604022  0.25053785  1
  O2-  O238  1  0.16681385  0.92127995  0.50256686  1
  O2-  O239  1  0.16149125  0.91921135  0.75478881  1
  O2-  O240  1  0.66739636  0.25120479  -0.00655261  1
  O2-  O241  1  0.66592404  0.25468751  0.25296831  1
  O2-  O242  1  0.66645489  0.25812599  0.50616855  1
  O2-  O243  1  0.66577212  0.25670520  0.74414180  1
  O2-  O244  1  0.66472237  0.58157805  0.00225292  1
  O2-  O245  1  0.65643796  0.59103741  0.25727956  1
  O2-  O246  1  0.66048787  0.58647916  0.49997711  1
  O2-  O247  1  0.66663781  0.58332537  0.74539625  1
  O2-  O248  1  0.66245932  0.91915200  -0.00463355  1
  O2-  O249  1  0.67492016  0.91624431  0.26309841  1
  O2-  O250  1  0.66590118  0.91783839  0.49188790  1
  O2-  O251  1  0.66786971  0.91891383  0.75666770  1
  O2-  O252  1  0.33140650  0.07747000  0.00231025  1
  O2-  O253  1  0.33351566  0.07914313  0.24453246  1
  O2-  O254  1  0.33047402  0.08474787  0.50393685  1
  O2-  O255  1  0.33560121  0.07768460  0.75564028  1
  O2-  O256  1  0.33140585  0.41767415  0.00431123  1
  O2-  O257  1  0.33972943  0.41270347  0.25090268  1
  O2-  O258  1  0.33548940  0.41037051  0.49609990  1
  O2-  O259  1  0.32972698  0.41003121  0.75170505  1
  O2-  O260  1  0.33181596  0.74362073  -0.00051497  1
  O2-  O261  1  0.33655056  0.74305001  0.24877872  1
  O2-  O262  1  0.33333275  0.74387363  0.50269231  1
  O2-  O263  1  0.33666186  0.74558093  0.75009541  1
  O2-  O264  1  0.83099131  0.08061674  0.00339146  1
  O2-  O265  1  0.83329759  0.07975418  0.24981918  1
  O2-  O266  1  0.84104748  0.08243600  0.50321635  1
  O2-  O267  1  0.83287270  0.08225819  0.75327107  1
  O2-  O268  1  0.84070839  0.41306167  -0.00149819  1
  O2-  O269  1  0.83443405  0.41457245  0.24229237  1
  O2-  O270  1  0.82915482  0.42230901  0.49762217  1
  O2-  O271  1  0.82966507  0.41397781  0.75995849  1
  O2-  O272  1  0.83431904  0.74366930  0.00344818  1
  O2-  O273  1  0.83274490  0.74490937  0.25363134  1
  O2-  O274  1  0.83142635  0.74583387  0.49764438  1
  O2-  O275  1  0.83552107  0.74685413  0.74586400  1
  O2-  O276  1  0.05322370  0.25037838  0.76219108  1
  O2-  O277  1  0.55598063  0.74678866  0.52787160  1
  O2-  O278  1  0.53552378  0.22211167  0.97321434  1
  O2-  O279  1  0.94618302  0.89728987  0.51508542  1
  O2-  O280  1  0.95677400  0.10403076  0.52239263  1
  O2-  O281  1  0.45211582  0.09479194  0.74203278  1
  O2-  O282  1  0.95798739  0.25759194  0.45987941  1
  O2-  O283  1  0.54741299  0.09623351  0.78844097  1
  O2-  O284  1  0.52482968  0.89093258  0.27159296  1
  O2-  O285  1  0.51970642  0.88663913  0.25605666  1
  O2-  O286  1  0.54767336  0.75957180  0.73630822  1
  O2-  O287  1  0.94917501  0.57658172  0.77190589  1
  O2-  O288  1  0.96470698  0.77611258  0.03810314  1
  O2-  O289  1  0.05143233  0.08504002  0.00701614  1
  O2-  O290  1  0.55298601  0.75376428  0.26683909  1
  O2-  O291  1  0.04305375  0.91212024  0.48573782  1
  O2-  O292  1  0.44841833  0.90701252  0.49426379  1
  O2-  O293  1  0.45572215  0.56975484  0.73662736  1
  O2-  O294  1  0.45176403  0.90338967  0.99864023  1
  O2-  O295  1  0.44823325  0.75241537  0.25913493  1
  O2-  O296  1  0.04969985  0.75162936  0.24329567  1
  O2-  O297  1  0.94907371  0.09863235  0.25548518  1
  O2-  O298  1  0.03389717  0.77698304  0.47895567  1
  O2-  O299  1  0.55071269  0.55981345  0.70339819  1
  O2-  O300  1  0.04451080  0.21874747  0.05712905  1
  O2-  O301  1  0.05270782  0.57274827  0.24893790  1
  O2-  O302  1  0.47299377  0.46012764  0.03896797  1
  O2-  O303  1  0.55278869  0.75317495  0.22766216  1
  O2-  O304  1  0.95975448  0.57054925  0.43790606  1
  O2-  O305  1  0.05138862  0.90933500  0.25814362  1
  O2-  O306  1  0.05438051  0.56970628  0.73735922  1
  O2-  O307  1  0.45070168  0.09380623  0.49145904  1
  O2-  O308  1  0.98277406  0.47131253  0.54243282  1
  O2-  O309  1  0.05068226  0.41784587  0.77091774  1
  O2-  O310  1  0.45331779  0.56685472  0.48282812  1
  O2-  O311  1  0.05350280  0.59304297  0.76738618  1
  O2-  O312  1  0.94725956  0.91338895  0.98688206  1
  O2-  O313  1  0.54295227  0.56321061  0.24441727  1
  O2-  O314  1  0.94464728  0.24001653  0.99414550  1
  O2-  O315  1  0.02989036  0.11656720  0.79924348  1
  O2-  O316  1  0.95068811  0.56697567  0.26449538  1
  O2-  O317  1  0.05108469  0.89865879  0.00844922  1
  O2-  O318  1  0.05310978  0.45447358  0.42837363  1
  O2-  O319  1  0.04232353  0.12339005  0.27506724  1
  O2-  O320  1  0.94899191  0.76542764  0.24385406  1
  O2-  O321  1  0.54003130  0.11165420  0.24341155  1
  O2-  O322  1  0.55176597  0.10588068  0.50367234  1
  O2-  O323  1  0.53418080  0.88987548  0.79578061  1
  O2-  O324  1  0.55814036  0.25239788  0.76831435  1
  O2-  O325  1  0.56476198  0.09509285  0.81694889  1
  O2-  O326  1  0.56329115  0.08243486  0.03052311  1
  O2-  O327  1  0.55924181  0.59131753  0.08286549  1
  O2-  O328  1  0.93678400  0.73467922  0.23643302  1
  O2-  O329  1  0.43485852  0.59206810  0.21411663  1
  O2-  O330  1  0.57786310  0.08844015  0.65678034  1
  O2-  O331  1  0.56197661  0.74530780  0.07457475  1
  O2-  O332  1  0.06868053  0.28526282  0.93534991  1
  O2-  O333  1  0.59318075  0.95095488  0.19507681  1
  O2-  O334  1  0.55775198  0.57730442  0.94082017  1
  O2-  O335  1  0.56049563  0.92410942  0.52635759  1
  O2-  O336  1  0.93513999  0.41113440  0.73602563  1
  O2-  O337  1  0.93823772  0.08502905  0.93077686  1
  O2-  O338  1  0.93978977  0.24860330  0.74314223  1
  O2-  O339  1  0.56631873  0.29439187  0.07504942  1
  O2-  O340  1  0.94010876  0.92882708  0.53124269  1
  O2-  O341  1  0.57612416  0.93391612  0.68428506  1
  O2-  O342  1  0.07692174  0.06227124  0.69906401  1
  O2-  O343  1  0.08444286  0.05737372  0.19203991  1
  O2-  O344  1  0.94085247  0.25624316  0.43132238  1
  O2-  O345  1  0.05666547  0.59472674  0.03160880  1
  O2-  O346  1  0.55572814  0.58581584  0.67749648  1
  O2-  O347  1  0.93362676  0.40809396  0.42287182  1
  O2-  O348  1  0.43779499  0.59366891  0.47280541  1
  O2-  O349  1  0.93409296  0.74008336  0.46300669  1
  O2-  O350  1  0.42893632  0.38101752  0.93940018  1
  O2-  O351  1  0.56027141  0.07331944  0.51410583  1
  O2-  O352  1  0.55374321  0.75608601  0.52386646  1
  O2-  O353  1  0.93454219  0.71414978  0.92073972  1
  O2-  O354  1  0.93777055  0.07780411  0.07838912  1
  O2-  O355  1  0.09003474  0.73254608  0.56904195  1
  O2-  O356  1  0.93678360  0.92891403  0.25716740  1
  O2-  O357  1  0.06247856  0.26260773  0.28778173  1
  O2-  O358  1  0.91433989  0.39735620  0.56963868  1
  O2-  O359  1  0.43861065  0.92544936  0.97531307  1
  O2-  O360  1  0.93131024  0.60506308  0.57125260  1
  O2-  O361  1  0.43685761  0.40724228  0.73289396  1
  O2-  O362  1  0.94067435  0.39892790  0.26167366  1
  O2-  O363  1  0.56968245  0.61643707  0.82169257  1
  O2-  O364  1  0.07139720  0.38295614  0.55917779  1
  O2-  O365  1  0.93693626  0.06970018  0.71004651  1
  O2-  O366  1  0.06748788  0.92060083  0.48309391  1
  O2-  O367  1  0.56624487  0.74779963  0.92362258  1
  O2-  O368  1  0.06257499  0.41266265  0.22346806  1
  O2-  O369  1  0.43755131  0.25481851  0.47095609  1
  O2-  O370  1  0.91398005  0.23464387  0.59482685  1
  O2-  O371  1  0.43302723  0.58349663  0.72933404  1
  O2-  O372  1  0.24881899  0.32981065  0.87543763  1
  O2-  O373  1  0.24992168  0.67579986  0.64008417  1
  O2-  O374  1  0.75224421  0.64429679  0.93157407  1
  O2-  O375  1  0.24985768  0.66167773  0.83166224  1
  O2-  O376  1  0.25094744  0.67762510  0.92220271  1
  O2-  O377  1  0.75081567  -0.00080627  0.12581416  1
  O2-  O378  1  0.75109969  0.67167019  0.39394083  1
  O2-  O379  1  0.74921535  0.00069158  0.87507152  1
  O2-  O380  1  0.25034833  0.33316563  0.58751626  1
  O2-  O381  1  0.75286858  -0.00468028  0.64050847  1
  O2-  O382  1  0.25055402  0.32735178  0.68244817  1
  O2-  O383  1  0.75095940  0.00271951  0.34294482  1
  O2-  O384  1  0.75276494  0.34107254  0.10583419  1
  O2-  O385  1  0.25070161  0.00253108  0.61862768  1
  O2-  O386  1  0.74823184  0.66682274  0.62176509  1
  O2-  O387  1  0.24975528  0.32921312  0.41322917  1
  O2-  O388  1  0.24969446  0.31469976  0.04927102  1
  O2-  O389  1  0.74686523  0.31331216  0.40773653  1
  O2-  O390  1  0.74878085  0.33685612  0.86875302  1
  O2-  O391  1  0.74943592  0.67760169  0.15429796  1
  O2-  O392  1  0.75182901  0.62919367  0.07666641  1
  O2-  O393  1  0.25203103  0.65853003  0.38550917  1
  O2-  O394  1  0.75001151  0.66319437  0.80589504  1
  O2-  O395  1  0.25095892  0.32391453  0.18279692  1
  O2-  O396  1  0.75116830  0.83924556  0.58505344  1
  O2-  O397  1  0.74830266  0.44955098  0.34532688  1
  O2-  O398  1  0.24984957  0.84197605  0.69258128  1
  O2-  O399  1  0.25125066  0.17407101  0.86550420  1
  O2-  O400  1  0.74860398  0.47847872  0.11804481  1
  O2-  O401  1  0.74959596  0.82627582  0.17556648  1
  O2-  O402  1  0.25056864  0.50601761  0.67223589  1
  O2-  O403  1  0.74973977  0.18191888  0.63114818  1
  O2-  O404  1  0.24953575  0.80793916  0.14760388  1
  O2-  O405  1  0.25047687  0.80388209  0.33236313  1
  O2-  O406  1  0.75018622  0.82530868  0.08333601  1
  O2-  O407  1  0.25009382  0.88467998  0.41270740  1
  O2-  O408  1  0.75098378  0.83975687  0.45787817  1
  O2-  O409  1  0.74939324  0.53151733  0.37853109  1
  O2-  O410  1  0.25002480  0.85838280  0.07282581  1
  O2-  O411  1  0.74999075  0.82196868  0.80902847  1
  O2-  O412  1  0.24998400  0.49126509  0.85749315  1
  O2-  O413  1  0.74940085  0.51817180  0.73920786  1
  O2-  O414  1  0.24955959  0.49140571  0.58811349  1
  O2-  O415  1  0.74915720  0.16176194  0.14795225  1
  O2-  O416  1  0.75091016  0.49697163  0.03696301  1
  O2-  O417  1  0.74947634  0.15445636  0.45575381  1
  O2-  O418  1  0.75089840  0.47317548  0.65742589  1
  O2-  O419  1  0.75020907  0.83463370  0.66827822  1
  O2-  O420  1  0.48301613  0.32011291  0.62000286  1
  O2-  O421  1  0.46808323  0.67133866  0.87873700  1
  O2-  O422  1  0.51763770  -0.00543058  0.88710903  1
  O2-  O423  1  0.52969242  0.65981817  0.37875833  1
  O2-  O424  1  0.46775890  0.32172190  0.13012946  1
  O2-  O425  1  0.01517144  0.66504947  0.63262332  1
  O2-  O426  1  0.02635402  0.66695069  0.37713114  1
  O2-  O427  1  0.50214221  -0.00457891  0.12979001  1
  O2-  O428  1  0.52646617  0.35777269  0.87918405  1
  O2-  O429  1  0.48242222  0.34845341  0.36798005  1
  O2-  O430  1  0.02183312  -0.01927365  0.61960318  1
  O2-  O431  1  0.04126526  0.02151542  0.37421470  1
  O2-  O432  1  0.47024765  -0.00368478  0.62748215  1
  O2-  O433  1  0.95290467  -0.03112569  0.83570940  1
  O2-  O434  1  0.04865091  -0.02151107  0.86866422  1
  O2-  O435  1  0.95253925  0.00300339  0.40133921  1
  O2-  O436  1  0.54061499  0.00605806  0.38500849  1
  O2-  O437  1  0.44863260  0.00053832  0.34324647  1
  O2-  O438  1  0.01898611  0.33831606  0.11574333  1
  O2-  O439  1  0.47208505  0.67533312  0.62626236  1
  O2-  O440  1  0.01223083  -0.01784536  0.12234977  1
  O2-  O441  1  0.97166789  0.34839161  0.87845761  1
  O2-  O442  1  0.97424461  0.64576145  0.12651880  1
  O2-  O443  1  0.99835361  0.32478849  0.62718017  1
