# generated using pymatgen
data_La7(Ru4O11)2
_symmetry_space_group_name_H-M   'P 1'
_cell_length_a   23.99314639
_cell_length_b   16.83274150
_cell_length_c   15.42919843
_cell_angle_alpha   90.00300573
_cell_angle_beta   89.99877524
_cell_angle_gamma   89.99939866
_symmetry_Int_Tables_number   1
_chemical_formula_structural   La7(Ru4O11)2
_chemical_formula_sum   'La84 Ru96 O264'
_cell_volume   6231.39701032
_cell_formula_units_Z   12
loop_
 _symmetry_equiv_pos_site_id
 _symmetry_equiv_pos_as_xyz
  1  'x, y, z'
loop_
 _atom_type_symbol
 _atom_type_oxidation_number
  La3+  3.0
  Ru4+  4.0
  O2-  -2.0
loop_
 _atom_site_type_symbol
 _atom_site_label
 _atom_site_symmetry_multiplicity
 _atom_site_fract_x
 _atom_site_fract_y
 _atom_site_fract_z
 _atom_site_occupancy
  La3+  La0  1  0.13607656  0.00542179  0.12062120  1
  La3+  La1  1  0.13688976  0.00353452  0.37622315  1
  La3+  La2  1  0.13728588  0.00454209  0.62352160  1
  La3+  La3  1  0.14689800  0.00889880  0.87092570  1
  La3+  La4  1  0.13959353  0.33933269  0.12267270  1
  La3+  La5  1  0.13979912  0.33992570  0.37700922  1
  La3+  La6  1  0.14689371  0.33375241  0.62800215  1
  La3+  La7  1  0.14540821  0.33421097  0.87571160  1
  La3+  La8  1  0.13570032  0.66133695  0.12195441  1
  La3+  La9  1  0.13381664  0.66082610  0.37707312  1
  La3+  La10  1  0.13363890  0.66043389  0.62916582  1
  La3+  La11  1  0.13719958  0.66438991  0.86834633  1
  La3+  La12  1  0.64557861  0.00062746  0.12601644  1
  La3+  La13  1  0.64042264  -0.00585493  0.37861873  1
  La3+  La14  1  0.64685392  -0.00081541  0.62528717  1
  La3+  La15  1  0.64310666  0.00098318  0.87558761  1
  La3+  La16  1  0.63371253  0.33843019  0.12577152  1
  La3+  La17  1  0.62964888  0.32399222  0.38489872  1
  La3+  La18  1  0.63323697  0.32695744  0.61501347  1
  La3+  La19  1  0.64322961  0.33279813  0.87790683  1
  La3+  La20  1  0.64118170  0.66346970  0.12779548  1
  La3+  La21  1  0.64339478  0.66939927  0.37917138  1
  La3+  La22  1  0.64128053  0.66597035  0.62450834  1
  La3+  La23  1  0.64146460  0.66486852  0.87770063  1
  La3+  La24  1  0.36584429  0.00379379  0.12737234  1
  La3+  La25  1  0.36390801  0.00055573  0.37589258  1
  La3+  La26  1  0.36476673  0.00670853  0.62525959  1
  La3+  La27  1  0.35902626  0.00358590  0.87450542  1
  La3+  La28  1  0.35483634  0.32985764  0.12190661  1
  La3+  La29  1  0.35499919  0.33933016  0.37706437  1
  La3+  La30  1  0.36023219  0.32977537  0.62469150  1
  La3+  La31  1  0.35636651  0.33645709  0.87558210  1
  La3+  La32  1  0.36000826  0.65933436  0.12451812  1
  La3+  La33  1  0.36531465  0.66573613  0.37421197  1
  La3+  La34  1  0.35941743  0.65905906  0.62543174  1
  La3+  La35  1  0.35894821  0.66233243  0.87408969  1
  La3+  La36  1  0.85873262  -0.00351446  0.12063760  1
  La3+  La37  1  0.86241614  -0.00000256  0.38197643  1
  La3+  La38  1  0.86013867  0.00478000  0.62331954  1
  La3+  La39  1  0.85738130  -0.00095593  0.87511092  1
  La3+  La40  1  0.85368613  0.33241268  0.12256401  1
  La3+  La41  1  0.86625288  0.33538457  0.37581860  1
  La3+  La42  1  0.85958786  0.33429462  0.62516637  1
  La3+  La43  1  0.85001932  0.33011955  0.87549326  1
  La3+  La44  1  0.85582603  0.66227071  0.12033832  1
  La3+  La45  1  0.85483543  0.66983654  0.38028529  1
  La3+  La46  1  0.86173615  0.66537345  0.62354975  1
  La3+  La47  1  0.86285635  0.66078562  0.87816968  1
  La3+  La48  1  0.00111780  0.51307739  0.61297881  1
  La3+  La49  1  -0.00130391  0.83650263  0.13938918  1
  La3+  La50  1  0.49439185  0.17575751  0.88002446  1
  La3+  La51  1  0.50179276  0.49847248  0.11555493  1
  La3+  La52  1  0.00149289  0.15908105  0.61524353  1
  La3+  La53  1  0.50278282  0.17755900  0.37530176  1
  La3+  La54  1  0.50077788  0.49760236  0.36165943  1
  La3+  La55  1  -0.00729407  0.17065331  0.62751436  1
  La3+  La56  1  -0.00094957  0.16214183  0.37828410  1
  La3+  La57  1  0.00819744  0.50480651  0.87532221  1
  La3+  La58  1  0.00020306  0.16489694  0.11684344  1
  La3+  La59  1  0.50773672  0.83848480  0.86648344  1
  La3+  La60  1  0.50188988  0.49890287  0.86012856  1
  La3+  La61  1  -0.00393261  0.83114146  0.88059442  1
  La3+  La62  1  -0.00255363  0.82540762  0.39341383  1
  La3+  La63  1  0.50805868  0.50348923  0.38038527  1
  La3+  La64  1  0.50053385  0.18003420  0.39173163  1
  La3+  La65  1  0.51330065  0.16904969  0.61942998  1
  La3+  La66  1  0.50033401  0.83213414  0.13052865  1
  La3+  La67  1  0.49742481  0.17521837  0.10540228  1
  La3+  La68  1  0.50641272  0.84447284  0.85117266  1
  La3+  La69  1  0.49388266  0.49790091  0.13448654  1
  La3+  La70  1  -0.00264975  0.50250668  0.36519846  1
  La3+  La71  1  0.00249552  0.82782993  0.62594184  1
  La3+  La72  1  0.74887133  0.45814631  0.76334654  1
  La3+  La73  1  0.25254215  0.89317518  0.03785747  1
  La3+  La74  1  0.24955257  0.83664651  0.45267349  1
  La3+  La75  1  0.74942007  0.12786331  0.46600099  1
  La3+  La76  1  0.74939737  0.50134460  0.49544669  1
  La3+  La77  1  0.24812272  0.22602426  -0.00830405  1
  La3+  La78  1  0.74939107  0.17005292  0.23580325  1
  La3+  La79  1  0.75133481  0.45456178  0.23275747  1
  La3+  La80  1  0.25085854  0.80751784  0.19178394  1
  La3+  La81  1  0.25052282  0.14383664  0.31446596  1
  La3+  La82  1  0.25010472  0.91278564  0.75226512  1
  La3+  La83  1  0.25037269  0.49685624  0.76889273  1
  Ru4+  Ru84  1  -0.00120421  0.00063037  0.00826065  1
  Ru4+  Ru85  1  0.00337206  -0.00547143  0.24557761  1
  Ru4+  Ru86  1  0.00576220  -0.00917286  0.50219810  1
  Ru4+  Ru87  1  -0.00274168  -0.00451462  0.74805961  1
  Ru4+  Ru88  1  -0.00627842  0.34177089  -0.00839760  1
  Ru4+  Ru89  1  -0.00154559  0.32531363  0.25626320  1
  Ru4+  Ru90  1  0.00276552  0.34305665  0.50061065  1
  Ru4+  Ru91  1  0.00608636  0.33777958  0.75791133  1
  Ru4+  Ru92  1  0.00408597  0.67321536  -0.00623316  1
  Ru4+  Ru93  1  0.00158849  0.66348957  0.24970352  1
  Ru4+  Ru94  1  -0.00408144  0.67098217  0.49866195  1
  Ru4+  Ru95  1  -0.00676609  0.67188327  0.74769055  1
  Ru4+  Ru96  1  0.50220434  0.00020171  0.00508231  1
  Ru4+  Ru97  1  0.50137845  0.00685140  0.25054779  1
  Ru4+  Ru98  1  0.49633136  0.00077858  0.50237029  1
  Ru4+  Ru99  1  0.50439175  0.00875201  0.74967766  1
  Ru4+  Ru100  1  0.50216634  0.33293968  -0.00484109  1
  Ru4+  Ru101  1  0.50018647  0.32003070  0.25348970  1
  Ru4+  Ru102  1  0.50287060  0.33301384  0.49830684  1
  Ru4+  Ru103  1  0.50217696  0.33455666  0.74988502  1
  Ru4+  Ru104  1  0.50550553  0.67114562  0.00113181  1
  Ru4+  Ru105  1  0.49719583  0.67986674  0.24945165  1
  Ru4+  Ru106  1  0.49972823  0.66748592  0.50510939  1
  Ru4+  Ru107  1  0.50484828  0.66763740  0.73987772  1
  Ru4+  Ru108  1  0.10937287  0.16616782  0.00057410  1
  Ru4+  Ru109  1  0.11108091  0.16300263  0.25128836  1
  Ru4+  Ru110  1  0.11472040  0.16373744  0.49659536  1
  Ru4+  Ru111  1  0.11707700  0.16563574  0.75391530  1
  Ru4+  Ru112  1  0.11564435  0.49693686  0.00161594  1
  Ru4+  Ru113  1  0.11377554  0.50402682  0.25024193  1
  Ru4+  Ru114  1  0.11336530  0.49114879  0.50042820  1
  Ru4+  Ru115  1  0.11243849  0.49265237  0.75106397  1
  Ru4+  Ru116  1  0.11186924  0.83692086  -0.00379192  1
  Ru4+  Ru117  1  0.10789372  0.83694066  0.24822333  1
  Ru4+  Ru118  1  0.11053043  0.83083516  0.49963349  1
  Ru4+  Ru119  1  0.11359547  0.83771983  0.75071127  1
  Ru4+  Ru120  1  0.61272556  0.16669615  -0.00148385  1
  Ru4+  Ru121  1  0.60546668  0.16432747  0.25556021  1
  Ru4+  Ru122  1  0.61168225  0.16742384  0.49781670  1
  Ru4+  Ru123  1  0.61570159  0.16452623  0.74462270  1
  Ru4+  Ru124  1  0.61768797  0.50596565  -0.00362019  1
  Ru4+  Ru125  1  0.62237363  0.50033531  0.25081150  1
  Ru4+  Ru126  1  0.60948238  0.49778172  0.50027440  1
  Ru4+  Ru127  1  0.61052469  0.49769049  0.74615045  1
  Ru4+  Ru128  1  0.61657034  0.83811766  0.00658945  1
  Ru4+  Ru129  1  0.61305602  0.83006677  0.24913160  1
  Ru4+  Ru130  1  0.61389637  0.83058517  0.50094562  1
  Ru4+  Ru131  1  0.61219155  0.83343020  0.74871797  1
  Ru4+  Ru132  1  0.39038331  0.16430448  0.00038397  1
  Ru4+  Ru133  1  0.39243549  0.16546815  0.25085747  1
  Ru4+  Ru134  1  0.38857240  0.16806622  0.49747472  1
  Ru4+  Ru135  1  0.38520691  0.16689539  0.74963981  1
  Ru4+  Ru136  1  0.38281102  0.49706346  0.00212465  1
  Ru4+  Ru137  1  0.38816460  0.50093073  0.25556289  1
  Ru4+  Ru138  1  0.38710872  0.49802172  0.49914344  1
  Ru4+  Ru139  1  0.38926886  0.49941513  0.74455642  1
  Ru4+  Ru140  1  0.39026242  0.82869707  0.00236578  1
  Ru4+  Ru141  1  0.39256394  0.83519680  0.25309673  1
  Ru4+  Ru142  1  0.38974397  0.83458564  0.50030566  1
  Ru4+  Ru143  1  0.38978986  0.82770674  0.74270433  1
  Ru4+  Ru144  1  0.88828250  0.16601620  0.00131131  1
  Ru4+  Ru145  1  0.89075947  0.16597792  0.25005867  1
  Ru4+  Ru146  1  0.88498342  0.17280156  0.49841985  1
  Ru4+  Ru147  1  0.88350755  0.16599702  0.75244843  1
  Ru4+  Ru148  1  0.88729318  0.49483056  -0.00014523  1
  Ru4+  Ru149  1  0.89005826  0.50024786  0.25136055  1
  Ru4+  Ru150  1  0.88753233  0.50165870  0.49958207  1
  Ru4+  Ru151  1  0.88491461  0.49327320  0.74991581  1
  Ru4+  Ru152  1  0.88570702  0.83903178  0.00080423  1
  Ru4+  Ru153  1  0.88581932  0.83230110  0.25089559  1
  Ru4+  Ru154  1  0.88550061  0.82884286  0.49884421  1
  Ru4+  Ru155  1  0.88574618  0.83530761  0.75014299  1
  Ru4+  Ru156  1  0.75013424  0.75210033  0.74163369  1
  Ru4+  Ru157  1  0.74982711  0.91264862  0.74017141  1
  Ru4+  Ru158  1  0.75032226  0.27230361  0.50554279  1
  Ru4+  Ru159  1  0.75037062  0.60523172  0.76420125  1
  Ru4+  Ru160  1  0.75046213  0.75016309  -0.00440943  1
  Ru4+  Ru161  1  0.75026855  0.90346219  0.49868808  1
  Ru4+  Ru162  1  0.25077860  0.06498863  0.00220111  1
  Ru4+  Ru163  1  0.24971639  0.94350726  0.23947356  1
  Ru4+  Ru164  1  0.24928601  0.24618832  0.51959816  1
  Ru4+  Ru165  1  0.25054735  0.95940633  0.54038513  1
  Ru4+  Ru166  1  0.24931984  0.56283014  0.51500913  1
  Ru4+  Ru167  1  0.75067096  0.02743108  0.26801249  1
  Ru4+  Ru168  1  0.75000650  0.89236958  0.25229667  1
  Ru4+  Ru169  1  0.75130477  0.60584795  0.26787472  1
  Ru4+  Ru170  1  0.24893337  0.73099648  0.01013187  1
  Ru4+  Ru171  1  0.24888256  0.69590113  0.27396966  1
  Ru4+  Ru172  1  0.24975778  0.70026473  0.49351279  1
  Ru4+  Ru173  1  0.25046083  0.56821390  0.24616444  1
  Ru4+  Ru174  1  0.24953691  0.27979324  0.24281065  1
  Ru4+  Ru175  1  0.24949022  0.73051713  0.74663987  1
  Ru4+  Ru176  1  0.74897310  0.30566826  0.25548445  1
  Ru4+  Ru177  1  0.75029224  0.09090439  -0.00763269  1
  Ru4+  Ru178  1  0.25009398  0.41955370  0.24499678  1
  Ru4+  Ru179  1  0.74989832  0.24235802  -0.00660563  1
  O2-  O180  1  0.16876873  0.08186140  -0.00079870  1
  O2-  O181  1  0.16774075  0.08318031  0.25160746  1
  O2-  O182  1  0.16688382  0.08349599  0.50068172  1
  O2-  O183  1  0.16988921  0.08231291  0.74591169  1
  O2-  O184  1  0.16944433  0.41829703  0.00343795  1
  O2-  O185  1  0.16710079  0.41585534  0.24854517  1
  O2-  O186  1  0.16698383  0.41621357  0.49656959  1
  O2-  O187  1  0.17162715  0.41589825  0.74718410  1
  O2-  O188  1  0.16390626  0.74619895  0.00478001  1
  O2-  O189  1  0.16259396  0.74566655  0.24959546  1
  O2-  O190  1  0.16527056  0.74170825  0.49632412  1
  O2-  O191  1  0.16585467  0.74497559  0.74774262  1
  O2-  O192  1  0.66628977  0.08204153  0.00105213  1
  O2-  O193  1  0.66829500  0.07904967  0.25207954  1
  O2-  O194  1  0.66263194  0.07861151  0.49917458  1
  O2-  O195  1  0.66685585  0.08239064  0.75471914  1
  O2-  O196  1  0.66334491  0.41348821  0.00177432  1
  O2-  O197  1  0.66370693  0.40439912  0.25582671  1
  O2-  O198  1  0.66317693  0.41118602  0.49744664  1
  O2-  O199  1  0.66076875  0.40884631  0.74831318  1
  O2-  O200  1  0.66592865  0.74763309  0.00225505  1
  O2-  O201  1  0.66317571  0.74904403  0.25261032  1
  O2-  O202  1  0.66810022  0.75085590  0.49780516  1
  O2-  O203  1  0.66907814  0.74712501  0.75042061  1
  O2-  O204  1  0.33896003  0.25425016  -0.00204292  1
  O2-  O205  1  0.33358144  0.25380765  0.25369884  1
  O2-  O206  1  0.32969771  0.24978063  0.50224949  1
  O2-  O207  1  0.33775020  0.25143463  0.74798812  1
  O2-  O208  1  0.33476615  0.58373033  0.00002284  1
  O2-  O209  1  0.33276551  0.58549791  0.25174290  1
  O2-  O210  1  0.33238931  0.58298668  0.49600921  1
  O2-  O211  1  0.33411401  0.58325460  0.75208125  1
  O2-  O212  1  0.33981019  0.91988719  -0.00056980  1
  O2-  O213  1  0.33297920  0.92240099  0.24721919  1
  O2-  O214  1  0.33496504  0.92255375  0.50252066  1
  O2-  O215  1  0.34374565  0.92231521  0.74846399  1
  O2-  O216  1  0.83247720  0.25008859  0.00119863  1
  O2-  O217  1  0.83329672  0.25286134  0.25451255  1
  O2-  O218  1  0.83220972  0.25622323  0.49592765  1
  O2-  O219  1  0.83583768  0.25170535  0.74748614  1
  O2-  O220  1  0.83657246  0.58115467  0.00238497  1
  O2-  O221  1  0.83368125  0.58726751  0.25132691  1
  O2-  O222  1  0.83184484  0.58548380  0.49951137  1
  O2-  O223  1  0.83328156  0.58680908  0.75141843  1
  O2-  O224  1  0.83263408  0.91767967  0.00115241  1
  O2-  O225  1  0.83399024  0.91805394  0.25277634  1
  O2-  O226  1  0.83418994  0.91980067  0.49960962  1
  O2-  O227  1  0.83163565  0.91969551  0.75026008  1
  O2-  O228  1  0.15597639  0.25699165  0.00430781  1
  O2-  O229  1  0.16516618  0.25606281  0.25068989  1
  O2-  O230  1  0.16620815  0.25121387  0.49894700  1
  O2-  O231  1  0.16353337  0.25164512  0.74956342  1
  O2-  O232  1  0.16307856  0.58569780  0.00383047  1
  O2-  O233  1  0.16688235  0.58587959  0.24595728  1
  O2-  O234  1  0.16545593  0.58130189  0.49855319  1
  O2-  O235  1  0.16516297  0.58087222  0.75031215  1
  O2-  O236  1  0.16935232  0.91816881  0.00666919  1
  O2-  O237  1  0.16917509  0.92178945  0.25134176  1
  O2-  O238  1  0.16914354  0.92325431  0.50008667  1
  O2-  O239  1  0.15983466  0.92564797  0.74585152  1
  O2-  O240  1  0.66976915  0.25200168  0.00226728  1
  O2-  O241  1  0.66409291  0.25221093  0.25085129  1
  O2-  O242  1  0.66833409  0.25214975  0.49990067  1
  O2-  O243  1  0.66237184  0.25263966  0.75003938  1
  O2-  O244  1  0.66799080  0.58533035  0.00022883  1
  O2-  O245  1  0.66913966  0.58959679  0.25468700  1
  O2-  O246  1  0.66741048  0.58631164  0.49905371  1
  O2-  O247  1  0.66862319  0.58607826  0.75243301  1
  O2-  O248  1  0.66779232  0.91737824  -0.00078754  1
  O2-  O249  1  0.66644233  0.91816034  0.25192566  1
  O2-  O250  1  0.66476424  0.91517227  0.49968619  1
  O2-  O251  1  0.66526718  0.91912968  0.75268149  1
  O2-  O252  1  0.33577299  0.07822740  0.00044857  1
  O2-  O253  1  0.33611493  0.08081280  0.25114463  1
  O2-  O254  1  0.33874307  0.08240600  0.50098296  1
  O2-  O255  1  0.33473677  0.07791664  0.74761182  1
  O2-  O256  1  0.32983103  0.41854806  -0.00282853  1
  O2-  O257  1  0.33159413  0.41502193  0.24835422  1
  O2-  O258  1  0.33584201  0.41619031  0.50212820  1
  O2-  O259  1  0.33128836  0.41590739  0.74552084  1
  O2-  O260  1  0.32995782  0.74699575  0.00018930  1
  O2-  O261  1  0.33662677  0.74530582  0.25003475  1
  O2-  O262  1  0.33448495  0.74344962  0.49702657  1
  O2-  O263  1  0.33269198  0.74621299  0.75249896  1
  O2-  O264  1  0.83313052  0.08073348  0.00157433  1
  O2-  O265  1  0.83475277  0.07782897  0.25204857  1
  O2-  O266  1  0.83456443  0.07846974  0.49775693  1
  O2-  O267  1  0.83453405  0.08060845  0.75206784  1
  O2-  O268  1  0.83302790  0.41795325  0.00387457  1
  O2-  O269  1  0.84228648  0.40937715  0.25366928  1
  O2-  O270  1  0.83485331  0.41229828  0.49534978  1
  O2-  O271  1  0.83652970  0.40765762  0.74684783  1
  O2-  O272  1  0.83567836  0.74743980  0.00060057  1
  O2-  O273  1  0.83484805  0.74794336  0.25046601  1
  O2-  O274  1  0.83355599  0.74895563  0.50238077  1
  O2-  O275  1  0.83210911  0.74719586  0.75061425  1
  O2-  O276  1  0.54665856  0.88211239  0.97651031  1
  O2-  O277  1  0.95485689  0.76144479  0.26503773  1
  O2-  O278  1  0.03692759  0.88062597  1.01547245  1
  O2-  O279  1  0.55010968  0.23978147  0.49032996  1
  O2-  O280  1  0.04644536  0.23482550  0.73438309  1
  O2-  O281  1  0.95516279  0.09208021  0.23471430  1
  O2-  O282  1  0.95354068  0.89870981  0.51037017  1
  O2-  O283  1  0.46560326  0.77476924  0.96362969  1
  O2-  O284  1  0.54573667  0.12292174  0.78601484  1
  O2-  O285  1  0.05245162  0.57092925  0.48936582  1
  O2-  O286  1  0.54465325  0.09269541  0.48680513  1
  O2-  O287  1  0.03238961  0.88828449  0.29093021  1
  O2-  O288  1  0.96919298  0.45693638  1.00545581  1
  O2-  O289  1  0.96937249  0.45746372  0.00551562  1
  O2-  O290  1  0.44651183  0.08750649  0.76343805  1
  O2-  O291  1  0.04520216  0.43747219  0.45442827  1
  O2-  O292  1  0.94791166  0.43060437  0.51385624  1
  O2-  O293  1  0.45627364  0.43108114  0.49004180  1
  O2-  O294  1  0.54268396  0.56802934  0.24262259  1
  O2-  O295  1  0.95011808  0.56000342  0.77065377  1
  O2-  O296  1  0.45228595  0.57117190  0.00808707  1
  O2-  O297  1  0.05248144  0.57985565  0.26331302  1
  O2-  O298  1  0.55137901  0.42605330  0.73738136  1
  O2-  O299  1  0.53369710  0.11564966  0.21276547  1
  O2-  O300  1  0.03001415  0.43769796  0.71363943  1
  O2-  O301  1  0.45282552  0.22923296  0.54364111  1
  O2-  O302  1  0.04942080  0.23238616  0.23003512  1
  O2-  O303  1  0.45761026  0.76971990  0.77720064  1
  O2-  O304  1  0.95348070  0.75926067  0.24465991  1
  O2-  O305  1  0.04352267  0.75817215  0.76410254  1
  O2-  O306  1  0.45031324  0.57730261  0.76285384  1
  O2-  O307  1  0.05302010  0.42769589  0.26216256  1
  O2-  O308  1  0.95704936  0.09391498  0.50495469  1
  O2-  O309  1  0.53363975  0.78501499  0.50391220  1
  O2-  O310  1  0.45386529  0.57247225  0.74365819  1
  O2-  O311  1  0.05209343  0.57012926  0.73752901  1
  O2-  O312  1  0.45546143  0.23686668  0.75196020  1
  O2-  O313  1  0.94573233  0.57671017  0.25875632  1
  O2-  O314  1  0.95499344  0.58595450  0.98473893  1
  O2-  O315  1  0.95352535  0.57511926  0.73535276  1
  O2-  O316  1  0.45797206  0.43160801  0.95672885  1
  O2-  O317  1  0.95300276  0.10260489  0.74446719  1
  O2-  O318  1  0.45442570  0.42752335  0.71120024  1
  O2-  O319  1  0.55288381  0.42748904  0.00210030  1
  O2-  O320  1  0.54243864  0.43193450  0.24119221  1
  O2-  O321  1  0.94873637  0.24036054  0.26058452  1
  O2-  O322  1  0.44812461  0.91136365  0.98612094  1
  O2-  O323  1  0.03309943  0.88902801  0.01854460  1
  O2-  O324  1  0.44006298  0.93237974  0.27925635  1
  O2-  O325  1  0.07922239  0.93226374  0.19327787  1
  O2-  O326  1  0.06233040  0.39793764  0.27915451  1
  O2-  O327  1  0.42419189  0.72105955  0.68136876  1
  O2-  O328  1  0.56557568  0.74681275  0.72371005  1
  O2-  O329  1  0.06194109  0.07296510  0.28832155  1
  O2-  O330  1  0.06959518  0.38155104  0.56867801  1
  O2-  O331  1  0.56701941  0.58968404  0.80181952  1
  O2-  O332  1  0.41811360  0.73262779  0.05722687  1
  O2-  O333  1  0.93416674  0.59039750  0.52366525  1
  O2-  O334  1  0.93619453  0.73710378  0.46411621  1
  O2-  O335  1  0.06035247  0.07337966  0.46479774  1
  O2-  O336  1  0.56977989  0.58595320  0.06628605  1
  O2-  O337  1  0.06806296  0.08239095  0.69451816  1
  O2-  O338  1  0.44407254  0.25858649  0.56150306  1
  O2-  O339  1  0.56493227  0.25773863  0.96566587  1
  O2-  O340  1  0.06680150  0.74571332  0.77148315  1
  O2-  O341  1  0.56548849  0.59052774  0.69531347  1
  O2-  O342  1  0.56659496  0.58453928  0.93413550  1
  O2-  O343  1  0.93329296  0.74951515  0.72350746  1
  O2-  O344  1  0.06846592  0.40601648  0.97448830  1
  O2-  O345  1  0.57642083  0.72959204  0.52874732  1
  O2-  O346  1  0.41855757  0.41880210  0.08918601  1
  O2-  O347  1  0.56621070  0.26532828  0.54178579  1
  O2-  O348  1  0.92605153  0.37495732  0.91499242  1
  O2-  O349  1  0.93139584  0.59273591  0.97343996  1
  O2-  O350  1  0.93348485  0.36484811  0.08674626  1
  O2-  O351  1  0.56422272  0.41871372  0.22773248  1
  O2-  O352  1  0.43520825  0.42549689  0.94139029  1
  O2-  O353  1  0.56343789  0.58338959  0.22835826  1
  O2-  O354  1  0.56183138  0.58379930  0.52025618  1
  O2-  O355  1  0.06310749  0.07920713  0.02341150  1
  O2-  O356  1  0.93609064  0.92011844  0.77931977  1
  O2-  O357  1  0.93409154  0.93325086  0.03465502  1
  O2-  O358  1  0.42869848  0.40110294  0.79032398  1
  O2-  O359  1  0.06212973  0.59974538  0.47104599  1
  O2-  O360  1  0.56727741  0.04584666  0.67793591  1
  O2-  O361  1  0.06562840  0.91759035  0.51810206  1
  O2-  O362  1  0.43974031  0.25489283  0.02073407  1
  O2-  O363  1  0.56792185  0.05009488  0.31644544  1
  O2-  O364  1  0.06783144  0.08297026  0.80834164  1
  O2-  O365  1  0.56834679  0.95611880  0.07313644  1
  O2-  O366  1  0.09245075  0.93840319  0.93467932  1
  O2-  O367  1  0.93805466  0.08366272  0.52830921  1
  O2-  O368  1  0.41890716  0.24571970  0.41306661  1
  O2-  O369  1  0.06152711  0.60284195  0.73261520  1
  O2-  O370  1  0.07969022  0.39610560  0.80648581  1
  O2-  O371  1  0.56265671  0.25573956  0.47971525  1
  O2-  O372  1  0.25061490  0.01568867  0.32479050  1
  O2-  O373  1  0.75022940  0.66461810  0.07911830  1
  O2-  O374  1  0.74931080  0.33775071  0.60089972  1
  O2-  O375  1  0.25046831  0.00576980  0.13281296  1
  O2-  O376  1  0.25016896  0.34343589  0.91750455  1
  O2-  O377  1  0.75005610  0.67301167  0.90342396  1
  O2-  O378  1  0.75083508  0.00227300  0.40058678  1
  O2-  O379  1  0.24974429  0.65242246  0.93801023  1
  O2-  O380  1  0.75011754  0.00897744  0.90765607  1
  O2-  O381  1  0.74989476  0.00311514  0.57546900  1
  O2-  O382  1  0.25081398  0.32978800  0.59272750  1
  O2-  O383  1  0.24892766  0.32028430  0.40185872  1
  O2-  O384  1  0.74969318  0.00205627  0.66865918  1
  O2-  O385  1  0.25028667  0.33748367  0.82709766  1
  O2-  O386  1  0.74967454  0.65995013  0.38320780  1
  O2-  O387  1  0.24923519  0.65987586  0.61509178  1
  O2-  O388  1  0.25052221  0.64375861  0.81432966  1
  O2-  O389  1  0.74876919  0.32438104  0.90593998  1
  O2-  O390  1  0.24782749  0.33377103  0.11680546  1
  O2-  O391  1  0.75051256  0.67044063  0.64995007  1
  O2-  O392  1  0.25194401  -0.00917154  0.89892173  1
  O2-  O393  1  0.75018503  0.67649241  0.16959181  1
  O2-  O394  1  0.75109109  -0.00080170  0.14256484  1
  O2-  O395  1  0.25010165  0.01748304  0.44592004  1
  O2-  O396  1  0.25028235  0.14410822  0.88140350  1
  O2-  O397  1  0.75016511  0.17307434  0.59823148  1
  O2-  O398  1  0.74991230  0.83900701  0.94367797  1
  O2-  O399  1  0.74988962  0.84045873  0.59420405  1
  O2-  O400  1  0.25084299  0.80184308  0.66165872  1
  O2-  O401  1  0.24968744  0.18932831  0.18151164  1
  O2-  O402  1  0.24984318  0.49730785  0.34548318  1
  O2-  O403  1  0.75014719  0.16683985  0.09225761  1
  O2-  O404  1  0.75010690  0.83309564  0.81927282  1
  O2-  O405  1  0.24975286  0.85718455  0.59044600  1
  O2-  O406  1  0.24968800  0.17740295  0.62895475  1
  O2-  O407  1  0.24968481  0.16826719  0.80023830  1
  O2-  O408  1  0.74960293  0.51217145  0.88432152  1
  O2-  O409  1  0.75033320  0.50892391  0.63211955  1
  O2-  O410  1  0.75032384  0.51616899  0.35590164  1
  O2-  O411  1  0.74985657  0.16912996  0.68366173  1
  O2-  O412  1  0.24899921  0.82123979  0.92785096  1
  O2-  O413  1  0.25020268  0.84542795  0.32085071  1
  O2-  O414  1  0.25118689  0.13126860  0.08984083  1
  O2-  O415  1  0.74996695  0.83754119  0.15784463  1
  O2-  O416  1  0.25044230  0.80546709  0.83748664  1
  O2-  O417  1  0.74968324  0.51810838  0.12414408  1
  O2-  O418  1  0.75010124  0.84176420  0.40625773  1
  O2-  O419  1  0.25004547  0.50876643  0.62228881  1
  O2-  O420  1  0.01811783  0.31448553  0.87858340  1
  O2-  O421  1  0.97008335  0.33250905  0.38327198  1
  O2-  O422  1  0.04695193  0.65849778  0.89591782  1
  O2-  O423  1  0.95271487  -0.00906436  0.64103085  1
  O2-  O424  1  0.03757240  -0.00572689  0.62256893  1
  O2-  O425  1  0.45458346  0.35284993  0.35035984  1
  O2-  O426  1  0.95851369  0.68365787  0.86582350  1
  O2-  O427  1  0.04551993  0.67614082  0.60609585  1
  O2-  O428  1  0.96543660  0.00631495  0.88148892  1
  O2-  O429  1  0.46957758  0.00131825  0.12654281  1
  O2-  O430  1  0.01506975  0.01242763  0.12514431  1
  O2-  O431  1  0.48380595  0.31668293  0.87486177  1
  O2-  O432  1  0.47230953  0.66387482  0.37618733  1
  O2-  O433  1  0.54365459  0.34358915  0.36344131  1
  O2-  O434  1  0.45644073  0.31856151  0.16035021  1
  O2-  O435  1  0.96330130  0.67077617  0.62665584  1
  O2-  O436  1  0.45589507  0.64850035  0.15387619  1
  O2-  O437  1  0.97082113  0.32469335  0.62978901  1
  O2-  O438  1  0.54348229  0.31599377  0.11509286  1
  O2-  O439  1  0.53928638  0.70239770  0.12850522  1
  O2-  O440  1  0.02141273  -0.00538373  0.87808039  1
  O2-  O441  1  0.52700750  -0.00117899  0.87730553  1
  O2-  O442  1  0.50937495  0.66686634  0.61870609  1
  O2-  O443  1  0.51736853  0.68793770  0.87190996  1
