# generated using pymatgen
data_La7(Ru4O11)2
_symmetry_space_group_name_H-M   'P 1'
_cell_length_a   23.99129497
_cell_length_b   16.83245621
_cell_length_c   15.42842458
_cell_angle_alpha   89.99953453
_cell_angle_beta   90.00099745
_cell_angle_gamma   90.00098222
_symmetry_Int_Tables_number   1
_chemical_formula_structural   La7(Ru4O11)2
_chemical_formula_sum   'La84 Ru96 O264'
_cell_volume   6230.49806383
_cell_formula_units_Z   12
loop_
 _symmetry_equiv_pos_site_id
 _symmetry_equiv_pos_as_xyz
  1  'x, y, z'
loop_
 _atom_type_symbol
 _atom_type_oxidation_number
  La3+  3.0
  Ru4+  4.0
  O2-  -2.0
loop_
 _atom_site_type_symbol
 _atom_site_label
 _atom_site_symmetry_multiplicity
 _atom_site_fract_x
 _atom_site_fract_y
 _atom_site_fract_z
 _atom_site_occupancy
  La3+  La0  1  0.13088529  0.00380863  0.11802022  1
  La3+  La1  1  0.13525271  -0.00617812  0.39056498  1
  La3+  La2  1  0.13282296  -0.00725036  0.61349348  1
  La3+  La3  1  0.13142959  0.00993412  0.87932962  1
  La3+  La4  1  0.13757704  0.33440729  0.12521188  1
  La3+  La5  1  0.14124401  0.33731613  0.38556096  1
  La3+  La6  1  0.13732802  0.33368751  0.62262069  1
  La3+  La7  1  0.14255582  0.33099210  0.86859639  1
  La3+  La8  1  0.13164862  0.66678322  0.12906537  1
  La3+  La9  1  0.14576192  0.66887625  0.37134166  1
  La3+  La10  1  0.14120675  0.66463012  0.61708507  1
  La3+  La11  1  0.13414897  0.67058534  0.87866644  1
  La3+  La12  1  0.63816185  0.00710137  0.12464696  1
  La3+  La13  1  0.64530451  0.00183796  0.37277777  1
  La3+  La14  1  0.63712985  0.00589958  0.62545793  1
  La3+  La15  1  0.63146861  0.00842159  0.87727652  1
  La3+  La16  1  0.63798290  0.33136389  0.12479175  1
  La3+  La17  1  0.64987776  0.33445243  0.37582667  1
  La3+  La18  1  0.63923475  0.33276185  0.62636339  1
  La3+  La19  1  0.64123105  0.32900287  0.87625563  1
  La3+  La20  1  0.63764018  0.66599210  0.12586603  1
  La3+  La21  1  0.63708606  0.66628884  0.37489731  1
  La3+  La22  1  0.63951678  0.66194775  0.62911403  1
  La3+  La23  1  0.64195021  0.66396534  0.87028094  1
  La3+  La24  1  0.36289915  -0.00001625  0.13045420  1
  La3+  La25  1  0.36136550  0.00064230  0.37800726  1
  La3+  La26  1  0.35652514  0.00403442  0.61979839  1
  La3+  La27  1  0.36085936  0.00364027  0.87415474  1
  La3+  La28  1  0.36011006  0.33624904  0.12686637  1
  La3+  La29  1  0.35792246  0.33439287  0.38233527  1
  La3+  La30  1  0.36286936  0.32866381  0.62448269  1
  La3+  La31  1  0.36360575  0.32746672  0.86906070  1
  La3+  La32  1  0.36717461  0.67051056  0.12637511  1
  La3+  La33  1  0.35825692  0.66640711  0.37940286  1
  La3+  La34  1  0.36103080  0.66583157  0.61559206  1
  La3+  La35  1  0.36561289  0.67509208  0.87714389  1
  La3+  La36  1  0.85740255  0.00544219  0.12588278  1
  La3+  La37  1  0.85513196  0.00491114  0.37715465  1
  La3+  La38  1  0.85579042  0.00313675  0.63004354  1
  La3+  La39  1  0.86267245  0.00473438  0.87389466  1
  La3+  La40  1  0.85777925  0.33175594  0.12642444  1
  La3+  La41  1  0.85098579  0.33251758  0.37876572  1
  La3+  La42  1  0.85761180  0.33312352  0.62297822  1
  La3+  La43  1  0.85880464  0.32868602  0.87224859  1
  La3+  La44  1  0.86302848  0.66544136  0.12512891  1
  La3+  La45  1  0.86338510  0.66881891  0.37700291  1
  La3+  La46  1  0.86854712  0.67105324  0.63053480  1
  La3+  La47  1  0.86475104  0.67175448  0.86462708  1
  La3+  La48  1  -0.00534887  0.50791058  0.13925813  1
  La3+  La49  1  0.00204190  0.49774649  0.88506501  1
  La3+  La50  1  0.00400234  0.15662409  0.86706042  1
  La3+  La51  1  -0.00325272  0.82979760  0.11611254  1
  La3+  La52  1  0.00409088  0.84084649  0.63800222  1
  La3+  La53  1  0.50862553  0.82413196  0.87218130  1
  La3+  La54  1  0.49534418  0.16207766  0.63955738  1
  La3+  La55  1  0.00428500  0.49798168  0.36337937  1
  La3+  La56  1  0.50122458  0.83710745  0.63001249  1
  La3+  La57  1  0.00317385  0.16028741  0.12554739  1
  La3+  La58  1  0.00053605  0.83620522  0.61919226  1
  La3+  La59  1  0.01253661  0.83597833  0.37898778  1
  La3+  La60  1  0.50341266  0.17416805  0.62687780  1
  La3+  La61  1  0.00503929  0.15785352  0.10912626  1
  La3+  La62  1  0.49978699  0.17139375  0.11025673  1
  La3+  La63  1  -0.00627870  0.49080254  0.63437157  1
  La3+  La64  1  -0.00023307  0.16004038  0.88591917  1
  La3+  La65  1  0.00226219  0.17024394  0.37043021  1
  La3+  La66  1  0.49817676  0.83631665  0.36233355  1
  La3+  La67  1  0.49812969  0.83308140  0.11209554  1
  La3+  La68  1  0.50150817  0.50523171  0.38995639  1
  La3+  La69  1  0.49917697  0.16752968  0.36303747  1
  La3+  La70  1  0.49447923  0.50038322  0.37095301  1
  La3+  La71  1  0.00097776  0.50685817  0.38318519  1
  La3+  La72  1  0.74814028  0.87027270  0.49540999  1
  La3+  La73  1  0.75078063  0.89870174  0.25334758  1
  La3+  La74  1  0.25076574  0.16744563  0.21829813  1
  La3+  La75  1  0.74893264  0.78656983  0.69219551  1
  La3+  La76  1  0.25071633  0.57149923  0.27977347  1
  La3+  La77  1  0.25038088  0.83267989  0.44447515  1
  La3+  La78  1  0.24874169  0.83406467  0.79961714  1
  La3+  La79  1  0.74901110  0.84675301  0.02710665  1
  La3+  La80  1  0.24936634  0.78729451  0.04146033  1
  La3+  La81  1  0.25125943  0.49670488  -0.04415638  1
  La3+  La82  1  0.74993711  0.16176043  0.23728790  1
  La3+  La83  1  0.24976481  0.16281938  0.51282661  1
  Ru4+  Ru84  1  0.00269000  -0.00438201  -0.00186948  1
  Ru4+  Ru85  1  0.00064337  -0.00510234  0.24917592  1
  Ru4+  Ru86  1  0.00297384  0.00513849  0.49660202  1
  Ru4+  Ru87  1  0.00397218  -0.00480874  0.75111459  1
  Ru4+  Ru88  1  0.00323206  0.34454921  0.01198246  1
  Ru4+  Ru89  1  0.00055544  0.33427206  0.24043180  1
  Ru4+  Ru90  1  -0.00916712  0.32824291  0.49907757  1
  Ru4+  Ru91  1  0.00543340  0.32810398  0.73602779  1
  Ru4+  Ru92  1  -0.00435637  0.66454378  -0.00320173  1
  Ru4+  Ru93  1  -0.00704735  0.67626294  0.24920851  1
  Ru4+  Ru94  1  0.00547840  0.65882406  0.50306878  1
  Ru4+  Ru95  1  -0.00008565  0.66664325  0.75128272  1
  Ru4+  Ru96  1  0.49841401  -0.00492898  -0.00343127  1
  Ru4+  Ru97  1  0.50348524  0.00309297  0.24303338  1
  Ru4+  Ru98  1  0.49889290  -0.00155951  0.49448579  1
  Ru4+  Ru99  1  0.49939532  -0.00471482  0.75668126  1
  Ru4+  Ru100  1  0.50174586  0.32943640  0.00241436  1
  Ru4+  Ru101  1  0.50189050  0.33305814  0.24435747  1
  Ru4+  Ru102  1  0.49896746  0.33268608  0.49390106  1
  Ru4+  Ru103  1  0.50337214  0.34593953  0.74795115  1
  Ru4+  Ru104  1  0.50150972  0.65811284  0.00048221  1
  Ru4+  Ru105  1  0.49780821  0.66363180  0.24867704  1
  Ru4+  Ru106  1  0.50502351  0.67817278  0.49873256  1
  Ru4+  Ru107  1  0.51397217  0.65966989  0.75679040  1
  Ru4+  Ru108  1  0.11348029  0.16325966  0.00076372  1
  Ru4+  Ru109  1  0.11266409  0.16693588  0.24642364  1
  Ru4+  Ru110  1  0.11171257  0.16665652  0.50062355  1
  Ru4+  Ru111  1  0.11485088  0.17376718  0.74814301  1
  Ru4+  Ru112  1  0.10836791  0.49397570  -0.00346635  1
  Ru4+  Ru113  1  0.11557822  0.49406344  0.24829714  1
  Ru4+  Ru114  1  0.11653942  0.50637369  0.50103339  1
  Ru4+  Ru115  1  0.11129599  0.49830249  0.75085099  1
  Ru4+  Ru116  1  0.11332098  0.84286613  0.00107396  1
  Ru4+  Ru117  1  0.11151643  0.83254062  0.25519643  1
  Ru4+  Ru118  1  0.11240543  0.83463738  0.49872811  1
  Ru4+  Ru119  1  0.11076563  0.83536580  0.74787655  1
  Ru4+  Ru120  1  0.61549167  0.17172526  -0.00296175  1
  Ru4+  Ru121  1  0.61226368  0.16618099  0.25087217  1
  Ru4+  Ru122  1  0.61554448  0.16771362  0.49851318  1
  Ru4+  Ru123  1  0.61749233  0.17205982  0.74960759  1
  Ru4+  Ru124  1  0.60991458  0.49537653  0.00177036  1
  Ru4+  Ru125  1  0.61392394  0.49242635  0.24476366  1
  Ru4+  Ru126  1  0.61447515  0.49723300  0.50177887  1
  Ru4+  Ru127  1  0.60755054  0.50711374  0.74835948  1
  Ru4+  Ru128  1  0.60838690  0.83232058  0.00008266  1
  Ru4+  Ru129  1  0.60969898  0.83277591  0.25012280  1
  Ru4+  Ru130  1  0.60685212  0.83262781  0.50100693  1
  Ru4+  Ru131  1  0.61224445  0.83715116  0.74952734  1
  Ru4+  Ru132  1  0.39267634  0.17375941  -0.00071543  1
  Ru4+  Ru133  1  0.39049839  0.16418301  0.25029882  1
  Ru4+  Ru134  1  0.38638551  0.16646064  0.49608088  1
  Ru4+  Ru135  1  0.37916716  0.16481963  0.75192737  1
  Ru4+  Ru136  1  0.38886746  0.50000066  -0.00005499  1
  Ru4+  Ru137  1  0.39206843  0.50511442  0.24560261  1
  Ru4+  Ru138  1  0.38324171  0.49722184  0.50312905  1
  Ru4+  Ru139  1  0.38226893  0.49861313  0.75109443  1
  Ru4+  Ru140  1  0.38760844  0.84297233  0.00198798  1
  Ru4+  Ru141  1  0.38440448  0.82736697  0.25025308  1
  Ru4+  Ru142  1  0.38908147  0.83237959  0.50055542  1
  Ru4+  Ru143  1  0.38677911  0.83842886  0.74914196  1
  Ru4+  Ru144  1  0.88426584  0.16484748  0.00434393  1
  Ru4+  Ru145  1  0.88786894  0.16379048  0.25107683  1
  Ru4+  Ru146  1  0.88472243  0.16555810  0.50152922  1
  Ru4+  Ru147  1  0.88417155  0.17641039  0.74007712  1
  Ru4+  Ru148  1  0.88684180  0.49792790  -0.00165611  1
  Ru4+  Ru149  1  0.88580058  0.49727988  0.24857083  1
  Ru4+  Ru150  1  0.88379565  0.49992456  0.50083306  1
  Ru4+  Ru151  1  0.88776666  0.50319588  0.75003292  1
  Ru4+  Ru152  1  0.88985040  0.83339188  -0.00104738  1
  Ru4+  Ru153  1  0.89173871  0.82975870  0.24739285  1
  Ru4+  Ru154  1  0.88739334  0.83862541  0.50027896  1
  Ru4+  Ru155  1  0.88750117  0.83285524  0.75249469  1
  Ru4+  Ru156  1  0.25164241  0.08217742  0.00633546  1
  Ru4+  Ru157  1  0.74910734  0.08682132  0.74999496  1
  Ru4+  Ru158  1  0.74971349  0.42029377  0.75611540  1
  Ru4+  Ru159  1  0.24860964  0.95553386  0.70892885  1
  Ru4+  Ru160  1  0.24961760  0.41051641  0.74819088  1
  Ru4+  Ru161  1  0.24915293  0.57771208  0.73694975  1
  Ru4+  Ru162  1  0.24976679  0.24061616  -0.00305993  1
  Ru4+  Ru163  1  0.75034756  0.57240542  -0.00741316  1
  Ru4+  Ru164  1  0.74971013  0.57402848  0.49980537  1
  Ru4+  Ru165  1  0.74978733  0.71641342  0.50235217  1
  Ru4+  Ru166  1  0.75010999  0.57980163  0.25345263  1
  Ru4+  Ru167  1  0.25056935  0.41784653  0.27368919  1
  Ru4+  Ru168  1  0.24870600  0.03321786  0.22725937  1
  Ru4+  Ru169  1  0.75008884  0.73500603  0.25339719  1
  Ru4+  Ru170  1  0.74953899  0.98709807  0.00278608  1
  Ru4+  Ru171  1  0.24946785  0.90139408  0.25489166  1
  Ru4+  Ru172  1  0.74990135  0.41678529  -0.00159885  1
  Ru4+  Ru173  1  0.24987190  0.36651861  -0.01311124  1
  Ru4+  Ru174  1  0.75016377  0.93999645  0.74941702  1
  Ru4+  Ru175  1  0.25004531  0.61581867  0.02179081  1
  Ru4+  Ru176  1  0.25059661  0.28268054  0.28397901  1
  Ru4+  Ru177  1  0.24936146  0.93524908  0.01973738  1
  Ru4+  Ru178  1  0.75006340  0.70536583  -0.01753844  1
  Ru4+  Ru179  1  0.25006698  0.71853912  0.71020057  1
  O2-  O180  1  0.16769376  0.07978088  -0.00011634  1
  O2-  O181  1  0.16413053  0.07506889  0.24990227  1
  O2-  O182  1  0.16578122  0.07973425  0.50011150  1
  O2-  O183  1  0.15830125  0.08233846  0.75136138  1
  O2-  O184  1  0.16749808  0.41279465  0.00183389  1
  O2-  O185  1  0.16617746  0.41023160  0.25243125  1
  O2-  O186  1  0.16372509  0.41645165  0.50122316  1
  O2-  O187  1  0.16773453  0.41619751  0.74682862  1
  O2-  O188  1  0.16165092  0.74802194  -0.00323051  1
  O2-  O189  1  0.16231011  0.74982806  0.24691851  1
  O2-  O190  1  0.16611903  0.74932816  0.49822741  1
  O2-  O191  1  0.16469818  0.74383521  0.74845252  1
  O2-  O192  1  0.66556611  0.07905278  -0.00224550  1
  O2-  O193  1  0.66770681  0.08285690  0.25133915  1
  O2-  O194  1  0.66590918  0.08050383  0.50193784  1
  O2-  O195  1  0.66667196  0.08181995  0.75140801  1
  O2-  O196  1  0.66798342  0.41358526  0.00012854  1
  O2-  O197  1  0.66931758  0.41557626  0.24838294  1
  O2-  O198  1  0.66367382  0.41483777  0.50411955  1
  O2-  O199  1  0.66593312  0.41769362  0.74821833  1
  O2-  O200  1  0.66619712  0.74264476  0.00205427  1
  O2-  O201  1  0.66682113  0.74637963  0.25031876  1
  O2-  O202  1  0.66780198  0.74527294  0.49898826  1
  O2-  O203  1  0.66471141  0.74649540  0.75048229  1
  O2-  O204  1  0.33262882  0.25168248  -0.00278868  1
  O2-  O205  1  0.33426500  0.25631736  0.25086759  1
  O2-  O206  1  0.33087007  0.25264337  0.50238162  1
  O2-  O207  1  0.33385509  0.25230963  0.74960422  1
  O2-  O208  1  0.33594223  0.58989822  0.00110944  1
  O2-  O209  1  0.33915324  0.58881504  0.23989381  1
  O2-  O210  1  0.33440415  0.58291883  0.49944654  1
  O2-  O211  1  0.33080392  0.58411934  0.74879558  1
  O2-  O212  1  0.33165205  0.92177732  0.00112389  1
  O2-  O213  1  0.33404466  0.91702918  0.25012694  1
  O2-  O214  1  0.33595803  0.91742986  0.49841108  1
  O2-  O215  1  0.33342850  0.92106105  0.74869070  1
  O2-  O216  1  0.83761447  0.25287982  -0.00070932  1
  O2-  O217  1  0.83340988  0.25232549  0.24921248  1
  O2-  O218  1  0.83210070  0.24766345  0.50329159  1
  O2-  O219  1  0.82902567  0.25099307  0.75153291  1
  O2-  O220  1  0.83571884  0.58589942  -0.00040686  1
  O2-  O221  1  0.83152355  0.58720595  0.25271850  1
  O2-  O222  1  0.83229243  0.58827635  0.50122545  1
  O2-  O223  1  0.83742645  0.58687996  0.74957313  1
  O2-  O224  1  0.83491541  0.92306241  -0.00137782  1
  O2-  O225  1  0.84423977  0.92186396  0.24952148  1
  O2-  O226  1  0.83170850  0.92113822  0.49734581  1
  O2-  O227  1  0.83675605  0.91859700  0.75305145  1
  O2-  O228  1  0.16473345  0.25149675  0.00010384  1
  O2-  O229  1  0.16807974  0.25596661  0.25238185  1
  O2-  O230  1  0.16529700  0.25330025  0.50211527  1
  O2-  O231  1  0.16773371  0.25105237  0.74540775  1
  O2-  O232  1  0.16372256  0.58836214  0.00020826  1
  O2-  O233  1  0.16152380  0.58849153  0.24462578  1
  O2-  O234  1  0.16783943  0.58525695  0.50135939  1
  O2-  O235  1  0.16383188  0.58485810  0.74898742  1
  O2-  O236  1  0.16502024  0.92354201  0.00051091  1
  O2-  O237  1  0.16517053  0.92006576  0.24994862  1
  O2-  O238  1  0.16930711  0.91563751  0.49851056  1
  O2-  O239  1  0.16472835  0.92268256  0.74912900  1
  O2-  O240  1  0.66811888  0.25019153  0.00024998  1
  O2-  O241  1  0.66766183  0.25250109  0.25063557  1
  O2-  O242  1  0.66507088  0.25155908  0.50362096  1
  O2-  O243  1  0.67038282  0.25133929  0.74998630  1
  O2-  O244  1  0.66375652  0.58383854  0.00089914  1
  O2-  O245  1  0.66524268  0.58589479  0.25089965  1
  O2-  O246  1  0.66714594  0.58661792  0.50067170  1
  O2-  O247  1  0.66719644  0.58140477  0.74870938  1
  O2-  O248  1  0.66573575  0.92460720  -0.00127271  1
  O2-  O249  1  0.65875901  0.92136490  0.24769523  1
  O2-  O250  1  0.66251747  0.92403991  0.50160741  1
  O2-  O251  1  0.66526115  0.92321992  0.74998471  1
  O2-  O252  1  0.33705817  0.08282361  -0.00048788  1
  O2-  O253  1  0.33476788  0.07866750  0.25295090  1
  O2-  O254  1  0.33333664  0.08173518  0.49988922  1
  O2-  O255  1  0.33661078  0.07764389  0.75124456  1
  O2-  O256  1  0.33639460  0.41096861  -0.00205807  1
  O2-  O257  1  0.33675340  0.41555663  0.25263808  1
  O2-  O258  1  0.33543723  0.41432172  0.50387340  1
  O2-  O259  1  0.33324126  0.41100547  0.74938668  1
  O2-  O260  1  0.33815471  0.75076814  0.00283158  1
  O2-  O261  1  0.33329570  0.74987412  0.24740144  1
  O2-  O262  1  0.33317985  0.75047651  0.49701012  1
  O2-  O263  1  0.33375792  0.74626589  0.74767508  1
  O2-  O264  1  0.83102451  0.07824539  -0.00204435  1
  O2-  O265  1  0.83257122  0.08255099  0.24861687  1
  O2-  O266  1  0.82872222  0.08693907  0.49586173  1
  O2-  O267  1  0.83182278  0.08605094  0.75392694  1
  O2-  O268  1  0.83285875  0.41497665  0.00096167  1
  O2-  O269  1  0.83620883  0.41406630  0.25022256  1
  O2-  O270  1  0.83440844  0.41678598  0.50062580  1
  O2-  O271  1  0.83227150  0.41544073  0.74923050  1
  O2-  O272  1  0.83070333  0.74195761  -0.00223317  1
  O2-  O273  1  0.83455762  0.74640501  0.25199367  1
  O2-  O274  1  0.83384235  0.74632690  0.50057130  1
  O2-  O275  1  0.83142186  0.74545659  0.75212250  1
  O2-  O276  1  0.94979534  0.43386904  0.50600477  1
  O2-  O277  1  0.45115166  0.23640502  0.23626378  1
  O2-  O278  1  0.04857135  0.75920966  0.48624859  1
  O2-  O279  1  0.05788298  0.09229433  0.48048766  1
  O2-  O280  1  0.04411073  0.57195559  0.73789279  1
  O2-  O281  1  0.96364577  0.77098530  0.74229964  1
  O2-  O282  1  0.46597443  0.55416957  0.74920542  1
  O2-  O283  1  0.04537865  0.09563359  0.23509985  1
  O2-  O284  1  0.04957934  0.42095671  0.51677823  1
  O2-  O285  1  0.46254719  0.20824419  0.96010408  1
  O2-  O286  1  0.45371126  0.43274508  0.51272758  1
  O2-  O287  1  0.45586032  0.75629744  0.99023355  1
  O2-  O288  1  0.44944049  0.75484364  0.73147348  1
  O2-  O289  1  0.54703691  0.08708650  0.01650300  1
  O2-  O290  1  0.95532168  0.09277614  0.73618440  1
  O2-  O291  1  0.46402308  0.55072602  0.74556875  1
  O2-  O292  1  0.45608962  0.90113044  0.51046947  1
  O2-  O293  1  0.95400264  0.89929420  0.44690099  1
  O2-  O294  1  0.45349970  0.90486338  0.76331084  1
  O2-  O295  1  0.54964186  0.23213520  0.24072782  1
  O2-  O296  1  0.95484243  0.23080451  0.25236240  1
  O2-  O297  1  0.95513062  0.56663957  0.00669342  1
  O2-  O298  1  0.05169833  0.42684718  0.47834672  1
  O2-  O299  1  0.46406161  0.89350908  0.96200020  1
  O2-  O300  1  0.04645696  0.09508734  0.99091590  1
  O2-  O301  1  0.44935793  0.75535260  0.77069551  1
  O2-  O302  1  0.04720937  0.23829103  0.01305356  1
  O2-  O303  1  0.95221245  0.23550976  0.79164439  1
  O2-  O304  1  0.95792132  0.89783912  0.24061559  1
  O2-  O305  1  0.45146416  0.23831601  0.74246922  1
  O2-  O306  1  0.45877613  0.53729967  0.20253635  1
  O2-  O307  1  0.96124687  0.10981805  0.47681836  1
  O2-  O308  1  0.04350787  0.57026267  0.24607811  1
  O2-  O309  1  0.94816895  0.76012967  0.49037461  1
  O2-  O310  1  0.55121183  0.76371176  0.73679443  1
  O2-  O311  1  0.55237275  0.09429384  0.73651663  1
  O2-  O312  1  0.95413248  0.77494655  0.71800641  1
  O2-  O313  1  0.54934060  0.10361866  0.98196776  1
  O2-  O314  1  0.54552151  0.09696566  0.50652429  1
  O2-  O315  1  0.55272913  0.57198313  0.26041270  1
  O2-  O316  1  0.04953564  0.76350680  0.00882902  1
  O2-  O317  1  0.44981492  0.89975065  0.23518970  1
  O2-  O318  1  0.96308701  0.11472759  0.48944717  1
  O2-  O319  1  0.44821168  0.57480434  0.48959732  1
  O2-  O320  1  0.03903161  0.55996544  0.54170298  1
  O2-  O321  1  0.54907648  0.43326009  0.73893747  1
  O2-  O322  1  0.04634388  0.89952926  0.51703473  1
  O2-  O323  1  0.03589466  0.45843414  0.03332440  1
  O2-  O324  1  0.43587357  0.07522009  0.47581095  1
  O2-  O325  1  0.94556482  0.25649176  0.82176486  1
  O2-  O326  1  0.06883264  0.38251662  0.93849510  1
  O2-  O327  1  0.93388270  0.74544313  0.02339091  1
  O2-  O328  1  0.56569299  0.41367492  0.18485543  1
  O2-  O329  1  0.56314135  0.60010957  0.67653099  1
  O2-  O330  1  0.92835845  0.73081354  0.72756862  1
  O2-  O331  1  0.06367250  0.58657559  0.23053783  1
  O2-  O332  1  0.43775308  0.93053922  0.22660556  1
  O2-  O333  1  0.56582572  0.59504854  0.82096406  1
  O2-  O334  1  0.56179669  0.07642565  0.22815006  1
  O2-  O335  1  0.56772336  0.25930672  0.97530563  1
  O2-  O336  1  0.43549607  0.25549983  0.71865054  1
  O2-  O337  1  0.05896498  0.91568158  0.52763788  1
  O2-  O338  1  0.06448614  0.93151877  0.46952244  1
  O2-  O339  1  0.93327610  0.59238892  0.23113255  1
  O2-  O340  1  0.91312027  0.05572283  0.55383222  1
  O2-  O341  1  0.06386385  0.26136309  0.67695991  1
  O2-  O342  1  0.56597466  0.25851789  0.72195294  1
  O2-  O343  1  0.06865745  0.61515989  0.42853126  1
  O2-  O344  1  0.06506248  0.06986899  0.04114313  1
  O2-  O345  1  0.93823025  0.40321645  0.96123832  1
  O2-  O346  1  0.06384207  0.25390362  0.22784517  1
  O2-  O347  1  0.93957443  0.73136923  0.47062693  1
  O2-  O348  1  0.56066003  0.73993886  0.21517632  1
  O2-  O349  1  0.06568799  0.73947943  0.02370601  1
  O2-  O350  1  0.42146570  0.59723868  0.81386782  1
  O2-  O351  1  0.93318817  0.26020895  0.47135752  1
  O2-  O352  1  0.56289519  0.41169529  0.02273453  1
  O2-  O353  1  0.05990065  0.40856435  0.77858186  1
  O2-  O354  1  0.91877527  0.91786027  0.56798144  1
  O2-  O355  1  0.56168356  0.92297877  0.28798122  1
  O2-  O356  1  0.43574991  0.25644743  0.52797790  1
  O2-  O357  1  0.93687332  0.06867657  0.28476040  1
  O2-  O358  1  0.93143100  0.08163295  0.73279696  1
  O2-  O359  1  0.42855467  0.28185015  0.05861128  1
  O2-  O360  1  0.42924535  0.60441032  0.67507051  1
  O2-  O361  1  0.43257133  0.74857308  0.97735408  1
  O2-  O362  1  0.43760324  0.59572564  0.46229660  1
  O2-  O363  1  0.92016808  0.25613148  0.66804252  1
  O2-  O364  1  0.44149804  0.74781621  0.28283758  1
  O2-  O365  1  0.56079665  0.07314632  0.70749685  1
  O2-  O366  1  0.42926596  0.94852053  0.06275769  1
  O2-  O367  1  0.05867567  0.07954012  0.97898519  1
  O2-  O368  1  0.56654054  0.41434189  0.31282383  1
  O2-  O369  1  0.06477706  0.25600817  0.82698966  1
  O2-  O370  1  0.93470389  0.06817171  0.96522447  1
  O2-  O371  1  0.43079703  0.60761146  0.31089342  1
  O2-  O372  1  0.24968614  0.65993839  0.81694204  1
  O2-  O373  1  0.75014869  0.00609509  0.86045221  1
  O2-  O374  1  0.75044398  0.66072809  0.35349243  1
  O2-  O375  1  0.75016146  -0.00627375  0.13572884  1
  O2-  O376  1  0.74860305  0.00680757  0.64238707  1
  O2-  O377  1  0.75132856  0.32856510  0.39764500  1
  O2-  O378  1  0.25045462  0.00077752  0.60167616  1
  O2-  O379  1  0.75123219  0.66779891  0.86346614  1
  O2-  O380  1  0.75024721  0.00027642  0.35403176  1
  O2-  O381  1  0.24975045  0.01135399  0.80507923  1
  O2-  O382  1  0.74998519  0.66008324  0.14814324  1
  O2-  O383  1  0.74976290  0.33249009  0.82652921  1
  O2-  O384  1  0.25052052  0.32457440  0.10913860  1
  O2-  O385  1  0.24953907  0.67862851  0.35712357  1
  O2-  O386  1  0.24950005  0.66466104  0.60499279  1
  O2-  O387  1  0.25148926  0.33969157  0.85294430  1
  O2-  O388  1  0.24944750  0.67623513  0.12709140  1
  O2-  O389  1  0.74964893  0.32900676  0.91769488  1
  O2-  O390  1  0.25026708  0.69107584  0.93344844  1
  O2-  O391  1  0.25030137  -0.00230018  0.43234899  1
  O2-  O392  1  0.24892715  -0.01726477  0.34298824  1
  O2-  O393  1  0.25004624  0.00284338  0.92507339  1
  O2-  O394  1  0.75062533  0.66489245  0.63376089  1
  O2-  O395  1  0.24851121  0.33199961  0.39264732  1
  O2-  O396  1  0.25009595  0.47835030  0.37993649  1
  O2-  O397  1  0.25019503  0.49133183  0.66216204  1
  O2-  O398  1  0.25048499  0.83494384  0.66181877  1
  O2-  O399  1  0.74984174  0.49706077  0.17582614  1
  O2-  O400  1  0.25010493  0.47260468  0.17390173  1
  O2-  O401  1  0.75021408  0.82692744  0.89591562  1
  O2-  O402  1  0.75013510  0.49792922  0.90088125  1
  O2-  O403  1  0.75008085  0.84574933  0.81279417  1
  O2-  O404  1  0.25083253  0.16860339  0.64752506  1
  O2-  O405  1  0.24956862  0.16217528  0.91438361  1
  O2-  O406  1  0.24977082  0.83797113  0.16625515  1
  O2-  O407  1  0.75032156  0.50103153  0.08357279  1
  O2-  O408  1  0.24980523  0.16624617  0.82985249  1
  O2-  O409  1  0.25023836  0.85363817  0.92541863  1
  O2-  O410  1  0.24991053  0.16932296  0.36295825  1
  O2-  O411  1  0.24961968  0.52068406  0.09111211  1
  O2-  O412  1  0.24945922  0.83278802  0.57450149  1
  O2-  O413  1  0.25017563  0.49825188  0.57702578  1
  O2-  O414  1  0.74991726  0.51127004  0.40878176  1
  O2-  O415  1  0.75064829  0.16898812  0.10790388  1
  O2-  O416  1  0.74997026  0.81154094  0.36774337  1
  O2-  O417  1  0.24977131  0.16672334  0.08557858  1
  O2-  O418  1  0.75047113  0.80529430  0.15366199  1
  O2-  O419  1  0.24949720  0.50002061  0.82540274  1
  O2-  O420  1  0.04319367  0.34010214  0.12359102  1
  O2-  O421  1  0.96832618  -0.01508006  0.64524485  1
  O2-  O422  1  0.53009152  0.67152825  0.37606688  1
  O2-  O423  1  0.04752684  0.01194855  0.64108812  1
  O2-  O424  1  0.52735504  -0.00437559  0.87710099  1
  O2-  O425  1  0.97096315  0.00425898  0.12031075  1
  O2-  O426  1  0.48625254  0.67091641  0.88347909  1
  O2-  O427  1  0.02736181  0.66245265  0.87524881  1
  O2-  O428  1  0.97286575  0.66159543  0.62012801  1
  O2-  O429  1  0.96441445  0.67190145  0.12624160  1
  O2-  O430  1  0.97853743  0.34491096  0.36746907  1
  O2-  O431  1  0.47216445  0.34556482  0.63089807  1
  O2-  O432  1  0.03746165  0.66471397  0.12699558  1
  O2-  O433  1  0.54522220  0.31651888  0.39901894  1
  O2-  O434  1  0.52624841  -0.01211287  0.11904371  1
  O2-  O435  1  0.53295944  0.33774631  0.61181030  1
  O2-  O436  1  0.98087440  0.34901234  0.61977560  1
  O2-  O437  1  0.95176947  0.33100420  0.12129052  1
  O2-  O438  1  0.47341306  0.67254295  0.12035872  1
  O2-  O439  1  0.52833130  0.33796636  0.87027105  1
  O2-  O440  1  0.45336240  0.33421473  0.36968248  1
  O2-  O441  1  0.47543207  -0.00509100  0.36289136  1
  O2-  O442  1  0.46993202  0.34232018  0.87020390  1
  O2-  O443  1  0.52010272  0.31511517  0.11986604  1
