# generated using pymatgen
data_La7(Ru4O11)2
_symmetry_space_group_name_H-M   'P 1'
_cell_length_a   23.99429216
_cell_length_b   16.83329043
_cell_length_c   15.42958564
_cell_angle_alpha   89.99726647
_cell_angle_beta   90.00230969
_cell_angle_gamma   90.00014163
_symmetry_Int_Tables_number   1
_chemical_formula_structural   La7(Ru4O11)2
_chemical_formula_sum   'La84 Ru96 O264'
_cell_volume   6232.05419798
_cell_formula_units_Z   12
loop_
 _symmetry_equiv_pos_site_id
 _symmetry_equiv_pos_as_xyz
  1  'x, y, z'
loop_
 _atom_type_symbol
 _atom_type_oxidation_number
  La3+  3.0
  Ru4+  4.0
  O2-  -2.0
loop_
 _atom_site_type_symbol
 _atom_site_label
 _atom_site_symmetry_multiplicity
 _atom_site_fract_x
 _atom_site_fract_y
 _atom_site_fract_z
 _atom_site_occupancy
  La3+  La0  1  0.14134657  0.00381177  0.12181910  1
  La3+  La1  1  0.14550035  -0.00271166  0.38417166  1
  La3+  La2  1  0.13159748  0.00136877  0.62071172  1
  La3+  La3  1  0.13743305  0.00225667  0.87213236  1
  La3+  La4  1  0.14558450  0.32596344  0.11917287  1
  La3+  La5  1  0.14692145  0.33173743  0.38147628  1
  La3+  La6  1  0.14421927  0.33085145  0.62316035  1
  La3+  La7  1  0.13369257  0.32803181  0.88237094  1
  La3+  La8  1  0.13671282  0.66306640  0.12101040  1
  La3+  La9  1  0.14036344  0.67565303  0.38210150  1
  La3+  La10  1  0.14315808  0.67812375  0.63266600  1
  La3+  La11  1  0.14978703  0.65556473  0.87929082  1
  La3+  La12  1  0.64771302  -0.01066720  0.12160184  1
  La3+  La13  1  0.64271975  -0.00178558  0.37288571  1
  La3+  La14  1  0.63997926  -0.00103445  0.62606093  1
  La3+  La15  1  0.64663810  -0.00212154  0.87588463  1
  La3+  La16  1  0.63665440  0.34066134  0.11729020  1
  La3+  La17  1  0.64075543  0.33630922  0.37545527  1
  La3+  La18  1  0.63154365  0.33245916  0.62952934  1
  La3+  La19  1  0.64480273  0.33755200  0.87806563  1
  La3+  La20  1  0.63293509  0.67248934  0.11660091  1
  La3+  La21  1  0.64184465  0.66643578  0.37836886  1
  La3+  La22  1  0.64082640  0.66354247  0.62270741  1
  La3+  La23  1  0.64052884  0.67469148  0.88101718  1
  La3+  La24  1  0.35725589  0.00653255  0.12587729  1
  La3+  La25  1  0.35416087  -0.00280482  0.38055382  1
  La3+  La26  1  0.36142509  -0.00099921  0.62045252  1
  La3+  La27  1  0.35961686  0.00266681  0.87554644  1
  La3+  La28  1  0.35598239  0.33065531  0.12016980  1
  La3+  La29  1  0.36032202  0.33428308  0.38036141  1
  La3+  La30  1  0.34971573  0.33539132  0.62709552  1
  La3+  La31  1  0.36365587  0.33598198  0.87329372  1
  La3+  La32  1  0.35831393  0.65906125  0.12802973  1
  La3+  La33  1  0.35797445  0.67135655  0.37709040  1
  La3+  La34  1  0.36518303  0.67083270  0.63109339  1
  La3+  La35  1  0.36755945  0.66631618  0.87309827  1
  La3+  La36  1  0.85160017  -0.00613548  0.11818274  1
  La3+  La37  1  0.85608471  -0.00434584  0.37558375  1
  La3+  La38  1  0.86665686  -0.00601276  0.62888751  1
  La3+  La39  1  0.85650986  -0.00077346  0.86943216  1
  La3+  La40  1  0.86247502  0.34100262  0.12531300  1
  La3+  La41  1  0.86725083  0.33695994  0.37005905  1
  La3+  La42  1  0.86752021  0.33130928  0.62717539  1
  La3+  La43  1  0.85386460  0.33556969  0.87510665  1
  La3+  La44  1  0.85978079  0.66367848  0.12049846  1
  La3+  La45  1  0.86168023  0.66350936  0.37822328  1
  La3+  La46  1  0.86334701  0.66222512  0.61875478  1
  La3+  La47  1  0.86008817  0.67029192  0.88457057  1
  La3+  La48  1  -0.01327943  0.83303996  0.13925770  1
  La3+  La49  1  0.00014642  0.16474820  0.10853767  1
  La3+  La50  1  0.49943919  0.82350895  0.38051138  1
  La3+  La51  1  0.49765769  0.16973888  0.88213956  1
  La3+  La52  1  0.50363056  0.16492848  0.11908886  1
  La3+  La53  1  0.50005031  0.16733802  0.36614337  1
  La3+  La54  1  0.50288804  0.16792047  0.61938359  1
  La3+  La55  1  0.49762942  0.50473718  0.11388753  1
  La3+  La56  1  -0.00172595  0.83650113  0.62636977  1
  La3+  La57  1  0.50139845  0.49954491  0.37344966  1
  La3+  La58  1  -0.00730116  0.84629884  0.12482032  1
  La3+  La59  1  0.00100342  0.16554653  0.61516431  1
  La3+  La60  1  -0.00346621  0.50742079  0.87099475  1
  La3+  La61  1  -0.00306850  0.17546859  0.12718785  1
  La3+  La62  1  -0.00105493  0.16908184  0.37285992  1
  La3+  La63  1  -0.00254869  0.50768993  0.12055524  1
  La3+  La64  1  0.49379690  0.17387812  0.35494497  1
  La3+  La65  1  0.49864087  0.17615702  0.63887821  1
  La3+  La66  1  -0.00248161  0.49982631  0.37686068  1
  La3+  La67  1  0.50159745  0.83315954  0.62786270  1
  La3+  La68  1  0.00315846  0.16634968  0.86654461  1
  La3+  La69  1  -0.00023815  0.82532812  0.38940146  1
  La3+  La70  1  0.49560008  0.82517466  0.12236168  1
  La3+  La71  1  0.50459950  0.84023921  0.86610751  1
  La3+  La72  1  0.25077526  0.83179426  0.51326010  1
  La3+  La73  1  0.25075666  0.12207632  0.72651107  1
  La3+  La74  1  0.75098662  0.12090569  0.21063092  1
  La3+  La75  1  0.24925297  0.16950323  0.46562241  1
  La3+  La76  1  0.25109818  0.49173871  -0.02835814  1
  La3+  La77  1  0.75044990  0.16257544  0.73545975  1
  La3+  La78  1  0.74930304  0.88151932  0.79815127  1
  La3+  La79  1  0.74845573  0.12633736  0.00032696  1
  La3+  La80  1  0.24765428  0.45794099  0.55029409  1
  La3+  La81  1  0.25037160  0.81657709  0.07116510  1
  La3+  La82  1  0.24802054  0.54860632  0.28211947  1
  La3+  La83  1  0.75001934  0.44601895  0.71644527  1
  Ru4+  Ru84  1  0.00155431  -0.00233623  -0.00258908  1
  Ru4+  Ru85  1  -0.00281213  0.00070280  0.25803161  1
  Ru4+  Ru86  1  0.00003333  0.00272528  0.50212196  1
  Ru4+  Ru87  1  0.00675044  -0.00108900  0.75871289  1
  Ru4+  Ru88  1  -0.00368775  0.34242029  0.00161375  1
  Ru4+  Ru89  1  0.00070759  0.33406617  0.25441516  1
  Ru4+  Ru90  1  0.00095845  0.33317703  0.50246247  1
  Ru4+  Ru91  1  -0.01128991  0.31989236  0.74044248  1
  Ru4+  Ru92  1  0.00897371  0.67499205  -0.00226626  1
  Ru4+  Ru93  1  0.00067042  0.66531534  0.24539744  1
  Ru4+  Ru94  1  0.00924093  0.65632562  0.50423020  1
  Ru4+  Ru95  1  -0.00086818  0.66601207  0.74366565  1
  Ru4+  Ru96  1  0.50280705  -0.00253702  -0.00383750  1
  Ru4+  Ru97  1  0.50710902  -0.00338117  0.24286161  1
  Ru4+  Ru98  1  0.49420534  -0.00116007  0.50621925  1
  Ru4+  Ru99  1  0.50285395  -0.00494925  0.74609161  1
  Ru4+  Ru100  1  0.49782362  0.32642613  0.01142119  1
  Ru4+  Ru101  1  0.49738022  0.33813191  0.24876310  1
  Ru4+  Ru102  1  0.49728625  0.34055095  0.50252263  1
  Ru4+  Ru103  1  0.49814508  0.34367696  0.74527708  1
  Ru4+  Ru104  1  0.49246580  0.66868231  0.00048681  1
  Ru4+  Ru105  1  0.49437755  0.66578143  0.26181907  1
  Ru4+  Ru106  1  0.50352733  0.66802072  0.50568807  1
  Ru4+  Ru107  1  0.49714014  0.65129694  0.72431569  1
  Ru4+  Ru108  1  0.11899240  0.16373087  -0.00439528  1
  Ru4+  Ru109  1  0.11344992  0.17154289  0.25359285  1
  Ru4+  Ru110  1  0.11240393  0.16495189  0.50020541  1
  Ru4+  Ru111  1  0.10878046  0.16955321  0.75050998  1
  Ru4+  Ru112  1  0.11136224  0.49609243  -0.00089540  1
  Ru4+  Ru113  1  0.10932244  0.49799017  0.25272986  1
  Ru4+  Ru114  1  0.10046240  0.50914288  0.50777791  1
  Ru4+  Ru115  1  0.11261513  0.49796367  0.74836901  1
  Ru4+  Ru116  1  0.11089961  0.82822979  -0.00968409  1
  Ru4+  Ru117  1  0.11319333  0.83538802  0.25255822  1
  Ru4+  Ru118  1  0.11230542  0.83621423  0.49987349  1
  Ru4+  Ru119  1  0.10853724  0.82973701  0.75885916  1
  Ru4+  Ru120  1  0.60803490  0.16422088  -0.00258092  1
  Ru4+  Ru121  1  0.61129970  0.15769089  0.24822421  1
  Ru4+  Ru122  1  0.61355520  0.17236414  0.49735612  1
  Ru4+  Ru123  1  0.61501839  0.16703497  0.75341810  1
  Ru4+  Ru124  1  0.61590079  0.50555192  0.00050907  1
  Ru4+  Ru125  1  0.61279935  0.50402843  0.25174364  1
  Ru4+  Ru126  1  0.60925615  0.49970142  0.49998487  1
  Ru4+  Ru127  1  0.60355038  0.50026938  0.74748132  1
  Ru4+  Ru128  1  0.61590581  0.84044444  -0.00381405  1
  Ru4+  Ru129  1  0.61152774  0.83659920  0.25357378  1
  Ru4+  Ru130  1  0.61237441  0.83629590  0.49882610  1
  Ru4+  Ru131  1  0.60792659  0.83417294  0.74593509  1
  Ru4+  Ru132  1  0.38428922  0.16961641  0.00027309  1
  Ru4+  Ru133  1  0.38534556  0.16361437  0.24403674  1
  Ru4+  Ru134  1  0.38574823  0.16524055  0.50009616  1
  Ru4+  Ru135  1  0.38732992  0.17086491  0.75860863  1
  Ru4+  Ru136  1  0.39005203  0.50410389  -0.00274311  1
  Ru4+  Ru137  1  0.38861779  0.49971424  0.25123782  1
  Ru4+  Ru138  1  0.39016629  0.50115162  0.49902656  1
  Ru4+  Ru139  1  0.39031991  0.49825056  0.75553465  1
  Ru4+  Ru140  1  0.39014017  0.82629755  0.00040032  1
  Ru4+  Ru141  1  0.38922987  0.83412839  0.25062473  1
  Ru4+  Ru142  1  0.39427611  0.83448875  0.49700883  1
  Ru4+  Ru143  1  0.38427652  0.83795571  0.74657317  1
  Ru4+  Ru144  1  0.88846576  0.16614388  0.00270597  1
  Ru4+  Ru145  1  0.88528927  0.16631690  0.25394917  1
  Ru4+  Ru146  1  0.88563405  0.16241629  0.49810584  1
  Ru4+  Ru147  1  0.89039005  0.17150386  0.75534756  1
  Ru4+  Ru148  1  0.88461733  0.49695376  -0.00578956  1
  Ru4+  Ru149  1  0.88019417  0.50677808  0.25064869  1
  Ru4+  Ru150  1  0.87979879  0.50025636  0.49786652  1
  Ru4+  Ru151  1  0.89485075  0.50695606  0.74587346  1
  Ru4+  Ru152  1  0.88786496  0.82651196  -0.00860534  1
  Ru4+  Ru153  1  0.88496220  0.83371753  0.25610949  1
  Ru4+  Ru154  1  0.88798151  0.83654668  0.49937282  1
  Ru4+  Ru155  1  0.88627559  0.82632441  0.75114994  1
  Ru4+  Ru156  1  0.74862369  0.75702311  0.24497255  1
  Ru4+  Ru157  1  0.24969422  0.91257259  0.74049419  1
  Ru4+  Ru158  1  0.74978193  0.07733643  0.49818157  1
  Ru4+  Ru159  1  0.24903554  0.08805311  0.26486264  1
  Ru4+  Ru160  1  0.25206560  0.59742500  0.51048242  1
  Ru4+  Ru161  1  0.24971680  0.76571643  0.24816123  1
  Ru4+  Ru162  1  0.74931925  0.42488613  0.25307697  1
  Ru4+  Ru163  1  0.74986242  0.73486471  0.73392979  1
  Ru4+  Ru164  1  0.25024127  0.24674779  0.25302958  1
  Ru4+  Ru165  1  0.74877472  0.57194471  0.24270865  1
  Ru4+  Ru166  1  0.24812304  0.26683110  0.76348777  1
  Ru4+  Ru167  1  0.75106397  0.26238495  0.50313468  1
  Ru4+  Ru168  1  0.25051265  0.93843945  -0.01579612  1
  Ru4+  Ru169  1  0.25104871  0.57955088  0.74994251  1
  Ru4+  Ru170  1  0.25170348  0.75173153  0.74348189  1
  Ru4+  Ru171  1  0.75019036  0.74881794  0.50381913  1
  Ru4+  Ru172  1  0.25067631  0.38877452  0.26379708  1
  Ru4+  Ru173  1  0.74807047  0.26407840  0.25798018  1
  Ru4+  Ru174  1  0.74987606  0.42326680  0.48999034  1
  Ru4+  Ru175  1  0.25149360  0.68163571  -0.00729877  1
  Ru4+  Ru176  1  0.75114275  0.28100213  -0.02503504  1
  Ru4+  Ru177  1  0.25040363  0.90662039  0.26937923  1
  Ru4+  Ru178  1  0.74976716  0.57962674  0.00876370  1
  Ru4+  Ru179  1  0.74865177  0.59387766  0.75976664  1
  O2-  O180  1  0.16338020  0.07816975  -0.00251698  1
  O2-  O181  1  0.16589833  0.07955727  0.25390312  1
  O2-  O182  1  0.16945136  0.08034206  0.50168183  1
  O2-  O183  1  0.16208523  0.07348359  0.74580846  1
  O2-  O184  1  0.16584956  0.41171339  -0.00633857  1
  O2-  O185  1  0.16702972  0.41551733  0.25209663  1
  O2-  O186  1  0.15823340  0.41839896  0.50561106  1
  O2-  O187  1  0.16111974  0.41197068  0.75302789  1
  O2-  O188  1  0.17612497  0.74606661  0.00613677  1
  O2-  O189  1  0.16683074  0.75187507  0.24539608  1
  O2-  O190  1  0.16912137  0.75399089  0.50712665  1
  O2-  O191  1  0.17388747  0.75627543  0.74800686  1
  O2-  O192  1  0.65851316  0.07747556  -0.00352027  1
  O2-  O193  1  0.66844492  0.07646915  0.25221942  1
  O2-  O194  1  0.66576212  0.07992771  0.50020936  1
  O2-  O195  1  0.66829307  0.08105970  0.74797989  1
  O2-  O196  1  0.66635463  0.41793034  -0.00005975  1
  O2-  O197  1  0.66663868  0.41409287  0.25139364  1
  O2-  O198  1  0.66706521  0.41357550  0.50118008  1
  O2-  O199  1  0.66037372  0.41171546  0.74849456  1
  O2-  O200  1  0.66186705  0.74724289  0.00618290  1
  O2-  O201  1  0.66600401  0.74768628  0.24339201  1
  O2-  O202  1  0.66692597  0.74924044  0.50106678  1
  O2-  O203  1  0.66420609  0.74565905  0.74995543  1
  O2-  O204  1  0.33392347  0.25506953  -0.00364247  1
  O2-  O205  1  0.33229703  0.25039084  0.25193250  1
  O2-  O206  1  0.33366317  0.24983684  0.49236120  1
  O2-  O207  1  0.33086450  0.25339589  0.75274458  1
  O2-  O208  1  0.32786777  0.58928332  -0.00391201  1
  O2-  O209  1  0.33712318  0.58820997  0.25463813  1
  O2-  O210  1  0.33646753  0.58761365  0.50559872  1
  O2-  O211  1  0.33387916  0.58462190  0.74872191  1
  O2-  O212  1  0.33619419  0.91856135  0.00208767  1
  O2-  O213  1  0.33477749  0.91713567  0.25180233  1
  O2-  O214  1  0.33297098  0.91864616  0.50288631  1
  O2-  O215  1  0.33361252  0.91920305  0.74800078  1
  O2-  O216  1  0.83139792  0.25401568  0.00139120  1
  O2-  O217  1  0.83107974  0.25376447  0.24709319  1
  O2-  O218  1  0.83344968  0.25709027  0.49857376  1
  O2-  O219  1  0.83200447  0.25374259  0.74316015  1
  O2-  O220  1  0.83118920  0.58432308  0.00344305  1
  O2-  O221  1  0.83072967  0.58853873  0.25055413  1
  O2-  O222  1  0.83556928  0.58569740  0.50161693  1
  O2-  O223  1  0.82942856  0.58498473  0.74192506  1
  O2-  O224  1  0.83849524  0.91744419  -0.00251306  1
  O2-  O225  1  0.83552753  0.91942269  0.25047380  1
  O2-  O226  1  0.83629296  0.91906467  0.50210908  1
  O2-  O227  1  0.83718855  0.92190830  0.74268014  1
  O2-  O228  1  0.16590048  0.25244852  -0.00609167  1
  O2-  O229  1  0.16698013  0.25204261  0.25160439  1
  O2-  O230  1  0.16520146  0.25053949  0.50077253  1
  O2-  O231  1  0.16439834  0.25406082  0.75191690  1
  O2-  O232  1  0.17470675  0.58450686  0.00468083  1
  O2-  O233  1  0.15893431  0.59194207  0.24752728  1
  O2-  O234  1  0.17098679  0.58436530  0.50339298  1
  O2-  O235  1  0.16924429  0.58271674  0.74479890  1
  O2-  O236  1  0.16712465  0.91759781  -0.00035135  1
  O2-  O237  1  0.16684287  0.91849855  0.25282098  1
  O2-  O238  1  0.17132004  0.91954158  0.50849008  1
  O2-  O239  1  0.16397088  0.91457964  0.74454868  1
  O2-  O240  1  0.67197554  0.25393972  0.00091478  1
  O2-  O241  1  0.66323762  0.25123930  0.24581103  1
  O2-  O242  1  0.66681178  0.25660806  0.50142917  1
  O2-  O243  1  0.66875441  0.25390346  0.74631569  1
  O2-  O244  1  0.66792932  0.58888590  0.00163214  1
  O2-  O245  1  0.66583768  0.58661654  0.24661482  1
  O2-  O246  1  0.65916134  0.58359631  0.49977962  1
  O2-  O247  1  0.66394224  0.58377258  0.75090239  1
  O2-  O248  1  0.66985403  0.91805782  -0.00233667  1
  O2-  O249  1  0.66490276  0.91786625  0.25254432  1
  O2-  O250  1  0.66175089  0.91896297  0.50119868  1
  O2-  O251  1  0.65898427  0.92126385  0.74523555  1
  O2-  O252  1  0.34232409  0.07914811  -0.00164780  1
  O2-  O253  1  0.33231593  0.08036298  0.25311083  1
  O2-  O254  1  0.32970587  0.08119649  0.49924039  1
  O2-  O255  1  0.34213946  0.07520926  0.74839714  1
  O2-  O256  1  0.33663368  0.41344484  -0.00088235  1
  O2-  O257  1  0.33516965  0.40975874  0.25503242  1
  O2-  O258  1  0.33423799  0.41282614  0.50092135  1
  O2-  O259  1  0.33427303  0.41925138  0.75217888  1
  O2-  O260  1  0.32579283  0.74465220  -0.00153586  1
  O2-  O261  1  0.33190269  0.75302921  0.25108536  1
  O2-  O262  1  0.33791098  0.75036805  0.50547762  1
  O2-  O263  1  0.33385049  0.74734900  0.75002657  1
  O2-  O264  1  0.83682924  0.07805492  -0.00701175  1
  O2-  O265  1  0.83549281  0.07562170  0.25086530  1
  O2-  O266  1  0.83398412  0.07884839  0.50371632  1
  O2-  O267  1  0.83609658  0.08350956  0.74184305  1
  O2-  O268  1  0.83202299  0.41550866  0.00596571  1
  O2-  O269  1  0.83155669  0.41505076  0.25100947  1
  O2-  O270  1  0.83345997  0.40936960  0.50006475  1
  O2-  O271  1  0.84225153  0.41339559  0.74762871  1
  O2-  O272  1  0.82950508  0.74954215  0.00265296  1
  O2-  O273  1  0.82893282  0.74883147  0.24619915  1
  O2-  O274  1  0.83551887  0.74701877  0.49882409  1
  O2-  O275  1  0.83331310  0.74530411  0.74661619  1
  O2-  O276  1  0.94977659  0.91794498  0.73346679  1
  O2-  O277  1  0.54878443  0.57646348  0.74320569  1
  O2-  O278  1  0.05396479  0.56522703  0.74510748  1
  O2-  O279  1  0.44862035  0.42852501  0.23789342  1
  O2-  O280  1  0.94119352  0.56938125  0.48244610  1
  O2-  O281  1  0.05129270  0.24560045  0.01974696  1
  O2-  O282  1  0.54540294  0.23411170  0.24019930  1
  O2-  O283  1  0.55675208  0.75836625  0.97968227  1
  O2-  O284  1  0.05081781  0.23975427  0.48885886  1
  O2-  O285  1  0.95672939  0.78146384  0.94646253  1
  O2-  O286  1  0.04787603  0.57761591  0.25274626  1
  O2-  O287  1  0.04558197  0.90842531  0.26949247  1
  O2-  O288  1  0.45754117  0.90691378  0.24226828  1
  O2-  O289  1  0.45510700  0.75870307  0.93793828  1
  O2-  O290  1  0.54619327  0.09898317  0.48573496  1
  O2-  O291  1  0.54954837  0.42284714  0.74032411  1
  O2-  O292  1  0.55779014  0.91598415  0.98088625  1
  O2-  O293  1  0.05861449  0.91731877  0.75716502  1
  O2-  O294  1  0.03443717  0.77225762  0.73475407  1
  O2-  O295  1  0.04547106  0.77993993  0.04221755  1
  O2-  O296  1  0.55518171  0.07912406  0.29923532  1
  O2-  O297  1  0.94993093  0.91171834  0.99134148  1
  O2-  O298  1  0.95717586  0.57948578  0.99071923  1
  O2-  O299  1  0.45641210  0.75982292  0.74406316  1
  O2-  O300  1  0.95074770  0.23056824  0.49449704  1
  O2-  O301  1  0.95290673  0.75719312  0.50943390  1
  O2-  O302  1  0.55086965  0.75460178  0.01780208  1
  O2-  O303  1  0.05089126  0.09851237  0.24623014  1
  O2-  O304  1  0.55051762  0.58000423  0.01182967  1
  O2-  O305  1  0.04798658  0.76519276  0.24881048  1
  O2-  O306  1  0.54970032  0.43544655  0.24409357  1
  O2-  O307  1  0.95085646  0.91217740  0.51098463  1
  O2-  O308  1  0.02159543  0.53740318  0.52208770  1
  O2-  O309  1  0.04853857  0.09798980  0.99000609  1
  O2-  O310  1  0.04663678  0.24253538  0.98139475  1
  O2-  O311  1  0.94200011  0.43831258  0.26193117  1
  O2-  O312  1  0.44909248  0.90489787  1.00061328  1
  O2-  O313  1  0.03779480  0.44613402  0.24277290  1
  O2-  O314  1  0.95955793  0.54035382  0.69508249  1
  O2-  O315  1  0.94845100  0.89524108  0.76375601  1
  O2-  O316  1  0.03358326  0.43754006  0.24755302  1
  O2-  O317  1  0.55343552  0.43117699  0.00830561  1
  O2-  O318  1  0.54197324  0.56390300  0.50575797  1
  O2-  O319  1  0.05147889  0.41431724  0.51045082  1
  O2-  O320  1  0.02837371  0.77379807  0.75147904  1
  O2-  O321  1  0.45934407  0.22287060  0.47794372  1
  O2-  O322  1  0.95004787  0.09594847  0.25026849  1
  O2-  O323  1  0.45712090  0.10402467  0.76263205  1
  O2-  O324  1  0.43835223  0.41000356  0.78452329  1
  O2-  O325  1  0.56294727  0.39884464  0.01783190  1
  O2-  O326  1  0.42205903  0.74050370  0.06808360  1
  O2-  O327  1  0.93770401  0.06911423  0.03341184  1
  O2-  O328  1  0.43253098  0.08998777  0.57036429  1
  O2-  O329  1  0.43915717  0.41872229  0.47157644  1
  O2-  O330  1  0.93975828  0.26657310  0.83160339  1
  O2-  O331  1  0.08104458  0.57733369  0.41033716  1
  O2-  O332  1  0.56153812  0.07761603  0.73271621  1
  O2-  O333  1  0.06114047  0.07788122  0.51984142  1
  O2-  O334  1  0.56189725  0.05708181  0.14197717  1
  O2-  O335  1  0.06866010  0.92671950  0.02385863  1
  O2-  O336  1  0.06123867  0.57980703  0.02073832  1
  O2-  O337  1  0.93893811  0.40992615  0.96269251  1
  O2-  O338  1  0.55955282  0.91907133  0.97260974  1
  O2-  O339  1  0.43836863  0.58564146  0.22497651  1
  O2-  O340  1  0.43810796  0.59247977  0.97111188  1
  O2-  O341  1  0.56075981  0.25714401  0.73228047  1
  O2-  O342  1  0.06268070  0.74737382  0.47787028  1
  O2-  O343  1  0.07420618  0.38562314  0.35637115  1
  O2-  O344  1  0.56240797  0.40488963  0.46093075  1
  O2-  O345  1  0.08535214  0.60666141  0.56611854  1
  O2-  O346  1  0.93427634  0.40498404  0.27052116  1
  O2-  O347  1  0.07003895  0.38250283  0.13280645  1
  O2-  O348  1  0.94256424  0.07593934  0.78034365  1
  O2-  O349  1  0.43854437  0.25688059  0.02923371  1
  O2-  O350  1  0.44172087  0.05975433  0.41432821  1
  O2-  O351  1  0.44117305  0.07478000  0.21311443  1
  O2-  O352  1  0.56072888  0.06873794  0.30967807  1
  O2-  O353  1  0.56174219  0.25181963  0.01942857  1
  O2-  O354  1  0.92239705  0.74076673  0.06328521  1
  O2-  O355  1  0.06055974  0.08112039  0.77334657  1
  O2-  O356  1  0.55954517  0.75029704  0.47363228  1
  O2-  O357  1  0.44411503  0.25849070  0.78917874  1
  O2-  O358  1  0.43573131  0.59701434  0.78160883  1
  O2-  O359  1  0.43467696  0.74443796  0.73287331  1
  O2-  O360  1  0.43500218  0.25617142  0.26768318  1
  O2-  O361  1  0.43000742  0.28278504  0.58659557  1
  O2-  O362  1  0.08341992  0.72771231  0.94349767  1
  O2-  O363  1  0.93461311  0.23974545  0.68047708  1
  O2-  O364  1  0.93703867  0.60193616  0.46713824  1
  O2-  O365  1  0.43892575  0.74767348  0.22810670  1
  O2-  O366  1  0.93768320  0.25429635  0.27778036  1
  O2-  O367  1  0.93362526  0.58987699  0.98327631  1
  O2-  O368  1  0.91944458  0.59488036  0.80897696  1
  O2-  O369  1  0.06307870  0.92421945  0.46176761  1
  O2-  O370  1  0.93647605  0.74213987  0.28330425  1
  O2-  O371  1  0.09652516  0.71283825  0.79506268  1
  O2-  O372  1  0.24697055  0.34825738  0.67145975  1
  O2-  O373  1  0.25155357  0.68587127  0.44536062  1
  O2-  O374  1  0.75215145  0.01675481  0.10980677  1
  O2-  O375  1  0.24919407  0.01171664  0.37819688  1
  O2-  O376  1  0.25024285  0.65927405  0.64635890  1
  O2-  O377  1  0.25000583  0.02896752  0.91365896  1
  O2-  O378  1  0.74864715  0.33438850  0.86509906  1
  O2-  O379  1  0.25117563  0.68515486  0.13874293  1
  O2-  O380  1  0.24862316  0.32527766  0.58120538  1
  O2-  O381  1  0.74923635  0.33849758  0.15345646  1
  O2-  O382  1  0.25128250  0.32673880  0.14627357  1
  O2-  O383  1  0.75060694  0.00565375  0.85552955  1
  O2-  O384  1  0.25298577  0.66907505  0.85036585  1
  O2-  O385  1  0.75084117  0.66166966  0.44292874  1
  O2-  O386  1  0.74891971  0.67197387  0.85619291  1
  O2-  O387  1  0.25068040  0.01537364  0.06655446  1
  O2-  O388  1  0.74988775  0.00600686  0.40106770  1
  O2-  O389  1  0.75239880  0.67628668  0.61095718  1
  O2-  O390  1  0.74911715  0.66513392  0.30806130  1
  O2-  O391  1  0.25180737  0.32737332  0.37813328  1
  O2-  O392  1  0.74962476  0.34461596  0.35860995  1
  O2-  O393  1  0.25086708  0.00051562  0.80113107  1
  O2-  O394  1  0.24975586  -0.00701007  0.19623368  1
  O2-  O395  1  0.24919807  0.67564270  0.30977442  1
  O2-  O396  1  0.75017170  0.49360122  0.58295862  1
  O2-  O397  1  0.74981413  0.50201637  0.14857657  1
  O2-  O398  1  0.75001585  0.49564524  0.93645530  1
  O2-  O399  1  0.25119917  0.50137271  0.41573853  1
  O2-  O400  1  0.75039907  0.50763313  0.84712682  1
  O2-  O401  1  0.74982292  0.49015329  0.39887263  1
  O2-  O402  1  0.25068690  0.51672360  0.10421081  1
  O2-  O403  1  0.25060221  0.83613088  0.82461838  1
  O2-  O404  1  0.74993933  0.16809698  0.58448256  1
  O2-  O405  1  0.75089426  0.18025976  0.87502375  1
  O2-  O406  1  0.25071517  0.46204329  0.17315561  1
  O2-  O407  1  0.24978644  0.50213155  0.82938934  1
  O2-  O408  1  0.75001112  0.84504910  0.56819808  1
  O2-  O409  1  0.74938953  0.17554470  0.34295545  1
  O2-  O410  1  0.24963471  0.18903455  0.85337215  1
  O2-  O411  1  0.25022307  0.17243507  0.59933759  1
  O2-  O412  1  0.24972408  0.16883469  0.08814969  1
  O2-  O413  1  0.25019971  0.83166740  0.36598673  1
  O2-  O414  1  0.24987879  0.83835072  0.91459302  1
  O2-  O415  1  0.24989368  0.16788412  0.93657271  1
  O2-  O416  1  0.24978306  0.16283119  0.17466420  1
  O2-  O417  1  0.74944543  0.82431339  0.65582616  1
  O2-  O418  1  0.74953646  0.17133113  0.43087549  1
  O2-  O419  1  0.75014725  0.82199727  0.90741931  1
  O2-  O420  1  0.47539716  0.00057327  0.87072524  1
  O2-  O421  1  0.54827832  0.65483475  0.34992167  1
  O2-  O422  1  0.02164193  -0.00619772  0.88074032  1
  O2-  O423  1  0.49587760  0.65440867  0.13027630  1
  O2-  O424  1  0.45486365  0.65735119  0.60464636  1
  O2-  O425  1  0.95094684  0.63569647  0.14956319  1
  O2-  O426  1  0.54657690  0.68848894  0.62721638  1
  O2-  O427  1  0.45379939  0.66765553  0.38760210  1
  O2-  O428  1  0.54614392  -0.01698366  0.60676940  1
  O2-  O429  1  0.48241400  0.33310848  0.37359560  1
  O2-  O430  1  0.97738402  0.33818361  0.38363237  1
  O2-  O431  1  0.96772143  0.32898914  0.12477919  1
  O2-  O432  1  0.04128463  0.67150889  0.13076998  1
  O2-  O433  1  0.00870000  0.67892340  0.62415315  1
  O2-  O434  1  0.51800985  0.33564740  0.12997617  1
  O2-  O435  1  0.97328171  0.67752868  0.87229610  1
  O2-  O436  1  0.45204045  -0.03097239  0.65289579  1
  O2-  O437  1  0.01983049  0.00507295  0.13021882  1
  O2-  O438  1  0.97158679  0.00184396  0.37926113  1
  O2-  O439  1  0.02419967  0.63630845  0.87239305  1
  O2-  O440  1  0.52769039  0.33342959  0.61664971  1
  O2-  O441  1  0.98149293  0.34927269  0.62302167  1
  O2-  O442  1  0.02141228  -0.00392560  0.63147090  1
  O2-  O443  1  0.01268618  0.67847038  0.36905793  1
