# generated using pymatgen
data_La7(Ru4O11)2
_symmetry_space_group_name_H-M   'P 1'
_cell_length_a   23.99193244
_cell_length_b   16.83254082
_cell_length_c   15.42927405
_cell_angle_alpha   90.00099968
_cell_angle_beta   89.99922124
_cell_angle_gamma   90.00217205
_symmetry_Int_Tables_number   1
_chemical_formula_structural   La7(Ru4O11)2
_chemical_formula_sum   'La84 Ru96 O264'
_cell_volume   6231.03798251
_cell_formula_units_Z   12
loop_
 _symmetry_equiv_pos_site_id
 _symmetry_equiv_pos_as_xyz
  1  'x, y, z'
loop_
 _atom_type_symbol
 _atom_type_oxidation_number
  La3+  3.0
  Ru4+  4.0
  O2-  -2.0
loop_
 _atom_site_type_symbol
 _atom_site_label
 _atom_site_symmetry_multiplicity
 _atom_site_fract_x
 _atom_site_fract_y
 _atom_site_fract_z
 _atom_site_occupancy
  La3+  La0  1  0.14336761  -0.00540880  0.12907673  1
  La3+  La1  1  0.14004918  0.00279993  0.37705791  1
  La3+  La2  1  0.14631219  -0.00469024  0.62274806  1
  La3+  La3  1  0.13998945  -0.00210779  0.88139765  1
  La3+  La4  1  0.13818808  0.33289969  0.12269993  1
  La3+  La5  1  0.13222776  0.33494177  0.37588785  1
  La3+  La6  1  0.14114270  0.33322664  0.62238933  1
  La3+  La7  1  0.13363104  0.33647330  0.87442222  1
  La3+  La8  1  0.14067671  0.67012644  0.12405636  1
  La3+  La9  1  0.13929340  0.66680256  0.37207705  1
  La3+  La10  1  0.13682376  0.66201094  0.62869161  1
  La3+  La11  1  0.13604276  0.66441975  0.87532740  1
  La3+  La12  1  0.63797034  -0.00300492  0.11883608  1
  La3+  La13  1  0.63980321  -0.00209488  0.37200129  1
  La3+  La14  1  0.64004066  0.00141263  0.62576881  1
  La3+  La15  1  0.65027791  0.00948676  0.87199946  1
  La3+  La16  1  0.64105659  0.33073736  0.12617625  1
  La3+  La17  1  0.64153373  0.33282691  0.37729235  1
  La3+  La18  1  0.64351715  0.33352491  0.62035688  1
  La3+  La19  1  0.64214376  0.33143477  0.87210969  1
  La3+  La20  1  0.64315339  0.66883113  0.12463820  1
  La3+  La21  1  0.64851938  0.66565728  0.36809687  1
  La3+  La22  1  0.63474383  0.66668364  0.62207869  1
  La3+  La23  1  0.64226040  0.67040215  0.87770136  1
  La3+  La24  1  0.35717138  -0.00505046  0.12425186  1
  La3+  La25  1  0.35481314  -0.00285188  0.37747579  1
  La3+  La26  1  0.36426065  -0.00199146  0.62150630  1
  La3+  La27  1  0.36061459  -0.00176542  0.87926338  1
  La3+  La28  1  0.36288019  0.33535370  0.12683182  1
  La3+  La29  1  0.36857366  0.33222063  0.37520601  1
  La3+  La30  1  0.36378895  0.33392989  0.62353112  1
  La3+  La31  1  0.36468240  0.33332276  0.87542558  1
  La3+  La32  1  0.36730410  0.68377630  0.11667582  1
  La3+  La33  1  0.36535096  0.66666667  0.36872437  1
  La3+  La34  1  0.36472946  0.66396737  0.62505200  1
  La3+  La35  1  0.36456109  0.67723026  0.87937314  1
  La3+  La36  1  0.86045895  0.00186650  0.12111046  1
  La3+  La37  1  0.86089602  0.00098151  0.37187897  1
  La3+  La38  1  0.85994611  0.00176659  0.62841325  1
  La3+  La39  1  0.85584046  0.00478947  0.87725912  1
  La3+  La40  1  0.85618590  0.33000080  0.12306767  1
  La3+  La41  1  0.85630629  0.33373390  0.37788919  1
  La3+  La42  1  0.85679376  0.33415241  0.62104843  1
  La3+  La43  1  0.85802886  0.33602759  0.87475738  1
  La3+  La44  1  0.85574323  0.66770353  0.12390588  1
  La3+  La45  1  0.85769464  0.66674918  0.37428489  1
  La3+  La46  1  0.86153981  0.66479202  0.62633490  1
  La3+  La47  1  0.86302669  0.66890459  0.87777946  1
  La3+  La48  1  0.49622367  0.49358163  0.13609912  1
  La3+  La49  1  -0.00588492  0.17516366  0.87158196  1
  La3+  La50  1  0.49614930  0.49628128  0.13833447  1
  La3+  La51  1  -0.00557551  0.16503963  0.85186349  1
  La3+  La52  1  -0.00340256  0.49483862  0.13366005  1
  La3+  La53  1  -0.00033891  0.50136279  0.11262378  1
  La3+  La54  1  0.50150597  0.16211963  0.11479227  1
  La3+  La55  1  0.50270490  0.16745096  0.38491111  1
  La3+  La56  1  0.50196169  0.16371358  0.62883525  1
  La3+  La57  1  0.49699853  0.16974765  0.13421552  1
  La3+  La58  1  0.00064641  0.82622581  0.36837714  1
  La3+  La59  1  -0.00293526  0.83235422  0.62274737  1
  La3+  La60  1  0.49988464  0.83360667  0.87335998  1
  La3+  La61  1  0.00236145  0.16984981  0.61061253  1
  La3+  La62  1  0.49123856  0.81369794  0.11380805  1
  La3+  La63  1  -0.00294385  0.83666340  0.38688690  1
  La3+  La64  1  0.49965318  0.50230779  0.86258760  1
  La3+  La65  1  -0.00289243  0.17721744  0.36191538  1
  La3+  La66  1  0.49754366  0.82901765  0.37069299  1
  La3+  La67  1  0.00609502  0.83160366  0.12559421  1
  La3+  La68  1  0.00239507  0.16222197  0.12028372  1
  La3+  La69  1  -0.00218193  0.83214555  0.10702964  1
  La3+  La70  1  -0.00190443  0.82838593  0.86311188  1
  La3+  La71  1  0.49854037  0.16573080  0.87670194  1
  La3+  La72  1  0.24984401  0.50185654  0.25981463  1
  La3+  La73  1  0.25087758  0.18102279  0.67294606  1
  La3+  La74  1  0.25052828  0.49882039  -0.00542543  1
  La3+  La75  1  0.75069206  0.54741821  0.26695973  1
  La3+  La76  1  0.25042012  0.50322420  0.47545329  1
  La3+  La77  1  0.75038557  0.90405744  0.48799704  1
  La3+  La78  1  0.25006729  0.18815877  0.27351867  1
  La3+  La79  1  0.24984491  0.50043411  0.73791988  1
  La3+  La80  1  0.74974114  0.87356087  0.81773613  1
  La3+  La81  1  0.25050385  0.81317841  0.69922571  1
  La3+  La82  1  0.74939312  0.16810457  0.75172125  1
  La3+  La83  1  0.74879311  0.82279770  0.19389328  1
  Ru4+  Ru84  1  -0.00034803  -0.00183844  0.00054215  1
  Ru4+  Ru85  1  -0.00251909  -0.00123473  0.25547335  1
  Ru4+  Ru86  1  0.00242979  0.00884618  0.50429606  1
  Ru4+  Ru87  1  -0.00154757  -0.00723950  0.75072242  1
  Ru4+  Ru88  1  -0.00260715  0.33986615  -0.00599783  1
  Ru4+  Ru89  1  -0.00461835  0.34167087  0.25535035  1
  Ru4+  Ru90  1  0.00237645  0.34130995  0.50545105  1
  Ru4+  Ru91  1  0.00602402  0.34822200  0.74644338  1
  Ru4+  Ru92  1  0.00202039  0.66113414  -0.00045982  1
  Ru4+  Ru93  1  0.00078976  0.66006654  0.24638327  1
  Ru4+  Ru94  1  -0.00040479  0.65554069  0.49793057  1
  Ru4+  Ru95  1  -0.00249943  0.66107921  0.75309136  1
  Ru4+  Ru96  1  0.50223443  0.00070804  0.00052282  1
  Ru4+  Ru97  1  0.49511701  -0.00535330  0.24803594  1
  Ru4+  Ru98  1  0.49746768  -0.00465292  0.50632507  1
  Ru4+  Ru99  1  0.49630210  -0.00204708  0.75337299  1
  Ru4+  Ru100  1  0.49771822  0.32900088  -0.00093259  1
  Ru4+  Ru101  1  0.50219378  0.32734121  0.25703847  1
  Ru4+  Ru102  1  0.50590761  0.33989061  0.50374886  1
  Ru4+  Ru103  1  0.49915413  0.33651446  0.75116152  1
  Ru4+  Ru104  1  0.50091873  0.66665192  -0.00599930  1
  Ru4+  Ru105  1  0.49771719  0.66315362  0.25745587  1
  Ru4+  Ru106  1  0.50557185  0.67345217  0.50460727  1
  Ru4+  Ru107  1  0.50007399  0.66997204  0.74556614  1
  Ru4+  Ru108  1  0.11504237  0.16560906  0.00490281  1
  Ru4+  Ru109  1  0.11406665  0.17410093  0.24995782  1
  Ru4+  Ru110  1  0.11265547  0.16292255  0.50294031  1
  Ru4+  Ru111  1  0.11454739  0.16434014  0.74721537  1
  Ru4+  Ru112  1  0.11047688  0.50005240  -0.00293290  1
  Ru4+  Ru113  1  0.11051968  0.49679014  0.24997726  1
  Ru4+  Ru114  1  0.10699745  0.50014884  0.50073171  1
  Ru4+  Ru115  1  0.10290537  0.49499552  0.74767569  1
  Ru4+  Ru116  1  0.11656675  0.83397194  -0.00247063  1
  Ru4+  Ru117  1  0.11903181  0.83055855  0.24918554  1
  Ru4+  Ru118  1  0.11508615  0.83574400  0.50295561  1
  Ru4+  Ru119  1  0.10878301  0.83672608  0.75005147  1
  Ru4+  Ru120  1  0.61221647  0.16498076  0.00018225  1
  Ru4+  Ru121  1  0.61559170  0.17005899  0.24895975  1
  Ru4+  Ru122  1  0.61318139  0.16665351  0.50088265  1
  Ru4+  Ru123  1  0.60918001  0.16718063  0.75070476  1
  Ru4+  Ru124  1  0.61228420  0.50258658  -0.00459666  1
  Ru4+  Ru125  1  0.61060216  0.50167024  0.24964806  1
  Ru4+  Ru126  1  0.61365148  0.49300633  0.50195862  1
  Ru4+  Ru127  1  0.61021834  0.49913219  0.74871095  1
  Ru4+  Ru128  1  0.61410315  0.83783154  -0.00280749  1
  Ru4+  Ru129  1  0.60927537  0.82736563  0.24994709  1
  Ru4+  Ru130  1  0.60375526  0.82680957  0.50038852  1
  Ru4+  Ru131  1  0.60938925  0.83382757  0.74857769  1
  Ru4+  Ru132  1  0.38901656  0.17051089  -0.00159453  1
  Ru4+  Ru133  1  0.39151577  0.16513499  0.25311041  1
  Ru4+  Ru134  1  0.38613468  0.15710339  0.49939836  1
  Ru4+  Ru135  1  0.39052855  0.16385121  0.75163287  1
  Ru4+  Ru136  1  0.38823399  0.50166479  -0.00617388  1
  Ru4+  Ru137  1  0.38725769  0.51287497  0.25207351  1
  Ru4+  Ru138  1  0.39505292  0.50098366  0.50367782  1
  Ru4+  Ru139  1  0.38902864  0.49851818  0.75064023  1
  Ru4+  Ru140  1  0.38127592  0.83031038  -0.00267008  1
  Ru4+  Ru141  1  0.38495551  0.83514746  0.24931921  1
  Ru4+  Ru142  1  0.38719333  0.83817574  0.50109113  1
  Ru4+  Ru143  1  0.39129117  0.83433318  0.75172789  1
  Ru4+  Ru144  1  0.88496532  0.16811266  0.00520907  1
  Ru4+  Ru145  1  0.88602660  0.17042843  0.25033478  1
  Ru4+  Ru146  1  0.88663420  0.16956359  0.49958559  1
  Ru4+  Ru147  1  0.88360938  0.16838460  0.74751642  1
  Ru4+  Ru148  1  0.88840480  0.50047607  -0.00110707  1
  Ru4+  Ru149  1  0.89389463  0.49440694  0.25069875  1
  Ru4+  Ru150  1  0.89133562  0.49583444  0.49991522  1
  Ru4+  Ru151  1  0.88861423  0.50218314  0.75174606  1
  Ru4+  Ru152  1  0.88245841  0.83603694  -0.00037727  1
  Ru4+  Ru153  1  0.88331853  0.83364589  0.24933332  1
  Ru4+  Ru154  1  0.88982368  0.83282741  0.50141179  1
  Ru4+  Ru155  1  0.88991354  0.83507856  0.74983137  1
  Ru4+  Ru156  1  0.74958158  0.24682975  -0.00457585  1
  Ru4+  Ru157  1  0.25024909  0.36528387  0.45980413  1
  Ru4+  Ru158  1  0.24962959  0.69300787  0.77846175  1
  Ru4+  Ru159  1  0.24936506  0.32322698  0.24554031  1
  Ru4+  Ru160  1  0.74956543  0.39457072  0.24662319  1
  Ru4+  Ru161  1  0.75073583  0.58647341  -0.00832679  1
  Ru4+  Ru162  1  0.74990867  0.08873309  0.26305350  1
  Ru4+  Ru163  1  0.74975435  0.57022338  0.49638685  1
  Ru4+  Ru164  1  0.74988187  0.72833623  0.75569238  1
  Ru4+  Ru165  1  0.24959187  0.93495384  0.77370967  1
  Ru4+  Ru166  1  0.25076038  0.23057018  0.49269518  1
  Ru4+  Ru167  1  0.25117363  0.08224754  -0.00612572  1
  Ru4+  Ru168  1  0.25018535  0.35615047  0.00680007  1
  Ru4+  Ru169  1  0.24944369  0.64374491  0.00570562  1
  Ru4+  Ru170  1  0.74986120  0.40707528  -0.01361789  1
  Ru4+  Ru171  1  0.25049467  0.76271007  0.48924004  1
  Ru4+  Ru172  1  0.24984713  0.05065321  0.24771399  1
  Ru4+  Ru173  1  0.25018223  0.63631668  0.52370856  1
  Ru4+  Ru174  1  0.25040082  0.28373960  0.78517531  1
  Ru4+  Ru175  1  0.74951402  0.57387418  0.75227408  1
  Ru4+  Ru176  1  0.75014243  0.42300993  0.74960986  1
  Ru4+  Ru177  1  0.25028638  0.07047749  0.77479467  1
  Ru4+  Ru178  1  0.75039418  0.09193853  0.50478866  1
  Ru4+  Ru179  1  0.75002641  0.72938611  0.51354888  1
  O2-  O180  1  0.16919456  0.08074816  -0.00366560  1
  O2-  O181  1  0.16621730  0.07744937  0.25175849  1
  O2-  O182  1  0.16821976  0.08497704  0.49901638  1
  O2-  O183  1  0.16717994  0.07952073  0.75091183  1
  O2-  O184  1  0.16765877  0.40844175  0.00100174  1
  O2-  O185  1  0.16842618  0.41167396  0.25073671  1
  O2-  O186  1  0.16683474  0.41260237  0.49759382  1
  O2-  O187  1  0.16607206  0.41832282  0.75679685  1
  O2-  O188  1  0.16979452  0.74483540  -0.00096790  1
  O2-  O189  1  0.16618870  0.74386309  0.24959509  1
  O2-  O190  1  0.16624417  0.74708547  0.49954345  1
  O2-  O191  1  0.16610661  0.74365981  0.75112205  1
  O2-  O192  1  0.66383702  0.08315706  0.00409104  1
  O2-  O193  1  0.66684403  0.07997854  0.24956082  1
  O2-  O194  1  0.66888038  0.08035558  0.49573709  1
  O2-  O195  1  0.66648764  0.08238453  0.74373447  1
  O2-  O196  1  0.66507363  0.41423097  -0.00227555  1
  O2-  O197  1  0.66714604  0.41165706  0.24989057  1
  O2-  O198  1  0.66807736  0.41662165  0.49753489  1
  O2-  O199  1  0.66626923  0.41638492  0.75058592  1
  O2-  O200  1  0.66487942  0.75183075  0.00122416  1
  O2-  O201  1  0.66888488  0.75204668  0.24423588  1
  O2-  O202  1  0.66750455  0.74798211  0.50582263  1
  O2-  O203  1  0.66608152  0.74551815  0.74970334  1
  O2-  O204  1  0.33590208  0.25529591  0.00074685  1
  O2-  O205  1  0.33670525  0.25792827  0.25059540  1
  O2-  O206  1  0.33636476  0.24968116  0.49874249  1
  O2-  O207  1  0.33303722  0.25645151  0.75081700  1
  O2-  O208  1  0.33026854  0.59196201  0.00211201  1
  O2-  O209  1  0.32766466  0.58816580  0.25341118  1
  O2-  O210  1  0.33277542  0.58650910  0.49908392  1
  O2-  O211  1  0.33706715  0.58660094  0.74967837  1
  O2-  O212  1  0.33339628  0.91619827  -0.00145144  1
  O2-  O213  1  0.33299705  0.91545171  0.24793529  1
  O2-  O214  1  0.33490240  0.91703564  0.50397091  1
  O2-  O215  1  0.33133860  0.92032290  0.74949982  1
  O2-  O216  1  0.83074608  0.25205297  0.00061948  1
  O2-  O217  1  0.83542903  0.25123995  0.24958467  1
  O2-  O218  1  0.83662169  0.25163122  0.49736861  1
  O2-  O219  1  0.82899544  0.25061393  0.74607812  1
  O2-  O220  1  0.83505623  0.58522674  -0.00068193  1
  O2-  O221  1  0.84322431  0.58641177  0.24915985  1
  O2-  O222  1  0.83441627  0.58470244  0.50169881  1
  O2-  O223  1  0.82933852  0.58496910  0.74939943  1
  O2-  O224  1  0.83395867  0.92008456  0.00424783  1
  O2-  O225  1  0.83056880  0.92183739  0.24481722  1
  O2-  O226  1  0.84371303  0.92514736  0.50011319  1
  O2-  O227  1  0.83535540  0.91974459  0.74750614  1
  O2-  O228  1  0.16476405  0.25323354  -0.00011979  1
  O2-  O229  1  0.16581607  0.26018897  0.24740196  1
  O2-  O230  1  0.16623850  0.24711590  0.49535892  1
  O2-  O231  1  0.16868816  0.25490077  0.75361164  1
  O2-  O232  1  0.16974039  0.59059008  0.00141006  1
  O2-  O233  1  0.16792930  0.58752537  0.25136437  1
  O2-  O234  1  0.16602475  0.58757812  0.49947635  1
  O2-  O235  1  0.16543982  0.58344914  0.74971756  1
  O2-  O236  1  0.16249938  0.91909564  -0.00208116  1
  O2-  O237  1  0.16480253  0.91853500  0.25274833  1
  O2-  O238  1  0.16485799  0.91853935  0.49936751  1
  O2-  O239  1  0.16555761  0.91894450  0.75428901  1
  O2-  O240  1  0.66785508  0.25411705  -0.00056841  1
  O2-  O241  1  0.66735611  0.25111426  0.24908297  1
  O2-  O242  1  0.66292817  0.25191701  0.49694749  1
  O2-  O243  1  0.66470107  0.25329312  0.75058001  1
  O2-  O244  1  0.66765634  0.58346854  -0.00011741  1
  O2-  O245  1  0.65993057  0.58697939  0.24495951  1
  O2-  O246  1  0.66653047  0.58275377  0.50322135  1
  O2-  O247  1  0.66766838  0.58455541  0.74987154  1
  O2-  O248  1  0.67311654  0.91261756  0.00810421  1
  O2-  O249  1  0.66558430  0.91728904  0.24580304  1
  O2-  O250  1  0.65718150  0.92248798  0.49945700  1
  O2-  O251  1  0.66508404  0.91828562  0.74746517  1
  O2-  O252  1  0.33594935  0.08081011  -0.00066285  1
  O2-  O253  1  0.33148817  0.07771370  0.25109062  1
  O2-  O254  1  0.33108398  0.08398777  0.50458802  1
  O2-  O255  1  0.33380405  0.08170436  0.74864506  1
  O2-  O256  1  0.33441589  0.41005912  0.00071305  1
  O2-  O257  1  0.33226814  0.41432614  0.25219749  1
  O2-  O258  1  0.33677064  0.41124107  0.49786974  1
  O2-  O259  1  0.33501971  0.41390850  0.74942280  1
  O2-  O260  1  0.32922619  0.74845498  -0.00141944  1
  O2-  O261  1  0.33295520  0.74984668  0.24754450  1
  O2-  O262  1  0.33521065  0.74766363  0.50019099  1
  O2-  O263  1  0.33420081  0.74556138  0.74918469  1
  O2-  O264  1  0.83314075  0.08289535  0.00564892  1
  O2-  O265  1  0.83246833  0.07982799  0.24714543  1
  O2-  O266  1  0.83382257  0.07942528  0.49688640  1
  O2-  O267  1  0.82967036  0.08144097  0.74658669  1
  O2-  O268  1  0.83025968  0.41377883  -0.00089004  1
  O2-  O269  1  0.83180670  0.41414864  0.25206130  1
  O2-  O270  1  0.83380441  0.41736649  0.49826324  1
  O2-  O271  1  0.83402533  0.41755924  0.74729948  1
  O2-  O272  1  0.83041051  0.74852213  0.00095891  1
  O2-  O273  1  0.83328378  0.74873355  0.24833060  1
  O2-  O274  1  0.83283748  0.74455871  0.50325524  1
  O2-  O275  1  0.83177328  0.74394567  0.75102580  1
  O2-  O276  1  0.55199552  0.91967238  0.48026865  1
  O2-  O277  1  0.45786325  0.88527955  0.21096692  1
  O2-  O278  1  0.52762905  0.77992315  0.51590125  1
  O2-  O279  1  0.04688295  0.08807085  0.73070236  1
  O2-  O280  1  0.45044215  0.24299069  0.48078807  1
  O2-  O281  1  0.05492492  0.41347156  0.98107634  1
  O2-  O282  1  0.55286086  0.75133861  0.98128120  1
  O2-  O283  1  0.54505618  0.10020396  0.24644081  1
  O2-  O284  1  0.54497025  0.42994159  0.98169208  1
  O2-  O285  1  0.55074043  0.42637913  0.24057938  1
  O2-  O286  1  0.44857752  0.90475537  0.48573813  1
  O2-  O287  1  0.54507624  0.56483082  0.74226608  1
  O2-  O288  1  0.53704532  0.89337900  1.02202740  1
  O2-  O289  1  0.44507913  0.42629052  0.23809398  1
  O2-  O290  1  0.54980342  0.76716610  0.73933192  1
  O2-  O291  1  0.03832055  0.10374091  0.96479012  1
  O2-  O292  1  0.02186618  0.45966802  0.75616764  1
  O2-  O293  1  0.04860821  0.24163171  0.73894189  1
  O2-  O294  1  0.04893783  0.24478974  0.99704477  1
  O2-  O295  1  0.04586928  0.76012060  0.49674287  1
  O2-  O296  1  0.45623769  0.55112758  0.03202519  1
  O2-  O297  1  0.03315464  0.11151374  0.48328105  1
  O2-  O298  1  0.04386501  0.90329617  0.51606135  1
  O2-  O299  1  0.53233045  0.89049383  0.00450144  1
  O2-  O300  1  0.05397132  0.09926825  0.26299318  1
  O2-  O301  1  0.04633478  0.56349870  0.24106506  1
  O2-  O302  1  0.45465017  0.23376197  0.73973947  1
  O2-  O303  1  0.95157191  0.56955192  0.48674448  1
  O2-  O304  1  0.44930520  0.75876134  0.76672454  1
  O2-  O305  1  0.03791150  0.11260701  0.46493333  1
  O2-  O306  1  0.53183255  0.78439026  0.52158290  1
  O2-  O307  1  0.95062504  0.21119195  0.70779588  1
  O2-  O308  1  0.95011992  0.90349404  0.23975611  1
  O2-  O309  1  0.04473765  0.76354407  0.73280438  1
  O2-  O310  1  0.45763690  0.76765478  0.99336151  1
  O2-  O311  1  0.45167876  0.42869809  0.51364153  1
  O2-  O312  1  0.45308851  0.23608558  0.51903356  1
  O2-  O313  1  0.05130955  0.90336546  0.26684278  1
  O2-  O314  1  0.05075430  0.24444597  0.75914128  1
  O2-  O315  1  0.44756181  0.57022632  0.29634896  1
  O2-  O316  1  0.44634359  0.76475609  0.01608619  1
  O2-  O317  1  0.95460116  0.75823058  0.24132175  1
  O2-  O318  1  0.94553212  0.75723980  0.98617822  1
  O2-  O319  1  0.54915256  0.56496510  0.05051457  1
  O2-  O320  1  0.55246896  0.90777381  0.26538596  1
  O2-  O321  1  0.95084528  0.09868335  0.25379251  1
  O2-  O322  1  0.96672562  0.45425368  0.29457462  1
  O2-  O323  1  0.94921377  0.90906984  0.24867190  1
  O2-  O324  1  0.93640486  0.40547296  0.51734156  1
  O2-  O325  1  0.42783064  0.08889613  0.18350619  1
  O2-  O326  1  0.06391275  0.74891926  0.02414026  1
  O2-  O327  1  0.06157172  0.06965568  0.28212848  1
  O2-  O328  1  0.08283248  0.06329389  0.06102326  1
  O2-  O329  1  0.05260519  0.41576621  0.98014468  1
  O2-  O330  1  0.42974189  0.93849025  0.31342229  1
  O2-  O331  1  0.56433636  0.73830857  0.31221477  1
  O2-  O332  1  0.42843916  0.91714765  0.04803071  1
  O2-  O333  1  0.07536325  0.03569904  0.57032659  1
  O2-  O334  1  0.43987792  0.06875982  0.43870835  1
  O2-  O335  1  0.56408478  0.74117208  0.17917417  1
  O2-  O336  1  0.41827142  0.58737457  0.16558332  1
  O2-  O337  1  0.56741274  0.60991997  0.93011694  1
  O2-  O338  1  0.59227838  0.94956043  0.94662650  1
  O2-  O339  1  0.56307706  0.26154616  0.21675562  1
  O2-  O340  1  0.06366129  0.41242391  0.47533634  1
  O2-  O341  1  0.92718936  0.25265615  0.94001180  1
  O2-  O342  1  0.93592875  0.41283266  0.97991388  1
  O2-  O343  1  0.43691488  0.40916522  0.77413190  1
  O2-  O344  1  0.94842365  0.76082488  0.97439813  1
  O2-  O345  1  0.56139647  0.07459423  0.53218632  1
  O2-  O346  1  0.93688688  0.74439989  0.77326764  1
  O2-  O347  1  0.92126396  0.27629970  0.79711587  1
  O2-  O348  1  0.43360116  0.08255047  0.56644155  1
  O2-  O349  1  0.43017022  0.59861610  0.92467746  1
  O2-  O350  1  0.43409782  0.74226411  0.27538408  1
  O2-  O351  1  0.06503294  0.59574965  0.53253988  1
  O2-  O352  1  0.06364057  0.26295067  0.53472646  1
  O2-  O353  1  0.43337199  0.92420661  0.72643559  1
  O2-  O354  1  0.93357076  0.07223602  0.97747154  1
  O2-  O355  1  0.07867103  0.38035563  0.70445056  1
  O2-  O356  1  0.93575178  0.58666184  0.77124177  1
  O2-  O357  1  0.57972015  0.68852424  0.44888607  1
  O2-  O358  1  0.43402540  0.59491301  0.52481458  1
  O2-  O359  1  0.06376028  0.58944259  0.97729265  1
  O2-  O360  1  0.56420081  0.26195344  0.03388074  1
  O2-  O361  1  0.45272465  0.56675123  0.30182999  1
  O2-  O362  1  0.43209726  0.91912265  0.95010350  1
  O2-  O363  1  0.43218661  0.73537329  0.96266690  1
  O2-  O364  1  0.93594403  0.73507686  0.46570638  1
  O2-  O365  1  0.43885939  0.08255802  0.31662650  1
  O2-  O366  1  0.93146102  0.07066748  0.77515393  1
  O2-  O367  1  0.93905837  0.25669823  0.07946211  1
  O2-  O368  1  0.56531215  0.40828166  0.52448343  1
  O2-  O369  1  0.44112481  0.40404976  0.20751560  1
  O2-  O370  1  0.93147680  0.38506169  0.18508177  1
  O2-  O371  1  0.06541449  0.59618214  0.76961536  1
  O2-  O372  1  0.74978254  0.66875562  0.17020717  1
  O2-  O373  1  0.74985528  0.67206502  0.07754113  1
  O2-  O374  1  0.25109521  0.31342840  0.57507174  1
  O2-  O375  1  0.74969731  0.32943694  0.67461545  1
  O2-  O376  1  0.74894851  0.33911833  0.84921140  1
  O2-  O377  1  0.74962088  0.00222109  0.34953874  1
  O2-  O378  1  0.24956177  0.66681046  0.39406287  1
  O2-  O379  1  0.75110000  0.65478687  0.42240768  1
  O2-  O380  1  0.75069909  0.66764755  0.89637968  1
  O2-  O381  1  0.24864123  -0.02449331  0.34214130  1
  O2-  O382  1  0.75025156  0.33345455  0.34599576  1
  O2-  O383  1  0.74980613  0.66081939  0.64394882  1
  O2-  O384  1  0.24960872  0.00406926  0.42651368  1
  O2-  O385  1  0.24888828  0.00181346  0.89740522  1
  O2-  O386  1  0.75087382  0.67267412  0.31013479  1
  O2-  O387  1  0.25062947  0.35268997  0.69345906  1
  O2-  O388  1  0.74990355  0.00307024  0.59799251  1
  O2-  O389  1  0.24940783  -0.00586105  0.07085823  1
  O2-  O390  1  0.24956279  -0.02668959  0.15915855  1
  O2-  O391  1  0.24994130  0.66212890  0.64905887  1
  O2-  O392  1  0.75078864  0.00742887  0.82514453  1
  O2-  O393  1  0.74981223  0.33864833  0.58499365  1
  O2-  O394  1  0.75090234  -0.00683826  0.91755094  1
  O2-  O395  1  0.74889633  0.33030291  0.09362288  1
  O2-  O396  1  0.24950623  0.83428054  0.93435127  1
  O2-  O397  1  0.74980223  0.49690762  0.40110486  1
  O2-  O398  1  0.24936294  0.49953436  0.12953831  1
  O2-  O399  1  0.24978517  0.83071901  0.84915592  1
  O2-  O400  1  0.75023025  0.16299464  0.33889520  1
  O2-  O401  1  0.74935533  0.49801563  0.05991060  1
  O2-  O402  1  0.75012288  0.82470047  0.68363239  1
  O2-  O403  1  0.75020701  0.47887183  0.14774342  1
  O2-  O404  1  0.24969341  0.82962866  0.09385771  1
  O2-  O405  1  0.74969462  0.17345148  0.91021174  1
  O2-  O406  1  0.24962921  0.17897963  0.05550797  1
  O2-  O407  1  0.24995718  0.83022499  0.33036475  1
  O2-  O408  1  0.24981360  0.50113737  0.60733280  1
  O2-  O409  1  0.75079609  0.84494899  0.32892249  1
  O2-  O410  1  0.75003547  0.16306547  0.58933205  1
  O2-  O411  1  0.24989248  0.17568692  0.92570002  1
  O2-  O412  1  0.24986192  0.84324569  0.41189487  1
  O2-  O413  1  0.25042141  0.16284731  0.40726004  1
  O2-  O414  1  0.24988546  0.50000163  0.86570026  1
  O2-  O415  1  0.74933038  0.79756700  0.40677198  1
  O2-  O416  1  0.25055372  0.17283915  0.83621551  1
  O2-  O417  1  0.24966904  0.84363412  0.56937175  1
  O2-  O418  1  0.25061692  0.15570548  0.14108201  1
  O2-  O419  1  0.75004472  0.81282173  0.59552595  1
  O2-  O420  1  0.46568183  0.67441976  0.63202693  1
  O2-  O421  1  0.04358481  0.66325312  0.13246325  1
  O2-  O422  1  0.48079689  0.67458093  0.12202636  1
  O2-  O423  1  0.47821747  0.67607421  0.39121765  1
  O2-  O424  1  0.97671645  0.32990348  0.62378147  1
  O2-  O425  1  0.55003981  0.00958351  0.12338357  1
  O2-  O426  1  0.97323098  0.65615719  0.88139466  1
  O2-  O427  1  0.52841369  0.32835905  0.37838884  1
  O2-  O428  1  0.98716112  0.34547042  0.86672798  1
  O2-  O429  1  0.02487561  0.32331067  0.36978211  1
  O2-  O430  1  0.52469169  0.32572751  0.63492462  1
  O2-  O431  1  0.97256774  -0.00240843  0.62531913  1
  O2-  O432  1  0.54364397  0.01506901  0.85472239  1
  O2-  O433  1  0.45549504  0.01715519  0.86560279  1
  O2-  O434  1  0.48629956  -0.00237566  0.63294536  1
  O2-  O435  1  0.01977669  -0.01303201  0.13059859  1
  O2-  O436  1  0.97074528  -0.00286007  0.38187777  1
  O2-  O437  1  0.47480761  0.32547175  0.87864859  1
  O2-  O438  1  0.03095798  0.68462623  0.88063234  1
  O2-  O439  1  0.46746963  0.00540849  0.11328885  1
  O2-  O440  1  0.54009465  0.65781464  0.62259341  1
  O2-  O441  1  0.98062744  -0.01839236  0.87487013  1
  O2-  O442  1  0.95321773  0.65609235  0.12432315  1
  O2-  O443  1  0.02781064  0.66961465  0.36928935  1
