# generated using pymatgen
data_La7(Ru4O11)2
_symmetry_space_group_name_H-M   'P 1'
_cell_length_a   23.99099009
_cell_length_b   16.83067180
_cell_length_c   15.42774042
_cell_angle_alpha   90.00111653
_cell_angle_beta   89.99941403
_cell_angle_gamma   89.99961142
_symmetry_Int_Tables_number   1
_chemical_formula_structural   La7(Ru4O11)2
_chemical_formula_sum   'La84 Ru96 O264'
_cell_volume   6229.48214624
_cell_formula_units_Z   12
loop_
 _symmetry_equiv_pos_site_id
 _symmetry_equiv_pos_as_xyz
  1  'x, y, z'
loop_
 _atom_type_symbol
 _atom_type_oxidation_number
  La3+  3.0
  Ru4+  4.0
  O2-  -2.0
loop_
 _atom_site_type_symbol
 _atom_site_label
 _atom_site_symmetry_multiplicity
 _atom_site_fract_x
 _atom_site_fract_y
 _atom_site_fract_z
 _atom_site_occupancy
  La3+  La0  1  0.13649237  0.00020828  0.12508008  1
  La3+  La1  1  0.13615015  0.00253364  0.37469352  1
  La3+  La2  1  0.14007223  -0.00077869  0.62780497  1
  La3+  La3  1  0.14263204  -0.00186112  0.87281679  1
  La3+  La4  1  0.14051112  0.33408662  0.12553470  1
  La3+  La5  1  0.13795001  0.33291832  0.37202808  1
  La3+  La6  1  0.14124870  0.33210316  0.62870580  1
  La3+  La7  1  0.14554617  0.33402352  0.87145521  1
  La3+  La8  1  0.14326103  0.66502845  0.12538474  1
  La3+  La9  1  0.13612544  0.66681461  0.37688365  1
  La3+  La10  1  0.14077066  0.66321800  0.62905238  1
  La3+  La11  1  0.14270349  0.66655496  0.87473704  1
  La3+  La12  1  0.64157314  -0.00080428  0.12735742  1
  La3+  La13  1  0.64084284  0.00105789  0.37613230  1
  La3+  La14  1  0.64465885  0.00017548  0.62905433  1
  La3+  La15  1  0.64193233  0.00135675  0.87256033  1
  La3+  La16  1  0.63753453  0.33465632  0.12813008  1
  La3+  La17  1  0.63992227  0.33342657  0.37324170  1
  La3+  La18  1  0.63691071  0.32963830  0.62157821  1
  La3+  La19  1  0.64090016  0.33192941  0.87593024  1
  La3+  La20  1  0.63874754  0.66740432  0.12521715  1
  La3+  La21  1  0.64095078  0.67036336  0.37990046  1
  La3+  La22  1  0.64225290  0.67135253  0.62406043  1
  La3+  La23  1  0.63922485  0.67041011  0.87138512  1
  La3+  La24  1  0.36204655  0.00020276  0.12120058  1
  La3+  La25  1  0.36386642  0.00035787  0.37581552  1
  La3+  La26  1  0.35844446  0.00070097  0.63014075  1
  La3+  La27  1  0.36039235  -0.00263759  0.87512337  1
  La3+  La28  1  0.35974584  0.33508707  0.12439903  1
  La3+  La29  1  0.36292527  0.33254210  0.37338394  1
  La3+  La30  1  0.35948103  0.33442160  0.62909163  1
  La3+  La31  1  0.35723905  0.33526107  0.87239720  1
  La3+  La32  1  0.36320199  0.66696509  0.12108722  1
  La3+  La33  1  0.36297794  0.66584837  0.37680651  1
  La3+  La34  1  0.36217970  0.66577835  0.62804781  1
  La3+  La35  1  0.36015819  0.66740961  0.87561723  1
  La3+  La36  1  0.86098162  0.00000018  0.12461019  1
  La3+  La37  1  0.85816224  -0.00062055  0.37652151  1
  La3+  La38  1  0.85721878  -0.00091704  0.62771695  1
  La3+  La39  1  0.86147265  -0.00240052  0.87095234  1
  La3+  La40  1  0.86250578  0.33395257  0.12894517  1
  La3+  La41  1  0.86285709  0.33295531  0.37468608  1
  La3+  La42  1  0.86123095  0.32954867  0.62046083  1
  La3+  La43  1  0.86122255  0.33338164  0.87496599  1
  La3+  La44  1  0.86451221  0.66624388  0.12534042  1
  La3+  La45  1  0.85935228  0.66785390  0.37905953  1
  La3+  La46  1  0.85647982  0.66893286  0.62334071  1
  La3+  La47  1  0.86125986  0.67084655  0.87207792  1
  La3+  La48  1  0.49876204  0.49880472  0.88516157  1
  La3+  La49  1  -0.00053653  0.50046155  0.63216950  1
  La3+  La50  1  0.00124506  0.16256887  0.86757594  1
  La3+  La51  1  0.00166256  0.84019856  0.13395818  1
  La3+  La52  1  0.00094454  0.17157926  0.88618428  1
  La3+  La53  1  0.51004264  0.82555714  0.37460690  1
  La3+  La54  1  0.00463124  0.17351749  0.13028194  1
  La3+  La55  1  -0.00007536  0.83035002  0.62282176  1
  La3+  La56  1  0.49526274  0.50555254  0.62408717  1
  La3+  La57  1  -0.00005889  0.49870442  0.88572677  1
  La3+  La58  1  0.49544860  0.16297461  0.61463290  1
  La3+  La59  1  0.00388030  0.16644034  0.61756311  1
  La3+  La60  1  0.49689308  0.17162665  0.86159655  1
  La3+  La61  1  0.49593805  0.49712768  0.36363457  1
  La3+  La62  1  0.50385397  0.82565049  0.38810393  1
  La3+  La63  1  0.50281285  0.84105022  0.13599125  1
  La3+  La64  1  0.50709400  0.83671344  0.11495193  1
  La3+  La65  1  0.49614622  0.83275850  0.63138159  1
  La3+  La66  1  0.49670467  0.17170023  0.13580048  1
  La3+  La67  1  -0.00492062  0.50606996  0.13031311  1
  La3+  La68  1  0.00191803  0.16820009  0.63878409  1
  La3+  La69  1  0.49818322  0.16752030  0.63616741  1
  La3+  La70  1  0.49889696  0.16444107  0.11486311  1
  La3+  La71  1  -0.00454205  0.83472337  0.38239825  1
  La3+  La72  1  0.24980960  0.45677930  0.20852111  1
  La3+  La73  1  0.75012987  0.16279866  0.30194671  1
  La3+  La74  1  0.25006201  0.83630258  0.51655950  1
  La3+  La75  1  0.24972147  0.12210029  -0.00484877  1
  La3+  La76  1  0.75024071  0.54040781  0.44622134  1
  La3+  La77  1  0.74989109  0.55394335  0.76579673  1
  La3+  La78  1  0.25062926  0.12544668  0.52834262  1
  La3+  La79  1  0.25011506  0.20080402  0.25481144  1
  La3+  La80  1  0.75049439  0.21507058  -0.02001785  1
  La3+  La81  1  0.24997404  0.54286709  0.55149263  1
  La3+  La82  1  0.24891459  0.88289043  0.26062952  1
  La3+  La83  1  0.74963596  0.49755894  0.02036020  1
  Ru4+  Ru84  1  -0.00079413  -0.00254562  0.00257984  1
  Ru4+  Ru85  1  -0.00085700  -0.00217043  0.24940490  1
  Ru4+  Ru86  1  0.00230129  -0.00196389  0.49263694  1
  Ru4+  Ru87  1  0.00024313  0.00040085  0.74977019  1
  Ru4+  Ru88  1  0.00134775  0.33482577  0.00494057  1
  Ru4+  Ru89  1  0.00090736  0.33784508  0.24611411  1
  Ru4+  Ru90  1  -0.00346911  0.34615472  0.49460428  1
  Ru4+  Ru91  1  -0.00055471  0.33604796  0.75272490  1
  Ru4+  Ru92  1  0.00328538  0.67756555  0.00492377  1
  Ru4+  Ru93  1  -0.00034505  0.65964421  0.24611750  1
  Ru4+  Ru94  1  0.00005926  0.66671879  0.50095957  1
  Ru4+  Ru95  1  -0.00261417  0.67213467  0.74978170  1
  Ru4+  Ru96  1  0.50252187  0.00658771  -0.00278416  1
  Ru4+  Ru97  1  0.50066321  0.00347537  0.25395160  1
  Ru4+  Ru98  1  0.50015610  0.00137433  0.50009382  1
  Ru4+  Ru99  1  0.50330953  -0.00761784  0.74986566  1
  Ru4+  Ru100  1  0.49824597  0.33492355  0.00135223  1
  Ru4+  Ru101  1  0.49923794  0.33587752  0.25118720  1
  Ru4+  Ru102  1  0.50047394  0.33322178  0.49592098  1
  Ru4+  Ru103  1  0.50068379  0.33629216  0.75081865  1
  Ru4+  Ru104  1  0.49948113  0.66632568  -0.00407524  1
  Ru4+  Ru105  1  0.50202886  0.66190938  0.25053355  1
  Ru4+  Ru106  1  0.49423220  0.66090627  0.49729785  1
  Ru4+  Ru107  1  0.50091783  0.66691926  0.74885992  1
  Ru4+  Ru108  1  0.11110159  0.16949573  -0.00018954  1
  Ru4+  Ru109  1  0.10951207  0.16722002  0.24985372  1
  Ru4+  Ru110  1  0.11334292  0.15992739  0.49747738  1
  Ru4+  Ru111  1  0.11451695  0.16749973  0.74994551  1
  Ru4+  Ru112  1  0.11403417  0.49593483  -0.00131410  1
  Ru4+  Ru113  1  0.10855220  0.49809730  0.25285888  1
  Ru4+  Ru114  1  0.10895647  0.50010187  0.49957762  1
  Ru4+  Ru115  1  0.11425957  0.49992544  0.75060499  1
  Ru4+  Ru116  1  0.11127598  0.82588380  -0.00240659  1
  Ru4+  Ru117  1  0.10991647  0.83458770  0.25000692  1
  Ru4+  Ru118  1  0.10968819  0.83133371  0.50079639  1
  Ru4+  Ru119  1  0.11423745  0.83577830  0.74970302  1
  Ru4+  Ru120  1  0.61085659  0.16728618  -0.00120289  1
  Ru4+  Ru121  1  0.61236883  0.16856153  0.25030080  1
  Ru4+  Ru122  1  0.61538034  0.16857654  0.49683221  1
  Ru4+  Ru123  1  0.61433623  0.16355917  0.75091266  1
  Ru4+  Ru124  1  0.60960337  0.49874272  -0.00045051  1
  Ru4+  Ru125  1  0.61238342  0.49971179  0.25066974  1
  Ru4+  Ru126  1  0.61227840  0.49949082  0.50132641  1
  Ru4+  Ru127  1  0.61058650  0.49914232  0.75168313  1
  Ru4+  Ru128  1  0.61425420  0.83378346  -0.00143205  1
  Ru4+  Ru129  1  0.61255781  0.83271537  0.25085915  1
  Ru4+  Ru130  1  0.61758820  0.83517182  0.50136837  1
  Ru4+  Ru131  1  0.61260346  0.83688150  0.75244035  1
  Ru4+  Ru132  1  0.38927443  0.16583765  -0.00177457  1
  Ru4+  Ru133  1  0.38989906  0.16702247  0.24901536  1
  Ru4+  Ru134  1  0.38804825  0.16323970  0.49904405  1
  Ru4+  Ru135  1  0.38704555  0.16987016  0.75020663  1
  Ru4+  Ru136  1  0.38705677  0.49622578  0.00127173  1
  Ru4+  Ru137  1  0.38965703  0.49775723  0.25061224  1
  Ru4+  Ru138  1  0.38956878  0.49869845  0.50092159  1
  Ru4+  Ru139  1  0.38525173  0.49775542  0.74937802  1
  Ru4+  Ru140  1  0.38521672  0.82793154  -0.00316221  1
  Ru4+  Ru141  1  0.38668327  0.83558918  0.24973905  1
  Ru4+  Ru142  1  0.38927178  0.83619303  0.50259705  1
  Ru4+  Ru143  1  0.38583919  0.83746495  0.74981092  1
  Ru4+  Ru144  1  0.88936043  0.16941584  -0.00009452  1
  Ru4+  Ru145  1  0.88673584  0.16840727  0.25137391  1
  Ru4+  Ru146  1  0.88034461  0.16339683  0.49538177  1
  Ru4+  Ru147  1  0.88606804  0.16151602  0.74936497  1
  Ru4+  Ru148  1  0.89086070  0.50027446  0.00009932  1
  Ru4+  Ru149  1  0.88824317  0.49717630  0.25218421  1
  Ru4+  Ru150  1  0.89005544  0.49852736  0.50077943  1
  Ru4+  Ru151  1  0.88948787  0.49828454  0.75104705  1
  Ru4+  Ru152  1  0.88824327  0.83170232  -0.00318384  1
  Ru4+  Ru153  1  0.88636695  0.83371740  0.25035285  1
  Ru4+  Ru154  1  0.88534509  0.82917199  0.49946967  1
  Ru4+  Ru155  1  0.88505204  0.83143591  0.74962901  1
  Ru4+  Ru156  1  0.25008340  0.26377158  0.51131476  1
  Ru4+  Ru157  1  0.74985346  0.91015199  0.25294459  1
  Ru4+  Ru158  1  0.25041781  0.08689097  0.75144893  1
  Ru4+  Ru159  1  0.25008865  0.27302890  -0.02187856  1
  Ru4+  Ru160  1  0.24966854  0.69692170  0.51348437  1
  Ru4+  Ru161  1  0.24969596  0.91942971  -0.00677455  1
  Ru4+  Ru162  1  0.24999334  0.57330653  -0.00760043  1
  Ru4+  Ru163  1  0.75010492  0.24422510  0.74349093  1
  Ru4+  Ru164  1  0.74997022  0.57519712  0.25309017  1
  Ru4+  Ru165  1  0.24980739  0.97124645  0.49895348  1
  Ru4+  Ru166  1  0.24958210  0.73488358  0.24780488  1
  Ru4+  Ru167  1  0.25018264  0.60026481  0.25396252  1
  Ru4+  Ru168  1  0.75069802  0.62671799  -0.03319597  1
  Ru4+  Ru169  1  0.74993498  0.75810822  0.25689491  1
  Ru4+  Ru170  1  0.24982086  0.40494832  0.51031389  1
  Ru4+  Ru171  1  0.25001871  0.74926291  0.75485900  1
  Ru4+  Ru172  1  0.75019753  0.36348033  0.01519828  1
  Ru4+  Ru173  1  0.74984730  0.76809927  -0.01171624  1
  Ru4+  Ru174  1  0.25054139  0.05738060  0.25021031  1
  Ru4+  Ru175  1  0.75008096  0.90787186  -0.01011102  1
  Ru4+  Ru176  1  0.75025181  0.06604186  -0.01487429  1
  Ru4+  Ru177  1  0.74963426  0.39364714  0.50008495  1
  Ru4+  Ru178  1  0.75006505  0.38965353  0.74878516  1
  Ru4+  Ru179  1  0.75039046  0.91441212  0.50356511  1
  O2-  O180  1  0.16235706  0.07465474  0.00134419  1
  O2-  O181  1  0.16875397  0.07966376  0.25017978  1
  O2-  O182  1  0.16562341  0.07703997  0.49909350  1
  O2-  O183  1  0.16707316  0.08039722  0.74983819  1
  O2-  O184  1  0.16667618  0.41695708  0.00151798  1
  O2-  O185  1  0.16401567  0.41413834  0.25047263  1
  O2-  O186  1  0.16559282  0.41295359  0.50160300  1
  O2-  O187  1  0.16467849  0.41626068  0.74835317  1
  O2-  O188  1  0.16811938  0.74988769  -0.00013078  1
  O2-  O189  1  0.16695977  0.74630486  0.25119993  1
  O2-  O190  1  0.16865598  0.74454566  0.49891921  1
  O2-  O191  1  0.16644729  0.74843938  0.74897231  1
  O2-  O192  1  0.66865171  0.08124680  -0.00141750  1
  O2-  O193  1  0.66730789  0.08071612  0.25311998  1
  O2-  O194  1  0.66328846  0.08247179  0.49908964  1
  O2-  O195  1  0.66697618  0.08275663  0.74925691  1
  O2-  O196  1  0.66575939  0.41303487  0.00179742  1
  O2-  O197  1  0.66524881  0.41613236  0.24963894  1
  O2-  O198  1  0.66619529  0.41353419  0.49885944  1
  O2-  O199  1  0.66948841  0.41270261  0.74820462  1
  O2-  O200  1  0.66929730  0.74895677  -0.00144190  1
  O2-  O201  1  0.66729495  0.74671991  0.24993364  1
  O2-  O202  1  0.66644124  0.75002183  0.50004730  1
  O2-  O203  1  0.66282923  0.75013215  0.75062124  1
  O2-  O204  1  0.33405277  0.25317755  -0.00051343  1
  O2-  O205  1  0.33856070  0.25419563  0.25020859  1
  O2-  O206  1  0.33243358  0.25416009  0.50167855  1
  O2-  O207  1  0.33719339  0.25137471  0.75058357  1
  O2-  O208  1  0.33211434  0.58674161  0.00047788  1
  O2-  O209  1  0.33479120  0.58750604  0.24865015  1
  O2-  O210  1  0.33459101  0.58794847  0.49971983  1
  O2-  O211  1  0.33587510  0.58468039  0.74941104  1
  O2-  O212  1  0.33325438  0.91872010  -0.00057460  1
  O2-  O213  1  0.33461957  0.92302113  0.25239511  1
  O2-  O214  1  0.33174556  0.92201720  0.49802697  1
  O2-  O215  1  0.33267840  0.91547026  0.75059849  1
  O2-  O216  1  0.83908144  0.25662743  0.00210203  1
  O2-  O217  1  0.83210965  0.25177334  0.25088898  1
  O2-  O218  1  0.83137748  0.25102068  0.49968464  1
  O2-  O219  1  0.83143389  0.25355971  0.75070402  1
  O2-  O220  1  0.83218475  0.58915240  -0.00073359  1
  O2-  O221  1  0.83310325  0.58573916  0.25024837  1
  O2-  O222  1  0.83511259  0.58329373  0.50028877  1
  O2-  O223  1  0.83948497  0.58781006  0.74915911  1
  O2-  O224  1  0.83141013  0.91793398  -0.00143929  1
  O2-  O225  1  0.83149325  0.91711506  0.25035703  1
  O2-  O226  1  0.83246538  0.91835492  0.50149619  1
  O2-  O227  1  0.83431529  0.91758312  0.75298524  1
  O2-  O228  1  0.16682905  0.25300190  -0.00079044  1
  O2-  O229  1  0.16135116  0.25364306  0.25051655  1
  O2-  O230  1  0.16515664  0.25279114  0.50266644  1
  O2-  O231  1  0.16403961  0.25094709  0.74879699  1
  O2-  O232  1  0.16590799  0.58470494  0.00000225  1
  O2-  O233  1  0.16619535  0.58591073  0.25078789  1
  O2-  O234  1  0.16502998  0.58625291  0.49980968  1
  O2-  O235  1  0.16484032  0.58264016  0.74959321  1
  O2-  O236  1  0.16582812  0.91759125  0.00123762  1
  O2-  O237  1  0.16102804  0.92385147  0.24950933  1
  O2-  O238  1  0.16561077  0.92192724  0.50064154  1
  O2-  O239  1  0.16427691  0.91746835  0.74822090  1
  O2-  O240  1  0.66312544  0.25455070  0.00328734  1
  O2-  O241  1  0.66844726  0.25207046  0.25132732  1
  O2-  O242  1  0.66885425  0.25187841  0.49915856  1
  O2-  O243  1  0.66780268  0.25225039  0.74831590  1
  O2-  O244  1  0.66586509  0.58887150  -0.00068959  1
  O2-  O245  1  0.66764850  0.58482990  0.25212965  1
  O2-  O246  1  0.66675833  0.58578485  0.49956620  1
  O2-  O247  1  0.66005846  0.58744687  0.74904041  1
  O2-  O248  1  0.66717697  0.91778722  -0.00095546  1
  O2-  O249  1  0.66716364  0.91922555  0.25139373  1
  O2-  O250  1  0.66785962  0.91935982  0.50020130  1
  O2-  O251  1  0.66736618  0.91561724  0.74878085  1
  O2-  O252  1  0.33629736  0.07670224  -0.00015341  1
  O2-  O253  1  0.33224411  0.07856698  0.25100911  1
  O2-  O254  1  0.33686865  0.07750282  0.49756257  1
  O2-  O255  1  0.33328060  0.08049288  0.75261140  1
  O2-  O256  1  0.33355616  0.41651956  -0.00111564  1
  O2-  O257  1  0.33526225  0.41351322  0.25056046  1
  O2-  O258  1  0.33265342  0.41425955  0.50068708  1
  O2-  O259  1  0.33335076  0.41718895  0.75068421  1
  O2-  O260  1  0.33404084  0.74762921  -0.00041093  1
  O2-  O261  1  0.33389603  0.74692176  0.24999590  1
  O2-  O262  1  0.33245965  0.74557446  0.50223577  1
  O2-  O263  1  0.33417988  0.74802422  0.74894851  1
  O2-  O264  1  0.83301110  0.07848504  -0.00243988  1
  O2-  O265  1  0.83016522  0.08151800  0.25116548  1
  O2-  O266  1  0.83188219  0.08206895  0.50189154  1
  O2-  O267  1  0.83462749  0.08120450  0.75165445  1
  O2-  O268  1  0.83506341  0.41173780  -0.00026279  1
  O2-  O269  1  0.83444655  0.41454992  0.25001190  1
  O2-  O270  1  0.83267389  0.41222555  0.49793301  1
  O2-  O271  1  0.83302152  0.41235455  0.74994512  1
  O2-  O272  1  0.83198220  0.74956711  0.00000084  1
  O2-  O273  1  0.83179239  0.74913144  0.24903697  1
  O2-  O274  1  0.83243509  0.75048013  0.50044736  1
  O2-  O275  1  0.83422295  0.74859848  0.75189739  1
  O2-  O276  1  0.95739718  0.11079436  0.22785305  1
  O2-  O277  1  0.44983466  0.56751166  0.51248845  1
  O2-  O278  1  0.54775731  0.43250574  0.26437888  1
  O2-  O279  1  0.44259417  0.75952431  0.05688879  1
  O2-  O280  1  0.45414995  0.90914944  0.01264563  1
  O2-  O281  1  0.54586884  0.09872271  0.23933893  1
  O2-  O282  1  0.95566500  0.22979042  0.51010042  1
  O2-  O283  1  0.94303213  0.91906829  0.02086339  1
  O2-  O284  1  0.04793616  0.23556094  0.48274891  1
  O2-  O285  1  0.95579411  0.22961121  0.51022712  1
  O2-  O286  1  0.46389467  0.89569321  0.28716248  1
  O2-  O287  1  0.04393512  0.43377771  0.76365982  1
  O2-  O288  1  0.44316079  0.24161971  0.47908537  1
  O2-  O289  1  0.54802540  0.75969478  0.73772298  1
  O2-  O290  1  0.04790112  0.09790386  0.01492967  1
  O2-  O291  1  0.54636301  0.56604227  0.98743914  1
  O2-  O292  1  0.53882233  0.45074920  0.72155754  1
  O2-  O293  1  0.96559281  0.77498915  0.78725487  1
  O2-  O294  1  0.95995074  0.76913419  0.22527382  1
  O2-  O295  1  0.96057689  0.89282337  0.28240730  1
  O2-  O296  1  0.95991123  0.09975742  0.53267348  1
  O2-  O297  1  0.02189357  0.78781618  0.01013045  1
  O2-  O298  1  0.95458144  0.90250311  0.51656428  1
  O2-  O299  1  0.53550593  0.11305335  0.96043397  1
  O2-  O300  1  0.95270088  0.57366077  0.24670142  1
  O2-  O301  1  0.45310001  0.77369855  0.93673826  1
  O2-  O302  1  0.95661324  0.56680478  0.76430930  1
  O2-  O303  1  0.05197401  0.56863768  0.25908949  1
  O2-  O304  1  0.52629452  0.88131609  0.75077015  1
  O2-  O305  1  0.55999504  0.24490610  0.54691859  1
  O2-  O306  1  0.54183051  0.56206377  0.46633754  1
  O2-  O307  1  0.95395740  0.42295121  0.26337541  1
  O2-  O308  1  0.94806734  0.91704275  0.72298931  1
  O2-  O309  1  0.04459060  0.23406565  0.26443237  1
  O2-  O310  1  0.94940720  0.56662602  0.25341324  1
  O2-  O311  1  0.95170933  0.23668904  0.76210698  1
  O2-  O312  1  0.54665974  0.43011866  0.51242606  1
  O2-  O313  1  0.03773852  0.44893292  0.03021876  1
  O2-  O314  1  0.54975443  0.75569987  0.48186133  1
  O2-  O315  1  0.95201595  0.09676319  0.98456425  1
  O2-  O316  1  0.44638283  0.91911176  0.44725184  1
  O2-  O317  1  0.54329638  0.77513216  0.51338009  1
  O2-  O318  1  0.05215962  0.76108230  0.45683319  1
  O2-  O319  1  0.04638171  0.90538917  0.03173063  1
  O2-  O320  1  0.04617621  0.43157354  0.48876792  1
  O2-  O321  1  0.45265664  0.75983920  0.26185579  1
  O2-  O322  1  0.05183867  0.24416662  0.52026214  1
  O2-  O323  1  0.04820978  0.23701976  0.73592546  1
  O2-  O324  1  0.57848644  0.95121409  0.79876752  1
  O2-  O325  1  0.56464961  0.59715161  0.31538445  1
  O2-  O326  1  0.05605798  0.75672009  0.45713731  1
  O2-  O327  1  0.43506356  0.06926629  0.96367168  1
  O2-  O328  1  0.92599557  0.27636440  0.44534790  1
  O2-  O329  1  0.07822961  0.73594451  0.58112682  1
  O2-  O330  1  0.93852135  0.59354775  0.53538359  1
  O2-  O331  1  0.93740479  0.41102741  0.43400581  1
  O2-  O332  1  0.56776215  0.58772503  0.19454178  1
  O2-  O333  1  0.43359140  0.92314333  0.02946976  1
  O2-  O334  1  0.92867052  0.72427173  0.69394201  1
  O2-  O335  1  0.07049594  0.38267579  0.93833118  1
  O2-  O336  1  0.92352348  0.73064863  0.29635060  1
  O2-  O337  1  0.57405050  0.60086293  0.54302520  1
  O2-  O338  1  0.93752129  0.40589433  0.56957418  1
  O2-  O339  1  0.07374495  0.71162360  0.07256583  1
  O2-  O340  1  0.06491655  0.40025587  0.28390996  1
  O2-  O341  1  0.92405479  0.06239018  0.45306812  1
  O2-  O342  1  0.93389125  0.73619922  0.96510927  1
  O2-  O343  1  0.93451042  0.74206471  0.47260608  1
  O2-  O344  1  0.56795618  0.25094089  0.06084896  1
  O2-  O345  1  0.06790806  0.72288102  0.92144404  1
  O2-  O346  1  0.94176533  0.90867963  0.01979159  1
  O2-  O347  1  0.43487891  0.40182373  0.71769176  1
  O2-  O348  1  0.57248394  0.38493071  0.81021084  1
  O2-  O349  1  0.44674488  0.90935386  0.45187585  1
  O2-  O350  1  0.43362466  0.40868728  0.27549452  1
  O2-  O351  1  0.55171212  0.23442498  0.54317889  1
  O2-  O352  1  0.94636227  0.92109980  0.72370864  1
  O2-  O353  1  0.42113180  0.93662483  0.19738653  1
  O2-  O354  1  0.43415499  0.73955376  0.47239216  1
  O2-  O355  1  0.42238408  0.92901505  0.57817067  1
  O2-  O356  1  0.43332124  0.59209689  0.97181421  1
  O2-  O357  1  0.92347197  0.93692610  0.20121443  1
  O2-  O358  1  0.56191679  0.26441346  0.92886175  1
  O2-  O359  1  0.92765535  0.06670663  0.29344574  1
  O2-  O360  1  0.44688282  0.24843621  0.48327322  1
  O2-  O361  1  0.93666039  0.59048384  0.02458264  1
  O2-  O362  1  0.43444908  0.92931124  0.72619742  1
  O2-  O363  1  0.43632335  0.40307664  0.53257820  1
  O2-  O364  1  0.55884967  0.08029566  0.78141770  1
  O2-  O365  1  0.57886010  0.06181659  0.04887716  1
  O2-  O366  1  0.06368729  0.06826278  0.46823831  1
  O2-  O367  1  0.06413583  0.06763640  0.21863776  1
  O2-  O368  1  0.06891805  0.94097475  0.94909031  1
  O2-  O369  1  0.56706022  0.73985811  0.02500567  1
  O2-  O370  1  0.56971958  0.27813355  0.41458264  1
  O2-  O371  1  0.43603948  0.40804249  0.02320790  1
  O2-  O372  1  0.24967706  0.66165907  0.39502654  1
  O2-  O373  1  0.25003974  0.34154607  0.08056143  1
  O2-  O374  1  0.74988652  0.68089340  0.07280443  1
  O2-  O375  1  0.25004648  0.32781838  0.17287412  1
  O2-  O376  1  0.74968276  0.66317863  0.39206143  1
  O2-  O377  1  0.75056530  0.32981911  0.88915373  1
  O2-  O378  1  0.74982646  0.00135755  0.18620290  1
  O2-  O379  1  0.25003891  0.00405674  0.84753971  1
  O2-  O380  1  0.74969287  0.66572104  0.66939199  1
  O2-  O381  1  0.25057065  0.66986241  0.84344272  1
  O2-  O382  1  0.24992012  0.33442584  0.31741335  1
  O2-  O383  1  0.74987397  -0.00487427  0.40428995  1
  O2-  O384  1  0.74960109  0.00257033  0.57819912  1
  O2-  O385  1  0.74980912  0.66473533  0.57953238  1
  O2-  O386  1  0.74992212  -0.01036549  0.07259330  1
  O2-  O387  1  0.74968118  0.66592396  0.19150300  1
  O2-  O388  1  0.75002986  0.33166153  0.60113047  1
  O2-  O389  1  0.25052949  0.66938168  0.64986404  1
  O2-  O390  1  0.74980568  -0.00257236  0.66753753  1
  O2-  O391  1  0.24912550  0.00283024  0.65399502  1
  O2-  O392  1  0.24932985  0.33558041  0.63599783  1
  O2-  O393  1  0.24950902  0.33265007  0.41352101  1
  O2-  O394  1  0.25018284  0.32956711  0.86125935  1
  O2-  O395  1  0.74979160  0.66516580  0.85233344  1
  O2-  O396  1  0.24994923  0.51088665  0.33426297  1
  O2-  O397  1  0.74978535  0.49228006  0.57169510  1
  O2-  O398  1  0.74986633  0.14725239  0.08882820  1
  O2-  O399  1  0.74980486  0.50359784  0.16381879  1
  O2-  O400  1  0.75002613  0.48646042  0.88081453  1
  O2-  O401  1  0.75003796  0.17269911  0.17334416  1
  O2-  O402  1  0.75012031  0.83812969  0.64859361  1
  O2-  O403  1  0.24990120  0.50587960  0.91112896  1
  O2-  O404  1  0.25019683  0.82226859  0.37924090  1
  O2-  O405  1  0.74989908  0.83439556  0.86552751  1
  O2-  O406  1  0.24987207  0.83640725  0.82917334  1
  O2-  O407  1  0.24998498  0.50761307  0.08248317  1
  O2-  O408  1  0.75032811  0.47962968  0.65893325  1
  O2-  O409  1  0.24992366  0.16840121  0.39272437  1
  O2-  O410  1  0.24986769  0.16399255  0.66820968  1
  O2-  O411  1  0.25006596  0.49085869  0.42338166  1
  O2-  O412  1  0.24990004  0.82790880  0.91611884  1
  O2-  O413  1  0.74992140  0.15190054  0.86212748  1
  O2-  O414  1  0.75003068  0.83496203  0.34602086  1
  O2-  O415  1  0.24998199  0.17244151  0.11962232  1
  O2-  O416  1  0.24990036  0.17417620  0.86989894  1
  O2-  O417  1  0.25001279  0.82463222  0.05523488  1
  O2-  O418  1  0.75001051  0.17164484  0.60125369  1
  O2-  O419  1  0.25036112  0.82111102  0.14205418  1
  O2-  O420  1  0.97344787  0.65854403  0.38398972  1
  O2-  O421  1  0.45948014  0.66907897  0.63153598  1
  O2-  O422  1  0.48164602  0.01695509  0.62758724  1
  O2-  O423  1  0.04448260  0.32971283  0.12657468  1
  O2-  O424  1  0.53486226  0.66869441  0.63169549  1
  O2-  O425  1  0.45768360  0.32282279  0.13140674  1
  O2-  O426  1  0.52505269  0.67116626  0.12009199  1
  O2-  O427  1  0.02210740  0.65384956  0.63401142  1
  O2-  O428  1  0.47122517  0.33282804  0.87624547  1
  O2-  O429  1  0.46320448  0.02229844  0.12113245  1
  O2-  O430  1  0.98356150  -0.01099960  0.37547514  1
  O2-  O431  1  0.47678397  0.33695737  0.37380244  1
  O2-  O432  1  0.97530065  0.67043792  0.12429650  1
  O2-  O433  1  0.97881850  0.01127147  0.12459572  1
  O2-  O434  1  0.54086538  -0.01622025  0.13907991  1
  O2-  O435  1  0.54052091  0.34264342  0.13631756  1
  O2-  O436  1  0.95461198  0.33074954  0.12180083  1
  O2-  O437  1  0.46670576  0.65792666  0.13172092  1
  O2-  O438  1  0.53306663  0.66608516  0.87412361  1
  O2-  O439  1  0.52347546  0.33312612  0.63444371  1
  O2-  O440  1  0.47082241  0.66287798  0.86461966  1
  O2-  O441  1  0.47383212  0.66105123  0.37058528  1
  O2-  O442  1  0.03022822  0.65780595  0.36719214  1
  O2-  O443  1  0.52959961  0.00007301  0.37614190  1
