# generated using pymatgen
data_La7(Ru4O11)2
_symmetry_space_group_name_H-M   'P 1'
_cell_length_a   23.99001562
_cell_length_b   16.82995291
_cell_length_c   15.42619554
_cell_angle_alpha   89.99976285
_cell_angle_beta   90.00011157
_cell_angle_gamma   89.99929515
_symmetry_Int_Tables_number   1
_chemical_formula_structural   La7(Ru4O11)2
_chemical_formula_sum   'La84 Ru96 O264'
_cell_volume   6228.33930119
_cell_formula_units_Z   12
loop_
 _symmetry_equiv_pos_site_id
 _symmetry_equiv_pos_as_xyz
  1  'x, y, z'
loop_
 _atom_type_symbol
 _atom_type_oxidation_number
  La3+  3.0
  Ru4+  4.0
  O2-  -2.0
loop_
 _atom_site_type_symbol
 _atom_site_label
 _atom_site_symmetry_multiplicity
 _atom_site_fract_x
 _atom_site_fract_y
 _atom_site_fract_z
 _atom_site_occupancy
  La3+  La0  1  0.13964014  0.00156290  0.12504947  1
  La3+  La1  1  0.13633377  0.00148857  0.37264900  1
  La3+  La2  1  0.13775400  0.00059626  0.62776883  1
  La3+  La3  1  0.13983069  0.00035943  0.87426794  1
  La3+  La4  1  0.14029909  0.33110211  0.12349907  1
  La3+  La5  1  0.13679148  0.33178401  0.37185419  1
  La3+  La6  1  0.13682767  0.33387978  0.62696164  1
  La3+  La7  1  0.13794603  0.33299456  0.87622515  1
  La3+  La8  1  0.13673541  0.66727873  0.12311406  1
  La3+  La9  1  0.13733784  0.66794084  0.37714103  1
  La3+  La10  1  0.13799828  0.66627490  0.62527495  1
  La3+  La11  1  0.14008668  0.66542138  0.87492284  1
  La3+  La12  1  0.63981282  0.00188764  0.12304294  1
  La3+  La13  1  0.64182973  0.00534345  0.37210263  1
  La3+  La14  1  0.64244345  0.00255857  0.62900198  1
  La3+  La15  1  0.63997417  0.00143887  0.87479671  1
  La3+  La16  1  0.63852605  0.33318826  0.12273254  1
  La3+  La17  1  0.63722003  0.33381245  0.37689127  1
  La3+  La18  1  0.63923279  0.33444694  0.62290048  1
  La3+  La19  1  0.64265568  0.33306510  0.87713217  1
  La3+  La20  1  0.63528678  0.66212895  0.11950789  1
  La3+  La21  1  0.64071412  0.66428168  0.37366708  1
  La3+  La22  1  0.63788446  0.66624260  0.62538376  1
  La3+  La23  1  0.63954851  0.66455474  0.87992881  1
  La3+  La24  1  0.35937677  0.00076987  0.12223750  1
  La3+  La25  1  0.36160570  -0.00064421  0.37352374  1
  La3+  La26  1  0.36214837  0.00043851  0.62596159  1
  La3+  La27  1  0.36023163  -0.00021739  0.87602139  1
  La3+  La28  1  0.36009989  0.33256804  0.12292228  1
  La3+  La29  1  0.36143329  0.33413635  0.37163698  1
  La3+  La30  1  0.36365362  0.33449403  0.62516626  1
  La3+  La31  1  0.36064449  0.33412371  0.87855720  1
  La3+  La32  1  0.36377100  0.66648056  0.12271626  1
  La3+  La33  1  0.36327077  0.66550422  0.37722136  1
  La3+  La34  1  0.36235393  0.66482701  0.62459545  1
  La3+  La35  1  0.36103241  0.66665826  0.87548484  1
  La3+  La36  1  0.86092935  0.00146816  0.12544628  1
  La3+  La37  1  0.86074740  0.00267212  0.37536020  1
  La3+  La38  1  0.85951687  0.00046163  0.62603577  1
  La3+  La39  1  0.85856691  -0.00022207  0.87396538  1
  La3+  La40  1  0.85961979  0.33338791  0.12245209  1
  La3+  La41  1  0.86130446  0.33312626  0.37563319  1
  La3+  La42  1  0.85939549  0.33347897  0.62471885  1
  La3+  La43  1  0.85731426  0.33376937  0.87687893  1
  La3+  La44  1  0.86136559  0.66611903  0.12392228  1
  La3+  La45  1  0.86018593  0.66411921  0.37410494  1
  La3+  La46  1  0.86143156  0.66459545  0.62616898  1
  La3+  La47  1  0.85792869  0.66743699  0.87628841  1
  La3+  La48  1  -0.00254892  0.16483901  0.36136375  1
  La3+  La49  1  0.49869064  0.83212091  0.36617879  1
  La3+  La50  1  -0.00028568  0.83277607  0.88608498  1
  La3+  La51  1  0.00245802  0.17063850  0.88763919  1
  La3+  La52  1  0.00241264  0.16516400  0.62604143  1
  La3+  La53  1  0.00309785  0.16294752  0.38192809  1
  La3+  La54  1  0.00028597  0.49970787  0.86605631  1
  La3+  La55  1  0.50089672  0.50147429  0.88802260  1
  La3+  La56  1  0.49812054  0.16832822  0.37022146  1
  La3+  La57  1  0.49811173  0.17048331  0.88914189  1
  La3+  La58  1  0.49888726  0.83303569  0.38284183  1
  La3+  La59  1  0.50048362  0.50135017  0.86747958  1
  La3+  La60  1  0.00104059  0.49823687  0.36614540  1
  La3+  La61  1  0.49795143  0.83073364  0.62272162  1
  La3+  La62  1  0.00025732  0.83201655  0.63543889  1
  La3+  La63  1  -0.00382999  0.16836035  0.86741188  1
  La3+  La64  1  -0.00024534  0.50050463  0.63399772  1
  La3+  La65  1  0.49908287  0.50276363  0.63733937  1
  La3+  La66  1  0.49555128  0.50411542  0.37980333  1
  La3+  La67  1  -0.00064664  0.49919305  0.11217649  1
  La3+  La68  1  0.00105287  0.16596227  0.11989429  1
  La3+  La69  1  0.50319999  0.83656271  0.88135667  1
  La3+  La70  1  0.49799205  0.15848525  0.87088704  1
  La3+  La71  1  0.50152160  0.83237119  0.13518504  1
  La3+  La72  1  0.24990068  0.49865937  -0.04208929  1
  La3+  La73  1  0.74971318  0.16849487  -0.03430785  1
  La3+  La74  1  0.24990959  0.16931198  0.49903082  1
  La3+  La75  1  0.74996679  0.16788278  0.49807815  1
  La3+  La76  1  0.75049577  0.83225309  0.55147801  1
  La3+  La77  1  0.25012090  0.16827360  -0.01788934  1
  La3+  La78  1  0.74944835  0.78419884  0.23157650  1
  La3+  La79  1  0.25008966  0.84464617  0.28227036  1
  La3+  La80  1  0.25003489  0.12561301  0.77368000  1
  La3+  La81  1  0.25014093  0.16794118  0.24824576  1
  La3+  La82  1  0.25072743  0.48609242  0.27946835  1
  La3+  La83  1  0.25027668  0.79378088  0.47719597  1
  Ru4+  Ru84  1  -0.00431927  -0.00020230  0.00269765  1
  Ru4+  Ru85  1  -0.00406419  -0.00429523  0.24997461  1
  Ru4+  Ru86  1  -0.00026674  -0.00077860  0.49722300  1
  Ru4+  Ru87  1  -0.00134405  -0.01128591  0.75260952  1
  Ru4+  Ru88  1  0.00025517  0.33268082  0.00376453  1
  Ru4+  Ru89  1  -0.00332135  0.33985363  0.24879419  1
  Ru4+  Ru90  1  -0.00021819  0.33502905  0.50063842  1
  Ru4+  Ru91  1  -0.00182544  0.34367532  0.74461257  1
  Ru4+  Ru92  1  0.00026604  0.66748942  0.00083552  1
  Ru4+  Ru93  1  0.00321694  0.66220525  0.25124968  1
  Ru4+  Ru94  1  0.00460353  0.66892799  0.49650598  1
  Ru4+  Ru95  1  -0.00039797  0.66752679  0.74913915  1
  Ru4+  Ru96  1  0.49672438  -0.00464272  0.00472692  1
  Ru4+  Ru97  1  0.49962347  -0.00016511  0.24487462  1
  Ru4+  Ru98  1  0.49914136  0.00191243  0.50919235  1
  Ru4+  Ru99  1  0.50270588  -0.00166914  0.74390912  1
  Ru4+  Ru100  1  0.49960338  0.33440168  0.00350171  1
  Ru4+  Ru101  1  0.49834028  0.33917970  0.24572813  1
  Ru4+  Ru102  1  0.49857069  0.32549678  0.49836686  1
  Ru4+  Ru103  1  0.49913628  0.33738634  0.74823928  1
  Ru4+  Ru104  1  0.50078825  0.66070736  -0.00168051  1
  Ru4+  Ru105  1  0.50024047  0.66261368  0.24892014  1
  Ru4+  Ru106  1  0.50406379  0.67085257  0.50217315  1
  Ru4+  Ru107  1  0.50004759  0.66726477  0.75011456  1
  Ru4+  Ru108  1  0.11299806  0.16696583  0.00111578  1
  Ru4+  Ru109  1  0.11748996  0.16653305  0.24806394  1
  Ru4+  Ru110  1  0.11142352  0.16479865  0.50193807  1
  Ru4+  Ru111  1  0.11771010  0.16650144  0.74889821  1
  Ru4+  Ru112  1  0.11179630  0.50044188  -0.00077625  1
  Ru4+  Ru113  1  0.11069662  0.49904366  0.25016932  1
  Ru4+  Ru114  1  0.11186439  0.49996637  0.50052041  1
  Ru4+  Ru115  1  0.11257769  0.50164424  0.74966143  1
  Ru4+  Ru116  1  0.11252532  0.83236333  0.00027012  1
  Ru4+  Ru117  1  0.11052230  0.83119259  0.25098797  1
  Ru4+  Ru118  1  0.11081564  0.83130198  0.49957040  1
  Ru4+  Ru119  1  0.11132035  0.83343467  0.74983251  1
  Ru4+  Ru120  1  0.61571271  0.17063414  0.00108541  1
  Ru4+  Ru121  1  0.61656518  0.16419873  0.24912812  1
  Ru4+  Ru122  1  0.61176779  0.16756049  0.50013590  1
  Ru4+  Ru123  1  0.61666431  0.16534541  0.74808346  1
  Ru4+  Ru124  1  0.61214587  0.50261157  -0.00061506  1
  Ru4+  Ru125  1  0.61379795  0.50212840  0.25007396  1
  Ru4+  Ru126  1  0.61852134  0.50548365  0.49859306  1
  Ru4+  Ru127  1  0.61120956  0.49992499  0.75067142  1
  Ru4+  Ru128  1  0.61349589  0.83073786  0.00002440  1
  Ru4+  Ru129  1  0.61231338  0.83103626  0.24968258  1
  Ru4+  Ru130  1  0.61254168  0.83062823  0.50044759  1
  Ru4+  Ru131  1  0.61460404  0.83320454  0.74996248  1
  Ru4+  Ru132  1  0.38748948  0.16758805  0.00181340  1
  Ru4+  Ru133  1  0.38696040  0.16705034  0.24836018  1
  Ru4+  Ru134  1  0.38801092  0.16564470  0.50148467  1
  Ru4+  Ru135  1  0.38730194  0.16766622  0.74935227  1
  Ru4+  Ru136  1  0.38863041  0.49995257  -0.00076557  1
  Ru4+  Ru137  1  0.39020506  0.49997477  0.24968649  1
  Ru4+  Ru138  1  0.38384837  0.49785788  0.50010592  1
  Ru4+  Ru139  1  0.38747183  0.50166355  0.75050818  1
  Ru4+  Ru140  1  0.38363119  0.83642937  0.00137838  1
  Ru4+  Ru141  1  0.38801590  0.83340994  0.24953935  1
  Ru4+  Ru142  1  0.38875115  0.83283742  0.49952090  1
  Ru4+  Ru143  1  0.38642273  0.83059320  0.75055131  1
  Ru4+  Ru144  1  0.88781635  0.16711645  0.00095583  1
  Ru4+  Ru145  1  0.88574185  0.16516743  0.24920724  1
  Ru4+  Ru146  1  0.88713924  0.16542284  0.50146183  1
  Ru4+  Ru147  1  0.88229012  0.16668669  0.74990457  1
  Ru4+  Ru148  1  0.88525982  0.50094102  0.00021483  1
  Ru4+  Ru149  1  0.88630479  0.50031558  0.24991420  1
  Ru4+  Ru150  1  0.88379759  0.49712847  0.50119673  1
  Ru4+  Ru151  1  0.88797042  0.49984068  0.75026643  1
  Ru4+  Ru152  1  0.88577672  0.83128626  -0.00042859  1
  Ru4+  Ru153  1  0.88385692  0.83495418  0.24943873  1
  Ru4+  Ru154  1  0.88826954  0.83388309  0.50101822  1
  Ru4+  Ru155  1  0.88558015  0.83240477  0.75040791  1
  Ru4+  Ru156  1  0.25019942  0.25645870  0.75018531  1
  Ru4+  Ru157  1  0.24994415  0.75388151  -0.00140632  1
  Ru4+  Ru158  1  0.75034264  0.41837735  0.50276298  1
  Ru4+  Ru159  1  0.25003863  0.42923514  0.49596824  1
  Ru4+  Ru160  1  0.25010929  0.29609673  0.47306168  1
  Ru4+  Ru161  1  0.74971138  0.95809318  0.48589109  1
  Ru4+  Ru162  1  0.74976809  0.93684494  0.24795747  1
  Ru4+  Ru163  1  0.25004436  0.96924066  0.24177475  1
  Ru4+  Ru164  1  0.25002277  0.42921459  0.75144778  1
  Ru4+  Ru165  1  0.74980790  0.91050437  -0.00737311  1
  Ru4+  Ru166  1  0.75018866  0.24299023  0.25474685  1
  Ru4+  Ru167  1  0.74994124  0.58475282  0.75686869  1
  Ru4+  Ru168  1  0.24979023  0.75547694  0.75061305  1
  Ru4+  Ru169  1  0.24980987  0.58019836  0.49904499  1
  Ru4+  Ru170  1  0.24993539  0.04551164  0.51340702  1
  Ru4+  Ru171  1  0.25008942  0.91893755  0.50996369  1
  Ru4+  Ru172  1  0.25003569  0.36728126  0.22995825  1
  Ru4+  Ru173  1  0.25005058  0.73003009  0.24061554  1
  Ru4+  Ru174  1  0.24969932  0.91492727  0.00155626  1
  Ru4+  Ru175  1  0.75015164  0.70355513  0.48693263  1
  Ru4+  Ru176  1  0.74987486  0.41493699  0.75422010  1
  Ru4+  Ru177  1  0.24989551  0.91238099  0.74785218  1
  Ru4+  Ru178  1  0.24985076  0.60569837  0.24144950  1
  Ru4+  Ru179  1  0.74969539  0.42395623  0.24933182  1
  O2-  O180  1  0.16741101  0.08054902  -0.00020542  1
  O2-  O181  1  0.16888272  0.08007256  0.25009621  1
  O2-  O182  1  0.16629700  0.07891479  0.49965076  1
  O2-  O183  1  0.16562574  0.07908800  0.74915874  1
  O2-  O184  1  0.16536712  0.41518533  0.00046938  1
  O2-  O185  1  0.16495109  0.41249556  0.24964852  1
  O2-  O186  1  0.16670023  0.41387984  0.49946267  1
  O2-  O187  1  0.16725620  0.41328874  0.74918256  1
  O2-  O188  1  0.16729750  0.74854469  0.00134231  1
  O2-  O189  1  0.16648506  0.74608661  0.24911028  1
  O2-  O190  1  0.16672113  0.74601046  0.50203123  1
  O2-  O191  1  0.16823962  0.74647174  0.74904859  1
  O2-  O192  1  0.66716003  0.08140827  0.00131575  1
  O2-  O193  1  0.66632526  0.08345754  0.24949914  1
  O2-  O194  1  0.66803380  0.08179663  0.49980180  1
  O2-  O195  1  0.66737944  0.08286634  0.74984285  1
  O2-  O196  1  0.66367771  0.41678034  0.00066151  1
  O2-  O197  1  0.66676008  0.41362263  0.24970246  1
  O2-  O198  1  0.66761473  0.41383837  0.49990677  1
  O2-  O199  1  0.66803588  0.41335153  0.74929479  1
  O2-  O200  1  0.66540310  0.74799322  0.00137127  1
  O2-  O201  1  0.66358242  0.74559461  0.24902508  1
  O2-  O202  1  0.66832218  0.74625018  0.50004105  1
  O2-  O203  1  0.66560300  0.74813996  0.74982851  1
  O2-  O204  1  0.33324266  0.25144050  -0.00182925  1
  O2-  O205  1  0.33112716  0.25157964  0.25005008  1
  O2-  O206  1  0.33334312  0.25406475  0.50055857  1
  O2-  O207  1  0.33410118  0.25400688  0.74978355  1
  O2-  O208  1  0.33290791  0.58695817  0.00100397  1
  O2-  O209  1  0.33436321  0.58734549  0.24976573  1
  O2-  O210  1  0.33276079  0.58520652  0.50046947  1
  O2-  O211  1  0.33369660  0.58660762  0.74929906  1
  O2-  O212  1  0.33225431  0.91809270  -0.00033332  1
  O2-  O213  1  0.33327059  0.92032510  0.24962099  1
  O2-  O214  1  0.33256018  0.92044087  0.50035574  1
  O2-  O215  1  0.33173385  0.91882412  0.74991927  1
  O2-  O216  1  0.83411111  0.25196998  0.00068250  1
  O2-  O217  1  0.83266768  0.25357310  0.24956498  1
  O2-  O218  1  0.83280681  0.25199331  0.49974963  1
  O2-  O219  1  0.83282959  0.25126179  0.74837418  1
  O2-  O220  1  0.83309108  0.58375611  0.00058830  1
  O2-  O221  1  0.83375374  0.58550038  0.24896651  1
  O2-  O222  1  0.83315420  0.58629612  0.49925105  1
  O2-  O223  1  0.83219211  0.58615201  0.74978322  1
  O2-  O224  1  0.83267119  0.91933595  0.00131744  1
  O2-  O225  1  0.83243094  0.91911515  0.24977796  1
  O2-  O226  1  0.83374408  0.91946798  0.49895173  1
  O2-  O227  1  0.83440764  0.91832163  0.75040246  1
  O2-  O228  1  0.16536366  0.25230544  -0.00042334  1
  O2-  O229  1  0.16833692  0.25298909  0.24957547  1
  O2-  O230  1  0.16503015  0.25536958  0.49960778  1
  O2-  O231  1  0.16669909  0.25388515  0.74939883  1
  O2-  O232  1  0.16798340  0.58654433  0.00171336  1
  O2-  O233  1  0.16594719  0.58784042  0.24844120  1
  O2-  O234  1  0.16809208  0.58610789  0.50045355  1
  O2-  O235  1  0.16630020  0.58638970  0.74946430  1
  O2-  O236  1  0.16820554  0.91787822  0.00042877  1
  O2-  O237  1  0.16584873  0.92078090  0.25044948  1
  O2-  O238  1  0.16525555  0.92017978  0.50013919  1
  O2-  O239  1  0.16793131  0.91936897  0.74961002  1
  O2-  O240  1  0.66706120  0.25104828  0.00065824  1
  O2-  O241  1  0.66612521  0.25222007  0.25015472  1
  O2-  O242  1  0.66731793  0.25214697  0.49995089  1
  O2-  O243  1  0.66724839  0.25134773  0.74946359  1
  O2-  O244  1  0.66835838  0.58479271  0.00162941  1
  O2-  O245  1  0.66572049  0.58502837  0.24843804  1
  O2-  O246  1  0.66581951  0.58558942  0.50073246  1
  O2-  O247  1  0.66809237  0.58676121  0.74948486  1
  O2-  O248  1  0.66767196  0.91924585  0.00117909  1
  O2-  O249  1  0.66707473  0.92021086  0.24971849  1
  O2-  O250  1  0.66839263  0.92010123  0.49918290  1
  O2-  O251  1  0.66619470  0.91815339  0.75044663  1
  O2-  O252  1  0.33359211  0.08095903  -0.00085423  1
  O2-  O253  1  0.33065290  0.08115211  0.25078100  1
  O2-  O254  1  0.33409693  0.08018221  0.50087168  1
  O2-  O255  1  0.33324606  0.07905606  0.74954012  1
  O2-  O256  1  0.33406372  0.41498304  -0.00107850  1
  O2-  O257  1  0.33371967  0.41303197  0.24928886  1
  O2-  O258  1  0.33246252  0.41522777  0.50005997  1
  O2-  O259  1  0.33259573  0.41297292  0.74956954  1
  O2-  O260  1  0.33076511  0.74855693  0.00025928  1
  O2-  O261  1  0.33460112  0.74600975  0.25044457  1
  O2-  O262  1  0.33496886  0.74550449  0.50173650  1
  O2-  O263  1  0.33170468  0.74793402  0.74879088  1
  O2-  O264  1  0.83332036  0.07988628  0.00095919  1
  O2-  O265  1  0.83510230  0.08166700  0.24936730  1
  O2-  O266  1  0.83060855  0.08153433  0.49951398  1
  O2-  O267  1  0.83260564  0.08172722  0.74936773  1
  O2-  O268  1  0.83483288  0.41628424  0.00069391  1
  O2-  O269  1  0.83321192  0.41428712  0.24913681  1
  O2-  O270  1  0.83334145  0.41516680  0.49975749  1
  O2-  O271  1  0.83209712  0.41379846  0.74938826  1
  O2-  O272  1  0.83483141  0.74891383  0.00119418  1
  O2-  O273  1  0.83503906  0.74675663  0.25048291  1
  O2-  O274  1  0.83142349  0.74574655  0.49914185  1
  O2-  O275  1  0.83295703  0.74799710  0.74964546  1
  O2-  O276  1  0.04461910  0.76139602  0.01355633  1
  O2-  O277  1  0.04829670  0.23774471  0.76448190  1
  O2-  O278  1  0.53130222  0.88012170  0.49169243  1
  O2-  O279  1  0.45359957  0.09836171  0.01604255  1
  O2-  O280  1  0.45603467  0.43915235  0.53015918  1
  O2-  O281  1  0.95275780  0.56887843  0.47984125  1
  O2-  O282  1  0.04700019  0.09784143  0.73058942  1
  O2-  O283  1  0.45158989  0.09470967  0.53798860  1
  O2-  O284  1  0.04789326  0.09544781  0.26326132  1
  O2-  O285  1  0.04854044  0.56675969  0.51373207  1
  O2-  O286  1  0.53253583  0.88089055  0.51034350  1
  O2-  O287  1  0.54862237  0.57124960  0.01175398  1
  O2-  O288  1  0.95234483  0.56849655  0.51907049  1
  O2-  O289  1  0.96652879  0.89328559  0.25539002  1
  O2-  O290  1  0.04708429  0.09493637  0.76969180  1
  O2-  O291  1  0.45327321  0.90326254  0.23494132  1
  O2-  O292  1  0.54554938  0.23454177  0.23114281  1
  O2-  O293  1  0.54016783  0.22787082  0.77678652  1
  O2-  O294  1  0.95231467  0.56860713  0.26537510  1
  O2-  O295  1  0.04853000  0.23834605  0.48843884  1
  O2-  O296  1  0.95813543  0.22534974  0.71783145  1
  O2-  O297  1  0.95515675  0.43506309  0.98609274  1
  O2-  O298  1  0.45392934  0.76430396  0.26207901  1
  O2-  O299  1  0.96593907  0.78262664  0.50436264  1
  O2-  O300  1  0.45258379  0.57091739  0.51522769  1
  O2-  O301  1  0.46050216  0.10963104  0.72073172  1
  O2-  O302  1  0.03979247  0.55529677  0.21349209  1
  O2-  O303  1  0.46242274  0.22043005  0.49694812  1
  O2-  O304  1  0.46360100  0.77345652  -0.01345979  1
  O2-  O305  1  0.54676874  0.90218185  0.26341182  1
  O2-  O306  1  0.04002188  0.89548778  0.02839068  1
  O2-  O307  1  0.54362561  0.56310977  0.98604342  1
  O2-  O308  1  0.54970072  0.23520998  0.48549707  1
  O2-  O309  1  0.54491475  0.43601016  0.50810677  1
  O2-  O310  1  0.45799489  0.89134261  0.77821181  1
  O2-  O311  1  0.54610957  0.10273345  0.27623961  1
  O2-  O312  1  0.54479972  0.43611725  0.50836277  1
  O2-  O313  1  0.04854375  0.23777893  0.26421122  1
  O2-  O314  1  0.54712030  0.90244354  0.73452837  1
  O2-  O315  1  0.46219803  0.11546952  0.24073832  1
  O2-  O316  1  0.46097017  0.76817519  0.99224776  1
  O2-  O317  1  0.54569133  0.76427606  0.76607832  1
  O2-  O318  1  0.95204368  0.23455877  0.48829654  1
  O2-  O319  1  0.54896311  0.09613986  0.98643429  1
  O2-  O320  1  0.54719190  0.23904955  0.26976384  1
  O2-  O321  1  0.96386917  0.77974727  0.24311154  1
  O2-  O322  1  0.96281069  0.76600340  0.27817139  1
  O2-  O323  1  0.45491430  0.90590853  0.01690677  1
  O2-  O324  1  0.43757416  0.59625635  0.53074892  1
  O2-  O325  1  0.93351381  0.26218491  0.27688524  1
  O2-  O326  1  0.06374476  0.73555031  0.46908364  1
  O2-  O327  1  0.06558944  0.25950481  0.77968218  1
  O2-  O328  1  0.93693635  0.73636407  0.78400670  1
  O2-  O329  1  0.07041465  0.60654123  0.30354120  1
  O2-  O330  1  0.57521783  0.95365367  0.57930063  1
  O2-  O331  1  0.56459102  0.07229399  0.96985556  1
  O2-  O332  1  0.43377588  0.73850650  0.77808974  1
  O2-  O333  1  0.92348968  0.72362929  0.53444089  1
  O2-  O334  1  0.92140175  0.71056107  0.19685561  1
  O2-  O335  1  0.43231722  0.25907238  0.29487295  1
  O2-  O336  1  0.93304579  0.07525101  0.70040073  1
  O2-  O337  1  0.56887788  0.05955685  0.20223019  1
  O2-  O338  1  0.44479484  0.08610639  0.54341281  1
  O2-  O339  1  0.43723714  0.40510841  0.21930860  1
  O2-  O340  1  0.42597992  0.05251958  0.20862144  1
  O2-  O341  1  0.06209864  0.26231010  0.28354585  1
  O2-  O342  1  0.56535012  0.07116744  0.77710324  1
  O2-  O343  1  0.93749825  0.59831420  0.03280199  1
  O2-  O344  1  0.06518490  0.07229326  0.52824490  1
  O2-  O345  1  0.56530290  0.73822399  0.52800604  1
  O2-  O346  1  0.42450561  0.27362913  0.46477730  1
  O2-  O347  1  0.42805100  0.93458400  0.70881873  1
  O2-  O348  1  0.43514211  0.26086238  0.20059292  1
  O2-  O349  1  0.06466359  0.73937810  0.28035198  1
  O2-  O350  1  0.42783987  0.40270470  0.45609201  1
  O2-  O351  1  0.06386089  0.06968674  0.06180274  1
  O2-  O352  1  0.42821338  0.06529625  0.79145065  1
  O2-  O353  1  0.93686387  0.40199150  0.53341977  1
  O2-  O354  1  0.56413475  0.26493456  0.96682507  1
  O2-  O355  1  0.43396111  0.59212211  0.27892072  1
  O2-  O356  1  0.93463165  0.07279562  0.52943650  1
  O2-  O357  1  0.42618001  0.06913648  0.43268722  1
  O2-  O358  1  0.58237249  0.94434399  0.42725851  1
  O2-  O359  1  0.06507419  0.07171489  0.93833986  1
  O2-  O360  1  0.43602881  0.26559939  0.03122949  1
  O2-  O361  1  0.57260583  0.38934198  0.45612406  1
  O2-  O362  1  0.06917512  0.93560424  0.95436566  1
  O2-  O363  1  0.41906100  0.71763639  0.04888583  1
  O2-  O364  1  0.92574206  0.27065813  0.79485352  1
  O2-  O365  1  0.57083274  0.27670251  0.69834333  1
  O2-  O366  1  0.93290147  0.07275834  0.79960154  1
  O2-  O367  1  0.43327184  0.92516914  0.46987957  1
  O2-  O368  1  0.06303259  0.59678992  0.96709367  1
  O2-  O369  1  0.06174314  0.07191189  0.28343863  1
  O2-  O370  1  0.56817628  0.60128683  0.96398001  1
  O2-  O371  1  0.92407005  0.94479790  0.28421596  1
  O2-  O372  1  0.25002017  -0.00143167  0.90599606  1
  O2-  O373  1  0.24994837  0.34087562  0.83460085  1
  O2-  O374  1  0.75011691  0.00323741  0.59717306  1
  O2-  O375  1  0.24989156  0.66959700  0.90806657  1
  O2-  O376  1  0.24982758  -0.00325124  0.39071104  1
  O2-  O377  1  0.24987257  0.33234995  0.92533518  1
  O2-  O378  1  0.74988136  0.00108454  0.15248573  1
  O2-  O379  1  0.74992706  0.33505354  0.32899336  1
  O2-  O380  1  0.24953576  0.33556410  0.10069161  1
  O2-  O381  1  0.25007357  0.66640419  0.40736492  1
  O2-  O382  1  0.25015166  0.34248287  0.67411739  1
  O2-  O383  1  0.75012363  0.33343422  0.07975198  1
  O2-  O384  1  0.74993086  0.33367093  0.90085217  1
  O2-  O385  1  0.24975254  0.32958755  0.34914746  1
  O2-  O386  1  0.74995179  0.33416497  0.59473323  1
  O2-  O387  1  0.24987191  0.34502174  0.58275069  1
  O2-  O388  1  0.24983583  -0.00037534  0.65841742  1
  O2-  O389  1  0.74985334  0.32972585  0.42346245  1
  O2-  O390  1  0.75048172  0.67046447  0.34919265  1
  O2-  O391  1  0.24986193  -0.00328736  0.09409634  1
  O2-  O392  1  0.74977783  0.66349386  0.89971240  1
  O2-  O393  1  0.75005892  -0.00221043  0.91051164  1
  O2-  O394  1  0.75006643  0.33329567  0.16969734  1
  O2-  O395  1  0.75009547  0.00102762  0.34935762  1
  O2-  O396  1  0.24992678  0.16605570  0.11326432  1
  O2-  O397  1  0.24996307  0.50039492  0.83280808  1
  O2-  O398  1  0.25000805  0.83253211  0.13329409  1
  O2-  O399  1  0.24990136  0.50102810  0.59223954  1
  O2-  O400  1  0.74997941  0.16661816  0.84065876  1
  O2-  O401  1  0.75011758  0.49979542  0.83887984  1
  O2-  O402  1  0.75000300  0.50112405  0.41865707  1
  O2-  O403  1  0.75006529  0.84503681  0.11440210  1
  O2-  O404  1  0.75004709  0.16731065  0.09651421  1
  O2-  O405  1  0.25013331  0.50090752  0.07602873  1
  O2-  O406  1  0.75005697  0.83819828  0.91604547  1
  O2-  O407  1  0.24994994  0.83321132  0.84136921  1
  O2-  O408  1  0.75005912  0.50340054  0.58075912  1
  O2-  O409  1  0.24992654  0.83702239  0.61315977  1
  O2-  O410  1  0.74997093  0.83248830  0.67115356  1
  O2-  O411  1  0.75000802  0.16890968  0.34289085  1
  O2-  O412  1  0.74984908  0.83307698  0.42468501  1
  O2-  O413  1  0.25005245  0.49941051  0.15494165  1
  O2-  O414  1  0.24973490  0.50142102  0.39981704  1
  O2-  O415  1  0.75011474  0.84815221  0.34065620  1
  O2-  O416  1  0.75007463  0.50134864  0.33035904  1
  O2-  O417  1  0.75005452  0.49966359  0.67007291  1
  O2-  O418  1  0.24995047  0.17159699  0.64139089  1
  O2-  O419  1  0.74999529  0.16102914  0.18145319  1
  O2-  O420  1  0.96690933  0.33769044  0.88042008  1
  O2-  O421  1  0.53901900  0.66998520  0.12742762  1
  O2-  O422  1  0.46408795  0.66185691  0.13343993  1
  O2-  O423  1  0.03113017  -0.00513210  0.62844814  1
  O2-  O424  1  0.03533386  0.33848550  0.88106939  1
  O2-  O425  1  0.97242212  0.00124879  0.12615732  1
  O2-  O426  1  0.47711474  -0.00474265  0.62566942  1
  O2-  O427  1  0.53993817  0.66631391  0.37318266  1
  O2-  O428  1  0.52607598  0.66181322  0.62970356  1
  O2-  O429  1  0.03804189  0.66818903  0.62799138  1
  O2-  O430  1  0.97392373  0.33917790  0.37801626  1
  O2-  O431  1  0.52822035  0.33532144  0.12532703  1
  O2-  O432  1  0.46914884  -0.00533619  0.36401261  1
  O2-  O433  1  0.97191998  -0.01045414  0.62316232  1
  O2-  O434  1  0.97508087  0.00323486  0.38100331  1
  O2-  O435  1  0.96555297  0.66276385  0.63509614  1
  O2-  O436  1  0.47131588  0.33310201  0.62613195  1
  O2-  O437  1  0.97446910  -0.00620493  0.87883302  1
  O2-  O438  1  0.47400364  0.66090948  0.87811042  1
  O2-  O439  1  0.48010710  0.33886809  0.36950518  1
  O2-  O440  1  0.53011144  0.00880454  0.37038818  1
  O2-  O441  1  0.53080896  -0.00750985  0.87185468  1
  O2-  O442  1  0.46276430  0.66986787  0.38206039  1
  O2-  O443  1  0.46795860  -0.00385024  0.88281836  1
