# generated using pymatgen
data_La7(Ru4O11)2
_symmetry_space_group_name_H-M   'P 1'
_cell_length_a   23.99196747
_cell_length_b   16.83163794
_cell_length_c   15.42969782
_cell_angle_alpha   90.00118383
_cell_angle_beta   90.00015327
_cell_angle_gamma   89.99918129
_symmetry_Int_Tables_number   1
_chemical_formula_structural   La7(Ru4O11)2
_chemical_formula_sum   'La84 Ru96 O264'
_cell_volume   6230.88398877
_cell_formula_units_Z   12
loop_
 _symmetry_equiv_pos_site_id
 _symmetry_equiv_pos_as_xyz
  1  'x, y, z'
loop_
 _atom_type_symbol
 _atom_type_oxidation_number
  La3+  3.0
  Ru4+  4.0
  O2-  -2.0
loop_
 _atom_site_type_symbol
 _atom_site_label
 _atom_site_symmetry_multiplicity
 _atom_site_fract_x
 _atom_site_fract_y
 _atom_site_fract_z
 _atom_site_occupancy
  La3+  La0  1  0.13761691  0.00272766  0.12246466  1
  La3+  La1  1  0.14295556  0.00289242  0.37367738  1
  La3+  La2  1  0.14179451  0.00182058  0.62273933  1
  La3+  La3  1  0.14509388  -0.00169965  0.87665049  1
  La3+  La4  1  0.13989517  0.33159313  0.12751853  1
  La3+  La5  1  0.13343882  0.32344828  0.38336067  1
  La3+  La6  1  0.12964339  0.32653187  0.62074539  1
  La3+  La7  1  0.13894830  0.33742620  0.87563587  1
  La3+  La8  1  0.13715027  0.66510995  0.12536257  1
  La3+  La9  1  0.14375876  0.66354803  0.36693498  1
  La3+  La10  1  0.13410533  0.66828637  0.62412139  1
  La3+  La11  1  0.13968181  0.66723364  0.87536961  1
  La3+  La12  1  0.63951840  0.00155639  0.12259760  1
  La3+  La13  1  0.64349315  -0.00300191  0.38238979  1
  La3+  La14  1  0.64711930  0.00196742  0.62646112  1
  La3+  La15  1  0.64458423  0.00336729  0.87311300  1
  La3+  La16  1  0.64225723  0.33971456  0.11802941  1
  La3+  La17  1  0.63594003  0.33020839  0.37432299  1
  La3+  La18  1  0.64285739  0.33001495  0.62980892  1
  La3+  La19  1  0.64726878  0.33488703  0.87049325  1
  La3+  La20  1  0.63715206  0.66639063  0.12617956  1
  La3+  La21  1  0.63977440  0.66980951  0.37650561  1
  La3+  La22  1  0.63731426  0.66533641  0.62332427  1
  La3+  La23  1  0.64080843  0.66357356  0.87324353  1
  La3+  La24  1  0.36427949  0.00221454  0.12291710  1
  La3+  La25  1  0.36197305  0.00277993  0.37477753  1
  La3+  La26  1  0.35413720  -0.00201821  0.62933933  1
  La3+  La27  1  0.35703783  -0.00008452  0.87533307  1
  La3+  La28  1  0.36263956  0.33425296  0.12388635  1
  La3+  La29  1  0.35790932  0.33173371  0.37544332  1
  La3+  La30  1  0.36378271  0.33167077  0.62560806  1
  La3+  La31  1  0.35889592  0.33331962  0.87650231  1
  La3+  La32  1  0.36051964  0.66294282  0.12406215  1
  La3+  La33  1  0.36194029  0.66997681  0.36906749  1
  La3+  La34  1  0.36191032  0.66800511  0.62653221  1
  La3+  La35  1  0.36083392  0.66672200  0.87588721  1
  La3+  La36  1  0.86300386  0.00144385  0.12254197  1
  La3+  La37  1  0.85934913  -0.00273636  0.37923120  1
  La3+  La38  1  0.85372210  0.00320714  0.62474026  1
  La3+  La39  1  0.85904274  0.00139084  0.87145087  1
  La3+  La40  1  0.86601899  0.33282331  0.12224978  1
  La3+  La41  1  0.86362467  0.33090294  0.37907845  1
  La3+  La42  1  0.85348202  0.33389878  0.63110665  1
  La3+  La43  1  0.85581260  0.33191086  0.87170614  1
  La3+  La44  1  0.86257892  0.66616129  0.12731821  1
  La3+  La45  1  0.85645878  0.66894050  0.37844274  1
  La3+  La46  1  0.86282958  0.66501770  0.62644527  1
  La3+  La47  1  0.86124750  0.66581007  0.87040921  1
  La3+  La48  1  -0.00158239  0.50091616  0.35782756  1
  La3+  La49  1  0.50214421  0.49931057  0.62214856  1
  La3+  La50  1  0.50122426  0.49968135  0.38039063  1
  La3+  La51  1  0.50055585  0.16911351  0.88302172  1
  La3+  La52  1  0.00463889  0.16464250  0.38848626  1
  La3+  La53  1  0.50435073  0.83632814  0.36106413  1
  La3+  La54  1  0.49607463  0.16331509  0.63045428  1
  La3+  La55  1  0.49829310  0.49969937  0.35809041  1
  La3+  La56  1  0.00532286  0.84291339  0.12450787  1
  La3+  La57  1  0.00025299  0.16881076  0.88913703  1
  La3+  La58  1  0.49451956  0.82229357  0.63076186  1
  La3+  La59  1  0.00505249  0.16741434  0.37155295  1
  La3+  La60  1  -0.00497526  0.83594063  0.62827524  1
  La3+  La61  1  0.50491292  0.16822811  0.38390480  1
  La3+  La62  1  0.49941553  0.49922072  0.88714327  1
  La3+  La63  1  0.49363485  0.17170410  0.12603038  1
  La3+  La64  1  0.49486539  0.16076354  0.61421199  1
  La3+  La65  1  -0.00001320  0.15799732  0.86980373  1
  La3+  La66  1  0.00082656  0.50540552  0.86615704  1
  La3+  La67  1  0.49546585  0.83123664  0.61071533  1
  La3+  La68  1  0.00055228  0.50128738  0.38012712  1
  La3+  La69  1  -0.00313903  0.49854668  0.85282604  1
  La3+  La70  1  0.49616405  0.16818236  0.36594082  1
  La3+  La71  1  0.49912535  0.83203642  0.88346714  1
  La3+  La72  1  0.75007963  0.56594594  0.51329381  1
  La3+  La73  1  0.74980674  0.16033332  0.51019043  1
  La3+  La74  1  0.75152460  0.17782309  0.22093353  1
  La3+  La75  1  0.25018457  0.49627342  0.00636877  1
  La3+  La76  1  0.24939439  0.49973001  0.24378298  1
  La3+  La77  1  0.24967805  0.49475392  0.58626643  1
  La3+  La78  1  0.25027730  0.16473999  -0.03745914  1
  La3+  La79  1  0.75007931  0.79778962  0.19347140  1
  La3+  La80  1  0.75146088  0.44953239  0.22285789  1
  La3+  La81  1  0.75008659  0.84382342  0.55106970  1
  La3+  La82  1  0.25049152  0.86689184  0.01939676  1
  La3+  La83  1  0.74937712  0.44772268  -0.02507113  1
  Ru4+  Ru84  1  0.00397367  -0.00311157  0.00285278  1
  Ru4+  Ru85  1  -0.00326443  -0.00135946  0.24773797  1
  Ru4+  Ru86  1  0.00377513  0.00062636  0.50910413  1
  Ru4+  Ru87  1  -0.00360466  -0.00589366  0.75008061  1
  Ru4+  Ru88  1  -0.00281226  0.33554426  0.00801784  1
  Ru4+  Ru89  1  0.00252718  0.33193157  0.24466875  1
  Ru4+  Ru90  1  -0.00391663  0.32586662  0.50957532  1
  Ru4+  Ru91  1  -0.00393379  0.32794645  0.74374764  1
  Ru4+  Ru92  1  0.00234671  0.66635431  -0.00222626  1
  Ru4+  Ru93  1  -0.00380570  0.66972251  0.25304331  1
  Ru4+  Ru94  1  0.00047714  0.66810721  0.49585874  1
  Ru4+  Ru95  1  0.00025086  0.66835905  0.74722557  1
  Ru4+  Ru96  1  0.50019530  -0.00241379  0.00184609  1
  Ru4+  Ru97  1  0.49812416  0.00281690  0.24695994  1
  Ru4+  Ru98  1  0.49900647  -0.00363856  0.49887122  1
  Ru4+  Ru99  1  0.50955166  0.00467346  0.75537515  1
  Ru4+  Ru100  1  0.49827321  0.33601051  0.00150335  1
  Ru4+  Ru101  1  0.49479417  0.34207005  0.24656319  1
  Ru4+  Ru102  1  0.49860587  0.33419229  0.50033533  1
  Ru4+  Ru103  1  0.50261874  0.33163547  0.75120940  1
  Ru4+  Ru104  1  0.50399559  0.67404661  0.00756027  1
  Ru4+  Ru105  1  0.50082080  0.66844104  0.24922502  1
  Ru4+  Ru106  1  0.50098345  0.66632685  0.50443158  1
  Ru4+  Ru107  1  0.49926128  0.66493070  0.74625236  1
  Ru4+  Ru108  1  0.11022997  0.16183196  0.00233959  1
  Ru4+  Ru109  1  0.11173276  0.16887028  0.25050729  1
  Ru4+  Ru110  1  0.11579807  0.16651718  0.50459192  1
  Ru4+  Ru111  1  0.11389953  0.16326094  0.74555634  1
  Ru4+  Ru112  1  0.11014898  0.49708165  0.00638892  1
  Ru4+  Ru113  1  0.11004475  0.49684454  0.24683367  1
  Ru4+  Ru114  1  0.11062185  0.49572843  0.50104526  1
  Ru4+  Ru115  1  0.11604745  0.50432263  0.74579977  1
  Ru4+  Ru116  1  0.10621624  0.84154779  -0.00184606  1
  Ru4+  Ru117  1  0.11229240  0.83308860  0.25038226  1
  Ru4+  Ru118  1  0.11089608  0.83599325  0.49437644  1
  Ru4+  Ru119  1  0.11006628  0.83559013  0.75041191  1
  Ru4+  Ru120  1  0.61391941  0.16512750  0.00251622  1
  Ru4+  Ru121  1  0.61091328  0.16479332  0.24493618  1
  Ru4+  Ru122  1  0.61567457  0.16999620  0.49960448  1
  Ru4+  Ru123  1  0.61360163  0.16430677  0.75238425  1
  Ru4+  Ru124  1  0.60946162  0.50063237  -0.00221163  1
  Ru4+  Ru125  1  0.61088924  0.49823104  0.24882132  1
  Ru4+  Ru126  1  0.61173315  0.49825307  0.50230844  1
  Ru4+  Ru127  1  0.61517768  0.50020648  0.75038503  1
  Ru4+  Ru128  1  0.61019136  0.83103755  -0.00135457  1
  Ru4+  Ru129  1  0.60998511  0.83217701  0.25035046  1
  Ru4+  Ru130  1  0.61484578  0.83255715  0.49831944  1
  Ru4+  Ru131  1  0.61674140  0.83757968  0.75530250  1
  Ru4+  Ru132  1  0.38763542  0.16450762  -0.00051663  1
  Ru4+  Ru133  1  0.38601051  0.16732551  0.24731653  1
  Ru4+  Ru134  1  0.38168082  0.16492819  0.50451713  1
  Ru4+  Ru135  1  0.38556054  0.16680336  0.75062934  1
  Ru4+  Ru136  1  0.39116460  0.50051642  0.00037416  1
  Ru4+  Ru137  1  0.39138702  0.49694171  0.24903110  1
  Ru4+  Ru138  1  0.38716777  0.49837519  0.50054076  1
  Ru4+  Ru139  1  0.38924993  0.49958399  0.75145949  1
  Ru4+  Ru140  1  0.39021234  0.83441941  0.00079500  1
  Ru4+  Ru141  1  0.38747902  0.83075501  0.24393604  1
  Ru4+  Ru142  1  0.38560997  0.83118670  0.49843493  1
  Ru4+  Ru143  1  0.38369420  0.82708740  0.75520816  1
  Ru4+  Ru144  1  0.88519751  0.16514499  0.00378993  1
  Ru4+  Ru145  1  0.89132971  0.16395995  0.25120665  1
  Ru4+  Ru146  1  0.88972994  0.16994128  0.50303587  1
  Ru4+  Ru147  1  0.88344161  0.16527137  0.74543519  1
  Ru4+  Ru148  1  0.88948556  0.49651419  0.00388859  1
  Ru4+  Ru149  1  0.89119147  0.50023939  0.25141130  1
  Ru4+  Ru150  1  0.88977023  0.50005027  0.50158914  1
  Ru4+  Ru151  1  0.88210994  0.50218884  0.74668775  1
  Ru4+  Ru152  1  0.88887849  0.83429861  0.00037070  1
  Ru4+  Ru153  1  0.89262314  0.82999703  0.25422792  1
  Ru4+  Ru154  1  0.88725153  0.83358011  0.50064628  1
  Ru4+  Ru155  1  0.88830389  0.83819460  0.75136704  1
  Ru4+  Ru156  1  0.25028870  0.07876184  0.25649721  1
  Ru4+  Ru157  1  0.74986981  0.39480253  0.49686383  1
  Ru4+  Ru158  1  0.24948283  0.76214786  0.24611289  1
  Ru4+  Ru159  1  0.24967363  0.40726213  0.73689543  1
  Ru4+  Ru160  1  0.24951687  0.24566396  0.74794885  1
  Ru4+  Ru161  1  0.24961777  0.61904308  0.51477342  1
  Ru4+  Ru162  1  0.25031678  0.59595681  0.73809961  1
  Ru4+  Ru163  1  0.75033253  0.91618577  -0.00408445  1
  Ru4+  Ru164  1  0.75023210  0.76479328  0.00341678  1
  Ru4+  Ru165  1  0.75004760  0.75264319  0.74659280  1
  Ru4+  Ru166  1  0.24968446  0.92033932  0.76578743  1
  Ru4+  Ru167  1  0.75007683  0.58600408  -0.00634199  1
  Ru4+  Ru168  1  0.24915152  0.74836497  0.75870832  1
  Ru4+  Ru169  1  0.24955627  0.76048382  0.49166855  1
  Ru4+  Ru170  1  0.24993487  0.92080700  0.49418770  1
  Ru4+  Ru171  1  0.74983961  0.05643709  0.28574764  1
  Ru4+  Ru172  1  0.24979046  0.24992361  0.25434918  1
  Ru4+  Ru173  1  0.24947639  0.90947562  0.24929777  1
  Ru4+  Ru174  1  0.24969789  0.37188085  0.51386154  1
  Ru4+  Ru175  1  0.74982600  0.92238958  0.26172465  1
  Ru4+  Ru176  1  0.74994785  0.31157123  0.25491622  1
  Ru4+  Ru177  1  0.75044747  0.60595483  0.27207890  1
  Ru4+  Ru178  1  0.74987434  0.24603655  -0.01675919  1
  Ru4+  Ru179  1  0.24964360  0.72514469  -0.00114080  1
  O2-  O180  1  0.16851862  0.08227698  0.00388571  1
  O2-  O181  1  0.16777182  0.08145193  0.24825608  1
  O2-  O182  1  0.16436403  0.08287590  0.49913022  1
  O2-  O183  1  0.16454766  0.08283564  0.74793880  1
  O2-  O184  1  0.16782720  0.41595892  -0.00121556  1
  O2-  O185  1  0.16746744  0.41426864  0.25171345  1
  O2-  O186  1  0.16618167  0.40977145  0.50215786  1
  O2-  O187  1  0.16627164  0.41388631  0.74768995  1
  O2-  O188  1  0.16595650  0.74703821  0.00041229  1
  O2-  O189  1  0.16800597  0.74890256  0.24563957  1
  O2-  O190  1  0.16885047  0.75303932  0.50360000  1
  O2-  O191  1  0.16508518  0.74699469  0.75109916  1
  O2-  O192  1  0.66369539  0.08365264  0.00317308  1
  O2-  O193  1  0.66721593  0.08094889  0.24759832  1
  O2-  O194  1  0.66363387  0.08075433  0.49959648  1
  O2-  O195  1  0.66714260  0.08355348  0.75179919  1
  O2-  O196  1  0.66035358  0.41347238  0.00079108  1
  O2-  O197  1  0.66433794  0.40984208  0.25402217  1
  O2-  O198  1  0.66662188  0.41174222  0.49767443  1
  O2-  O199  1  0.66213362  0.41642002  0.74813790  1
  O2-  O200  1  0.66674977  0.74883648  0.00331358  1
  O2-  O201  1  0.66685712  0.74533556  0.24914603  1
  O2-  O202  1  0.67005548  0.74785429  0.50399949  1
  O2-  O203  1  0.66566927  0.74795008  0.74677439  1
  O2-  O204  1  0.33472007  0.25251539  0.00189167  1
  O2-  O205  1  0.33370109  0.25285000  0.24809509  1
  O2-  O206  1  0.33397571  0.25274507  0.50295738  1
  O2-  O207  1  0.33192710  0.25333998  0.74754798  1
  O2-  O208  1  0.33440123  0.58508493  -0.00214207  1
  O2-  O209  1  0.33591971  0.58529139  0.24991571  1
  O2-  O210  1  0.33457239  0.59042458  0.50162812  1
  O2-  O211  1  0.33483315  0.58605216  0.74800298  1
  O2-  O212  1  0.33804705  0.92100179  0.00280838  1
  O2-  O213  1  0.33386487  0.91739670  0.24758266  1
  O2-  O214  1  0.33326197  0.92068896  0.49666311  1
  O2-  O215  1  0.33324719  0.91761247  0.75264291  1
  O2-  O216  1  0.83019149  0.25284043  0.00325124  1
  O2-  O217  1  0.83464166  0.25641613  0.25109551  1
  O2-  O218  1  0.82954019  0.24872211  0.49334183  1
  O2-  O219  1  0.83554819  0.24972098  0.75061481  1
  O2-  O220  1  0.83517439  0.58761606  0.00018965  1
  O2-  O221  1  0.83412677  0.58755358  0.24930405  1
  O2-  O222  1  0.83982341  0.58898097  0.50214103  1
  O2-  O223  1  0.83325001  0.58685549  0.74723496  1
  O2-  O224  1  0.83430346  0.91866072  0.00127633  1
  O2-  O225  1  0.83398267  0.91689389  0.24795607  1
  O2-  O226  1  0.83563803  0.91664366  0.50141138  1
  O2-  O227  1  0.83430853  0.91712571  0.74956086  1
  O2-  O228  1  0.16415757  0.25031815  -0.00068612  1
  O2-  O229  1  0.16720966  0.25181287  0.25302716  1
  O2-  O230  1  0.17138035  0.25208819  0.50131785  1
  O2-  O231  1  0.16669207  0.25481033  0.74752510  1
  O2-  O232  1  0.16554719  0.58594532  0.00087543  1
  O2-  O233  1  0.16500184  0.58595197  0.24483704  1
  O2-  O234  1  0.16674738  0.59003615  0.50264023  1
  O2-  O235  1  0.16862118  0.58707889  0.74806807  1
  O2-  O236  1  0.16596107  0.91964598  0.00369657  1
  O2-  O237  1  0.16852709  0.91817394  0.24721725  1
  O2-  O238  1  0.17055828  0.91425052  0.49939644  1
  O2-  O239  1  0.16713545  0.91805252  0.75031068  1
  O2-  O240  1  0.66765965  0.25182504  0.00116272  1
  O2-  O241  1  0.67159615  0.25241597  0.25565150  1
  O2-  O242  1  0.66818991  0.25464846  0.49729772  1
  O2-  O243  1  0.66541677  0.24768621  0.74899766  1
  O2-  O244  1  0.66674421  0.58796920  0.00154507  1
  O2-  O245  1  0.66709777  0.58743049  0.24983542  1
  O2-  O246  1  0.66164068  0.58950430  0.49815778  1
  O2-  O247  1  0.66255553  0.58651939  0.74774005  1
  O2-  O248  1  0.66446667  0.91655183  0.00293738  1
  O2-  O249  1  0.66431316  0.91951711  0.24838076  1
  O2-  O250  1  0.66585032  0.91650877  0.50171384  1
  O2-  O251  1  0.66890254  0.91617343  0.74744157  1
  O2-  O252  1  0.33240966  0.08132509  0.00271868  1
  O2-  O253  1  0.33154586  0.07757359  0.24935607  1
  O2-  O254  1  0.33101173  0.08196776  0.49626090  1
  O2-  O255  1  0.33586120  0.08231880  0.75010874  1
  O2-  O256  1  0.33486214  0.41308084  0.00248682  1
  O2-  O257  1  0.33100285  0.41377869  0.24541526  1
  O2-  O258  1  0.33104545  0.41140698  0.50297945  1
  O2-  O259  1  0.33223324  0.41278979  0.74711825  1
  O2-  O260  1  0.33120539  0.74560023  -0.00031230  1
  O2-  O261  1  0.32890228  0.74904896  0.25027013  1
  O2-  O262  1  0.33402096  0.74683315  0.49938718  1
  O2-  O263  1  0.33151845  0.74568002  0.75090607  1
  O2-  O264  1  0.83552081  0.08200699  0.00135723  1
  O2-  O265  1  0.83497295  0.07903520  0.24902943  1
  O2-  O266  1  0.83430797  0.08462851  0.50127588  1
  O2-  O267  1  0.83178568  0.08128060  0.75107840  1
  O2-  O268  1  0.83553036  0.40978751  0.00450503  1
  O2-  O269  1  0.84007904  0.40864680  0.25292253  1
  O2-  O270  1  0.83395539  0.41346611  0.49784723  1
  O2-  O271  1  0.83736774  0.41626941  0.75145294  1
  O2-  O272  1  0.83528559  0.74818889  0.00131018  1
  O2-  O273  1  0.83408383  0.74764721  0.24678274  1
  O2-  O274  1  0.83389106  0.74762701  0.50480294  1
  O2-  O275  1  0.83246123  0.74823116  0.74750941  1
  O2-  O276  1  0.95516547  0.42311594  0.48443269  1
  O2-  O277  1  0.44632949  0.75353669  0.29938514  1
  O2-  O278  1  0.53179831  0.23005666  0.25427167  1
  O2-  O279  1  0.54571041  0.90941276  0.98727851  1
  O2-  O280  1  0.54777067  0.88415338  0.71465521  1
  O2-  O281  1  0.04387578  0.57212224  0.23201637  1
  O2-  O282  1  0.45590681  0.43531420  0.00930861  1
  O2-  O283  1  0.94717720  0.90529381  0.76308761  1
  O2-  O284  1  0.03652503  0.77177706  0.51802039  1
  O2-  O285  1  0.55015348  0.90553845  0.48345657  1
  O2-  O286  1  0.54452614  0.09433340  0.19969226  1
  O2-  O287  1  0.44957795  0.90591251  0.73053714  1
  O2-  O288  1  0.03895826  0.43695146  0.96704125  1
  O2-  O289  1  0.94799700  0.09528664  0.01075981  1
  O2-  O290  1  0.45442412  0.11020215  0.47775765  1
  O2-  O291  1  0.53725927  0.23434399  0.26503382  1
  O2-  O292  1  0.55071709  0.09520266  0.51326232  1
  O2-  O293  1  0.04552069  0.76076648  0.01414747  1
  O2-  O294  1  0.05381108  0.24823345  0.47875927  1
  O2-  O295  1  0.44099934  0.08522721  0.26377218  1
  O2-  O296  1  0.45490301  0.23532315  0.00509987  1
  O2-  O297  1  0.94970410  0.23330262  0.75970445  1
  O2-  O298  1  0.95257906  0.90069479  0.01228826  1
  O2-  O299  1  0.04199638  0.11952290  0.04761827  1
  O2-  O300  1  0.01708190  0.89641355  0.49985893  1
  O2-  O301  1  0.54236924  0.77582383  0.04669108  1
  O2-  O302  1  0.04983033  0.90077077  0.76166270  1
  O2-  O303  1  0.96465297  0.21631146  0.49334544  1
  O2-  O304  1  0.54543151  0.09972823  0.01366179  1
  O2-  O305  1  0.45423372  0.56641845  0.50886624  1
  O2-  O306  1  0.05254328  0.42636736  0.75980181  1
  O2-  O307  1  0.96722950  0.10227519  0.54192098  1
  O2-  O308  1  0.55069034  0.24163121  0.70346237  1
  O2-  O309  1  0.04980709  0.22749293  0.49532034  1
  O2-  O310  1  0.95442403  0.23448942  0.26957123  1
  O2-  O311  1  0.96154241  0.77063292  0.77703235  1
  O2-  O312  1  0.95156239  0.56886625  0.50916360  1
  O2-  O313  1  0.05097703  0.23505723  0.76185298  1
  O2-  O314  1  0.45001883  0.89999643  0.48750589  1
  O2-  O315  1  0.05030583  0.57689318  0.02049348  1
  O2-  O316  1  0.03229495  0.77316728  0.50563593  1
  O2-  O317  1  0.46672199  0.45908968  0.21020923  1
  O2-  O318  1  0.45438159  0.09615889  0.74127205  1
  O2-  O319  1  0.45208134  0.90488828  0.76942811  1
  O2-  O320  1  0.44855046  0.76468070  0.00759180  1
  O2-  O321  1  0.96334037  0.77306648  0.21411883  1
  O2-  O322  1  0.05088924  0.56758243  0.48990008  1
  O2-  O323  1  0.94868401  0.57020150  0.99146993  1
  O2-  O324  1  0.43777199  0.07904433  0.26885549  1
  O2-  O325  1  0.08983082  0.70756179  0.45229675  1
  O2-  O326  1  0.56730449  0.08193071  0.68458020  1
  O2-  O327  1  0.06536760  0.93316888  0.07193191  1
  O2-  O328  1  0.93456328  0.25861427  0.97529454  1
  O2-  O329  1  0.56386885  0.41509220  0.22760909  1
  O2-  O330  1  0.57281571  0.05121342  0.31694484  1
  O2-  O331  1  0.07280810  0.38151139  0.06155435  1
  O2-  O332  1  0.06362227  0.91754473  0.93178761  1
  O2-  O333  1  0.06459102  0.07660490  0.27132788  1
  O2-  O334  1  0.92143541  0.06867768  0.44923356  1
  O2-  O335  1  0.56476012  0.27887840  0.84579045  1
  O2-  O336  1  0.93531110  0.07472034  0.77482408  1
  O2-  O337  1  0.56351348  0.58865481  0.27520440  1
  O2-  O338  1  0.56510746  0.74369304  0.27643905  1
  O2-  O339  1  0.42261071  0.39508402  0.30257303  1
  O2-  O340  1  0.08700128  0.95259175  0.46944418  1
  O2-  O341  1  0.43684986  0.25735987  0.78593682  1
  O2-  O342  1  0.93463402  0.41302521  0.06149034  1
  O2-  O343  1  0.06551916  0.59408133  0.73004137  1
  O2-  O344  1  0.92698972  0.73610865  0.71012375  1
  O2-  O345  1  0.91386642  0.29380997  0.53588824  1
  O2-  O346  1  0.06154338  0.40817770  0.22390886  1
  O2-  O347  1  0.06158313  0.40953910  0.79151009  1
  O2-  O348  1  0.92901350  0.41376979  0.93380404  1
  O2-  O349  1  0.55691935  0.25154096  0.69550803  1
  O2-  O350  1  0.56190025  0.40722384  0.53680931  1
  O2-  O351  1  0.92691470  0.71659074  0.31207009  1
  O2-  O352  1  0.44037151  0.40931545  0.78445884  1
  O2-  O353  1  0.93414466  0.59312614  0.77708449  1
  O2-  O354  1  0.56330641  0.74391710  0.52430776  1
  O2-  O355  1  0.55944654  0.58911835  0.96739575  1
  O2-  O356  1  0.59345365  0.28328581  0.19389783  1
  O2-  O357  1  0.44652815  0.75347264  0.29909889  1
  O2-  O358  1  0.42255544  0.74094165  0.18157883  1
  O2-  O359  1  0.43531270  0.40885527  0.47417545  1
  O2-  O360  1  0.56467446  0.26483010  0.46874707  1
  O2-  O361  1  0.57142545  0.94208953  0.81918348  1
  O2-  O362  1  0.43608692  0.73377709  0.78664042  1
  O2-  O363  1  0.56335860  0.58596108  0.52650445  1
  O2-  O364  1  0.06521720  0.25695333  0.22063424  1
  O2-  O365  1  0.56166621  0.08309605  0.82652281  1
  O2-  O366  1  0.43727933  0.06812643  0.96493680  1
  O2-  O367  1  0.93376684  0.92519414  0.27134678  1
  O2-  O368  1  0.06900056  0.26973607  0.52962436  1
  O2-  O369  1  0.57092344  0.72830477  0.93614781  1
  O2-  O370  1  0.42696698  0.04826864  0.56947075  1
  O2-  O371  1  0.07256990  0.06285452  0.93418515  1
  O2-  O372  1  0.25094353  -0.00320957  0.89674561  1
  O2-  O373  1  0.25009606  0.34483546  0.32480912  1
  O2-  O374  1  0.75024487  0.67481325  0.06807267  1
  O2-  O375  1  0.25061027  0.67709847  0.40936521  1
  O2-  O376  1  0.24944629  0.00017601  0.68345056  1
  O2-  O377  1  0.24974327  0.66479522  0.84913860  1
  O2-  O378  1  0.75065222  0.32924507  0.86532616  1
  O2-  O379  1  0.75014669  -0.00774545  0.59711757  1
  O2-  O380  1  0.75037443  0.67714178  0.92310696  1
  O2-  O381  1  0.74927164  0.33667788  0.67215584  1
  O2-  O382  1  0.74994588  0.32105901  0.58330876  1
  O2-  O383  1  0.75066810  -0.00471157  0.90834950  1
  O2-  O384  1  0.24957536  0.31276330  0.40927438  1
  O2-  O385  1  0.24998888  0.00111456  0.56909159  1
  O2-  O386  1  0.74982162  0.67090034  0.18483792  1
  O2-  O387  1  0.75032923  -0.00007993  0.39415978  1
  O2-  O388  1  0.74961134  0.66432411  0.80897426  1
  O2-  O389  1  0.25053438  -0.00347967  0.34971817  1
  O2-  O390  1  0.24974168  0.33271782  0.82829956  1
  O2-  O391  1  0.24986261  0.66222200  0.31040044  1
  O2-  O392  1  0.74953544  0.00777855  0.06600106  1
  O2-  O393  1  0.74949709  -0.00233801  0.16761275  1
  O2-  O394  1  0.74976848  0.66225124  0.39474307  1
  O2-  O395  1  0.24980055  0.33023030  0.92195281  1
  O2-  O396  1  0.24989215  0.16433530  0.18290697  1
  O2-  O397  1  0.75014700  0.16710238  0.63613708  1
  O2-  O398  1  0.75008372  0.47949720  0.61804670  1
  O2-  O399  1  0.24992675  0.16648438  0.09500342  1
  O2-  O400  1  0.74995226  0.16555830  0.36631606  1
  O2-  O401  1  0.75010844  0.46610286  0.40959755  1
  O2-  O402  1  0.25006803  0.50029236  0.44578722  1
  O2-  O403  1  0.25032808  0.50149883  0.80090598  1
  O2-  O404  1  0.74996857  0.83351077  0.41982255  1
  O2-  O405  1  0.25008878  0.83460444  0.68963608  1
  O2-  O406  1  0.24988202  0.16799604  0.82572957  1
  O2-  O407  1  0.74990990  0.16937000  0.91406302  1
  O2-  O408  1  0.24989702  0.82773310  0.87680233  1
  O2-  O409  1  0.25027210  0.50095820  0.36291760  1
  O2-  O410  1  0.74968761  0.83497053  0.92018547  1
  O2-  O411  1  0.24993590  0.50071769  0.12519069  1
  O2-  O412  1  0.25014469  0.50121781  0.88519583  1
  O2-  O413  1  0.74954360  0.52271908  0.34380976  1
  O2-  O414  1  0.25065257  0.83765442  0.57085567  1
  O2-  O415  1  0.74994693  0.52012751  0.10725077  1
  O2-  O416  1  0.75037552  0.83106439  0.33295699  1
  O2-  O417  1  0.75014415  0.50302164  0.69931022  1
  O2-  O418  1  0.74988003  0.83761812  0.80660699  1
  O2-  O419  1  0.74975720  0.50708899  0.85845718  1
  O2-  O420  1  0.02101681  0.65759817  0.36929616  1
  O2-  O421  1  0.97804686  0.34096035  0.63209904  1
  O2-  O422  1  0.97429569  0.00074091  0.13121280  1
  O2-  O423  1  0.97052476  0.66389976  0.61678313  1
  O2-  O424  1  0.48114784  0.32328491  0.37729415  1
  O2-  O425  1  0.97174677  -0.00321755  0.37486016  1
  O2-  O426  1  0.53446179  0.33663026  0.10392702  1
  O2-  O427  1  0.03095777  0.66930324  0.62660292  1
  O2-  O428  1  0.46956279  0.33632215  0.62448934  1
  O2-  O429  1  0.52234754  0.66108068  0.38328551  1
  O2-  O430  1  0.47520319  -0.00996182  0.37409915  1
  O2-  O431  1  0.54308452  0.66440429  0.64719787  1
  O2-  O432  1  0.52310521  -0.01091073  0.61652862  1
  O2-  O433  1  0.47950868  0.64996678  0.11818853  1
  O2-  O434  1  0.97587441  0.32399175  0.13190841  1
  O2-  O435  1  0.98193137  0.33012997  0.86726141  1
  O2-  O436  1  0.02817293  0.00576066  0.37419930  1
  O2-  O437  1  0.95802130  -0.01055787  0.62614538  1
  O2-  O438  1  0.97777046  0.67060781  0.88094072  1
  O2-  O439  1  0.04421462  0.00314764  0.62442464  1
  O2-  O440  1  0.45650630  0.32558238  0.13155772  1
  O2-  O441  1  0.97668757  0.00138153  0.88137957  1
  O2-  O442  1  0.45309606  0.66910142  0.62349725  1
  O2-  O443  1  0.47111339  -0.00145699  0.12407439  1
