# generated using pymatgen
data_La7(Ru4O11)2
_symmetry_space_group_name_H-M   'P 1'
_cell_length_a   23.99122949
_cell_length_b   16.83080880
_cell_length_c   15.42803442
_cell_angle_alpha   90.00012544
_cell_angle_beta   90.00154834
_cell_angle_gamma   90.00093512
_symmetry_Int_Tables_number   1
_chemical_formula_structural   La7(Ru4O11)2
_chemical_formula_sum   'La84 Ru96 O264'
_cell_volume   6229.71373179
_cell_formula_units_Z   12
loop_
 _symmetry_equiv_pos_site_id
 _symmetry_equiv_pos_as_xyz
  1  'x, y, z'
loop_
 _atom_type_symbol
 _atom_type_oxidation_number
  La3+  3.0
  Ru4+  4.0
  O2-  -2.0
loop_
 _atom_site_type_symbol
 _atom_site_label
 _atom_site_symmetry_multiplicity
 _atom_site_fract_x
 _atom_site_fract_y
 _atom_site_fract_z
 _atom_site_occupancy
  La3+  La0  1  0.14238854  0.00034869  0.12444170  1
  La3+  La1  1  0.13733190  0.00338579  0.37417275  1
  La3+  La2  1  0.14179083  0.00051718  0.62729419  1
  La3+  La3  1  0.14135164  0.00230235  0.87176524  1
  La3+  La4  1  0.13876720  0.33014457  0.12318900  1
  La3+  La5  1  0.14250981  0.33090550  0.37666099  1
  La3+  La6  1  0.14212947  0.33193014  0.62378420  1
  La3+  La7  1  0.13623688  0.32701543  0.87679590  1
  La3+  La8  1  0.13619664  0.66336567  0.12776829  1
  La3+  La9  1  0.13995293  0.66743645  0.37448073  1
  La3+  La10  1  0.13782874  0.66754781  0.62393543  1
  La3+  La11  1  0.13855215  0.66849903  0.87216987  1
  La3+  La12  1  0.64070143  -0.00562911  0.12843546  1
  La3+  La13  1  0.63862879  0.00017188  0.37320330  1
  La3+  La14  1  0.63910897  -0.00127085  0.62535488  1
  La3+  La15  1  0.64309285  -0.00654217  0.87339762  1
  La3+  La16  1  0.64083491  0.33477121  0.12186294  1
  La3+  La17  1  0.63867324  0.33361171  0.37271952  1
  La3+  La18  1  0.64113347  0.33429997  0.62764939  1
  La3+  La19  1  0.64179284  0.33566227  0.87612749  1
  La3+  La20  1  0.64129151  0.66847031  0.12528042  1
  La3+  La21  1  0.63896110  0.66816562  0.37419237  1
  La3+  La22  1  0.64192360  0.66667156  0.62634037  1
  La3+  La23  1  0.63999781  0.66757560  0.87565545  1
  La3+  La24  1  0.36179321  0.00157867  0.12504309  1
  La3+  La25  1  0.36219386  0.00028310  0.37598919  1
  La3+  La26  1  0.35747689  -0.00050458  0.62688985  1
  La3+  La27  1  0.36008075  0.00099916  0.87372812  1
  La3+  La28  1  0.35918990  0.33261532  0.12592461  1
  La3+  La29  1  0.35785148  0.33199061  0.37515361  1
  La3+  La30  1  0.35666371  0.33223108  0.62576419  1
  La3+  La31  1  0.35761328  0.33101460  0.87347335  1
  La3+  La32  1  0.35985991  0.66246607  0.13121426  1
  La3+  La33  1  0.36230575  0.66686168  0.37525403  1
  La3+  La34  1  0.36255760  0.66922429  0.62386712  1
  La3+  La35  1  0.36321692  0.66892096  0.87659964  1
  La3+  La36  1  0.86065714  0.00126204  0.12591887  1
  La3+  La37  1  0.86028134  0.00083581  0.37341892  1
  La3+  La38  1  0.85930302  -0.00158769  0.62817855  1
  La3+  La39  1  0.85964785  0.00101355  0.87627520  1
  La3+  La40  1  0.85870466  0.33589368  0.12207093  1
  La3+  La41  1  0.86194810  0.33531077  0.37127308  1
  La3+  La42  1  0.86394802  0.33461718  0.62592468  1
  La3+  La43  1  0.85790782  0.33654110  0.87748198  1
  La3+  La44  1  0.85976275  0.66450987  0.12712010  1
  La3+  La45  1  0.85864738  0.66890976  0.37304677  1
  La3+  La46  1  0.86035650  0.66715631  0.62445557  1
  La3+  La47  1  0.86149426  0.66592193  0.87696708  1
  La3+  La48  1  -0.00130441  0.49562464  0.61792246  1
  La3+  La49  1  0.00103251  0.16865739  0.86347402  1
  La3+  La50  1  0.49968285  0.16982488  0.13273227  1
  La3+  La51  1  0.00207828  0.16551028  0.11227184  1
  La3+  La52  1  -0.00196988  0.83005623  0.13858151  1
  La3+  La53  1  0.49692577  0.50125214  0.89221279  1
  La3+  La54  1  0.00210129  0.49240042  0.13017702  1
  La3+  La55  1  0.50343855  0.16105635  0.60985386  1
  La3+  La56  1  0.00045859  0.83140429  0.85742493  1
  La3+  La57  1  0.50411624  0.16246197  0.62719797  1
  La3+  La58  1  0.49834463  0.83532875  0.12182497  1
  La3+  La59  1  0.00129172  0.49942985  0.88643935  1
  La3+  La60  1  0.00054227  0.16536772  0.13478125  1
  La3+  La61  1  0.00095492  0.82936908  0.37045745  1
  La3+  La62  1  0.49893041  0.50972571  0.61831945  1
  La3+  La63  1  -0.00058096  0.83350953  0.87945418  1
  La3+  La64  1  0.50243911  0.83756804  0.88200351  1
  La3+  La65  1  -0.00216689  0.83300642  0.11646932  1
  La3+  La66  1  0.00392922  0.83578180  0.60951479  1
  La3+  La67  1  0.49864118  0.17026946  0.87663248  1
  La3+  La68  1  0.49984755  0.83341035  0.63232461  1
  La3+  La69  1  0.49828288  0.15274944  0.37912129  1
  La3+  La70  1  0.50156110  0.83220714  0.85987094  1
  La3+  La71  1  0.00486792  0.82662118  0.62661017  1
  La3+  La72  1  0.25015074  0.45685655  0.45977337  1
  La3+  La73  1  0.74953415  0.21614312  0.49469166  1
  La3+  La74  1  0.74983509  0.10117916  0.74943111  1
  La3+  La75  1  0.75014667  0.51842002  0.50808070  1
  La3+  La76  1  0.24899928  0.46271289  0.79051551  1
  La3+  La77  1  0.25043205  0.83625433  0.23225748  1
  La3+  La78  1  0.74975914  0.83122398  -0.00077847  1
  La3+  La79  1  0.24960538  0.83659443  0.76069044  1
  La3+  La80  1  0.24995830  0.83445107  0.50043031  1
  La3+  La81  1  0.75017196  0.49823154  0.22844650  1
  La3+  La82  1  0.25071894  0.50228279  -0.03048290  1
  La3+  La83  1  0.75048667  0.22927274  0.00521649  1
  Ru4+  Ru84  1  0.00109294  0.00604909  -0.00144020  1
  Ru4+  Ru85  1  -0.00132403  0.00528199  0.25696681  1
  Ru4+  Ru86  1  0.00017582  -0.00142130  0.50097673  1
  Ru4+  Ru87  1  0.00184349  0.00553227  0.74975160  1
  Ru4+  Ru88  1  -0.00348696  0.33888676  -0.00041096  1
  Ru4+  Ru89  1  0.00073595  0.33728166  0.25796124  1
  Ru4+  Ru90  1  -0.00046056  0.33125566  0.50118468  1
  Ru4+  Ru91  1  0.00006172  0.33361260  0.74863578  1
  Ru4+  Ru92  1  -0.00116259  0.66255193  -0.00338846  1
  Ru4+  Ru93  1  0.00237256  0.66132650  0.24531830  1
  Ru4+  Ru94  1  0.00177703  0.65962153  0.50375853  1
  Ru4+  Ru95  1  -0.00007718  0.66569612  0.74933309  1
  Ru4+  Ru96  1  0.49530241  0.00895994  0.00231715  1
  Ru4+  Ru97  1  0.49997377  -0.00402320  0.25282880  1
  Ru4+  Ru98  1  0.49999367  -0.00001470  0.49858626  1
  Ru4+  Ru99  1  0.49978441  0.00426270  0.74939936  1
  Ru4+  Ru100  1  0.49912539  0.33613873  -0.00074400  1
  Ru4+  Ru101  1  0.49638588  0.33306160  0.25063039  1
  Ru4+  Ru102  1  0.50132518  0.33507841  0.49899858  1
  Ru4+  Ru103  1  0.50245376  0.33307085  0.75217504  1
  Ru4+  Ru104  1  0.50066188  0.66800232  -0.00371508  1
  Ru4+  Ru105  1  0.49640151  0.66282860  0.25079520  1
  Ru4+  Ru106  1  0.49810724  0.66671099  0.49758411  1
  Ru4+  Ru107  1  0.49825696  0.66896132  0.75240338  1
  Ru4+  Ru108  1  0.11723172  0.16415282  -0.00053886  1
  Ru4+  Ru109  1  0.11343514  0.16446574  0.25157608  1
  Ru4+  Ru110  1  0.11177554  0.17164774  0.49976417  1
  Ru4+  Ru111  1  0.11553185  0.16690612  0.75066926  1
  Ru4+  Ru112  1  0.11006864  0.49906511  0.00027865  1
  Ru4+  Ru113  1  0.11229446  0.49808801  0.25034297  1
  Ru4+  Ru114  1  0.10962322  0.50243536  0.49904105  1
  Ru4+  Ru115  1  0.10999705  0.50056056  0.75071008  1
  Ru4+  Ru116  1  0.11517585  0.83331436  0.00023979  1
  Ru4+  Ru117  1  0.11182682  0.83128440  0.25144912  1
  Ru4+  Ru118  1  0.11239804  0.83408405  0.49858180  1
  Ru4+  Ru119  1  0.10947046  0.83337169  0.75066182  1
  Ru4+  Ru120  1  0.60940029  0.16616551  0.00016456  1
  Ru4+  Ru121  1  0.61358052  0.16483689  0.24999642  1
  Ru4+  Ru122  1  0.61069023  0.16690825  0.50027142  1
  Ru4+  Ru123  1  0.61017333  0.16701147  0.75026058  1
  Ru4+  Ru124  1  0.61390059  0.49772603  0.00028340  1
  Ru4+  Ru125  1  0.61305953  0.49996209  0.25034919  1
  Ru4+  Ru126  1  0.61031227  0.50024274  0.49848789  1
  Ru4+  Ru127  1  0.61455454  0.49731510  0.74856928  1
  Ru4+  Ru128  1  0.61568224  0.82772214  0.00068540  1
  Ru4+  Ru129  1  0.61532765  0.83419000  0.25207888  1
  Ru4+  Ru130  1  0.61397806  0.83304811  0.50121142  1
  Ru4+  Ru131  1  0.61329393  0.83063189  0.74862699  1
  Ru4+  Ru132  1  0.38598714  0.16992187  -0.00006332  1
  Ru4+  Ru133  1  0.38539981  0.16862392  0.24956658  1
  Ru4+  Ru134  1  0.38589131  0.16724909  0.50045957  1
  Ru4+  Ru135  1  0.38487473  0.16714771  0.75120279  1
  Ru4+  Ru136  1  0.39018504  0.50046798  -0.00116803  1
  Ru4+  Ru137  1  0.38961484  0.49959901  0.25062173  1
  Ru4+  Ru138  1  0.39051292  0.49857549  0.49941172  1
  Ru4+  Ru139  1  0.38311127  0.50486200  0.75244588  1
  Ru4+  Ru140  1  0.38575235  0.83419099  0.00084547  1
  Ru4+  Ru141  1  0.39071721  0.83195226  0.24892419  1
  Ru4+  Ru142  1  0.38934328  0.83372755  0.50029321  1
  Ru4+  Ru143  1  0.38791962  0.83059320  0.75018806  1
  Ru4+  Ru144  1  0.88817442  0.16731625  0.00094166  1
  Ru4+  Ru145  1  0.88751033  0.16427141  0.24912965  1
  Ru4+  Ru146  1  0.88792342  0.16348578  0.50122076  1
  Ru4+  Ru147  1  0.88977190  0.16668820  0.75076285  1
  Ru4+  Ru148  1  0.88516657  0.49590044  0.00080009  1
  Ru4+  Ru149  1  0.89053335  0.50405743  0.25232844  1
  Ru4+  Ru150  1  0.89033359  0.49969172  0.50116355  1
  Ru4+  Ru151  1  0.88627949  0.49737709  0.74993185  1
  Ru4+  Ru152  1  0.88528701  0.83123236  -0.00037249  1
  Ru4+  Ru153  1  0.88629475  0.82874372  0.25093890  1
  Ru4+  Ru154  1  0.88656976  0.83419264  0.49981016  1
  Ru4+  Ru155  1  0.88611216  0.83209389  0.75060759  1
  Ru4+  Ru156  1  0.74954591  0.06114059  0.00116692  1
  Ru4+  Ru157  1  0.75033113  0.25640385  0.23794325  1
  Ru4+  Ru158  1  0.74997618  0.91274168  0.25278801  1
  Ru4+  Ru159  1  0.24972628  0.60568535  0.50657377  1
  Ru4+  Ru160  1  0.74980231  0.05869642  0.50407623  1
  Ru4+  Ru161  1  0.25016851  0.57201671  0.24203750  1
  Ru4+  Ru162  1  0.74990969  0.90938631  0.49647707  1
  Ru4+  Ru163  1  0.75012328  0.38930024  0.49822883  1
  Ru4+  Ru164  1  0.25012328  0.91325098  0.00010304  1
  Ru4+  Ru165  1  0.75000338  0.65022480  0.49998604  1
  Ru4+  Ru166  1  0.75009071  0.91105817  0.74922533  1
  Ru4+  Ru167  1  0.24996173  0.08973781  -0.00715210  1
  Ru4+  Ru168  1  0.25022959  0.37697864  0.01468312  1
  Ru4+  Ru169  1  0.25001358  0.70090057  0.25462454  1
  Ru4+  Ru170  1  0.75013474  0.27284909  0.76275029  1
  Ru4+  Ru171  1  0.74969419  0.75659840  0.74884194  1
  Ru4+  Ru172  1  0.24985251  0.96930515  0.26316451  1
  Ru4+  Ru173  1  0.75001459  0.57995020  0.00513422  1
  Ru4+  Ru174  1  0.24991893  0.60788498  0.74675823  1
  Ru4+  Ru175  1  0.25024731  0.63100017  -0.01070283  1
  Ru4+  Ru176  1  0.25019628  0.76546323  -0.00214905  1
  Ru4+  Ru177  1  0.25002318  0.41497084  0.24957844  1
  Ru4+  Ru178  1  0.25005657  0.08403714  0.50349311  1
  Ru4+  Ru179  1  0.75043379  0.57677784  0.74757049  1
  O2-  O180  1  0.16742807  0.08012297  -0.00015976  1
  O2-  O181  1  0.16885310  0.08049198  0.25369490  1
  O2-  O182  1  0.16730879  0.08163284  0.49885618  1
  O2-  O183  1  0.16431257  0.08106717  0.75057835  1
  O2-  O184  1  0.16686376  0.41258640  -0.00136640  1
  O2-  O185  1  0.16839229  0.41454338  0.24952334  1
  O2-  O186  1  0.16365190  0.41564544  0.50106110  1
  O2-  O187  1  0.16421446  0.41315840  0.74915062  1
  O2-  O188  1  0.16797699  0.74822741  -0.00048060  1
  O2-  O189  1  0.16820920  0.74585607  0.24738424  1
  O2-  O190  1  0.16811821  0.74623829  0.50206233  1
  O2-  O191  1  0.16865817  0.74543856  0.74980841  1
  O2-  O192  1  0.67023298  0.08063801  0.00055019  1
  O2-  O193  1  0.66555846  0.08130331  0.25108252  1
  O2-  O194  1  0.66717608  0.07949689  0.50095283  1
  O2-  O195  1  0.65900119  0.07800701  0.74817018  1
  O2-  O196  1  0.66373123  0.41611120  0.00047785  1
  O2-  O197  1  0.66525169  0.41377104  0.24899520  1
  O2-  O198  1  0.66745350  0.41186069  0.50014220  1
  O2-  O199  1  0.66653077  0.41668156  0.75254048  1
  O2-  O200  1  0.67027226  0.74865160  -0.00189158  1
  O2-  O201  1  0.66858361  0.74921898  0.24988394  1
  O2-  O202  1  0.66961636  0.74870107  0.49886609  1
  O2-  O203  1  0.66774010  0.74812356  0.74977800  1
  O2-  O204  1  0.33285061  0.25004699  0.00058773  1
  O2-  O205  1  0.33213026  0.25097469  0.25193941  1
  O2-  O206  1  0.33460531  0.25072956  0.50076823  1
  O2-  O207  1  0.33277502  0.25057517  0.74679859  1
  O2-  O208  1  0.33469839  0.58855445  -0.00225892  1
  O2-  O209  1  0.33220096  0.58391052  0.25127137  1
  O2-  O210  1  0.33340321  0.58706334  0.50057131  1
  O2-  O211  1  0.33233631  0.58912729  0.75060137  1
  O2-  O212  1  0.33130466  0.91744138  0.00127928  1
  O2-  O213  1  0.33442712  0.92158412  0.25121464  1
  O2-  O214  1  0.33481023  0.92094818  0.49854865  1
  O2-  O215  1  0.33251602  0.91983848  0.75109532  1
  O2-  O216  1  0.83908676  0.25428107  -0.00248403  1
  O2-  O217  1  0.83416078  0.25336798  0.24950275  1
  O2-  O218  1  0.83682157  0.25441341  0.50175131  1
  O2-  O219  1  0.83427230  0.25422102  0.75124006  1
  O2-  O220  1  0.83338565  0.58709884  -0.00145337  1
  O2-  O221  1  0.82998801  0.58541400  0.24839812  1
  O2-  O222  1  0.83469307  0.58879197  0.50008150  1
  O2-  O223  1  0.83453737  0.58714484  0.74946686  1
  O2-  O224  1  0.83123064  0.92004869  0.00125521  1
  O2-  O225  1  0.83004245  0.92042751  0.25045411  1
  O2-  O226  1  0.83289365  0.91912109  0.50043494  1
  O2-  O227  1  0.83059077  0.91886499  0.74918778  1
  O2-  O228  1  0.16682317  0.25105063  -0.00030303  1
  O2-  O229  1  0.16438235  0.25062220  0.25011727  1
  O2-  O230  1  0.16610712  0.24980096  0.50089060  1
  O2-  O231  1  0.16373317  0.25109799  0.74956510  1
  O2-  O232  1  0.16639031  0.58834643  -0.00001668  1
  O2-  O233  1  0.16719876  0.58403116  0.24777088  1
  O2-  O234  1  0.17046449  0.58503894  0.50197245  1
  O2-  O235  1  0.16695588  0.58644472  0.75059622  1
  O2-  O236  1  0.16827828  0.91818471  -0.00027490  1
  O2-  O237  1  0.16627103  0.92159779  0.25097951  1
  O2-  O238  1  0.16495118  0.92099652  0.49861526  1
  O2-  O239  1  0.16740187  0.92098300  0.75219027  1
  O2-  O240  1  0.66133572  0.25457766  -0.00137138  1
  O2-  O241  1  0.66595402  0.25261062  0.24904633  1
  O2-  O242  1  0.66285660  0.25504798  0.49927427  1
  O2-  O243  1  0.66771251  0.25381203  0.75123954  1
  O2-  O244  1  0.66754390  0.58648333  -0.00085322  1
  O2-  O245  1  0.66656715  0.58647243  0.25058844  1
  O2-  O246  1  0.66559349  0.58789138  0.49914345  1
  O2-  O247  1  0.66701992  0.58486865  0.75159012  1
  O2-  O248  1  0.66903328  0.91776403  -0.00043351  1
  O2-  O249  1  0.67005095  0.91640996  0.25181656  1
  O2-  O250  1  0.66619334  0.91818434  0.50121464  1
  O2-  O251  1  0.66752174  0.91869344  0.74724900  1
  O2-  O252  1  0.33398256  0.08100612  0.00061372  1
  O2-  O253  1  0.33510293  0.08168072  0.25164961  1
  O2-  O254  1  0.33187673  0.08096794  0.49839201  1
  O2-  O255  1  0.33561803  0.08214905  0.74970247  1
  O2-  O256  1  0.33431053  0.41267806  -0.00025958  1
  O2-  O257  1  0.33202168  0.41543384  0.25008556  1
  O2-  O258  1  0.33687340  0.41370470  0.50219559  1
  O2-  O259  1  0.33239813  0.41399898  0.74637911  1
  O2-  O260  1  0.32932652  0.75044943  -0.00301378  1
  O2-  O261  1  0.33145774  0.74472836  0.25194639  1
  O2-  O262  1  0.33347121  0.74527178  0.50099814  1
  O2-  O263  1  0.33215458  0.74598999  0.75044171  1
  O2-  O264  1  0.83162672  0.07929786  0.00010068  1
  O2-  O265  1  0.83481222  0.07998546  0.25024236  1
  O2-  O266  1  0.83241352  0.08082148  0.49914496  1
  O2-  O267  1  0.84068231  0.07834827  0.74996563  1
  O2-  O268  1  0.83405509  0.41610878  -0.00137383  1
  O2-  O269  1  0.83471126  0.41582433  0.24918267  1
  O2-  O270  1  0.83268930  0.41108677  0.49982973  1
  O2-  O271  1  0.83600152  0.41462937  0.75043687  1
  O2-  O272  1  0.83046163  0.74829306  -0.00035989  1
  O2-  O273  1  0.83313930  0.74847520  0.24904041  1
  O2-  O274  1  0.83264778  0.74621681  0.50232217  1
  O2-  O275  1  0.83321174  0.74745844  0.74934624  1
  O2-  O276  1  0.04524575  0.43455402  0.75868459  1
  O2-  O277  1  0.54272719  0.44309084  0.53512835  1
  O2-  O278  1  0.04943487  0.90447044  0.00847976  1
  O2-  O279  1  0.97043279  0.10122572  0.50458101  1
  O2-  O280  1  0.45786434  0.44016696  0.74080331  1
  O2-  O281  1  0.46209030  0.22183143  0.71708567  1
  O2-  O282  1  0.05185105  0.08738832  0.30316603  1
  O2-  O283  1  0.54612315  0.09952197  0.23946939  1
  O2-  O284  1  0.54644892  0.90750455  0.51924771  1
  O2-  O285  1  0.54096071  0.77204308  0.22727244  1
  O2-  O286  1  0.55040170  0.90223237  0.98087664  1
  O2-  O287  1  0.54592413  0.42813023  0.98712570  1
  O2-  O288  1  0.45560068  0.57021401  0.48794290  1
  O2-  O289  1  0.45794576  0.44044588  0.74100253  1
  O2-  O290  1  0.95128465  0.42613459  0.23765861  1
  O2-  O291  1  0.52699319  0.11751028  0.99316656  1
  O2-  O292  1  0.54491741  0.90486209  0.01907732  1
  O2-  O293  1  0.46349959  0.22261524  0.28682403  1
  O2-  O294  1  0.45192326  0.23676070  0.51652902  1
  O2-  O295  1  0.95038660  0.56717498  -0.01027630  1
  O2-  O296  1  0.05392137  0.23627890  0.48353548  1
  O2-  O297  1  0.04803301  0.76066850  0.98876949  1
  O2-  O298  1  0.46515091  0.78023354  0.99762092  1
  O2-  O299  1  0.04668671  0.55695655  0.03789530  1
  O2-  O300  1  0.95441118  0.76229425  0.51063276  1
  O2-  O301  1  0.53743234  0.77661141  0.50048693  1
  O2-  O302  1  0.04922772  0.90296279  0.23875114  1
  O2-  O303  1  0.46070974  0.77392207  -0.01897552  1
  O2-  O304  1  0.55546008  0.92264537  0.22119341  1
  O2-  O305  1  0.06096445  0.58883874  0.22057202  1
  O2-  O306  1  0.94055409  0.58898801  0.19964135  1
  O2-  O307  1  0.95027368  0.90286891  0.98962691  1
  O2-  O308  1  0.96000158  0.23062539  0.50168768  1
  O2-  O309  1  0.54039789  0.22384621  0.46313397  1
  O2-  O310  1  0.02465229  0.54122600  0.49850050  1
  O2-  O311  1  0.44801176  0.76657667  0.51462132  1
  O2-  O312  1  0.45104438  0.42539007  0.48474027  1
  O2-  O313  1  0.04426908  0.23381903  0.98527380  1
  O2-  O314  1  0.54742973  0.43380868  0.78970130  1
  O2-  O315  1  0.54935750  0.90164276  0.75789230  1
  O2-  O316  1  0.96044029  0.89226778  0.71703543  1
  O2-  O317  1  0.95154232  0.90318262  0.26459089  1
  O2-  O318  1  0.45090061  0.90144939  0.76092958  1
  O2-  O319  1  0.95740212  0.23085621  0.51599637  1
  O2-  O320  1  0.52575932  0.11682095  0.01083460  1
  O2-  O321  1  0.53837450  0.56223378  0.77651788  1
  O2-  O322  1  0.94891751  0.56932610  1.01022456  1
  O2-  O323  1  0.55439619  0.25871900  0.02697710  1
  O2-  O324  1  0.93529061  0.07646798  0.02635807  1
  O2-  O325  1  0.43687411  0.26404564  0.05849497  1
  O2-  O326  1  0.55591977  0.91275636  0.22449833  1
  O2-  O327  1  0.43671491  0.40485280  0.28238423  1
  O2-  O328  1  0.93778686  0.25945755  0.03380999  1
  O2-  O329  1  0.06821149  0.74119661  0.55931178  1
  O2-  O330  1  0.57074277  0.27865819  0.56429922  1
  O2-  O331  1  0.56621224  0.58700686  0.04801855  1
  O2-  O332  1  0.42902524  0.26986393  0.80932836  1
  O2-  O333  1  0.06455126  0.40407210  0.31083673  1
  O2-  O334  1  0.57479473  0.59913044  0.70893677  1
  O2-  O335  1  0.56802661  0.74120633  0.02949615  1
  O2-  O336  1  0.07164925  0.61321733  0.94090123  1
  O2-  O337  1  0.57467173  0.04462921  0.08080921  1
  O2-  O338  1  0.06490321  0.40037013  0.18997622  1
  O2-  O339  1  0.94922842  0.57684166  0.20090546  1
  O2-  O340  1  0.43506019  0.59038075  0.22553741  1
  O2-  O341  1  0.55622051  0.25059810  0.02507181  1
  O2-  O342  1  0.43334451  0.74407729  0.22234011  1
  O2-  O343  1  0.93728815  0.40378456  0.03199796  1
  O2-  O344  1  0.43713442  0.26367281  0.94190072  1
  O2-  O345  1  0.06428032  0.40215405  0.02986763  1
  O2-  O346  1  0.43330205  0.92691750  0.97359587  1
  O2-  O347  1  0.56361720  0.26103510  0.78469283  1
  O2-  O348  1  0.92144744  0.94011723  0.80259915  1
  O2-  O349  1  0.04631852  0.09462560  0.29881602  1
  O2-  O350  1  0.06402786  0.74270883  0.27696992  1
  O2-  O351  1  0.92182889  0.59546353  0.32425580  1
  O2-  O352  1  0.06367302  0.25524803  0.97654013  1
  O2-  O353  1  0.57114947  0.38912187  0.44111666  1
  O2-  O354  1  0.93617717  0.40975012  0.52915174  1
  O2-  O355  1  0.56618046  0.59195208  0.95096232  1
  O2-  O356  1  0.42304176  0.39419886  0.79503438  1
  O2-  O357  1  0.57103317  0.73268980  0.28881281  1
  O2-  O358  1  0.56926671  0.39280378  0.69454624  1
  O2-  O359  1  0.42932047  0.27834608  0.19247803  1
  O2-  O360  1  0.58490335  0.05679670  0.93063416  1
  O2-  O361  1  0.07767307  0.07539739  0.17267032  1
  O2-  O362  1  0.57928791  0.72332280  0.53225268  1
  O2-  O363  1  0.06390324  0.40283395  0.53454872  1
  O2-  O364  1  0.08416476  0.61306933  0.46348649  1
  O2-  O365  1  0.05499332  0.57882247  0.22981980  1
  O2-  O366  1  0.93566074  0.73821620  0.97424165  1
  O2-  O367  1  0.92524952  0.04786753  0.54182212  1
  O2-  O368  1  0.56648872  0.07306826  0.47410922  1
  O2-  O369  1  0.06614948  0.75146466  0.43941547  1
  O2-  O370  1  0.91805349  0.28072715  0.45423616  1
  O2-  O371  1  0.41106107  0.70715292  0.04365136  1
  O2-  O372  1  0.25018094  0.33400842  0.58046968  1
  O2-  O373  1  0.24932023  0.67656032  0.11051667  1
  O2-  O374  1  0.74967813  0.32979107  0.10760124  1
  O2-  O375  1  0.75050339  -0.00365766  0.84724088  1
  O2-  O376  1  0.75030200  0.66739525  0.65497390  1
  O2-  O377  1  0.24987836  0.33837101  0.39582328  1
  O2-  O378  1  0.74981123  0.31400342  0.59105579  1
  O2-  O379  1  0.24988271  0.31612328  0.91110095  1
  O2-  O380  1  0.74994388  0.34261064  0.31934521  1
  O2-  O381  1  0.25014298  0.00315324  0.14545703  1
  O2-  O382  1  0.75011722  -0.00364340  0.39777218  1
  O2-  O383  1  0.75024788  0.66592151  0.09196148  1
  O2-  O384  1  0.25004045  0.33500446  0.82283700  1
  O2-  O385  1  0.24977529  0.32312696  0.11676378  1
  O2-  O386  1  0.75000965  0.32932685  0.89434550  1
  O2-  O387  1  0.25007502  0.33501446  0.66985147  1
  O2-  O388  1  0.25059440  0.66864883  0.40234828  1
  O2-  O389  1  0.25001856  0.00038498  0.57614685  1
  O2-  O390  1  0.75027616  0.34846066  0.67362228  1
  O2-  O391  1  0.74992943  -0.00458112  0.65111728  1
  O2-  O392  1  0.75010242  0.66659221  0.84420923  1
  O2-  O393  1  0.74985982  0.31472863  0.40612518  1
  O2-  O394  1  0.25009902  0.00054821  0.66748627  1
  O2-  O395  1  0.24982270  -0.00031648  0.90656968  1
  O2-  O396  1  0.74988575  0.12749038  0.91104096  1
  O2-  O397  1  0.74997635  0.14379282  0.10299777  1
  O2-  O398  1  0.75020517  0.83893496  0.41041151  1
  O2-  O399  1  0.74979190  0.49919440  0.91823667  1
  O2-  O400  1  0.25018978  0.16561034  0.16554553  1
  O2-  O401  1  0.25004213  0.50260694  0.33260332  1
  O2-  O402  1  0.74995381  0.50388625  0.08449088  1
  O2-  O403  1  0.74982929  0.50003716  0.36554557  1
  O2-  O404  1  0.75003245  0.15665828  0.19011664  1
  O2-  O405  1  0.24986256  0.16120195  0.85030867  1
  O2-  O406  1  0.24989806  0.83630197  0.36840010  1
  O2-  O407  1  0.75017705  0.14651208  0.39304409  1
  O2-  O408  1  0.24984608  0.49729537  0.11761726  1
  O2-  O409  1  0.74990745  0.16263312  0.30823918  1
  O2-  O410  1  0.25011359  0.16670418  0.08103127  1
  O2-  O411  1  0.75008127  0.83319658  0.84572895  1
  O2-  O412  1  0.25013532  0.83028624  0.63102545  1
  O2-  O413  1  0.75026891  0.20064731  0.84474853  1
  O2-  O414  1  0.25007142  0.51009369  0.66918788  1
  O2-  O415  1  0.74991215  0.20580291  0.66388468  1
  O2-  O416  1  0.25005450  0.51109753  0.58169444  1
  O2-  O417  1  0.74965763  0.49818843  0.83159895  1
  O2-  O418  1  0.75004924  0.50357301  0.65978587  1
  O2-  O419  1  0.75007866  0.12946709  0.59253548  1
  O2-  O420  1  0.97454147  0.66504556  0.86544293  1
  O2-  O421  1  0.97593629  0.33129687  0.63431717  1
  O2-  O422  1  0.52569276  0.66697870  0.62338036  1
  O2-  O423  1  0.02816585  0.00033122  0.62672143  1
  O2-  O424  1  0.53568048  -0.00366409  0.36974450  1
  O2-  O425  1  0.02445639  0.66180530  0.36620234  1
  O2-  O426  1  0.03732817  -0.00816997  0.10977454  1
  O2-  O427  1  0.46288258  0.66471134  0.62921657  1
  O2-  O428  1  0.53629501  -0.00825735  0.86277013  1
  O2-  O429  1  0.47216776  0.00124057  0.62413850  1
  O2-  O430  1  0.02455889  0.33553333  0.86989695  1
  O2-  O431  1  0.45867738  0.01025092  0.87016288  1
  O2-  O432  1  0.53087064  0.66787366  0.13740718  1
  O2-  O433  1  0.52424288  0.67542318  0.86824720  1
  O2-  O434  1  0.46652411  0.66919259  0.37529163  1
  O2-  O435  1  0.95676077  -0.00562513  0.13553066  1
  O2-  O436  1  0.97563419  0.33417009  0.36982488  1
  O2-  O437  1  0.97760838  0.00954927  0.87912829  1
  O2-  O438  1  0.47543630  0.66051965  0.12399034  1
  O2-  O439  1  0.52922195  0.65781497  0.38092954  1
  O2-  O440  1  0.47023188  0.00132930  0.12630932  1
  O2-  O441  1  0.45980183  0.00283332  0.37570325  1
  O2-  O442  1  0.02402088  0.65927155  0.63252250  1
  O2-  O443  1  0.96946592  0.67818084  0.38871394  1
