# generated using pymatgen
data_La7(Ru4O11)2
_symmetry_space_group_name_H-M   'P 1'
_cell_length_a   23.99002801
_cell_length_b   16.83058887
_cell_length_c   15.42750811
_cell_angle_alpha   90.00020490
_cell_angle_beta   89.99990758
_cell_angle_gamma   89.99986745
_symmetry_Int_Tables_number   1
_chemical_formula_structural   La7(Ru4O11)2
_chemical_formula_sum   'La84 Ru96 O264'
_cell_volume   6229.10784551
_cell_formula_units_Z   12
loop_
 _symmetry_equiv_pos_site_id
 _symmetry_equiv_pos_as_xyz
  1  'x, y, z'
loop_
 _atom_type_symbol
 _atom_type_oxidation_number
  La3+  3.0
  Ru4+  4.0
  O2-  -2.0
loop_
 _atom_site_type_symbol
 _atom_site_label
 _atom_site_symmetry_multiplicity
 _atom_site_fract_x
 _atom_site_fract_y
 _atom_site_fract_z
 _atom_site_occupancy
  La3+  La0  1  0.14045787  -0.00116962  0.12767255  1
  La3+  La1  1  0.13937122  0.00080312  0.37186596  1
  La3+  La2  1  0.13647780  0.00226494  0.62594265  1
  La3+  La3  1  0.13811987  -0.00174619  0.87583833  1
  La3+  La4  1  0.13769454  0.33375458  0.12652798  1
  La3+  La5  1  0.14051502  0.33348498  0.37532037  1
  La3+  La6  1  0.14094840  0.33369460  0.62528256  1
  La3+  La7  1  0.13863952  0.33428760  0.87340239  1
  La3+  La8  1  0.13824367  0.66710560  0.12571597  1
  La3+  La9  1  0.13781771  0.66569960  0.37352134  1
  La3+  La10  1  0.13736196  0.66727105  0.62280470  1
  La3+  La11  1  0.13884624  0.66727739  0.87710856  1
  La3+  La12  1  0.63773566  0.00097277  0.12847639  1
  La3+  La13  1  0.63863445  -0.00068163  0.37480880  1
  La3+  La14  1  0.63988783  -0.00281930  0.62547154  1
  La3+  La15  1  0.63879843  -0.00192482  0.87250248  1
  La3+  La16  1  0.63632599  0.33386907  0.12599594  1
  La3+  La17  1  0.63529026  0.33191314  0.37424356  1
  La3+  La18  1  0.63542327  0.33161357  0.62399229  1
  La3+  La19  1  0.63769333  0.33262524  0.87582959  1
  La3+  La20  1  0.63844455  0.66527011  0.12542275  1
  La3+  La21  1  0.64018872  0.66748321  0.37173304  1
  La3+  La22  1  0.63508067  0.66748206  0.62480469  1
  La3+  La23  1  0.63647552  0.66636044  0.87726063  1
  La3+  La24  1  0.35825704  -0.00079822  0.12828689  1
  La3+  La25  1  0.36041814  -0.00036273  0.37316633  1
  La3+  La26  1  0.36521516  -0.00120814  0.62463995  1
  La3+  La27  1  0.36236972  -0.00283536  0.87433209  1
  La3+  La28  1  0.36117939  0.33313600  0.12617144  1
  La3+  La29  1  0.35902474  0.33369912  0.37542254  1
  La3+  La30  1  0.36047823  0.33455374  0.62454429  1
  La3+  La31  1  0.36069776  0.33490443  0.87297124  1
  La3+  La32  1  0.35932155  0.66789091  0.12571666  1
  La3+  La33  1  0.36153252  0.66559777  0.37309358  1
  La3+  La34  1  0.36214506  0.66525062  0.62356116  1
  La3+  La35  1  0.36117290  0.66659331  0.87652351  1
  La3+  La36  1  0.86473407  -0.00142812  0.12692305  1
  La3+  La37  1  0.86064673  -0.00286885  0.37285780  1
  La3+  La38  1  0.86122923  -0.00343917  0.62723615  1
  La3+  La39  1  0.86142245  -0.00080874  0.87361218  1
  La3+  La40  1  0.86217984  0.33466807  0.12443040  1
  La3+  La41  1  0.86277402  0.33280621  0.37479122  1
  La3+  La42  1  0.86333266  0.33166391  0.62581661  1
  La3+  La43  1  0.86417295  0.33351725  0.87517172  1
  La3+  La44  1  0.86158585  0.66636646  0.12606645  1
  La3+  La45  1  0.85740285  0.66690799  0.37153762  1
  La3+  La46  1  0.86318242  0.66927807  0.62617024  1
  La3+  La47  1  0.86356287  0.66720016  0.87625594  1
  La3+  La48  1  -0.00084217  0.50081133  0.61620749  1
  La3+  La49  1  -0.00036199  0.50010405  0.86868012  1
  La3+  La50  1  -0.00173790  0.17078357  0.37974343  1
  La3+  La51  1  0.50089582  0.83553517  0.11724891  1
  La3+  La52  1  0.00679074  0.49303096  0.36111715  1
  La3+  La53  1  0.50106983  0.16308009  0.87203728  1
  La3+  La54  1  -0.00230679  0.83383713  0.36540780  1
  La3+  La55  1  0.50107633  0.50016162  0.38966114  1
  La3+  La56  1  0.50249737  0.16390710  0.88882390  1
  La3+  La57  1  -0.00056458  0.49207244  0.38051369  1
  La3+  La58  1  0.50106402  0.83350888  0.13388914  1
  La3+  La59  1  0.49566452  0.17103622  0.62727657  1
  La3+  La60  1  -0.00112659  0.16423365  0.11408960  1
  La3+  La61  1  0.00057244  0.16737668  0.36379773  1
  La3+  La62  1  0.00071354  0.16818792  0.86843562  1
  La3+  La63  1  -0.00081641  0.83377417  0.38219109  1
  La3+  La64  1  0.49843375  0.49834900  0.87974910  1
  La3+  La65  1  0.49641873  0.49987852  0.12219489  1
  La3+  La66  1  0.49888493  0.82685878  0.87374391  1
  La3+  La67  1  -0.00082194  0.16528860  0.63790489  1
  La3+  La68  1  0.00088761  0.49998357  0.63820341  1
  La3+  La69  1  0.49930934  0.16503099  0.38259490  1
  La3+  La70  1  0.49905419  0.83510162  0.38708350  1
  La3+  La71  1  0.50031982  0.83171556  0.61760408  1
  La3+  La72  1  0.25026805  0.50076650  -0.00005850  1
  La3+  La73  1  0.74995762  0.19725892  0.44548814  1
  La3+  La74  1  0.24996494  0.16798772  0.72736284  1
  La3+  La75  1  0.74962329  0.51315998  0.49494289  1
  La3+  La76  1  0.24968486  0.46619251  0.74740010  1
  La3+  La77  1  0.25021153  0.16932252  0.07023177  1
  La3+  La78  1  0.74989657  0.50828441  0.77005866  1
  La3+  La79  1  0.75005673  0.16543262  0.74842898  1
  La3+  La80  1  0.74985021  0.16883845  0.07733347  1
  La3+  La81  1  0.25039474  0.82837369  0.47840772  1
  La3+  La82  1  0.75006818  0.50057201  0.00930451  1
  La3+  La83  1  0.75038308  0.79189198  -0.03452292  1
  Ru4+  Ru84  1  -0.00252204  -0.00273808  0.00424831  1
  Ru4+  Ru85  1  0.00230203  0.00367233  0.24540495  1
  Ru4+  Ru86  1  -0.00298989  -0.00732087  0.50361101  1
  Ru4+  Ru87  1  0.00129882  0.00105029  0.74559183  1
  Ru4+  Ru88  1  -0.00036523  0.33370772  -0.00220857  1
  Ru4+  Ru89  1  -0.00083586  0.33362641  0.24888905  1
  Ru4+  Ru90  1  -0.00194272  0.32603759  0.49965430  1
  Ru4+  Ru91  1  0.00009950  0.33302922  0.75119198  1
  Ru4+  Ru92  1  -0.00024609  0.66556823  -0.00091953  1
  Ru4+  Ru93  1  0.00559230  0.66659227  0.25152962  1
  Ru4+  Ru94  1  -0.00188574  0.66882146  0.50206468  1
  Ru4+  Ru95  1  -0.00287756  0.66776838  0.75141336  1
  Ru4+  Ru96  1  0.50133279  0.00693684  0.00219161  1
  Ru4+  Ru97  1  0.50229122  0.00277792  0.24859239  1
  Ru4+  Ru98  1  0.50316590  0.00518163  0.49612060  1
  Ru4+  Ru99  1  0.50269381  0.00353659  0.74786668  1
  Ru4+  Ru100  1  0.49811821  0.33259082  0.00322483  1
  Ru4+  Ru101  1  0.50447822  0.33411421  0.24613602  1
  Ru4+  Ru102  1  0.49746404  0.34112897  0.50271621  1
  Ru4+  Ru103  1  0.50034738  0.33794455  0.74728048  1
  Ru4+  Ru104  1  0.49714219  0.67114496  0.00413292  1
  Ru4+  Ru105  1  0.50130590  0.66818336  0.25137183  1
  Ru4+  Ru106  1  0.50125465  0.66423689  0.50426541  1
  Ru4+  Ru107  1  0.50194220  0.66465864  0.74620130  1
  Ru4+  Ru108  1  0.11068439  0.16569815  0.00095858  1
  Ru4+  Ru109  1  0.11397567  0.16518404  0.25063976  1
  Ru4+  Ru110  1  0.11679998  0.17078403  0.49942887  1
  Ru4+  Ru111  1  0.11122897  0.16672613  0.74882704  1
  Ru4+  Ru112  1  0.10957367  0.50026125  0.00052016  1
  Ru4+  Ru113  1  0.11378330  0.50213941  0.24859071  1
  Ru4+  Ru114  1  0.11845604  0.50208670  0.50069975  1
  Ru4+  Ru115  1  0.10908917  0.49971957  0.75022067  1
  Ru4+  Ru116  1  0.11358787  0.83263373  0.00075540  1
  Ru4+  Ru117  1  0.11552636  0.83347486  0.24909652  1
  Ru4+  Ru118  1  0.11284738  0.83526935  0.50088260  1
  Ru4+  Ru119  1  0.11356213  0.83334316  0.75071484  1
  Ru4+  Ru120  1  0.61061640  0.16697317  -0.00093957  1
  Ru4+  Ru121  1  0.61165333  0.16633695  0.24965565  1
  Ru4+  Ru122  1  0.61403970  0.16182784  0.49923826  1
  Ru4+  Ru123  1  0.61308055  0.16620955  0.75055517  1
  Ru4+  Ru124  1  0.61597404  0.49704397  -0.00116887  1
  Ru4+  Ru125  1  0.61334332  0.50181229  0.25030614  1
  Ru4+  Ru126  1  0.60802981  0.50043277  0.50118964  1
  Ru4+  Ru127  1  0.60862888  0.50161798  0.74859739  1
  Ru4+  Ru128  1  0.61188393  0.83081210  -0.00024166  1
  Ru4+  Ru129  1  0.61329725  0.83120530  0.24996625  1
  Ru4+  Ru130  1  0.61337981  0.83496822  0.50004219  1
  Ru4+  Ru131  1  0.61344841  0.83553981  0.75004897  1
  Ru4+  Ru132  1  0.38911665  0.16702303  0.00036998  1
  Ru4+  Ru133  1  0.38469465  0.16581445  0.25062528  1
  Ru4+  Ru134  1  0.38724984  0.16681605  0.50075672  1
  Ru4+  Ru135  1  0.38703311  0.16560523  0.74906763  1
  Ru4+  Ru136  1  0.38940576  0.49993204  -0.00003646  1
  Ru4+  Ru137  1  0.38393601  0.50033027  0.24857917  1
  Ru4+  Ru138  1  0.38783541  0.49921127  0.50080844  1
  Ru4+  Ru139  1  0.38910461  0.49904323  0.75112606  1
  Ru4+  Ru140  1  0.38412494  0.83389882  -0.00075379  1
  Ru4+  Ru141  1  0.38430475  0.83233826  0.25066975  1
  Ru4+  Ru142  1  0.38647553  0.82900860  0.49941166  1
  Ru4+  Ru143  1  0.38549145  0.82980454  0.74983393  1
  Ru4+  Ru144  1  0.89014126  0.16709140  0.00030465  1
  Ru4+  Ru145  1  0.88735657  0.16740373  0.24970594  1
  Ru4+  Ru146  1  0.88784635  0.16731215  0.49975537  1
  Ru4+  Ru147  1  0.88875351  0.16839451  0.75026357  1
  Ru4+  Ru148  1  0.88905104  0.50229992  0.00101662  1
  Ru4+  Ru149  1  0.88461238  0.50068676  0.24845493  1
  Ru4+  Ru150  1  0.88718946  0.49880462  0.50033674  1
  Ru4+  Ru151  1  0.89041653  0.49983900  0.75115157  1
  Ru4+  Ru152  1  0.89097604  0.83544015  0.00143292  1
  Ru4+  Ru153  1  0.88227282  0.83136467  0.24875555  1
  Ru4+  Ru154  1  0.88573129  0.83587794  0.49983456  1
  Ru4+  Ru155  1  0.88531560  0.83150909  0.75124478  1
  Ru4+  Ru156  1  0.74985583  0.92167691  0.00430174  1
  Ru4+  Ru157  1  0.25000453  0.95514201  0.52008838  1
  Ru4+  Ru158  1  0.25019426  0.69983223  0.50226845  1
  Ru4+  Ru159  1  0.24973539  0.60560924  0.75649599  1
  Ru4+  Ru160  1  0.75014999  0.38792719  0.74496617  1
  Ru4+  Ru161  1  0.74967564  0.76083734  0.75133578  1
  Ru4+  Ru162  1  0.75003543  0.38822179  0.49902982  1
  Ru4+  Ru163  1  0.74949212  0.91537695  0.25432593  1
  Ru4+  Ru164  1  0.24966607  0.75182941  -0.00053926  1
  Ru4+  Ru165  1  0.24995171  0.92493343  0.75635839  1
  Ru4+  Ru166  1  0.74974547  0.76594933  0.49304679  1
  Ru4+  Ru167  1  0.75020931  0.29262675  0.01600140  1
  Ru4+  Ru168  1  0.75020140  0.05780392  0.50101317  1
  Ru4+  Ru169  1  0.25040488  0.24447953  0.50185538  1
  Ru4+  Ru170  1  0.75028977  0.05431324  -0.00814694  1
  Ru4+  Ru171  1  0.25007492  0.29613955  0.00289295  1
  Ru4+  Ru172  1  0.24996597  0.74370764  0.75710785  1
  Ru4+  Ru173  1  0.24992448  0.04864940  -0.01077948  1
  Ru4+  Ru174  1  0.25043315  0.09379479  0.50238212  1
  Ru4+  Ru175  1  0.74985191  0.42240945  0.24292509  1
  Ru4+  Ru176  1  0.25015559  0.42191624  0.25989690  1
  Ru4+  Ru177  1  0.75003980  0.63133690  0.74486442  1
  Ru4+  Ru178  1  0.75008089  0.64091276  0.49295531  1
  Ru4+  Ru179  1  0.74985295  0.24635449  0.24565655  1
  O2-  O180  1  0.16693092  0.07986447  -0.00065190  1
  O2-  O181  1  0.16577471  0.08304311  0.25066401  1
  O2-  O182  1  0.16881626  0.08158930  0.50133341  1
  O2-  O183  1  0.16856500  0.07896663  0.75036414  1
  O2-  O184  1  0.16786414  0.41472916  0.00062267  1
  O2-  O185  1  0.16701370  0.41369950  0.24736799  1
  O2-  O186  1  0.16731715  0.41367763  0.50026200  1
  O2-  O187  1  0.16683770  0.41146269  0.75137303  1
  O2-  O188  1  0.16690236  0.74826928  0.00009900  1
  O2-  O189  1  0.16656709  0.74715773  0.25038511  1
  O2-  O190  1  0.16644363  0.74520685  0.50071126  1
  O2-  O191  1  0.16664625  0.74725567  0.74991452  1
  O2-  O192  1  0.66525361  0.07963354  0.00011728  1
  O2-  O193  1  0.66699130  0.08182879  0.25043951  1
  O2-  O194  1  0.66769080  0.08074182  0.50035314  1
  O2-  O195  1  0.66916290  0.07981685  0.74898947  1
  O2-  O196  1  0.66765883  0.41388360  0.00069599  1
  O2-  O197  1  0.66806559  0.41468583  0.24977561  1
  O2-  O198  1  0.66518164  0.41149822  0.50005458  1
  O2-  O199  1  0.66508834  0.41171564  0.74948037  1
  O2-  O200  1  0.66697275  0.74528022  0.00169495  1
  O2-  O201  1  0.66520699  0.74836198  0.24860666  1
  O2-  O202  1  0.66783879  0.74665411  0.49985932  1
  O2-  O203  1  0.66610277  0.74686936  0.75019500  1
  O2-  O204  1  0.33247468  0.25479026  0.00069274  1
  O2-  O205  1  0.33295884  0.25072991  0.24827130  1
  O2-  O206  1  0.33267157  0.25165392  0.49897655  1
  O2-  O207  1  0.33161093  0.25301532  0.75199341  1
  O2-  O208  1  0.33114279  0.58618234  0.00007483  1
  O2-  O209  1  0.33205803  0.58463198  0.25077330  1
  O2-  O210  1  0.33276054  0.58634766  0.50050903  1
  O2-  O211  1  0.33428443  0.58710939  0.74974271  1
  O2-  O212  1  0.33229049  0.91804080  -0.00093547  1
  O2-  O213  1  0.33467781  0.91788126  0.25086847  1
  O2-  O214  1  0.33374838  0.92205300  0.50088898  1
  O2-  O215  1  0.33251886  0.91900845  0.75020659  1
  O2-  O216  1  0.83384447  0.25520166  0.00071979  1
  O2-  O217  1  0.83236640  0.25186953  0.24939113  1
  O2-  O218  1  0.83315431  0.25355214  0.50127121  1
  O2-  O219  1  0.83375341  0.25313342  0.74941698  1
  O2-  O220  1  0.83150415  0.58668240  -0.00080541  1
  O2-  O221  1  0.83194204  0.58356969  0.25027946  1
  O2-  O222  1  0.83333994  0.58792362  0.50069291  1
  O2-  O223  1  0.83530060  0.58814607  0.74961827  1
  O2-  O224  1  0.83261155  0.92056914  -0.00050480  1
  O2-  O225  1  0.83167674  0.92065225  0.25000452  1
  O2-  O226  1  0.83495933  0.91777353  0.50035326  1
  O2-  O227  1  0.83225803  0.91769400  0.74902548  1
  O2-  O228  1  0.16570694  0.25478059  0.00042441  1
  O2-  O229  1  0.16668773  0.25295780  0.24826520  1
  O2-  O230  1  0.16851606  0.25241719  0.49993421  1
  O2-  O231  1  0.16587084  0.25344385  0.75181663  1
  O2-  O232  1  0.16876425  0.58599650  0.00040412  1
  O2-  O233  1  0.16777468  0.58490753  0.24950191  1
  O2-  O234  1  0.16803701  0.58733142  0.50052348  1
  O2-  O235  1  0.16676060  0.58836982  0.75054368  1
  O2-  O236  1  0.16690447  0.91789194  -0.00103014  1
  O2-  O237  1  0.16502265  0.91728535  0.25030829  1
  O2-  O238  1  0.16543880  0.92129330  0.50016324  1
  O2-  O239  1  0.16735348  0.91970435  0.74978572  1
  O2-  O240  1  0.66731194  0.25486219  0.00071175  1
  O2-  O241  1  0.66868201  0.25142869  0.24984269  1
  O2-  O242  1  0.66605723  0.25376775  0.50118023  1
  O2-  O243  1  0.66634967  0.25275094  0.74904707  1
  O2-  O244  1  0.66722908  0.58709401  0.00061759  1
  O2-  O245  1  0.66597041  0.58449394  0.24879878  1
  O2-  O246  1  0.66552802  0.58762313  0.50001499  1
  O2-  O247  1  0.66613232  0.58736793  0.75065979  1
  O2-  O248  1  0.66682875  0.91986350  -0.00005323  1
  O2-  O249  1  0.66904527  0.92013736  0.25063256  1
  O2-  O250  1  0.66457680  0.91811668  0.50046918  1
  O2-  O251  1  0.66583426  0.91914118  0.74938258  1
  O2-  O252  1  0.33462557  0.07989132  -0.00034518  1
  O2-  O253  1  0.33308830  0.08407033  0.25037821  1
  O2-  O254  1  0.33107970  0.08063464  0.50048125  1
  O2-  O255  1  0.33312187  0.08000069  0.75000184  1
  O2-  O256  1  0.33114506  0.41356439  0.00055217  1
  O2-  O257  1  0.33211051  0.41528189  0.24975432  1
  O2-  O258  1  0.33351576  0.41524729  0.49946480  1
  O2-  O259  1  0.33234525  0.41355371  0.75059725  1
  O2-  O260  1  0.33311437  0.74674524  0.00043809  1
  O2-  O261  1  0.33223117  0.74757167  0.25120150  1
  O2-  O262  1  0.33433175  0.74451210  0.49979681  1
  O2-  O263  1  0.33348936  0.74815547  0.75031489  1
  O2-  O264  1  0.83432361  0.07911997  0.00054575  1
  O2-  O265  1  0.83232576  0.08068120  0.24979829  1
  O2-  O266  1  0.83295084  0.07996084  0.50033788  1
  O2-  O267  1  0.83234207  0.07958486  0.75013953  1
  O2-  O268  1  0.83441924  0.41298728  0.00029726  1
  O2-  O269  1  0.83262487  0.41514102  0.24910660  1
  O2-  O270  1  0.83418397  0.41169748  0.50049469  1
  O2-  O271  1  0.83324207  0.41045640  0.74932240  1
  O2-  O272  1  0.83481606  0.74609730  -0.00019830  1
  O2-  O273  1  0.83270531  0.74938668  0.24905096  1
  O2-  O274  1  0.83339300  0.74656130  0.50054362  1
  O2-  O275  1  0.83260077  0.74771405  0.74976784  1
  O2-  O276  1  0.45164901  0.42915920  0.51075107  1
  O2-  O277  1  0.54921959  0.56855569  0.51232071  1
  O2-  O278  1  0.54904365  0.42915417  0.51538424  1
  O2-  O279  1  0.54607620  0.23665034  0.48207869  1
  O2-  O280  1  0.96199394  0.88894863  0.72166027  1
  O2-  O281  1  0.54741434  0.56986315  0.98082926  1
  O2-  O282  1  0.04665900  0.76670571  0.26430072  1
  O2-  O283  1  0.45026882  0.90384597  0.96342118  1
  O2-  O284  1  0.04394479  0.23324110  0.23519628  1
  O2-  O285  1  0.04533941  0.43081293  0.50049228  1
  O2-  O286  1  0.45865317  0.22415154  0.78238331  1
  O2-  O287  1  0.45152572  0.90412683  0.73373044  1
  O2-  O288  1  0.04584744  0.43109896  0.23233413  1
  O2-  O289  1  0.95913310  0.55940605  0.27511236  1
  O2-  O290  1  0.04575284  0.90251556  0.48744219  1
  O2-  O291  1  0.04540155  0.43109144  0.50409135  1
  O2-  O292  1  0.54614874  0.10128978  0.26515779  1
  O2-  O293  1  0.03793971  0.88547753  0.00662662  1
  O2-  O294  1  0.94427296  0.76318906  0.20617931  1
  O2-  O295  1  0.05057002  0.75651625  0.51883306  1
  O2-  O296  1  0.45313523  0.90258041  0.51443088  1
  O2-  O297  1  0.46172854  0.55518713  0.24564184  1
  O2-  O298  1  0.95738763  0.56097883  0.46941868  1
  O2-  O299  1  0.45535771  0.76352346  0.73462302  1
  O2-  O300  1  0.54754917  0.43042220  0.23458347  1
  O2-  O301  1  0.54558152  0.43105574  0.73695022  1
  O2-  O302  1  0.53931373  0.43923022  0.02807552  1
  O2-  O303  1  0.96497492  0.88479430  0.75948574  1
  O2-  O304  1  0.03768209  0.11049251  0.50346596  1
  O2-  O305  1  0.04979069  0.57242322  0.48871648  1
  O2-  O306  1  0.95435424  0.10265270  0.76310299  1
  O2-  O307  1  0.54487047  0.23449382  0.52121071  1
  O2-  O308  1  0.04612714  0.56557378  0.01204508  1
  O2-  O309  1  0.53687389  0.10672868  0.71698688  1
  O2-  O310  1  0.04568061  0.23662601  0.01271990  1
  O2-  O311  1  0.45519687  0.90081873  0.23657737  1
  O2-  O312  1  0.54591093  0.57328724  0.01994607  1
  O2-  O313  1  0.45175192  0.57217402  0.51454213  1
  O2-  O314  1  0.03773794  0.11052450  0.50359564  1
  O2-  O315  1  0.46019806  0.22698522  0.22263040  1
  O2-  O316  1  0.54996604  0.57078376  0.26463978  1
  O2-  O317  1  0.45798431  0.43527691  0.28277741  1
  O2-  O318  1  0.54835389  0.23861011  0.76416128  1
  O2-  O319  1  0.54165157  0.88779231  0.97122736  1
  O2-  O320  1  0.45481850  0.76341609  0.01497728  1
  O2-  O321  1  0.94453352  0.90897846  0.01913210  1
  O2-  O322  1  0.95532786  0.10199343  0.23963821  1
  O2-  O323  1  0.95191894  0.90074549  0.26894507  1
  O2-  O324  1  0.42548851  0.27122783  0.70131491  1
  O2-  O325  1  0.56486739  0.07225877  0.47311951  1
  O2-  O326  1  0.93471648  0.40268267  0.46821195  1
  O2-  O327  1  0.56610876  0.73838001  0.97138462  1
  O2-  O328  1  0.05910126  0.74365982  0.52582765  1
  O2-  O329  1  0.43680886  0.07204463  0.53368324  1
  O2-  O330  1  0.93057830  0.72639523  0.32189699  1
  O2-  O331  1  0.06380972  0.06971599  0.71739452  1
  O2-  O332  1  0.93372010  0.73748342  0.77773922  1
  O2-  O333  1  0.06384434  0.07395451  0.03212039  1
  O2-  O334  1  0.93586151  0.07000060  0.43636169  1
  O2-  O335  1  0.56535684  0.92712945  0.22144127  1
  O2-  O336  1  0.93454968  0.40672017  0.77746720  1
  O2-  O337  1  0.92426301  0.60711744  0.54953925  1
  O2-  O338  1  0.43832297  0.74126446  0.21506287  1
  O2-  O339  1  0.42993219  0.93987174  0.07289344  1
  O2-  O340  1  0.93337713  0.07625605  0.55720321  1
  O2-  O341  1  0.43600091  0.06957206  0.30423081  1
  O2-  O342  1  0.43656792  0.40391330  0.78437124  1
  O2-  O343  1  0.56574092  0.59426294  0.72413906  1
  O2-  O344  1  0.43802438  0.92684590  0.53140189  1
  O2-  O345  1  0.92568314  0.60349106  0.20410567  1
  O2-  O346  1  0.43654251  0.26416033  0.93873119  1
  O2-  O347  1  0.57494334  0.06035429  0.79692695  1
  O2-  O348  1  0.06713360  0.59411912  0.27904741  1
  O2-  O349  1  0.43607944  0.06897807  0.19685219  1
  O2-  O350  1  0.57491368  0.93751519  0.04710720  1
  O2-  O351  1  0.44174829  0.91541541  0.95809241  1
  O2-  O352  1  0.93868473  0.92666455  0.28686953  1
  O2-  O353  1  0.07056458  0.05786747  0.55995349  1
  O2-  O354  1  0.43026553  0.39386545  0.20007792  1
  O2-  O355  1  0.42656059  0.61048611  0.20708059  1
  O2-  O356  1  0.93395099  0.59433381  0.02635534  1
  O2-  O357  1  0.56497843  0.74089430  0.52675207  1
  O2-  O358  1  0.94899612  0.75498758  0.21052517  1
  O2-  O359  1  0.93917102  0.91862485  0.02272321  1
  O2-  O360  1  0.43611591  0.26365174  0.06022842  1
  O2-  O361  1  0.93634987  0.25973839  0.46588679  1
  O2-  O362  1  0.06586921  0.73657411  0.02631648  1
  O2-  O363  1  0.07655044  0.05922049  0.44041703  1
  O2-  O364  1  0.91968734  0.95286425  0.79599329  1
  O2-  O365  1  0.57010835  0.39334074  0.94723971  1
  O2-  O366  1  0.43779435  0.93120691  0.71881911  1
  O2-  O367  1  0.07341510  0.94122358  0.04028204  1
  O2-  O368  1  0.43211615  0.26957721  0.29643670  1
  O2-  O369  1  0.56376354  0.25891929  0.96565264  1
  O2-  O370  1  0.56619914  0.26192334  0.22294466  1
  O2-  O371  1  0.06525498  0.26060200  0.47184179  1
  O2-  O372  1  0.74983353  0.67245691  0.85855122  1
  O2-  O373  1  0.24992474  0.33485137  0.57863365  1
  O2-  O374  1  0.25004828  0.01062517  0.41393939  1
  O2-  O375  1  0.75008423  -0.00106524  0.40101002  1
  O2-  O376  1  0.25007266  0.67033764  0.64873315  1
  O2-  O377  1  0.74987575  0.30873567  0.57986122  1
  O2-  O378  1  0.75014396  0.33560909  0.31434439  1
  O2-  O379  1  0.24984274  0.34071581  0.89490014  1
  O2-  O380  1  0.74978345  0.31439802  0.41326898  1
  O2-  O381  1  0.25002749  -0.01292485  0.08693321  1
  O2-  O382  1  0.75000240  -0.00387232  0.88813343  1
  O2-  O383  1  0.74987368  0.31063395  0.83474312  1
  O2-  O384  1  0.74989674  0.30663348  0.66844199  1
  O2-  O385  1  0.25012264  0.33443300  0.34148554  1
  O2-  O386  1  0.75006025  0.67528927  0.63796202  1
  O2-  O387  1  0.74982137  -0.00097880  0.59841861  1
  O2-  O388  1  0.25018596  0.00011681  0.32467083  1
  O2-  O389  1  0.75002601  0.35161770  0.91457115  1
  O2-  O390  1  0.24998355  -0.00781097  0.89023366  1
  O2-  O391  1  0.24991733  0.66640169  0.90657202  1
  O2-  O392  1  0.24983221  0.33273814  0.67057980  1
  O2-  O393  1  0.75001579  0.00087831  0.10880760  1
  O2-  O394  1  0.25002332  0.00249907  0.17459437  1
  O2-  O395  1  0.75014577  0.66550491  0.35418407  1
  O2-  O396  1  0.25004483  0.83403457  0.69026884  1
  O2-  O397  1  0.74998757  0.49923696  0.89119128  1
  O2-  O398  1  0.75014714  0.16879336  0.63507745  1
  O2-  O399  1  0.75004782  0.15800725  0.55944993  1
  O2-  O400  1  0.25001837  0.16663841  0.84705064  1
  O2-  O401  1  0.75002022  0.82996460  0.18455899  1
  O2-  O402  1  0.75001922  0.83424593  0.83694418  1
  O2-  O403  1  0.24999710  0.83253675  0.83154693  1
  O2-  O404  1  0.74976602  0.16598088  0.86269092  1
  O2-  O405  1  0.25002216  0.83223517  0.16622176  1
  O2-  O406  1  0.75005438  0.83516561  0.66872792  1
  O2-  O407  1  0.75002210  0.83059750  0.40928027  1
  O2-  O408  1  0.74991877  0.83971799  0.09540563  1
  O2-  O409  1  0.25001441  0.83426790  0.08268688  1
  O2-  O410  1  0.74998729  0.16538920  0.94253589  1
  O2-  O411  1  0.25009004  0.83558231  0.92155269  1
  O2-  O412  1  0.24999859  0.16461751  0.93036079  1
  O2-  O413  1  0.74998837  0.49829044  0.63483917  1
  O2-  O414  1  0.24988484  0.83488588  0.60683251  1
  O2-  O415  1  0.75001319  0.83518462  0.58089922  1
  O2-  O416  1  0.75003456  0.49670054  0.13632367  1
  O2-  O417  1  0.24995274  0.49653801  0.33470691  1
  O2-  O418  1  0.24986937  0.83253740  0.35972140  1
  O2-  O419  1  0.25010556  0.16593411  0.60145425  1
  O2-  O420  1  0.52749159  0.33380128  0.37471563  1
  O2-  O421  1  0.52578016  -0.00721348  0.37208634  1
  O2-  O422  1  0.52211562  0.67018280  0.62699344  1
  O2-  O423  1  0.03515943  0.00082935  0.87313690  1
  O2-  O424  1  0.53911111  0.66924640  0.37692526  1
  O2-  O425  1  0.53429379  -0.00416434  0.88445486  1
  O2-  O426  1  0.03037063  0.66410642  0.12986247  1
  O2-  O427  1  0.47533262  0.33493749  0.61961784  1
  O2-  O428  1  0.46415446  0.66569180  0.87359926  1
  O2-  O429  1  0.02537877  -0.00301712  0.36726834  1
  O2-  O430  1  0.97505842  0.66941096  0.11723818  1
  O2-  O431  1  0.02565484  0.67146488  0.37884368  1
  O2-  O432  1  0.53316381  0.66495263  0.86642992  1
  O2-  O433  1  0.52270633  0.00678434  0.12505009  1
  O2-  O434  1  0.97560033  0.66927965  0.63178359  1
  O2-  O435  1  0.46401780  0.00904567  0.86758837  1
  O2-  O436  1  0.96837620  0.00515603  0.88354232  1
  O2-  O437  1  0.97562655  0.66142011  0.87996577  1
  O2-  O438  1  0.02642768  0.33499075  0.37090696  1
  O2-  O439  1  0.97490975  -0.00343757  0.62856774  1
  O2-  O440  1  0.46008703  0.66748173  0.37596832  1
  O2-  O441  1  0.52630266  0.33489993  0.12117763  1
  O2-  O442  1  0.97428142  0.00491781  0.12835242  1
  O2-  O443  1  0.97425948  0.32944607  0.87997147  1
