# generated using pymatgen
data_La7(Ru4O11)2
_symmetry_space_group_name_H-M   'P 1'
_cell_length_a   23.98955145
_cell_length_b   16.82978873
_cell_length_c   15.42627435
_cell_angle_alpha   89.99923417
_cell_angle_beta   89.99975890
_cell_angle_gamma   90.00027810
_symmetry_Int_Tables_number   1
_chemical_formula_structural   La7(Ru4O11)2
_chemical_formula_sum   'La84 Ru96 O264'
_cell_volume   6228.18985553
_cell_formula_units_Z   12
loop_
 _symmetry_equiv_pos_site_id
 _symmetry_equiv_pos_as_xyz
  1  'x, y, z'
loop_
 _atom_type_symbol
 _atom_type_oxidation_number
  La3+  3.0
  Ru4+  4.0
  O2-  -2.0
loop_
 _atom_site_type_symbol
 _atom_site_label
 _atom_site_symmetry_multiplicity
 _atom_site_fract_x
 _atom_site_fract_y
 _atom_site_fract_z
 _atom_site_occupancy
  La3+  La0  1  0.13645085  0.00047786  0.12714398  1
  La3+  La1  1  0.13901508  0.00063412  0.37406633  1
  La3+  La2  1  0.13878477  0.00118939  0.62429119  1
  La3+  La3  1  0.13640077  0.00077255  0.87386474  1
  La3+  La4  1  0.13852661  0.33308879  0.12711574  1
  La3+  La5  1  0.14137377  0.33422100  0.37509236  1
  La3+  La6  1  0.13997872  0.33444952  0.62424492  1
  La3+  La7  1  0.14003145  0.33367995  0.87449114  1
  La3+  La8  1  0.13949019  0.66692496  0.12870324  1
  La3+  La9  1  0.13828320  0.66700525  0.37292827  1
  La3+  La10  1  0.13777116  0.66672811  0.62523477  1
  La3+  La11  1  0.13723605  0.66662060  0.87353210  1
  La3+  La12  1  0.63745818  -0.00165225  0.12465297  1
  La3+  La13  1  0.63793145  -0.00051127  0.37403660  1
  La3+  La14  1  0.63841814  -0.00159852  0.62562651  1
  La3+  La15  1  0.63781980  -0.00158077  0.87350623  1
  La3+  La16  1  0.63758236  0.33467644  0.12508718  1
  La3+  La17  1  0.63849681  0.33391320  0.37739562  1
  La3+  La18  1  0.63927351  0.33515998  0.62259184  1
  La3+  La19  1  0.63819573  0.33531754  0.87512542  1
  La3+  La20  1  0.63900724  0.66801060  0.12420274  1
  La3+  La21  1  0.63861977  0.66670328  0.37633217  1
  La3+  La22  1  0.63816019  0.66728097  0.62468478  1
  La3+  La23  1  0.63930487  0.66809836  0.87536023  1
  La3+  La24  1  0.36147282  0.00081600  0.12991379  1
  La3+  La25  1  0.36175527  0.00186009  0.37350634  1
  La3+  La26  1  0.36121469  0.00123857  0.62393267  1
  La3+  La27  1  0.36245342  0.00116265  0.87301113  1
  La3+  La28  1  0.36229794  0.33457484  0.12471068  1
  La3+  La29  1  0.35869790  0.33408287  0.37396200  1
  La3+  La30  1  0.36128976  0.33231745  0.62733862  1
  La3+  La31  1  0.36235939  0.33222708  0.87320423  1
  La3+  La32  1  0.36189282  0.66567883  0.12664397  1
  La3+  La33  1  0.36049677  0.66711182  0.37299589  1
  La3+  La34  1  0.36142616  0.66696393  0.62598830  1
  La3+  La35  1  0.36324699  0.66606538  0.87561121  1
  La3+  La36  1  0.86213599  -0.00161025  0.12510295  1
  La3+  La37  1  0.86206050  -0.00116718  0.37453206  1
  La3+  La38  1  0.86195990  -0.00117863  0.62564427  1
  La3+  La39  1  0.86211079  -0.00103358  0.87390695  1
  La3+  La40  1  0.86256236  0.33471722  0.12603603  1
  La3+  La41  1  0.86190971  0.33443318  0.37669927  1
  La3+  La42  1  0.85984196  0.33489249  0.62159349  1
  La3+  La43  1  0.86169533  0.33474061  0.87544487  1
  La3+  La44  1  0.86172134  0.66801775  0.12335769  1
  La3+  La45  1  0.86165140  0.66678402  0.37557315  1
  La3+  La46  1  0.86289290  0.66794429  0.62559654  1
  La3+  La47  1  0.86135342  0.66750051  0.87522208  1
  La3+  La48  1  0.00023244  0.83196462  0.86521790  1
  La3+  La49  1  0.50045083  0.16487122  0.13738386  1
  La3+  La50  1  -0.00209327  0.49843840  0.38302434  1
  La3+  La51  1  -0.00058647  0.83268708  0.88234339  1
  La3+  La52  1  -0.00520615  0.49860653  0.86959905  1
  La3+  La53  1  0.50187706  0.49561176  0.62893335  1
  La3+  La54  1  -0.00030902  0.83368851  0.13673211  1
  La3+  La55  1  0.49945089  0.16682277  0.11491650  1
  La3+  La56  1  0.49998348  0.83323677  0.63308260  1
  La3+  La57  1  -0.00061147  0.50088466  0.11489061  1
  La3+  La58  1  -0.00182283  0.49745143  0.13687463  1
  La3+  La59  1  0.49915607  0.16774924  0.63674987  1
  La3+  La60  1  0.00305399  0.16392270  0.87069141  1
  La3+  La61  1  0.49928021  0.83325342  0.86442075  1
  La3+  La62  1  -0.00048103  0.16662435  0.11575896  1
  La3+  La63  1  0.50071145  0.83335545  0.88689980  1
  La3+  La64  1  0.00215433  0.16876326  0.63547731  1
  La3+  La65  1  0.49741365  0.16884424  0.86846732  1
  La3+  La66  1  0.00073493  0.50123615  0.63224106  1
  La3+  La67  1  0.50249019  0.49328392  0.12016121  1
  La3+  La68  1  0.00262563  0.50691038  0.87646157  1
  La3+  La69  1  0.50130434  0.49954623  0.86471656  1
  La3+  La70  1  0.50008166  0.83333137  0.36523239  1
  La3+  La71  1  0.00087474  0.16894153  0.61783444  1
  La3+  La72  1  0.25047326  0.83122816  0.53167086  1
  La3+  La73  1  0.75012694  0.13644256  0.74884079  1
  La3+  La74  1  0.75000140  0.45897698  0.74741703  1
  La3+  La75  1  0.25023739  0.45645660  -0.00915329  1
  La3+  La76  1  0.75030642  0.16095211  -0.00132560  1
  La3+  La77  1  0.24991808  0.82964830  -0.00178546  1
  La3+  La78  1  0.25013381  0.16792016  0.25341872  1
  La3+  La79  1  0.75045108  0.50143270  0.21684159  1
  La3+  La80  1  0.75000862  0.20253928  0.22344359  1
  La3+  La81  1  0.25020999  0.20453296  -0.00476581  1
  La3+  La82  1  0.74998195  0.20065652  0.53674160  1
  La3+  La83  1  0.75018737  0.83389972  0.27404094  1
  Ru4+  Ru84  1  0.00143405  0.00168085  0.00269322  1
  Ru4+  Ru85  1  -0.00008639  0.00027744  0.24837755  1
  Ru4+  Ru86  1  0.00163718  -0.00639817  0.50069371  1
  Ru4+  Ru87  1  0.00383462  -0.00508545  0.74949293  1
  Ru4+  Ru88  1  -0.00162209  0.32913731  -0.00007268  1
  Ru4+  Ru89  1  0.00179255  0.32718762  0.25007016  1
  Ru4+  Ru90  1  -0.00090520  0.33244555  0.49957509  1
  Ru4+  Ru91  1  0.00204698  0.33471731  0.75165720  1
  Ru4+  Ru92  1  0.00729384  0.66723601  0.00160341  1
  Ru4+  Ru93  1  -0.00094086  0.66726870  0.25165169  1
  Ru4+  Ru94  1  0.00108852  0.66723178  0.50107435  1
  Ru4+  Ru95  1  0.00128446  0.66353932  0.74411617  1
  Ru4+  Ru96  1  0.50048836  -0.00051896  0.00099513  1
  Ru4+  Ru97  1  0.50186411  -0.00225206  0.24790407  1
  Ru4+  Ru98  1  0.49970384  0.00126817  0.50145624  1
  Ru4+  Ru99  1  0.49781882  -0.00174350  0.74867059  1
  Ru4+  Ru100  1  0.50187255  0.32985629  -0.00020705  1
  Ru4+  Ru101  1  0.50193485  0.33538799  0.25388103  1
  Ru4+  Ru102  1  0.50259490  0.33539681  0.49732448  1
  Ru4+  Ru103  1  0.50011139  0.33806152  0.74873038  1
  Ru4+  Ru104  1  0.50346647  0.67453587  0.00212980  1
  Ru4+  Ru105  1  0.49997047  0.67133741  0.24820365  1
  Ru4+  Ru106  1  0.50079817  0.66831021  0.50193975  1
  Ru4+  Ru107  1  0.50158142  0.67000782  0.74665629  1
  Ru4+  Ru108  1  0.11069277  0.16579823  0.00003000  1
  Ru4+  Ru109  1  0.11210963  0.16882930  0.25073549  1
  Ru4+  Ru110  1  0.11308832  0.16634382  0.49968232  1
  Ru4+  Ru111  1  0.11173705  0.16673211  0.74986583  1
  Ru4+  Ru112  1  0.11282332  0.50132057  0.00023030  1
  Ru4+  Ru113  1  0.11469455  0.49933794  0.24977210  1
  Ru4+  Ru114  1  0.11389871  0.49850263  0.50012636  1
  Ru4+  Ru115  1  0.11323925  0.49719180  0.75043070  1
  Ru4+  Ru116  1  0.11165411  0.83323323  0.00004905  1
  Ru4+  Ru117  1  0.11423273  0.83318610  0.25005825  1
  Ru4+  Ru118  1  0.10805124  0.83278388  0.49971321  1
  Ru4+  Ru119  1  0.11212874  0.83324148  0.75053055  1
  Ru4+  Ru120  1  0.61180597  0.16540350  0.00010692  1
  Ru4+  Ru121  1  0.61149080  0.16688510  0.25068000  1
  Ru4+  Ru122  1  0.61115575  0.16737762  0.50039834  1
  Ru4+  Ru123  1  0.61402626  0.16696025  0.74965202  1
  Ru4+  Ru124  1  0.61315264  0.49881545  0.00003409  1
  Ru4+  Ru125  1  0.61169446  0.49719864  0.25122900  1
  Ru4+  Ru126  1  0.61398629  0.49792539  0.49967824  1
  Ru4+  Ru127  1  0.61163408  0.49821312  0.74970419  1
  Ru4+  Ru128  1  0.61363504  0.83293895  -0.00031441  1
  Ru4+  Ru129  1  0.61183854  0.83341863  0.25045489  1
  Ru4+  Ru130  1  0.61244464  0.83327315  0.50002846  1
  Ru4+  Ru131  1  0.61383269  0.83310845  0.75008813  1
  Ru4+  Ru132  1  0.38852763  0.16880229  -0.00095440  1
  Ru4+  Ru133  1  0.38428976  0.16810838  0.25003827  1
  Ru4+  Ru134  1  0.38622383  0.16420850  0.49959849  1
  Ru4+  Ru135  1  0.38698635  0.16651151  0.75049724  1
  Ru4+  Ru136  1  0.38168553  0.49850146  0.00094395  1
  Ru4+  Ru137  1  0.38467615  0.49896769  0.25022419  1
  Ru4+  Ru138  1  0.38664780  0.49699091  0.49942724  1
  Ru4+  Ru139  1  0.38493177  0.49781408  0.75058422  1
  Ru4+  Ru140  1  0.38838915  0.83262812  -0.00028374  1
  Ru4+  Ru141  1  0.38503363  0.83251214  0.25052921  1
  Ru4+  Ru142  1  0.38912833  0.83307038  0.49997940  1
  Ru4+  Ru143  1  0.38800616  0.83354579  0.74927289  1
  Ru4+  Ru144  1  0.88866446  0.16737782  -0.00026471  1
  Ru4+  Ru145  1  0.88996736  0.16800235  0.25015341  1
  Ru4+  Ru146  1  0.88718984  0.16975822  0.49860998  1
  Ru4+  Ru147  1  0.88393792  0.16859934  0.74963022  1
  Ru4+  Ru148  1  0.88350190  0.49628625  0.00017777  1
  Ru4+  Ru149  1  0.88660380  0.50314801  0.24994219  1
  Ru4+  Ru150  1  0.88556033  0.49887177  0.49995629  1
  Ru4+  Ru151  1  0.88867638  0.50057225  0.75022845  1
  Ru4+  Ru152  1  0.88360181  0.83651121  0.00030634  1
  Ru4+  Ru153  1  0.88783556  0.83261847  0.24972224  1
  Ru4+  Ru154  1  0.88691656  0.83573870  0.50027826  1
  Ru4+  Ru155  1  0.88296149  0.83587772  0.74823779  1
  Ru4+  Ru156  1  0.75000208  0.58221606  0.00673190  1
  Ru4+  Ru157  1  0.75005055  0.04401490  -0.01513679  1
  Ru4+  Ru158  1  0.24970154  0.09109256  0.74771408  1
  Ru4+  Ru159  1  0.25020868  0.95082598  0.01137905  1
  Ru4+  Ru160  1  0.25023088  0.95838702  0.49501680  1
  Ru4+  Ru161  1  0.75019893  0.74989734  0.50097153  1
  Ru4+  Ru162  1  0.25018937  0.70206648  0.49514713  1
  Ru4+  Ru163  1  0.75000543  0.60282654  0.74174910  1
  Ru4+  Ru164  1  0.24976805  0.24493855  0.74984047  1
  Ru4+  Ru165  1  0.25020049  0.08045816  0.00683956  1
  Ru4+  Ru166  1  0.25010357  0.91120536  0.74556288  1
  Ru4+  Ru167  1  0.74988952  0.27056899  0.73604284  1
  Ru4+  Ru168  1  0.75012612  0.91720336  0.50094206  1
  Ru4+  Ru169  1  0.25001945  0.57483449  0.50351085  1
  Ru4+  Ru170  1  0.75003648  0.05904426  0.49929771  1
  Ru4+  Ru171  1  0.25005664  0.70915045  0.02612907  1
  Ru4+  Ru172  1  0.25013948  0.75494002  0.74613570  1
  Ru4+  Ru173  1  0.74996650  0.06879843  0.25688331  1
  Ru4+  Ru174  1  0.75001781  0.37800290  0.27615534  1
  Ru4+  Ru175  1  0.24987546  0.25079697  0.49762205  1
  Ru4+  Ru176  1  0.25002951  0.57777577  0.74776185  1
  Ru4+  Ru177  1  0.74994094  0.27581639  -0.00079894  1
  Ru4+  Ru178  1  0.74997851  0.62830338  0.26212628  1
  Ru4+  Ru179  1  0.24949630  0.58725349  0.01144231  1
  O2-  O180  1  0.16727526  0.07946636  -0.00045215  1
  O2-  O181  1  0.16668621  0.07999019  0.24970199  1
  O2-  O182  1  0.16611910  0.08166970  0.50066873  1
  O2-  O183  1  0.16854464  0.07990312  0.74963080  1
  O2-  O184  1  0.16613783  0.41229194  0.00025144  1
  O2-  O185  1  0.16637417  0.41547982  0.24892449  1
  O2-  O186  1  0.16604775  0.41566415  0.50024051  1
  O2-  O187  1  0.16674862  0.41460321  0.74984210  1
  O2-  O188  1  0.16535897  0.74610303  -0.00061593  1
  O2-  O189  1  0.16565885  0.74818853  0.25140373  1
  O2-  O190  1  0.16653978  0.74560543  0.50033459  1
  O2-  O191  1  0.16853773  0.74668864  0.74918655  1
  O2-  O192  1  0.66662700  0.07907154  -0.00051820  1
  O2-  O193  1  0.66734926  0.07941959  0.24977119  1
  O2-  O194  1  0.66733712  0.07952549  0.49994877  1
  O2-  O195  1  0.66771244  0.07988010  0.75054870  1
  O2-  O196  1  0.66612460  0.41446430  0.00011414  1
  O2-  O197  1  0.66670731  0.41322295  0.24918158  1
  O2-  O198  1  0.66665025  0.41641536  0.50025154  1
  O2-  O199  1  0.66674952  0.41304238  0.75072224  1
  O2-  O200  1  0.66676383  0.74733864  0.00020425  1
  O2-  O201  1  0.66761343  0.74655408  0.25038141  1
  O2-  O202  1  0.66766358  0.74757272  0.50015536  1
  O2-  O203  1  0.66645292  0.74738441  0.74976139  1
  O2-  O204  1  0.33357845  0.25365666  0.00057871  1
  O2-  O205  1  0.33318325  0.25187990  0.24921134  1
  O2-  O206  1  0.33157352  0.25182471  0.50007913  1
  O2-  O207  1  0.33060276  0.25242221  0.74958434  1
  O2-  O208  1  0.33281653  0.58621255  -0.00055631  1
  O2-  O209  1  0.33245397  0.58497167  0.25027041  1
  O2-  O210  1  0.33193146  0.58598148  0.49964244  1
  O2-  O211  1  0.33108947  0.58573158  0.74925991  1
  O2-  O212  1  0.33388219  0.92058974  -0.00019236  1
  O2-  O213  1  0.33352485  0.91881597  0.25005960  1
  O2-  O214  1  0.33400925  0.92103450  0.50058819  1
  O2-  O215  1  0.33241534  0.91964499  0.74972978  1
  O2-  O216  1  0.83454884  0.25437938  0.00038281  1
  O2-  O217  1  0.83397091  0.25371363  0.25003965  1
  O2-  O218  1  0.83368045  0.25120894  0.50008757  1
  O2-  O219  1  0.83257553  0.25324448  0.75038800  1
  O2-  O220  1  0.83221807  0.58536343  0.00053427  1
  O2-  O221  1  0.83370788  0.58691546  0.25022263  1
  O2-  O222  1  0.83305274  0.58617544  0.49991678  1
  O2-  O223  1  0.83285829  0.58629493  0.74918771  1
  O2-  O224  1  0.83215171  0.91905635  -0.00157094  1
  O2-  O225  1  0.83292623  0.91918553  0.24997640  1
  O2-  O226  1  0.83242640  0.91827617  0.50023444  1
  O2-  O227  1  0.83208088  0.91948970  0.75070670  1
  O2-  O228  1  0.16618582  0.25380203  0.00018028  1
  O2-  O229  1  0.16770638  0.25156122  0.24822539  1
  O2-  O230  1  0.16915045  0.25175609  0.50025650  1
  O2-  O231  1  0.16836615  0.25280673  0.74985413  1
  O2-  O232  1  0.16653584  0.58680675  0.00009990  1
  O2-  O233  1  0.16647431  0.58551064  0.25131407  1
  O2-  O234  1  0.16750376  0.58638394  0.49950334  1
  O2-  O235  1  0.16847071  0.58668913  0.74946467  1
  O2-  O236  1  0.16509268  0.92071865  -0.00040016  1
  O2-  O237  1  0.16670329  0.91918173  0.25020100  1
  O2-  O238  1  0.16583569  0.92021807  0.50046418  1
  O2-  O239  1  0.16738759  0.91953979  0.74942506  1
  O2-  O240  1  0.66538602  0.25479789  -0.00008118  1
  O2-  O241  1  0.66582152  0.25365680  0.24959892  1
  O2-  O242  1  0.66571645  0.25161280  0.49945217  1
  O2-  O243  1  0.66722472  0.25339064  0.74960146  1
  O2-  O244  1  0.66711650  0.58632252  0.00023536  1
  O2-  O245  1  0.66701265  0.58739037  0.24974540  1
  O2-  O246  1  0.66656558  0.58577844  0.49997537  1
  O2-  O247  1  0.66692586  0.58675348  0.74976606  1
  O2-  O248  1  0.66689878  0.91943940  -0.00080417  1
  O2-  O249  1  0.66715481  0.91965188  0.25009334  1
  O2-  O250  1  0.66735946  0.91885867  0.50005396  1
  O2-  O251  1  0.66808532  0.91978759  0.75053137  1
  O2-  O252  1  0.33317716  0.07909783  -0.00025018  1
  O2-  O253  1  0.33275045  0.08080830  0.24988380  1
  O2-  O254  1  0.33319761  0.08253296  0.50092786  1
  O2-  O255  1  0.33266138  0.08153852  0.74901694  1
  O2-  O256  1  0.33422287  0.41240305  0.00028486  1
  O2-  O257  1  0.33423770  0.41598144  0.24924362  1
  O2-  O258  1  0.33422330  0.41549947  0.49966754  1
  O2-  O259  1  0.33327645  0.41478502  0.74989286  1
  O2-  O260  1  0.33412894  0.74619842  -0.00026816  1
  O2-  O261  1  0.33415649  0.74867321  0.25085951  1
  O2-  O262  1  0.33360861  0.74562226  0.50034321  1
  O2-  O263  1  0.33134224  0.74669191  0.74987534  1
  O2-  O264  1  0.83398002  0.07903370  -0.00041638  1
  O2-  O265  1  0.83288428  0.08016605  0.25005183  1
  O2-  O266  1  0.83201967  0.07959943  0.50064535  1
  O2-  O267  1  0.83241048  0.07997820  0.75060426  1
  O2-  O268  1  0.83372110  0.41416241  -0.00003099  1
  O2-  O269  1  0.83320419  0.41225889  0.24935835  1
  O2-  O270  1  0.83358060  0.41641980  0.50020820  1
  O2-  O271  1  0.83418110  0.41200409  0.75039625  1
  O2-  O272  1  0.83208752  0.74778086  0.00036887  1
  O2-  O273  1  0.83143131  0.74710138  0.25101313  1
  O2-  O274  1  0.83202613  0.74723929  0.49997766  1
  O2-  O275  1  0.83324431  0.74811247  0.74945026  1
  O2-  O276  1  0.04498837  0.90082087  0.01302710  1
  O2-  O277  1  0.95309736  0.43132830  0.26551970  1
  O2-  O278  1  0.45491990  0.10015919  0.98603026  1
  O2-  O279  1  0.46068314  0.22767480  0.27926825  1
  O2-  O280  1  0.45759688  0.22811701  0.76131581  1
  O2-  O281  1  0.55600080  0.08328902  0.79698689  1
  O2-  O282  1  0.45407542  0.43275512  0.48566438  1
  O2-  O283  1  0.47274819  0.87425432  0.02343504  1
  O2-  O284  1  0.45316785  0.23699819  0.73503465  1
  O2-  O285  1  0.45732240  0.56682825  0.98489852  1
  O2-  O286  1  0.04567300  0.76429115  0.98599798  1
  O2-  O287  1  0.04459144  0.23664785  0.98486358  1
  O2-  O288  1  0.45493597  0.43022670  0.76475033  1
  O2-  O289  1  0.94659996  0.75484881  0.03435626  1
  O2-  O290  1  0.45598808  0.55852524  0.22428430  1
  O2-  O291  1  0.04558382  0.43009373  0.48611704  1
  O2-  O292  1  0.54373965  0.55902097  0.22373720  1
  O2-  O293  1  0.95513963  0.77141622  0.52566392  1
  O2-  O294  1  0.04588950  0.90074269  0.23765719  1
  O2-  O295  1  0.95451676  0.43172504  0.73461784  1
  O2-  O296  1  0.54569795  0.10022585  0.51436229  1
  O2-  O297  1  0.54447863  0.90190389  0.51361767  1
  O2-  O298  1  0.96067374  0.10671274  0.52715882  1
  O2-  O299  1  0.05864026  0.08136279  0.02365208  1
  O2-  O300  1  0.04924649  0.76348711  0.50587534  1
  O2-  O301  1  0.95330579  0.09919577  0.98427737  1
  O2-  O302  1  0.95309545  0.76457853  0.76625682  1
  O2-  O303  1  0.45288244  0.09577058  0.26614507  1
  O2-  O304  1  0.96088112  0.22905141  0.77926853  1
  O2-  O305  1  0.95327274  0.56963407  0.98621421  1
  O2-  O306  1  0.04504999  0.56826466  0.23732366  1
  O2-  O307  1  0.95433994  0.09802639  0.72931174  1
  O2-  O308  1  0.95307694  0.56707782  0.51449900  1
  O2-  O309  1  0.45716759  0.56182280  0.72309424  1
  O2-  O310  1  0.95462834  0.09598824  0.76850439  1
  O2-  O311  1  0.54450062  0.76452257  0.48485328  1
  O2-  O312  1  0.95228734  0.42928203  0.98648462  1
  O2-  O313  1  0.45328338  0.42814470  0.01305811  1
  O2-  O314  1  0.95003192  0.23432723  0.26461301  1
  O2-  O315  1  0.04290161  0.43993467  0.97155497  1
  O2-  O316  1  0.04687319  0.76298855  0.49276604  1
  O2-  O317  1  0.04547262  0.90652010  0.48678621  1
  O2-  O318  1  0.04743237  0.57175283  0.48555342  1
  O2-  O319  1  0.54761153  0.56788298  0.73751848  1
  O2-  O320  1  0.03440738  0.20939334  0.25113884  1
  O2-  O321  1  0.04543415  0.56864299  0.76179655  1
  O2-  O322  1  0.54466578  0.23560288  0.98459642  1
  O2-  O323  1  0.45939682  0.56091481  0.00028224  1
  O2-  O324  1  0.43384955  0.74017987  0.96946187  1
  O2-  O325  1  0.92747699  0.06351612  0.45595078  1
  O2-  O326  1  0.92859902  0.73651584  0.94671896  1
  O2-  O327  1  0.43580260  0.59744710  0.54955586  1
  O2-  O328  1  0.42684553  0.93587689  0.93388752  1
  O2-  O329  1  0.42460380  0.60663132  0.03937170  1
  O2-  O330  1  0.56508622  0.40422629  0.27662567  1
  O2-  O331  1  0.57137215  0.60110561  0.29017884  1
  O2-  O332  1  0.42928082  0.60123707  0.29024612  1
  O2-  O333  1  0.56439765  0.06825876  0.28234510  1
  O2-  O334  1  0.92925608  0.27510446  0.70036281  1
  O2-  O335  1  0.05450498  0.08713125  0.01968852  1
  O2-  O336  1  0.93580000  0.59099763  0.97074591  1
  O2-  O337  1  0.07738605  0.28853242  0.29343063  1
  O2-  O338  1  0.43565852  0.26408313  0.45271423  1
  O2-  O339  1  0.43662707  0.06777880  0.46881631  1
  O2-  O340  1  0.43397303  0.59384666  0.45584009  1
  O2-  O341  1  0.56531069  0.07124648  0.02916991  1
  O2-  O342  1  0.56478681  0.40496958  0.72128306  1
  O2-  O343  1  0.93469434  0.93107205  0.53363124  1
  O2-  O344  1  0.06389013  0.26435441  0.46922351  1
  O2-  O345  1  0.93508555  0.73795919  0.22216947  1
  O2-  O346  1  0.93826410  0.40550966  0.28009541  1
  O2-  O347  1  0.07186221  0.39584176  0.04447165  1
  O2-  O348  1  0.94651757  0.75480799  0.03440261  1
  O2-  O349  1  0.43626777  0.73609038  0.71677434  1
  O2-  O350  1  0.43584919  0.26395783  0.54770974  1
  O2-  O351  1  0.93607671  0.06838745  0.21698395  1
  O2-  O352  1  0.43551678  0.40739701  0.02947638  1
  O2-  O353  1  0.42912126  0.27026332  0.20864770  1
  O2-  O354  1  0.93137418  0.72948053  0.45766666  1
  O2-  O355  1  0.42740089  0.94709518  0.06461741  1
  O2-  O356  1  0.42735277  0.60107179  0.79231914  1
  O2-  O357  1  0.93621566  0.40339066  0.46811159  1
  O2-  O358  1  0.56496431  0.26425088  0.80194394  1
  O2-  O359  1  0.43274450  0.26761385  0.78316194  1
  O2-  O360  1  0.93659186  0.74157306  0.78211806  1
  O2-  O361  1  0.93575298  0.93093494  0.03260271  1
  O2-  O362  1  0.93647730  0.93088494  0.69755612  1
  O2-  O363  1  0.57342002  0.06369752  0.68207704  1
  O2-  O364  1  0.56386628  0.92962039  0.78364192  1
  O2-  O365  1  0.56581708  0.25923894  0.70265085  1
  O2-  O366  1  0.93650215  0.26293010  0.46833362  1
  O2-  O367  1  0.56474882  0.40367852  0.47190770  1
  O2-  O368  1  0.06558792  0.73918551  0.77987753  1
  O2-  O369  1  0.54778507  0.09426664  0.78879936  1
  O2-  O370  1  0.93545694  0.93084055  0.80288309  1
  O2-  O371  1  0.43755306  0.06983451  0.27987196  1
  O2-  O372  1  0.25020788  0.33096935  0.34690501  1
  O2-  O373  1  0.25007200  0.00425313  0.11138666  1
  O2-  O374  1  0.75016977  0.33290220  0.40179429  1
  O2-  O375  1  0.74998928  0.34712680  0.91712897  1
  O2-  O376  1  0.75010172  0.34010929  0.82828059  1
  O2-  O377  1  0.24996596  0.00531863  0.90674388  1
  O2-  O378  1  0.75012027  0.33041087  0.59836683  1
  O2-  O379  1  0.25007920  0.66274310  0.90929564  1
  O2-  O380  1  0.24999231  0.00324173  0.60204209  1
  O2-  O381  1  0.74993846  -0.00834291  0.17135677  1
  O2-  O382  1  0.75000609  0.34835351  0.08252163  1
  O2-  O383  1  0.74989933  0.66921034  0.15111503  1
  O2-  O384  1  0.24999968  0.00072384  0.81660999  1
  O2-  O385  1  0.74987201  0.67261622  0.83273851  1
  O2-  O386  1  0.25005655  0.66653471  0.15146630  1
  O2-  O387  1  0.75004820  0.32246627  0.16777928  1
  O2-  O388  1  0.74984040  0.66779858  0.92287119  1
  O2-  O389  1  0.74994071  -0.00956014  0.08126295  1
  O2-  O390  1  0.24996751  0.33141018  0.92057050  1
  O2-  O391  1  0.25005265  0.66619009  0.81832895  1
  O2-  O392  1  0.25006183  0.33418444  0.82921797  1
  O2-  O393  1  0.25013721  0.32935706  0.59149344  1
  O2-  O394  1  0.74998269  -0.00418577  0.34840078  1
  O2-  O395  1  0.24993408  0.00503846  0.39700151  1
  O2-  O396  1  0.74991575  0.83285219  0.41117486  1
  O2-  O397  1  0.74994578  0.83324049  0.07071113  1
  O2-  O398  1  0.75008487  0.16094563  0.33602989  1
  O2-  O399  1  0.25002133  0.83355477  0.15460892  1
  O2-  O400  1  0.75004640  0.16182098  0.41709847  1
  O2-  O401  1  0.24996810  0.50600496  0.10512585  1
  O2-  O402  1  0.74991489  0.16658813  0.87624558  1
  O2-  O403  1  0.74995318  0.83357447  0.15169163  1
  O2-  O404  1  0.74992997  0.50899500  0.85928711  1
  O2-  O405  1  0.24997468  0.49960392  0.18596547  1
  O2-  O406  1  0.74996818  0.16458175  0.11684361  1
  O2-  O407  1  0.74996718  0.50188527  0.08772566  1
  O2-  O408  1  0.74995428  0.50879093  0.64006347  1
  O2-  O409  1  0.74996642  0.83308399  0.58157842  1
  O2-  O410  1  0.24986832  0.50729167  0.87353751  1
  O2-  O411  1  0.25001187  0.50452408  0.58917326  1
  O2-  O412  1  0.24995111  0.83360136  0.39009651  1
  O2-  O413  1  0.74998667  0.49994794  0.55951441  1
  O2-  O414  1  0.75009396  0.49422534  0.94040979  1
  O2-  O415  1  0.74989882  0.50060986  0.35903711  1
  O2-  O416  1  0.24993044  0.83377870  0.84207252  1
  O2-  O417  1  0.75005668  0.83335074  0.66731837  1
  O2-  O418  1  0.24997473  0.16778936  0.37637334  1
  O2-  O419  1  0.25001008  0.16594438  0.12645792  1
  O2-  O420  1  0.97206831  -0.00372079  0.36915187  1
  O2-  O421  1  0.03365617  0.66319046  0.87885329  1
  O2-  O422  1  0.53597772  0.66635833  0.87678249  1
  O2-  O423  1  0.02575354  -0.00111398  0.12989640  1
  O2-  O424  1  0.52802644  0.66742861  0.62397982  1
  O2-  O425  1  0.96825571  0.65939123  0.12484339  1
  O2-  O426  1  0.52966431  0.67003654  0.37813995  1
  O2-  O427  1  0.52437622  -0.00494438  0.62194070  1
  O2-  O428  1  0.03502090  0.66735248  0.12373734  1
  O2-  O429  1  0.52699160  -0.00194246  0.12828887  1
  O2-  O430  1  0.97117769  0.66068964  0.86872488  1
  O2-  O431  1  0.46941402  0.67122697  0.12824475  1
  O2-  O432  1  0.47634947  0.33299447  0.12544099  1
  O2-  O433  1  0.97220313  0.66523703  0.62822006  1
  O2-  O434  1  0.52484237  0.32831242  0.37475433  1
  O2-  O435  1  0.53284846  0.66746319  0.12388100  1
  O2-  O436  1  0.47474781  0.00368949  0.86855874  1
  O2-  O437  1  0.02619718  0.33064512  0.12983890  1
  O2-  O438  1  0.47267417  0.67528867  0.37404149  1
  O2-  O439  1  0.02859758  -0.00007802  0.87449983  1
  O2-  O440  1  0.02833351  0.33330671  0.62458599  1
  O2-  O441  1  0.46966969  0.66968383  0.87557052  1
  O2-  O442  1  0.52479797  0.33423393  0.61680194  1
  O2-  O443  1  0.03033542  0.00148999  0.37162911  1
