# generated using pymatgen
data_La7(Ru4O11)2
_symmetry_space_group_name_H-M   'P 1'
_cell_length_a   23.99139492
_cell_length_b   16.83092391
_cell_length_c   15.42760800
_cell_angle_alpha   89.99988418
_cell_angle_beta   89.99972365
_cell_angle_gamma   90.00048189
_symmetry_Int_Tables_number   1
_chemical_formula_structural   La7(Ru4O11)2
_chemical_formula_sum   'La84 Ru96 O264'
_cell_volume   6229.62710627
_cell_formula_units_Z   12
loop_
 _symmetry_equiv_pos_site_id
 _symmetry_equiv_pos_as_xyz
  1  'x, y, z'
loop_
 _atom_type_symbol
 _atom_type_oxidation_number
  La3+  3.0
  Ru4+  4.0
  O2-  -2.0
loop_
 _atom_site_type_symbol
 _atom_site_label
 _atom_site_symmetry_multiplicity
 _atom_site_fract_x
 _atom_site_fract_y
 _atom_site_fract_z
 _atom_site_occupancy
  La3+  La0  1  0.14148544  0.00065906  0.12319874  1
  La3+  La1  1  0.13948058  0.00285977  0.37068235  1
  La3+  La2  1  0.13851912  0.00014919  0.62662484  1
  La3+  La3  1  0.14466423  -0.00272143  0.87541877  1
  La3+  La4  1  0.14019742  0.33739599  0.12276581  1
  La3+  La5  1  0.13677390  0.33171621  0.37859141  1
  La3+  La6  1  0.13793061  0.33364730  0.62547020  1
  La3+  La7  1  0.14179071  0.33359620  0.87411711  1
  La3+  La8  1  0.14053936  0.67053614  0.12277943  1
  La3+  La9  1  0.13814242  0.67121183  0.37101523  1
  La3+  La10  1  0.13347396  0.66457681  0.62738354  1
  La3+  La11  1  0.13874397  0.66587090  0.87406767  1
  La3+  La12  1  0.63761702  0.00275418  0.12766692  1
  La3+  La13  1  0.63793505  -0.00064480  0.37571198  1
  La3+  La14  1  0.63932439  0.00244159  0.62532689  1
  La3+  La15  1  0.63749668  0.00030782  0.87555810  1
  La3+  La16  1  0.63862466  0.33230553  0.12588831  1
  La3+  La17  1  0.64328595  0.33042588  0.37536508  1
  La3+  La18  1  0.64056072  0.33234981  0.62453643  1
  La3+  La19  1  0.63882721  0.33400047  0.87652468  1
  La3+  La20  1  0.63522981  0.66273226  0.12399460  1
  La3+  La21  1  0.64250599  0.66840445  0.37930415  1
  La3+  La22  1  0.63662151  0.66693769  0.62566283  1
  La3+  La23  1  0.63661500  0.66440481  0.87721123  1
  La3+  La24  1  0.35786646  -0.00046247  0.12255014  1
  La3+  La25  1  0.36146642  0.00109957  0.37163225  1
  La3+  La26  1  0.36347912  -0.00021003  0.62623538  1
  La3+  La27  1  0.36031447  0.00085855  0.87847081  1
  La3+  La28  1  0.35977249  0.33789565  0.12137340  1
  La3+  La29  1  0.35988804  0.33193371  0.37767486  1
  La3+  La30  1  0.35937237  0.33342585  0.62727790  1
  La3+  La31  1  0.35857910  0.33890899  0.87459438  1
  La3+  La32  1  0.36169376  0.66677030  0.12153973  1
  La3+  La33  1  0.36392172  0.66655613  0.37158866  1
  La3+  La34  1  0.36254846  0.66733454  0.62742643  1
  La3+  La35  1  0.35982726  0.66648244  0.87750846  1
  La3+  La36  1  0.86212940  0.00328154  0.12600101  1
  La3+  La37  1  0.85848438  0.00178096  0.37658673  1
  La3+  La38  1  0.85890890  0.00132579  0.62430327  1
  La3+  La39  1  0.86066038  -0.00060523  0.87344082  1
  La3+  La40  1  0.86067646  0.33134219  0.12454090  1
  La3+  La41  1  0.85689987  0.33002756  0.37525934  1
  La3+  La42  1  0.85772200  0.33123666  0.62381541  1
  La3+  La43  1  0.86019007  0.33427826  0.87709991  1
  La3+  La44  1  0.86221471  0.66736971  0.12535015  1
  La3+  La45  1  0.85882706  0.66096919  0.37874871  1
  La3+  La46  1  0.86290528  0.66919274  0.62479849  1
  La3+  La47  1  0.86297388  0.66742129  0.87401192  1
  La3+  La48  1  0.00068964  0.17012132  0.13638372  1
  La3+  La49  1  -0.00538276  0.50587183  0.12006721  1
  La3+  La50  1  -0.00354712  0.16047087  0.88047000  1
  La3+  La51  1  0.00466496  0.49457116  0.88494644  1
  La3+  La52  1  0.00071778  0.50258764  0.37397277  1
  La3+  La53  1  0.49800016  0.49949509  0.37104125  1
  La3+  La54  1  0.50237283  0.16307716  0.88112928  1
  La3+  La55  1  0.50219410  0.16365214  0.36235833  1
  La3+  La56  1  0.49918782  0.50055566  0.86378364  1
  La3+  La57  1  0.00041433  0.83155297  0.88184086  1
  La3+  La58  1  0.50412409  0.83060434  0.37224603  1
  La3+  La59  1  -0.00445472  0.17614261  0.37451421  1
  La3+  La60  1  0.00127181  0.16152752  0.61676423  1
  La3+  La61  1  0.00109317  0.49817569  0.63531642  1
  La3+  La62  1  -0.00042199  0.16468595  0.85900134  1
  La3+  La63  1  0.49619554  0.16858727  0.11987167  1
  La3+  La64  1  0.49951433  0.16662358  0.38424904  1
  La3+  La65  1  0.50064686  0.83524832  0.13456420  1
  La3+  La66  1  0.49520028  0.17261017  0.62807242  1
  La3+  La67  1  0.00293473  0.83651187  0.62535885  1
  La3+  La68  1  0.50107031  0.83395857  0.11719303  1
  La3+  La69  1  0.00039418  0.83425391  0.11608599  1
  La3+  La70  1  0.49583274  0.83069508  0.39093730  1
  La3+  La71  1  -0.00238528  0.50176405  0.14152947  1
  La3+  La72  1  0.24953034  0.83498927  0.24969054  1
  La3+  La73  1  0.25036000  0.11776793  0.72672582  1
  La3+  La74  1  0.75042147  0.82760033  0.30396643  1
  La3+  La75  1  0.25033593  0.84675060  0.52422017  1
  La3+  La76  1  0.75105105  0.53159137  0.21743353  1
  La3+  La77  1  0.25021272  0.52598356  0.52806417  1
  La3+  La78  1  0.24978942  0.12341458  0.05560635  1
  La3+  La79  1  0.75019992  0.45436096  0.47275203  1
  La3+  La80  1  0.74980466  0.78893912  -0.04126797  1
  La3+  La81  1  0.75049265  0.16490400  0.78396977  1
  La3+  La82  1  0.24990018  0.50022716  0.24893399  1
  La3+  La83  1  0.25000413  0.83724949  -0.01135781  1
  Ru4+  Ru84  1  0.00247019  0.00341123  0.00432502  1
  Ru4+  Ru85  1  -0.00156732  0.00168102  0.24750011  1
  Ru4+  Ru86  1  0.00101775  -0.00094846  0.49676811  1
  Ru4+  Ru87  1  0.00082295  -0.00216436  0.75154679  1
  Ru4+  Ru88  1  -0.00490563  0.32975299  0.00201010  1
  Ru4+  Ru89  1  -0.00011651  0.33340751  0.25364782  1
  Ru4+  Ru90  1  0.00116412  0.33266261  0.49878721  1
  Ru4+  Ru91  1  0.00108179  0.33550276  0.74798581  1
  Ru4+  Ru92  1  0.00225424  0.66803364  -0.00153844  1
  Ru4+  Ru93  1  -0.00325042  0.66395813  0.25630926  1
  Ru4+  Ru94  1  0.00203473  0.66461131  0.49766717  1
  Ru4+  Ru95  1  0.00330293  0.66917066  0.75196816  1
  Ru4+  Ru96  1  0.50368763  -0.00461906  -0.00346201  1
  Ru4+  Ru97  1  0.49325149  0.00790576  0.24590274  1
  Ru4+  Ru98  1  0.49580694  -0.00588381  0.50547307  1
  Ru4+  Ru99  1  0.49745492  -0.00807308  0.75182572  1
  Ru4+  Ru100  1  0.50040048  0.34068834  -0.00352713  1
  Ru4+  Ru101  1  0.50262225  0.33552777  0.24859855  1
  Ru4+  Ru102  1  0.50189148  0.34036180  0.50409421  1
  Ru4+  Ru103  1  0.50093196  0.33473047  0.75145653  1
  Ru4+  Ru104  1  0.49463418  0.66747007  0.00092471  1
  Ru4+  Ru105  1  0.50174243  0.65985749  0.24540562  1
  Ru4+  Ru106  1  0.49970316  0.66595714  0.49862361  1
  Ru4+  Ru107  1  0.49918329  0.66541910  0.75290559  1
  Ru4+  Ru108  1  0.11072209  0.16646478  0.00449724  1
  Ru4+  Ru109  1  0.11379149  0.16269663  0.24957457  1
  Ru4+  Ru110  1  0.11308700  0.16836265  0.50055635  1
  Ru4+  Ru111  1  0.11097973  0.16589050  0.74782346  1
  Ru4+  Ru112  1  0.11656282  0.49727926  -0.00177900  1
  Ru4+  Ru113  1  0.11107488  0.49986402  0.25119651  1
  Ru4+  Ru114  1  0.11119249  0.50905378  0.49755865  1
  Ru4+  Ru115  1  0.11681960  0.49260530  0.74911346  1
  Ru4+  Ru116  1  0.11164744  0.83312871  -0.00130494  1
  Ru4+  Ru117  1  0.11586654  0.83980771  0.25039823  1
  Ru4+  Ru118  1  0.10713370  0.83543729  0.49684817  1
  Ru4+  Ru119  1  0.11493409  0.83189783  0.75026896  1
  Ru4+  Ru120  1  0.61359536  0.16861281  -0.00082217  1
  Ru4+  Ru121  1  0.61634660  0.16758741  0.24844728  1
  Ru4+  Ru122  1  0.61688378  0.17247166  0.50142213  1
  Ru4+  Ru123  1  0.61477020  0.16930127  0.75323128  1
  Ru4+  Ru124  1  0.61481930  0.49400700  -0.00293910  1
  Ru4+  Ru125  1  0.61165918  0.49746827  0.24844348  1
  Ru4+  Ru126  1  0.60913657  0.49952879  0.50174617  1
  Ru4+  Ru127  1  0.61259584  0.49955852  0.74995076  1
  Ru4+  Ru128  1  0.61083581  0.83334981  0.00192320  1
  Ru4+  Ru129  1  0.61874280  0.82915842  0.24810030  1
  Ru4+  Ru130  1  0.61420591  0.83418999  0.50200765  1
  Ru4+  Ru131  1  0.61279747  0.83346190  0.74948099  1
  Ru4+  Ru132  1  0.38500366  0.16966662  -0.00176377  1
  Ru4+  Ru133  1  0.38657357  0.16225159  0.24918845  1
  Ru4+  Ru134  1  0.38605624  0.16715822  0.50019211  1
  Ru4+  Ru135  1  0.38943452  0.16697597  0.74873537  1
  Ru4+  Ru136  1  0.38653606  0.50042636  0.00111685  1
  Ru4+  Ru137  1  0.38971671  0.50057242  0.25110766  1
  Ru4+  Ru138  1  0.39052233  0.50200096  0.49905441  1
  Ru4+  Ru139  1  0.38671788  0.49863011  0.74933793  1
  Ru4+  Ru140  1  0.38869623  0.83254780  0.00095623  1
  Ru4+  Ru141  1  0.38218785  0.83745518  0.24924150  1
  Ru4+  Ru142  1  0.39082461  0.83362282  0.50063405  1
  Ru4+  Ru143  1  0.38890473  0.83296155  0.74860355  1
  Ru4+  Ru144  1  0.88608768  0.17100423  0.00060830  1
  Ru4+  Ru145  1  0.88456813  0.16631312  0.25151640  1
  Ru4+  Ru146  1  0.88536775  0.16753693  0.49983546  1
  Ru4+  Ru147  1  0.88783339  0.16655143  0.74878147  1
  Ru4+  Ru148  1  0.88611359  0.49520775  -0.00090533  1
  Ru4+  Ru149  1  0.89179845  0.50002933  0.24938163  1
  Ru4+  Ru150  1  0.88908043  0.50066226  0.50075309  1
  Ru4+  Ru151  1  0.88747124  0.50073069  0.74976214  1
  Ru4+  Ru152  1  0.88843035  0.83272364  -0.00130592  1
  Ru4+  Ru153  1  0.88610083  0.83432763  0.25100190  1
  Ru4+  Ru154  1  0.88488341  0.83704716  0.49599708  1
  Ru4+  Ru155  1  0.88480117  0.83896071  0.75072199  1
  Ru4+  Ru156  1  0.25003257  0.71769417  0.49775066  1
  Ru4+  Ru157  1  0.74977760  0.08385316  0.49645315  1
  Ru4+  Ru158  1  0.74982101  0.93749406  0.01674874  1
  Ru4+  Ru159  1  0.24984533  0.57906061  0.76880809  1
  Ru4+  Ru160  1  0.75015352  0.57901168  0.00220547  1
  Ru4+  Ru161  1  0.75005958  0.70299679  0.23566652  1
  Ru4+  Ru162  1  0.75017606  0.75434727  0.50869064  1
  Ru4+  Ru163  1  0.25002591  0.97375660  0.47610468  1
  Ru4+  Ru164  1  0.25003554  0.36212201  0.25246884  1
  Ru4+  Ru165  1  0.25009048  0.63490223  0.21766358  1
  Ru4+  Ru166  1  0.24961914  0.27134122  -0.00344547  1
  Ru4+  Ru167  1  0.74947768  0.91459440  0.73953051  1
  Ru4+  Ru168  1  0.74992208  0.95512723  0.24383340  1
  Ru4+  Ru169  1  0.74979971  0.40882566  0.75269182  1
  Ru4+  Ru170  1  0.25026461  0.27322376  0.75376703  1
  Ru4+  Ru171  1  0.75015184  0.60551977  0.51049116  1
  Ru4+  Ru172  1  0.75056117  0.38880773  0.26223912  1
  Ru4+  Ru173  1  0.24948968  0.10339059  0.50418532  1
  Ru4+  Ru174  1  0.25016037  0.38986616  0.50120705  1
  Ru4+  Ru175  1  0.74984192  0.59137203  0.75361019  1
  Ru4+  Ru176  1  0.25036920  0.91274717  0.75303777  1
  Ru4+  Ru177  1  0.24989361  0.23138057  0.25117795  1
  Ru4+  Ru178  1  0.74999944  0.09239386  0.01437484  1
  Ru4+  Ru179  1  0.74965968  0.75206399  0.74149923  1
  O2-  O180  1  0.16596699  0.08148203  0.00030095  1
  O2-  O181  1  0.16765896  0.08249465  0.24934185  1
  O2-  O182  1  0.16970405  0.08251904  0.49843957  1
  O2-  O183  1  0.16392744  0.07764636  0.75155947  1
  O2-  O184  1  0.16834820  0.41723067  0.00216960  1
  O2-  O185  1  0.16783065  0.41186949  0.25033519  1
  O2-  O186  1  0.16695768  0.41197079  0.50141054  1
  O2-  O187  1  0.16869495  0.41592491  0.74968418  1
  O2-  O188  1  0.16888802  0.74750632  -0.00070422  1
  O2-  O189  1  0.16656218  0.74744885  0.24699396  1
  O2-  O190  1  0.16546323  0.74612873  0.50231335  1
  O2-  O191  1  0.16557063  0.74923213  0.75008604  1
  O2-  O192  1  0.66923901  0.08142802  0.00213519  1
  O2-  O193  1  0.66754911  0.08233975  0.24794690  1
  O2-  O194  1  0.66686220  0.07866318  0.50132177  1
  O2-  O195  1  0.66867739  0.08322517  0.74814614  1
  O2-  O196  1  0.66423560  0.41446200  0.00052697  1
  O2-  O197  1  0.66872835  0.41410871  0.24962384  1
  O2-  O198  1  0.66270002  0.41149828  0.50231719  1
  O2-  O199  1  0.66583389  0.41375900  0.75134562  1
  O2-  O200  1  0.66267048  0.74494311  -0.00087998  1
  O2-  O201  1  0.66842219  0.74365301  0.24803367  1
  O2-  O202  1  0.66642943  0.74824942  0.50352568  1
  O2-  O203  1  0.66592179  0.74668303  0.74841685  1
  O2-  O204  1  0.33043682  0.25175262  0.00292527  1
  O2-  O205  1  0.33265337  0.25342826  0.25003472  1
  O2-  O206  1  0.33487176  0.25286814  0.50018033  1
  O2-  O207  1  0.33324164  0.25373850  0.74940878  1
  O2-  O208  1  0.33349155  0.58315522  -0.00159668  1
  O2-  O209  1  0.33123502  0.58768909  0.24862253  1
  O2-  O210  1  0.33688670  0.58647525  0.50130988  1
  O2-  O211  1  0.33390480  0.58311027  0.74943194  1
  O2-  O212  1  0.33575397  0.91880351  -0.00070494  1
  O2-  O213  1  0.33227224  0.92282118  0.25082173  1
  O2-  O214  1  0.33554826  0.92310867  0.49995531  1
  O2-  O215  1  0.33219507  0.91876738  0.74892755  1
  O2-  O216  1  0.83344619  0.25284027  -0.00080977  1
  O2-  O217  1  0.83360721  0.25184079  0.24778675  1
  O2-  O218  1  0.83542961  0.25136050  0.50115757  1
  O2-  O219  1  0.83360074  0.25292247  0.75303680  1
  O2-  O220  1  0.83368874  0.58780668  -0.00078431  1
  O2-  O221  1  0.83511437  0.58945428  0.24873424  1
  O2-  O222  1  0.83085643  0.58617799  0.50244976  1
  O2-  O223  1  0.83149832  0.58653963  0.75101722  1
  O2-  O224  1  0.83301811  0.92015376  0.00098652  1
  O2-  O225  1  0.83324420  0.92249947  0.24937749  1
  O2-  O226  1  0.83274311  0.91749240  0.49932137  1
  O2-  O227  1  0.83287337  0.91762149  0.75059997  1
  O2-  O228  1  0.16786666  0.25309222  0.00011935  1
  O2-  O229  1  0.16649054  0.25221715  0.25050092  1
  O2-  O230  1  0.16696288  0.24966537  0.50124804  1
  O2-  O231  1  0.16663874  0.25318569  0.74914319  1
  O2-  O232  1  0.16418085  0.58585308  -0.00017890  1
  O2-  O233  1  0.16762868  0.58770473  0.24736407  1
  O2-  O234  1  0.16785699  0.58935876  0.50135223  1
  O2-  O235  1  0.16736351  0.58388848  0.75029337  1
  O2-  O236  1  0.16454646  0.91725338  0.00050520  1
  O2-  O237  1  0.16686128  0.92175036  0.25106838  1
  O2-  O238  1  0.16726968  0.91963787  0.50049047  1
  O2-  O239  1  0.16881172  0.91726894  0.74907121  1
  O2-  O240  1  0.66542003  0.25251268  -0.00068756  1
  O2-  O241  1  0.66735783  0.25233680  0.25001581  1
  O2-  O242  1  0.66595569  0.25347952  0.50084718  1
  O2-  O243  1  0.66899692  0.25249446  0.75225330  1
  O2-  O244  1  0.66651746  0.58709747  -0.00086184  1
  O2-  O245  1  0.66814348  0.58591060  0.24834651  1
  O2-  O246  1  0.66613534  0.58645856  0.50175104  1
  O2-  O247  1  0.66587462  0.58715865  0.74933910  1
  O2-  O248  1  0.66751326  0.92064158  0.00105987  1
  O2-  O249  1  0.66797700  0.92156606  0.24942052  1
  O2-  O250  1  0.66526065  0.91952218  0.50196059  1
  O2-  O251  1  0.66559752  0.91876540  0.74823222  1
  O2-  O252  1  0.33457520  0.07995419  -0.00069116  1
  O2-  O253  1  0.33419510  0.08066933  0.25037020  1
  O2-  O254  1  0.33291165  0.08143508  0.50006112  1
  O2-  O255  1  0.33948585  0.07676673  0.75058730  1
  O2-  O256  1  0.33407466  0.41763357  0.00054108  1
  O2-  O257  1  0.33492620  0.41184477  0.25060242  1
  O2-  O258  1  0.33376982  0.41186957  0.50123002  1
  O2-  O259  1  0.33203111  0.41688027  0.74729878  1
  O2-  O260  1  0.33378740  0.74696224  -0.00238450  1
  O2-  O261  1  0.33380504  0.74725052  0.24952486  1
  O2-  O262  1  0.33453979  0.74339990  0.50177203  1
  O2-  O263  1  0.33663418  0.75001818  0.74922652  1
  O2-  O264  1  0.83213660  0.08076284  0.00038721  1
  O2-  O265  1  0.83366743  0.08220132  0.24920110  1
  O2-  O266  1  0.83140433  0.08004386  0.49917032  1
  O2-  O267  1  0.83180128  0.08192761  0.75264502  1
  O2-  O268  1  0.83464500  0.41355333  0.00080101  1
  O2-  O269  1  0.83212229  0.41171402  0.24880325  1
  O2-  O270  1  0.83700965  0.41110724  0.50282914  1
  O2-  O271  1  0.83441311  0.41547902  0.75119565  1
  O2-  O272  1  0.83503582  0.74507487  0.00127064  1
  O2-  O273  1  0.82973382  0.74529959  0.24700197  1
  O2-  O274  1  0.83246181  0.74938009  0.50146939  1
  O2-  O275  1  0.83296337  0.74788865  0.74916625  1
  O2-  O276  1  0.53819777  0.54794435  0.21173041  1
  O2-  O277  1  0.47098187  0.22154106  0.99886953  1
  O2-  O278  1  0.94671925  0.42674184  0.51616934  1
  O2-  O279  1  0.95008603  0.10150159  0.01241077  1
  O2-  O280  1  0.95377665  0.23540350  0.51277712  1
  O2-  O281  1  0.45075307  0.76697179  0.22956622  1
  O2-  O282  1  0.45261864  0.76137553  0.26804208  1
  O2-  O283  1  0.45297178  0.23769470  0.23848277  1
  O2-  O284  1  0.05319624  0.56338450  0.76473423  1
  O2-  O285  1  0.04945202  0.42180460  0.04561376  1
  O2-  O286  1  0.45378192  0.24003973  0.49245278  1
  O2-  O287  1  0.05199601  0.76320226  0.26765182  1
  O2-  O288  1  0.47090001  0.22164339  -0.00124937  1
  O2-  O289  1  0.95125934  0.76045657  0.73046529  1
  O2-  O290  1  0.05359174  0.76251338  0.22878568  1
  O2-  O291  1  0.05044265  0.76362225  0.73986503  1
  O2-  O292  1  0.55170296  0.56796388  0.98378347  1
  O2-  O293  1  0.52936083  0.55233665  0.24764902  1
  O2-  O294  1  0.95592463  0.78176246  0.23932585  1
  O2-  O295  1  0.54803785  0.90434208  0.25741796  1
  O2-  O296  1  0.02809614  0.88254978  0.49745263  1
  O2-  O297  1  0.54525084  0.10132588  0.52312259  1
  O2-  O298  1  0.05019210  0.90557693  0.74198530  1
  O2-  O299  1  0.04874600  0.43195003  0.49958850  1
  O2-  O300  1  0.45020582  0.90594551  0.25737555  1
  O2-  O301  1  0.54815156  0.43289061  0.51114739  1
  O2-  O302  1  0.55047799  0.76387132  0.23300779  1
  O2-  O303  1  0.05213266  0.75702301  0.48421253  1
  O2-  O304  1  0.53755482  0.10746432  0.21596760  1
  O2-  O305  1  0.96037057  0.78798787  0.23085331  1
  O2-  O306  1  0.46503669  0.44670366  0.71340122  1
  O2-  O307  1  0.45223129  0.08783263  0.98782143  1
  O2-  O308  1  0.53611050  0.10674446  0.74391235  1
  O2-  O309  1  0.95106599  0.76073237  0.76980789  1
  O2-  O310  1  0.53738082  0.10598400  0.72424601  1
  O2-  O311  1  0.45321103  0.90057699  0.74020018  1
  O2-  O312  1  0.95043574  0.90511535  0.76875221  1
  O2-  O313  1  0.04746337  0.43050834  0.49746526  1
  O2-  O314  1  0.05713716  0.09162577  0.04900618  1
  O2-  O315  1  0.03671617  0.10986414  0.46289207  1
  O2-  O316  1  0.45026452  0.43107510  0.48281230  1
  O2-  O317  1  0.95487448  0.76980114  0.52784463  1
  O2-  O318  1  0.54922252  0.09977322  0.48443486  1
  O2-  O319  1  0.05716312  0.57801819  0.54895851  1
  O2-  O320  1  0.95877815  0.55139025  0.78924655  1
  O2-  O321  1  0.95373230  0.56878133  0.98623067  1
  O2-  O322  1  0.54722796  0.89982476  0.49461802  1
  O2-  O323  1  0.05077466  0.23640331  0.95959171  1
  O2-  O324  1  0.93246875  0.92190443  0.55020654  1
  O2-  O325  1  0.91610351  0.71032106  0.29661051  1
  O2-  O326  1  0.58333886  0.05101720  0.80109624  1
  O2-  O327  1  0.43879816  0.41012468  0.03244592  1
  O2-  O328  1  0.06268783  0.07543053  0.72476398  1
  O2-  O329  1  0.42522253  0.27699919  0.08262661  1
  O2-  O330  1  0.56337841  0.59712209  0.96915713  1
  O2-  O331  1  0.06574246  0.05530674  0.91050095  1
  O2-  O332  1  0.41449923  0.27116119  0.93056745  1
  O2-  O333  1  0.58721732  0.62188492  0.29835492  1
  O2-  O334  1  0.93542943  0.07526244  0.52774170  1
  O2-  O335  1  0.43320743  0.58907257  0.27813659  1
  O2-  O336  1  0.42557151  0.39583548  0.79491190  1
  O2-  O337  1  0.05091586  0.08690201  0.05131978  1
  O2-  O338  1  0.06444504  0.74179158  0.97718564  1
  O2-  O339  1  0.56313735  0.40581627  0.22000165  1
  O2-  O340  1  0.06950043  0.60454003  0.41806048  1
  O2-  O341  1  0.43477497  0.07203047  0.96546012  1
  O2-  O342  1  0.56224876  0.92735146  0.03628411  1
  O2-  O343  1  0.93836967  0.06848662  0.31708422  1
  O2-  O344  1  0.56360486  0.25931687  0.21569235  1
  O2-  O345  1  0.93660776  0.07538971  0.72704481  1
  O2-  O346  1  0.93681292  0.26282323  0.28151248  1
  O2-  O347  1  0.07928306  0.40788598  0.92312482  1
  O2-  O348  1  0.04956178  0.57796605  0.54614700  1
  O2-  O349  1  0.93829537  0.92935124  0.96571188  1
  O2-  O350  1  0.06449029  0.40835910  0.27297188  1
  O2-  O351  1  0.93339615  0.07848862  0.19300477  1
  O2-  O352  1  0.06540170  0.40795031  0.72133625  1
  O2-  O353  1  0.05415742  0.42595279  0.05366849  1
  O2-  O354  1  0.93650237  0.93060324  0.43989687  1
  O2-  O355  1  0.56210436  0.26362619  0.78382306  1
  O2-  O356  1  0.07028031  0.27013478  0.09038470  1
  O2-  O357  1  0.07675850  0.95358299  0.45023670  1
  O2-  O358  1  0.06271941  0.59300067  0.27415395  1
  O2-  O359  1  0.56583786  0.07818269  0.97360142  1
  O2-  O360  1  0.93523526  0.58978444  0.47529874  1
  O2-  O361  1  0.92892074  0.73452338  0.45744812  1
  O2-  O362  1  0.05679680  0.24338424  0.95270011  1
  O2-  O363  1  0.07855887  0.06557961  0.55321167  1
  O2-  O364  1  0.06268945  0.06903490  0.22094238  1
  O2-  O365  1  0.57825700  0.06613639  0.30165367  1
  O2-  O366  1  0.06618447  0.25901368  0.47254085  1
  O2-  O367  1  0.43341094  0.59116284  0.02306752  1
  O2-  O368  1  0.92678584  0.61122813  0.69001828  1
  O2-  O369  1  0.93639292  0.73815478  0.96615943  1
  O2-  O370  1  0.56674721  0.92143340  0.27566177  1
  O2-  O371  1  0.06345774  0.59559424  0.77174305  1
  O2-  O372  1  0.74979557  0.67119765  0.40060399  1
  O2-  O373  1  0.25028635  0.66971852  0.68140195  1
  O2-  O374  1  0.75018925  0.01150393  0.92722834  1
  O2-  O375  1  0.25031312  0.33608752  0.10341564  1
  O2-  O376  1  0.24940901  0.66375255  0.10337538  1
  O2-  O377  1  0.25018704  0.00585745  0.60872807  1
  O2-  O378  1  0.25025198  0.68328030  0.33135212  1
  O2-  O379  1  0.74989363  0.00235915  0.35538981  1
  O2-  O380  1  0.25032589  0.64529900  0.59551871  1
  O2-  O381  1  0.25013928  0.33467440  0.89801959  1
  O2-  O382  1  0.25022528  0.00210156  0.09714442  1
  O2-  O383  1  0.75029547  0.33630933  0.65650710  1
  O2-  O384  1  0.25042968  0.33086209  0.39778394  1
  O2-  O385  1  0.74929059  -0.00304216  0.65461895  1
  O2-  O386  1  0.74992960  0.66957765  0.85122973  1
  O2-  O387  1  0.25072469  0.00066730  0.82697359  1
  O2-  O388  1  0.74969396  0.33749475  0.39497187  1
  O2-  O389  1  0.25044654  -0.00303864  0.91884656  1
  O2-  O390  1  0.25040102  0.33600558  0.65214279  1
  O2-  O391  1  0.75001204  0.00145963  0.80891329  1
  O2-  O392  1  0.74980452  0.66686292  0.09623637  1
  O2-  O393  1  0.74971409  0.00643704  0.13662815  1
  O2-  O394  1  0.25010028  0.66337266  0.84308381  1
  O2-  O395  1  0.25057056  0.63917794  0.40961706  1
  O2-  O396  1  0.74978424  0.16987805  0.41700401  1
  O2-  O397  1  0.75010172  0.84242640  0.08214832  1
  O2-  O398  1  0.25006569  0.83384065  0.38423526  1
  O2-  O399  1  0.74984797  0.17245525  0.56474297  1
  O2-  O400  1  0.74986995  0.51243768  0.59640834  1
  O2-  O401  1  0.24998520  0.18567952  0.84058646  1
  O2-  O402  1  0.74978173  0.82649587  0.59714577  1
  O2-  O403  1  0.25015220  0.16986651  0.34153154  1
  O2-  O404  1  0.75017777  0.16168421  0.14475893  1
  O2-  O405  1  0.24995652  0.17346363  0.92786074  1
  O2-  O406  1  0.74998218  0.83777434  0.83167543  1
  O2-  O407  1  0.75003611  0.49882653  0.08181648  1
  O2-  O408  1  0.25016728  0.49390971  0.38901078  1
  O2-  O409  1  0.74994195  0.50017966  0.68308142  1
  O2-  O410  1  0.74991513  0.49700864  0.91903429  1
  O2-  O411  1  0.74987362  0.83409945  0.43141018  1
  O2-  O412  1  0.74978503  0.83542522  0.16987008  1
  O2-  O413  1  0.74978481  0.50090489  0.34952080  1
  O2-  O414  1  0.25017976  0.83235872  0.11868119  1
  O2-  O415  1  0.74997114  0.16357521  0.33405006  1
  O2-  O416  1  0.24984763  0.50660229  0.89528328  1
  O2-  O417  1  0.75015412  0.16463085  0.65110651  1
  O2-  O418  1  0.25011118  0.17374496  0.60315085  1
  O2-  O419  1  0.75014937  0.49953400  0.83127038  1
  O2-  O420  1  0.48368873  0.33532067  0.87510349  1
  O2-  O421  1  0.45395254  0.00351718  0.37630729  1
  O2-  O422  1  0.02988922  -0.01226938  0.62524648  1
  O2-  O423  1  0.95243085  0.33294816  0.87539845  1
  O2-  O424  1  0.45964708  0.67282271  0.12876182  1
  O2-  O425  1  0.97294813  0.66243039  0.12527353  1
  O2-  O426  1  0.97475296  -0.01539189  0.12063786  1
  O2-  O427  1  0.97140593  -0.00109726  0.63185710  1
  O2-  O428  1  0.02269844  0.67696109  0.62977129  1
  O2-  O429  1  0.96986084  0.33498875  0.12664243  1
  O2-  O430  1  0.03546335  0.33059107  0.84858338  1
  O2-  O431  1  0.47248961  0.66685710  0.87482610  1
  O2-  O432  1  0.02010018  0.32996202  0.37201639  1
  O2-  O433  1  0.45604652  0.66943509  0.38932137  1
  O2-  O434  1  0.02273454  0.66621884  0.87575290  1
  O2-  O435  1  0.98193416  0.65552053  0.37166002  1
  O2-  O436  1  0.52691639  0.32759287  0.62844711  1
  O2-  O437  1  0.54397028  0.67008134  0.11478483  1
  O2-  O438  1  0.52085105  -0.01291802  0.87517429  1
  O2-  O439  1  0.54047444  0.67465098  0.39092291  1
  O2-  O440  1  0.53462338  -0.00300492  0.38993685  1
  O2-  O441  1  0.47214439  0.00403881  0.62457525  1
  O2-  O442  1  0.02313429  0.32285924  0.62476245  1
  O2-  O443  1  0.47164723  -0.00016273  0.12106961  1
