# generated using pymatgen
data_La7(Ru4O11)2
_symmetry_space_group_name_H-M   'P 1'
_cell_length_a   23.99202731
_cell_length_b   16.83172849
_cell_length_c   15.42844951
_cell_angle_alpha   89.99966826
_cell_angle_beta   89.99808579
_cell_angle_gamma   89.99949223
_symmetry_Int_Tables_number   1
_chemical_formula_structural   La7(Ru4O11)2
_chemical_formula_sum   'La84 Ru96 O264'
_cell_volume   6230.42894460
_cell_formula_units_Z   12
loop_
 _symmetry_equiv_pos_site_id
 _symmetry_equiv_pos_as_xyz
  1  'x, y, z'
loop_
 _atom_type_symbol
 _atom_type_oxidation_number
  La3+  3.0
  Ru4+  4.0
  O2-  -2.0
loop_
 _atom_site_type_symbol
 _atom_site_label
 _atom_site_symmetry_multiplicity
 _atom_site_fract_x
 _atom_site_fract_y
 _atom_site_fract_z
 _atom_site_occupancy
  La3+  La0  1  0.13774255  -0.00405649  0.12648728  1
  La3+  La1  1  0.14417909  -0.00283178  0.37578467  1
  La3+  La2  1  0.13750891  -0.00105255  0.62015766  1
  La3+  La3  1  0.13770532  0.00037073  0.87665737  1
  La3+  La4  1  0.14696525  0.34171212  0.12417527  1
  La3+  La5  1  0.15022576  0.33864842  0.38029970  1
  La3+  La6  1  0.14727908  0.33619890  0.62372841  1
  La3+  La7  1  0.13426985  0.33250175  0.87346349  1
  La3+  La8  1  0.13754997  0.66878638  0.12855524  1
  La3+  La9  1  0.14180935  0.67058481  0.37477348  1
  La3+  La10  1  0.14086376  0.66482222  0.62990987  1
  La3+  La11  1  0.13293804  0.66504855  0.87184058  1
  La3+  La12  1  0.64516750  -0.00099867  0.12733431  1
  La3+  La13  1  0.64286425  -0.00204970  0.37865684  1
  La3+  La14  1  0.63264618  0.00080883  0.62321535  1
  La3+  La15  1  0.64394444  -0.00171476  0.87375849  1
  La3+  La16  1  0.64615329  0.33665291  0.12797117  1
  La3+  La17  1  0.63989482  0.33758565  0.36918520  1
  La3+  La18  1  0.63905350  0.33156684  0.62917246  1
  La3+  La19  1  0.64084473  0.33153076  0.87737906  1
  La3+  La20  1  0.64600307  0.66866593  0.12114233  1
  La3+  La21  1  0.63490101  0.66726587  0.37562850  1
  La3+  La22  1  0.63836718  0.66800199  0.62433841  1
  La3+  La23  1  0.64212413  0.66486674  0.87695640  1
  La3+  La24  1  0.36205756  -0.00515956  0.12967084  1
  La3+  La25  1  0.35754519  -0.00475071  0.37276584  1
  La3+  La26  1  0.36151840  -0.00260402  0.62266322  1
  La3+  La27  1  0.36465005  0.00007906  0.87344844  1
  La3+  La28  1  0.36408372  0.33534587  0.12689390  1
  La3+  La29  1  0.35469307  0.33424534  0.38170640  1
  La3+  La30  1  0.35738999  0.33706908  0.61983886  1
  La3+  La31  1  0.36956941  0.33573550  0.87409194  1
  La3+  La32  1  0.36210248  0.67128403  0.13063612  1
  La3+  La33  1  0.35846471  0.66865060  0.37119693  1
  La3+  La34  1  0.36140990  0.66579784  0.62451063  1
  La3+  La35  1  0.36401576  0.66645484  0.87272969  1
  La3+  La36  1  0.85512471  -0.00087828  0.12598585  1
  La3+  La37  1  0.85684005  -0.00027640  0.37849961  1
  La3+  La38  1  0.86797703  -0.00126057  0.62100935  1
  La3+  La39  1  0.85850654  -0.00089237  0.87366004  1
  La3+  La40  1  0.85725964  0.33245066  0.12543890  1
  La3+  La41  1  0.85935605  0.33576872  0.36818822  1
  La3+  La42  1  0.86239431  0.33194357  0.63062955  1
  La3+  La43  1  0.86108222  0.33161305  0.87846862  1
  La3+  La44  1  0.85615478  0.66704404  0.11935641  1
  La3+  La45  1  0.87420654  0.65426031  0.39053841  1
  La3+  La46  1  0.86868178  0.66402836  0.61839959  1
  La3+  La47  1  0.86338683  0.66637278  0.87479559  1
  La3+  La48  1  -0.00080566  0.50044751  0.12780705  1
  La3+  La49  1  0.00059488  0.83047679  0.85827696  1
  La3+  La50  1  -0.00388287  0.16545072  0.12463147  1
  La3+  La51  1  0.00380007  0.84311851  0.37349112  1
  La3+  La52  1  -0.00594131  0.83328839  0.36106090  1
  La3+  La53  1  -0.00604835  0.14873273  0.38881128  1
  La3+  La54  1  0.50038263  0.16092419  0.39354513  1
  La3+  La55  1  0.49932401  0.49944540  0.86793930  1
  La3+  La56  1  -0.00143640  0.16187566  0.87193126  1
  La3+  La57  1  -0.00205577  0.50526612  0.61562909  1
  La3+  La58  1  0.50300392  0.17235303  0.10351632  1
  La3+  La59  1  0.50187492  0.16885357  0.37274969  1
  La3+  La60  1  -0.01224476  0.16187261  0.37420013  1
  La3+  La61  1  -0.00181217  0.16985465  0.10877550  1
  La3+  La62  1  -0.00046420  0.16631742  0.62922673  1
  La3+  La63  1  0.50376479  0.49649064  0.12749737  1
  La3+  La64  1  0.50097002  0.48983720  0.61266407  1
  La3+  La65  1  0.49875204  0.16691451  0.12427717  1
  La3+  La66  1  -0.01054859  0.50156056  0.37405209  1
  La3+  La67  1  0.00292046  0.82805680  0.10614636  1
  La3+  La68  1  0.49246677  0.50099185  0.62574590  1
  La3+  La69  1  0.49480016  0.50853797  0.11561038  1
  La3+  La70  1  0.50165082  0.83292240  0.88118820  1
  La3+  La71  1  0.49652426  0.17217560  0.63235550  1
  La3+  La72  1  0.25052665  0.22133608  0.75322867  1
  La3+  La73  1  0.25053054  0.49141748  0.76583153  1
  La3+  La74  1  0.75022631  0.50485587  0.70835838  1
  La3+  La75  1  0.75004096  0.14449458  0.51163880  1
  La3+  La76  1  0.24857489  0.51801760  -0.07164497  1
  La3+  La77  1  0.24961605  0.82555847  0.79354654  1
  La3+  La78  1  0.25053195  0.10928393  0.01281576  1
  La3+  La79  1  0.74927306  0.12409966  0.01339004  1
  La3+  La80  1  0.74960495  0.88054633  0.23202827  1
  La3+  La81  1  0.75018475  0.83277897  -0.02573184  1
  La3+  La82  1  0.74977750  0.16587766  0.27404834  1
  La3+  La83  1  0.24923110  0.50168233  0.26198247  1
  Ru4+  Ru84  1  -0.00032023  -0.00079126  -0.00696354  1
  Ru4+  Ru85  1  -0.00170769  -0.00346447  0.24578106  1
  Ru4+  Ru86  1  0.01168485  -0.00536215  0.51162866  1
  Ru4+  Ru87  1  0.00042506  -0.00326093  0.74973709  1
  Ru4+  Ru88  1  0.00394361  0.34326310  -0.00450365  1
  Ru4+  Ru89  1  -0.00494122  0.33724506  0.24851569  1
  Ru4+  Ru90  1  0.00193806  0.33583050  0.50442990  1
  Ru4+  Ru91  1  -0.00237574  0.33575216  0.74741200  1
  Ru4+  Ru92  1  0.00019448  0.66790254  -0.00497803  1
  Ru4+  Ru93  1  0.00043569  0.66295928  0.24018026  1
  Ru4+  Ru94  1  -0.00333047  0.66310058  0.49941723  1
  Ru4+  Ru95  1  -0.00525553  0.66853101  0.74491015  1
  Ru4+  Ru96  1  0.49908506  -0.00233852  -0.00715065  1
  Ru4+  Ru97  1  0.49922749  -0.01376310  0.25829092  1
  Ru4+  Ru98  1  0.50062731  -0.01347328  0.49673233  1
  Ru4+  Ru99  1  0.50269630  0.00236210  0.75973629  1
  Ru4+  Ru100  1  0.50454913  0.32595109  0.00006700  1
  Ru4+  Ru101  1  0.49805615  0.33918763  0.25431335  1
  Ru4+  Ru102  1  0.50445712  0.32975198  0.49222242  1
  Ru4+  Ru103  1  0.49867243  0.33025674  0.75860713  1
  Ru4+  Ru104  1  0.50891734  0.67409911  -0.00394732  1
  Ru4+  Ru105  1  0.50874598  0.66393318  0.26460914  1
  Ru4+  Ru106  1  0.50239025  0.68302876  0.49142904  1
  Ru4+  Ru107  1  0.49882345  0.67249381  0.75344078  1
  Ru4+  Ru108  1  0.11060495  0.16752784  -0.00301745  1
  Ru4+  Ru109  1  0.11238464  0.17512579  0.24954366  1
  Ru4+  Ru110  1  0.11646963  0.17121061  0.50339125  1
  Ru4+  Ru111  1  0.11065798  0.16648100  0.75067958  1
  Ru4+  Ru112  1  0.10828186  0.49962854  0.00143043  1
  Ru4+  Ru113  1  0.10944147  0.49393270  0.24929507  1
  Ru4+  Ru114  1  0.11270547  0.50153293  0.50100702  1
  Ru4+  Ru115  1  0.11442263  0.49318322  0.75328946  1
  Ru4+  Ru116  1  0.11232635  0.83588551  0.00068146  1
  Ru4+  Ru117  1  0.11856614  0.83356979  0.24571918  1
  Ru4+  Ru118  1  0.11364599  0.82725252  0.50841146  1
  Ru4+  Ru119  1  0.10851017  0.83240471  0.74974766  1
  Ru4+  Ru120  1  0.61162670  0.16527085  0.00145371  1
  Ru4+  Ru121  1  0.61260369  0.16977082  0.25058830  1
  Ru4+  Ru122  1  0.61534294  0.17111832  0.49934961  1
  Ru4+  Ru123  1  0.61310525  0.16349627  0.75333538  1
  Ru4+  Ru124  1  0.61563542  0.50571911  -0.00431712  1
  Ru4+  Ru125  1  0.61136869  0.50495385  0.25526760  1
  Ru4+  Ru126  1  0.61540461  0.49460043  0.49833568  1
  Ru4+  Ru127  1  0.61318479  0.49680120  0.74955314  1
  Ru4+  Ru128  1  0.60732775  0.82728359  0.00045650  1
  Ru4+  Ru129  1  0.60306507  0.83735244  0.25524156  1
  Ru4+  Ru130  1  0.60792890  0.83391999  0.49888908  1
  Ru4+  Ru131  1  0.61304482  0.83590922  0.74873556  1
  Ru4+  Ru132  1  0.38919168  0.16675570  -0.00237111  1
  Ru4+  Ru133  1  0.38379373  0.16479093  0.25090253  1
  Ru4+  Ru134  1  0.38442469  0.16671627  0.50027441  1
  Ru4+  Ru135  1  0.39119011  0.16681537  0.75087443  1
  Ru4+  Ru136  1  0.38350720  0.50923519  -0.00280193  1
  Ru4+  Ru137  1  0.38796907  0.49125089  0.25577501  1
  Ru4+  Ru138  1  0.38236075  0.50418290  0.49775628  1
  Ru4+  Ru139  1  0.38635043  0.50102731  0.75575671  1
  Ru4+  Ru140  1  0.38913936  0.83250919  -0.00023301  1
  Ru4+  Ru141  1  0.38512650  0.83738492  0.24896650  1
  Ru4+  Ru142  1  0.38547564  0.83553373  0.49964899  1
  Ru4+  Ru143  1  0.39192279  0.83620971  0.74772436  1
  Ru4+  Ru144  1  0.88455507  0.16158256  -0.00279798  1
  Ru4+  Ru145  1  0.88380835  0.16939811  0.24784234  1
  Ru4+  Ru146  1  0.88537172  0.17319694  0.50372376  1
  Ru4+  Ru147  1  0.88519589  0.17061643  0.74917544  1
  Ru4+  Ru148  1  0.88399033  0.50004021  0.00080232  1
  Ru4+  Ru149  1  0.88543279  0.49988478  0.25256791  1
  Ru4+  Ru150  1  0.88823859  0.49983353  0.50085774  1
  Ru4+  Ru151  1  0.89231202  0.50240929  0.74600600  1
  Ru4+  Ru152  1  0.88855148  0.83259842  0.00045245  1
  Ru4+  Ru153  1  0.88703384  0.83425151  0.24905938  1
  Ru4+  Ru154  1  0.88335566  0.83044683  0.50196157  1
  Ru4+  Ru155  1  0.88702420  0.83161094  0.74823293  1
  Ru4+  Ru156  1  0.24962263  0.75071985  0.00401617  1
  Ru4+  Ru157  1  0.75042740  0.09536242  0.76259949  1
  Ru4+  Ru158  1  0.24979806  0.09449506  0.25273313  1
  Ru4+  Ru159  1  0.75042850  0.37945779  0.78775342  1
  Ru4+  Ru160  1  0.25023754  0.07888034  0.73732304  1
  Ru4+  Ru161  1  0.75044034  0.56834465  0.24463656  1
  Ru4+  Ru162  1  0.25015680  0.75353287  0.47341555  1
  Ru4+  Ru163  1  0.25001351  0.25367532  -0.00962897  1
  Ru4+  Ru164  1  0.25071577  0.23755807  0.25158742  1
  Ru4+  Ru165  1  0.74949739  0.75593095  0.48751890  1
  Ru4+  Ru166  1  0.24972989  0.62138085  0.03214278  1
  Ru4+  Ru167  1  0.25056607  0.92348517  0.00697525  1
  Ru4+  Ru168  1  0.25020896  0.09208497  0.50274905  1
  Ru4+  Ru169  1  0.25052656  0.39048824  0.00281901  1
  Ru4+  Ru170  1  0.75030697  0.44101986  0.49094134  1
  Ru4+  Ru171  1  0.74932449  0.57701329  0.49584767  1
  Ru4+  Ru172  1  0.25039502  0.68665465  0.75488846  1
  Ru4+  Ru173  1  0.24949824  0.94532214  0.71816499  1
  Ru4+  Ru174  1  0.75077025  0.27833722  0.49508189  1
  Ru4+  Ru175  1  0.74980226  0.28039674  0.01491139  1
  Ru4+  Ru176  1  0.75027497  0.00441419  0.49075443  1
  Ru4+  Ru177  1  0.75035242  0.72642121  0.26978675  1
  Ru4+  Ru178  1  0.24939315  0.59536258  0.50158898  1
  Ru4+  Ru179  1  0.75078699  0.63833380  0.75911785  1
  O2-  O180  1  0.16184331  0.07512662  0.00257969  1
  O2-  O181  1  0.16632281  0.08297258  0.24866652  1
  O2-  O182  1  0.16707740  0.08234529  0.50015577  1
  O2-  O183  1  0.16640264  0.08083730  0.74962322  1
  O2-  O184  1  0.16645876  0.41349403  -0.00741521  1
  O2-  O185  1  0.17022823  0.41675797  0.24874172  1
  O2-  O186  1  0.16287348  0.41994543  0.50339256  1
  O2-  O187  1  0.16797576  0.41439302  0.75528896  1
  O2-  O188  1  0.16531414  0.74743115  -0.00104017  1
  O2-  O189  1  0.16408793  0.74643784  0.24888506  1
  O2-  O190  1  0.17056242  0.74674389  0.49639285  1
  O2-  O191  1  0.16986208  0.74503093  0.75564479  1
  O2-  O192  1  0.66281597  0.07701681  -0.00073933  1
  O2-  O193  1  0.66492910  0.08161397  0.25049409  1
  O2-  O194  1  0.66614930  0.07829873  0.50450806  1
  O2-  O195  1  0.66914302  0.08091238  0.74748708  1
  O2-  O196  1  0.66318816  0.41627295  -0.00183795  1
  O2-  O197  1  0.66269989  0.41832313  0.24928064  1
  O2-  O198  1  0.66769926  0.41691403  0.50007595  1
  O2-  O199  1  0.66819702  0.41142996  0.75190352  1
  O2-  O200  1  0.66827483  0.75040188  -0.00362945  1
  O2-  O201  1  0.66691816  0.74885042  0.25109939  1
  O2-  O202  1  0.66845938  0.75026682  0.50152441  1
  O2-  O203  1  0.66593449  0.74906933  0.74919977  1
  O2-  O204  1  0.33210914  0.25150163  -0.00180220  1
  O2-  O205  1  0.33279122  0.25228870  0.24697474  1
  O2-  O206  1  0.33548450  0.25028825  0.50366154  1
  O2-  O207  1  0.34194965  0.25669560  0.75220267  1
  O2-  O208  1  0.33185337  0.59277334  0.00069918  1
  O2-  O209  1  0.33648440  0.58648014  0.24572706  1
  O2-  O210  1  0.33185043  0.58869952  0.49886770  1
  O2-  O211  1  0.32975368  0.58774632  0.75169014  1
  O2-  O212  1  0.33394325  0.92119873  0.00131034  1
  O2-  O213  1  0.33196271  0.91900379  0.24635261  1
  O2-  O214  1  0.33701429  0.91767012  0.50000551  1
  O2-  O215  1  0.33182608  0.92203956  0.75009423  1
  O2-  O216  1  0.83263243  0.25343422  0.00105818  1
  O2-  O217  1  0.83097553  0.25167547  0.24966464  1
  O2-  O218  1  0.83352122  0.25829965  0.49882482  1
  O2-  O219  1  0.83464747  0.25151321  0.75415040  1
  O2-  O220  1  0.83710233  0.58472336  -0.00331319  1
  O2-  O221  1  0.83376778  0.58656607  0.25069624  1
  O2-  O222  1  0.82904217  0.58611279  0.49993734  1
  O2-  O223  1  0.83134808  0.58888278  0.75098141  1
  O2-  O224  1  0.83416275  0.91943100  -0.00283885  1
  O2-  O225  1  0.83818139  0.92096499  0.24944829  1
  O2-  O226  1  0.83052084  0.92004129  0.50388574  1
  O2-  O227  1  0.83644018  0.91709376  0.74699139  1
  O2-  O228  1  0.16753345  0.25128119  -0.00301963  1
  O2-  O229  1  0.17407193  0.24890906  0.24831724  1
  O2-  O230  1  0.16898940  0.24714747  0.50027182  1
  O2-  O231  1  0.15989796  0.25710700  0.75403079  1
  O2-  O232  1  0.16541722  0.58919731  0.00001786  1
  O2-  O233  1  0.16435722  0.58594063  0.24784863  1
  O2-  O234  1  0.16988448  0.58713146  0.49620052  1
  O2-  O235  1  0.16981919  0.58474600  0.75634669  1
  O2-  O236  1  0.16810019  0.91929806  0.00091437  1
  O2-  O237  1  0.16542554  0.92111407  0.24931337  1
  O2-  O238  1  0.16202357  0.91725393  0.49991127  1
  O2-  O239  1  0.16440541  0.92137905  0.74903980  1
  O2-  O240  1  0.66584591  0.25372943  -0.00062331  1
  O2-  O241  1  0.66494592  0.25240189  0.25197998  1
  O2-  O242  1  0.66829867  0.25676233  0.49964384  1
  O2-  O243  1  0.66008942  0.25129530  0.75203687  1
  O2-  O244  1  0.66808900  0.58462868  -0.00268997  1
  O2-  O245  1  0.66897960  0.58600590  0.24954809  1
  O2-  O246  1  0.66851052  0.58599863  0.50201290  1
  O2-  O247  1  0.66695693  0.58756638  0.74946962  1
  O2-  O248  1  0.66417586  0.91602110  -0.00043738  1
  O2-  O249  1  0.66169713  0.91732710  0.24891087  1
  O2-  O250  1  0.66798523  0.91660917  0.50402605  1
  O2-  O251  1  0.66476081  0.91615647  0.74620282  1
  O2-  O252  1  0.34090467  0.07350242  -0.00099570  1
  O2-  O253  1  0.33062554  0.08100449  0.24722083  1
  O2-  O254  1  0.33426118  0.07947154  0.50057734  1
  O2-  O255  1  0.33414881  0.08037318  0.75000633  1
  O2-  O256  1  0.33363497  0.41107972  -0.00274287  1
  O2-  O257  1  0.32754199  0.41737750  0.24534716  1
  O2-  O258  1  0.33518716  0.41770728  0.50027438  1
  O2-  O259  1  0.33120663  0.41438503  0.75308883  1
  O2-  O260  1  0.33491801  0.74861387  0.00151951  1
  O2-  O261  1  0.33872148  0.74710491  0.24712073  1
  O2-  O262  1  0.33416785  0.74676590  0.49904834  1
  O2-  O263  1  0.33553099  0.74576285  0.75275461  1
  O2-  O264  1  0.83459489  0.07447779  -0.00064979  1
  O2-  O265  1  0.83458285  0.08067098  0.25065579  1
  O2-  O266  1  0.83276000  0.07691495  0.50345977  1
  O2-  O267  1  0.83329813  0.08009017  0.74880541  1
  O2-  O268  1  0.83761359  0.41413317  -0.00082564  1
  O2-  O269  1  0.83656180  0.41662927  0.24831314  1
  O2-  O270  1  0.83513283  0.41825108  0.49929733  1
  O2-  O271  1  0.83311655  0.41219937  0.75314621  1
  O2-  O272  1  0.83116628  0.74781509  -0.00645906  1
  O2-  O273  1  0.83462808  0.74534094  0.25248626  1
  O2-  O274  1  0.83131516  0.74845716  0.49946638  1
  O2-  O275  1  0.83066425  0.74898695  0.75220528  1
  O2-  O276  1  0.54559145  0.09412478  0.23885431  1
  O2-  O277  1  0.95713188  0.90525923  0.51736205  1
  O2-  O278  1  0.45480964  0.23328698  0.24355373  1
  O2-  O279  1  0.04651909  0.77136657  0.98405747  1
  O2-  O280  1  0.44966984  0.42966825  0.50831643  1
  O2-  O281  1  0.95062655  0.76424023  0.49260685  1
  O2-  O282  1  0.04390262  0.56559598  0.24232003  1
  O2-  O283  1  0.95652318  0.87918500  0.21051576  1
  O2-  O284  1  0.53396591  0.77970014  0.45515069  1
  O2-  O285  1  0.54649403  0.10032672  0.51999843  1
  O2-  O286  1  0.95455912  0.90092300  0.73670737  1
  O2-  O287  1  0.05371559  0.08147454  0.25473442  1
  O2-  O288  1  0.95416041  0.54144054  0.79481549  1
  O2-  O289  1  0.04947572  0.09538441  0.74093586  1
  O2-  O290  1  0.95201206  0.56598792  0.50671784  1
  O2-  O291  1  0.03832538  0.21855284  0.47782337  1
  O2-  O292  1  0.94969134  0.09518138  0.25559528  1
  O2-  O293  1  0.05246166  0.90791429  0.23302294  1
  O2-  O294  1  0.53195705  0.78315166  0.04683572  1
  O2-  O295  1  0.45348203  0.90053740  0.99121765  1
  O2-  O296  1  0.55029637  0.57496941  0.51818991  1
  O2-  O297  1  0.04583916  0.24205370  0.76825835  1
  O2-  O298  1  0.44991728  0.43649017  0.97931469  1
  O2-  O299  1  0.04860699  0.76108381  0.46002914  1
  O2-  O300  1  0.45452062  0.09881813  0.98768687  1
  O2-  O301  1  0.95110081  0.23653006  0.01070666  1
  O2-  O302  1  0.94916853  0.09623099  0.73722661  1
  O2-  O303  1  0.54596961  0.56887309  0.73552283  1
  O2-  O304  1  0.02432406  0.21731017  0.24533791  1
  O2-  O305  1  0.95137372  0.09831207  0.51724835  1
  O2-  O306  1  0.02745713  0.21919451  0.24763238  1
  O2-  O307  1  0.55109636  0.42911895  0.00450788  1
  O2-  O308  1  0.55077708  0.09920999  0.71017961  1
  O2-  O309  1  0.04482436  0.76344296  0.23873190  1
  O2-  O310  1  0.04588557  0.55139227  0.45562762  1
  O2-  O311  1  0.04635064  0.57542396  0.73241087  1
  O2-  O312  1  0.95415820  0.43494190  0.25264463  1
  O2-  O313  1  0.46514902  0.47432303  0.25922217  1
  O2-  O314  1  0.54497125  0.90134002  0.74135920  1
  O2-  O315  1  0.05210962  0.56203376  0.76736300  1
  O2-  O316  1  0.45490325  0.22760096  0.51546980  1
  O2-  O317  1  0.94535564  0.57589316  0.48241943  1
  O2-  O318  1  0.44970843  0.42913977  0.01766855  1
  O2-  O319  1  0.45273474  0.10034120  0.75980772  1
  O2-  O320  1  0.52737786  0.87117705  0.24259475  1
  O2-  O321  1  0.55305844  0.43191174  0.26063107  1
  O2-  O322  1  0.54495611  0.56615793  0.48089232  1
  O2-  O323  1  0.94646065  0.90864349  0.48188743  1
  O2-  O324  1  0.93103864  0.26396715  0.27004126  1
  O2-  O325  1  0.56303021  0.40181457  0.71721473  1
  O2-  O326  1  0.56338978  0.60162170  0.05918110  1
  O2-  O327  1  0.93621126  0.07766749  0.97485595  1
  O2-  O328  1  0.93677011  0.25908483  0.71479179  1
  O2-  O329  1  0.06540307  0.41728074  0.18134601  1
  O2-  O330  1  0.43559082  0.41026285  0.77435231  1
  O2-  O331  1  0.93826437  0.74396240  0.72023675  1
  O2-  O332  1  0.57148337  0.73029924  0.93321187  1
  O2-  O333  1  0.06162810  0.08124236  0.97331370  1
  O2-  O334  1  0.08132148  0.59517100  0.55983933  1
  O2-  O335  1  0.06649561  0.07557505  0.52616189  1
  O2-  O336  1  0.56564897  0.25612827  0.47860217  1
  O2-  O337  1  0.56775280  0.05548189  0.83666036  1
  O2-  O338  1  0.05603019  0.73928733  0.43119664  1
  O2-  O339  1  0.43371262  0.92440366  0.27545142  1
  O2-  O340  1  0.43760773  0.41104303  0.53637710  1
  O2-  O341  1  0.56475117  0.74008739  0.28095636  1
  O2-  O342  1  0.56105551  0.07207494  0.52815705  1
  O2-  O343  1  0.43730271  0.07526107  0.27465146  1
  O2-  O344  1  0.43762739  0.59893153  0.53477165  1
  O2-  O345  1  0.43673044  0.93268990  0.71795797  1
  O2-  O346  1  0.93003992  0.60400914  0.53287004  1
  O2-  O347  1  0.43684501  0.59599922  0.78549510  1
  O2-  O348  1  0.56327864  0.59919806  0.19084338  1
  O2-  O349  1  0.56302958  0.58886197  0.32621777  1
  O2-  O350  1  0.08025626  0.27875369  0.55735664  1
  O2-  O351  1  0.57550064  0.96172572  0.29397544  1
  O2-  O352  1  0.56449471  0.92926527  0.47195848  1
  O2-  O353  1  0.06302628  0.93020590  0.03560386  1
  O2-  O354  1  0.93960879  0.25542007  0.03914971  1
  O2-  O355  1  0.06293666  0.26313095  0.96339444  1
  O2-  O356  1  0.55756250  0.07925698  0.67960093  1
  O2-  O357  1  0.56167824  0.06701149  0.03573364  1
  O2-  O358  1  0.06234233  0.74373905  0.73613017  1
  O2-  O359  1  0.93141470  0.94636056  0.31838762  1
  O2-  O360  1  0.57014367  0.72088473  0.56042547  1
  O2-  O361  1  0.08887311  0.26243554  0.32380285  1
  O2-  O362  1  0.93703816  0.07158464  0.53117229  1
  O2-  O363  1  0.93721810  0.40880685  0.71488103  1
  O2-  O364  1  0.93502956  0.74326399  0.02500201  1
  O2-  O365  1  0.07001843  0.42352160  0.31772783  1
  O2-  O366  1  0.43595630  0.25766848  0.02278705  1
  O2-  O367  1  0.08934786  0.26316501  0.16626344  1
  O2-  O368  1  0.56095124  0.58403625  0.92163455  1
  O2-  O369  1  0.07945978  0.74856195  0.58147979  1
  O2-  O370  1  0.92983854  0.60441856  0.69331125  1
  O2-  O371  1  0.41467192  0.37607972  0.28109954  1
  O2-  O372  1  0.25020555  0.33280314  0.58237724  1
  O2-  O373  1  0.75009211  0.66797760  0.07597079  1
  O2-  O374  1  0.75023443  0.33430745  0.90187753  1
  O2-  O375  1  0.25136207  0.66245996  0.63558694  1
  O2-  O376  1  0.75037928  0.00478492  0.84132327  1
  O2-  O377  1  0.24981231  0.66481063  0.36813278  1
  O2-  O378  1  0.24989451  -0.00021587  0.42087723  1
  O2-  O379  1  0.25015174  0.67189683  0.89107280  1
  O2-  O380  1  0.25081705  0.33161969  0.41638799  1
  O2-  O381  1  0.74999849  0.32549621  0.31897848  1
  O2-  O382  1  0.24996959  0.00177357  0.85470191  1
  O2-  O383  1  0.74962672  0.00043817  0.14592466  1
  O2-  O384  1  0.24995298  0.00365592  0.32827533  1
  O2-  O385  1  0.25141039  0.32955302  0.11149637  1
  O2-  O386  1  0.75068020  0.66067399  0.16789160  1
  O2-  O387  1  0.25102243  0.33429776  0.32513109  1
  O2-  O388  1  0.75004563  0.36572312  0.57963742  1
  O2-  O389  1  0.75024373  0.00787749  0.35997544  1
  O2-  O390  1  0.75008716  0.66648759  0.40827096  1
  O2-  O391  1  0.75102108  0.32656701  0.13127954  1
  O2-  O392  1  0.25028931  0.33745844  0.67360530  1
  O2-  O393  1  0.74998893  0.35719817  0.40586677  1
  O2-  O394  1  0.74964637  0.31532508  0.69133300  1
  O2-  O395  1  0.25052226  0.00081891  0.59700567  1
  O2-  O396  1  0.75026382  0.50733245  0.34366430  1
  O2-  O397  1  0.25013737  0.15109174  0.62529468  1
  O2-  O398  1  0.25046857  0.83483173  0.08198965  1
  O2-  O399  1  0.25021466  0.83387362  0.64641403  1
  O2-  O400  1  0.24944386  0.49868067  0.14058175  1
  O2-  O401  1  0.74994488  0.16743668  0.87272288  1
  O2-  O402  1  0.75026331  0.82663872  0.10618952  1
  O2-  O403  1  0.24973424  0.48120164  0.45438073  1
  O2-  O404  1  0.25031633  0.17176087  0.14469003  1
  O2-  O405  1  0.25041553  0.15938876  0.41073700  1
  O2-  O406  1  0.74966309  0.17690113  0.14076978  1
  O2-  O407  1  0.24991613  0.82281995  0.36306726  1
  O2-  O408  1  0.74990539  0.49410007  0.85097273  1
  O2-  O409  1  0.24952498  0.50688909  0.64883709  1
  O2-  O410  1  0.25045937  0.50067576  0.05697313  1
  O2-  O411  1  0.25014628  0.83758888  0.55820665  1
  O2-  O412  1  0.25033098  0.83904448  0.92659463  1
  O2-  O413  1  0.24992229  0.17641217  0.88957638  1
  O2-  O414  1  0.75001320  0.81377028  0.37169565  1
  O2-  O415  1  0.24985914  0.83365848  0.16834090  1
  O2-  O416  1  0.75036686  0.50729402  0.10980841  1
  O2-  O417  1  0.25038836  0.50779235  0.38042606  1
  O2-  O418  1  0.75020608  0.15546927  0.66163491  1
  O2-  O419  1  0.24968678  0.49799594  0.56771451  1
  O2-  O420  1  0.01380719  0.66047779  0.62804140  1
  O2-  O421  1  0.95576132  0.65592652  0.13670241  1
  O2-  O422  1  0.02829633  -0.00339578  0.38017534  1
  O2-  O423  1  0.54717671  0.32444153  0.12534177  1
  O2-  O424  1  0.95388825  0.34012730  0.38815243  1
  O2-  O425  1  0.02585198  -0.00888181  0.63153892  1
  O2-  O426  1  0.97206868  0.66529240  0.36476755  1
  O2-  O427  1  0.04311664  -0.01178806  0.86673410  1
  O2-  O428  1  0.54376494  0.33528364  0.36806118  1
  O2-  O429  1  0.46832961  0.66811276  0.37249342  1
  O2-  O430  1  0.01425953  0.33506834  0.11112408  1
  O2-  O431  1  0.97218137  0.00596996  0.12080803  1
  O2-  O432  1  0.04604920  0.66494190  0.11450467  1
  O2-  O433  1  0.95608443  0.67420111  0.87678321  1
  O2-  O434  1  0.47020747  -0.00998768  0.87327944  1
  O2-  O435  1  0.47815708  0.32628539  0.63308625  1
  O2-  O436  1  0.95709380  -0.00824436  0.86917815  1
  O2-  O437  1  0.03726702  0.34349547  0.40403168  1
  O2-  O438  1  0.47785728  0.32446314  0.87840105  1
  O2-  O439  1  0.45816227  0.34180551  0.13946509  1
  O2-  O440  1  0.04415432  0.66542337  0.88428461  1
  O2-  O441  1  0.02161507  0.34771420  0.63196364  1
  O2-  O442  1  0.45897795  0.32129877  0.38985380  1
  O2-  O443  1  0.47482465  0.00308226  0.38688590  1
