# generated using pymatgen
data_La7(Ru4O11)2
_symmetry_space_group_name_H-M   'P 1'
_cell_length_a   23.98954481
_cell_length_b   16.82975957
_cell_length_c   15.42615108
_cell_angle_alpha   89.99955577
_cell_angle_beta   90.00013654
_cell_angle_gamma   90.00027469
_symmetry_Int_Tables_number   1
_chemical_formula_structural   La7(Ru4O11)2
_chemical_formula_sum   'La84 Ru96 O264'
_cell_volume   6228.12756774
_cell_formula_units_Z   12
loop_
 _symmetry_equiv_pos_site_id
 _symmetry_equiv_pos_as_xyz
  1  'x, y, z'
loop_
 _atom_type_symbol
 _atom_type_oxidation_number
  La3+  3.0
  Ru4+  4.0
  O2-  -2.0
loop_
 _atom_site_type_symbol
 _atom_site_label
 _atom_site_symmetry_multiplicity
 _atom_site_fract_x
 _atom_site_fract_y
 _atom_site_fract_z
 _atom_site_occupancy
  La3+  La0  1  0.13740140  -0.00048063  0.12335209  1
  La3+  La1  1  0.13568997  0.00117511  0.37451015  1
  La3+  La2  1  0.13668607  0.00119423  0.62466552  1
  La3+  La3  1  0.13965650  -0.00029670  0.87743857  1
  La3+  La4  1  0.13888770  0.33121544  0.12488444  1
  La3+  La5  1  0.14024856  0.33273257  0.37564831  1
  La3+  La6  1  0.13781496  0.33399734  0.62335076  1
  La3+  La7  1  0.13952001  0.33304843  0.87662865  1
  La3+  La8  1  0.13652455  0.66599778  0.12520908  1
  La3+  La9  1  0.13694184  0.66282298  0.37663712  1
  La3+  La10  1  0.13944195  0.66368046  0.62497875  1
  La3+  La11  1  0.14022083  0.66738668  0.87376672  1
  La3+  La12  1  0.63487214  -0.00506599  0.12707383  1
  La3+  La13  1  0.63585185  -0.00428995  0.37238577  1
  La3+  La14  1  0.63913818  0.00194497  0.62353421  1
  La3+  La15  1  0.63921558  0.00063704  0.87722893  1
  La3+  La16  1  0.63763067  0.33434924  0.12482027  1
  La3+  La17  1  0.63753512  0.33298140  0.37593499  1
  La3+  La18  1  0.63859514  0.33318040  0.62661558  1
  La3+  La19  1  0.63829755  0.33435442  0.87342322  1
  La3+  La20  1  0.64235564  0.66739887  0.12699528  1
  La3+  La21  1  0.63946399  0.66845549  0.37033338  1
  La3+  La22  1  0.63692253  0.66631350  0.62476926  1
  La3+  La23  1  0.63689515  0.66492635  0.87664428  1
  La3+  La24  1  0.36148093  0.00089135  0.12105344  1
  La3+  La25  1  0.36280653  0.00124245  0.37586753  1
  La3+  La26  1  0.36301160  0.00109669  0.62521377  1
  La3+  La27  1  0.36133790  0.00055594  0.87816970  1
  La3+  La28  1  0.36231158  0.33185895  0.12446498  1
  La3+  La29  1  0.35946848  0.33384000  0.37654596  1
  La3+  La30  1  0.36053487  0.33444050  0.62366090  1
  La3+  La31  1  0.36123155  0.33274963  0.87518564  1
  La3+  La32  1  0.36205176  0.66627120  0.12369294  1
  La3+  La33  1  0.36191340  0.66448202  0.37632978  1
  La3+  La34  1  0.35997323  0.66510179  0.62620388  1
  La3+  La35  1  0.36040732  0.66677939  0.87433074  1
  La3+  La36  1  0.85995887  -0.00212865  0.12396637  1
  La3+  La37  1  0.86313908  -0.00439985  0.38014061  1
  La3+  La38  1  0.86328870  -0.00118589  0.62001836  1
  La3+  La39  1  0.85982425  0.00077921  0.87629546  1
  La3+  La40  1  0.86219558  0.33347675  0.12448162  1
  La3+  La41  1  0.86264353  0.33352532  0.37435828  1
  La3+  La42  1  0.86177421  0.33294855  0.62752765  1
  La3+  La43  1  0.86289534  0.33409820  0.87356860  1
  La3+  La44  1  0.85912271  0.66521410  0.12671885  1
  La3+  La45  1  0.86195810  0.66638978  0.37031609  1
  La3+  La46  1  0.86316282  0.66566030  0.62622188  1
  La3+  La47  1  0.86398118  0.66438678  0.87587459  1
  La3+  La48  1  0.50101267  0.16763470  0.61793036  1
  La3+  La49  1  0.00012561  0.83610012  0.38439488  1
  La3+  La50  1  0.50032112  0.83391291  0.88522265  1
  La3+  La51  1  0.00230464  0.49871927  0.63338415  1
  La3+  La52  1  -0.00045892  0.83387848  0.61094502  1
  La3+  La53  1  -0.00304931  0.50233851  0.38421316  1
  La3+  La54  1  0.50011322  0.16664775  0.38465111  1
  La3+  La55  1  0.50139282  0.83269762  0.13478045  1
  La3+  La56  1  0.00512569  0.50366272  0.36583578  1
  La3+  La57  1  0.00168245  0.83515293  0.13518136  1
  La3+  La58  1  0.00198182  0.17071316  0.88240442  1
  La3+  La59  1  0.00040935  0.16612174  0.38531936  1
  La3+  La60  1  0.49889402  0.49625908  0.36851054  1
  La3+  La61  1  0.49970165  0.50015426  0.61915163  1
  La3+  La62  1  0.00269322  0.16628481  0.86629190  1
  La3+  La63  1  -0.00013340  0.83255740  0.86545840  1
  La3+  La64  1  -0.00116738  0.17039680  0.12050081  1
  La3+  La65  1  0.00044188  0.83541285  0.11763906  1
  La3+  La66  1  0.49941721  0.83611736  0.11507565  1
  La3+  La67  1  0.50040303  0.16613503  0.88496395  1
  La3+  La68  1  0.49855116  0.49933483  0.63628953  1
  La3+  La69  1  0.50060177  0.16739394  0.11450129  1
  La3+  La70  1  -0.00069895  0.83537096  0.62826586  1
  La3+  La71  1  0.50305919  0.83727539  0.37129684  1
  La3+  La72  1  0.24955521  0.81854952  0.51823423  1
  La3+  La73  1  0.74986442  0.13452895  -0.00327233  1
  La3+  La74  1  0.24986539  0.78845809  0.73532599  1
  La3+  La75  1  0.24985025  0.16708519  0.49749563  1
  La3+  La76  1  0.24997327  0.53072970  0.23556804  1
  La3+  La77  1  0.74994086  0.86418448  0.03914146  1
  La3+  La78  1  0.75010502  0.83509576  0.71715653  1
  La3+  La79  1  0.74951260  0.87946483  0.49048308  1
  La3+  La80  1  0.74999634  0.46330660  0.46624263  1
  La3+  La81  1  0.24993827  0.82449215  0.19578999  1
  La3+  La82  1  0.74968357  0.17394629  0.28239607  1
  La3+  La83  1  0.24991823  0.47109258  -0.02663935  1
  Ru4+  Ru84  1  -0.00200851  -0.00485241  0.00184391  1
  Ru4+  Ru85  1  -0.00216796  0.00239440  0.25052260  1
  Ru4+  Ru86  1  0.00015097  -0.00169599  0.50081081  1
  Ru4+  Ru87  1  0.00070652  0.00122063  0.74821717  1
  Ru4+  Ru88  1  -0.00276720  0.33601871  -0.00545642  1
  Ru4+  Ru89  1  0.00213330  0.33774763  0.25027418  1
  Ru4+  Ru90  1  0.00158764  0.33319947  0.50394163  1
  Ru4+  Ru91  1  0.00148401  0.34180317  0.74757475  1
  Ru4+  Ru92  1  -0.00030697  0.66243656  -0.00095145  1
  Ru4+  Ru93  1  -0.00029846  0.66909758  0.24930091  1
  Ru4+  Ru94  1  -0.00280497  0.67351757  0.50163158  1
  Ru4+  Ru95  1  0.00092287  0.67014209  0.75156961  1
  Ru4+  Ru96  1  0.49682317  0.00524534  0.00029354  1
  Ru4+  Ru97  1  0.50065113  -0.00199961  0.24822267  1
  Ru4+  Ru98  1  0.50162310  -0.00144817  0.50204060  1
  Ru4+  Ru99  1  0.49982025  0.00042934  0.74888949  1
  Ru4+  Ru100  1  0.50013378  0.33234031  -0.00233396  1
  Ru4+  Ru101  1  0.49903793  0.33414696  0.24975687  1
  Ru4+  Ru102  1  0.50056105  0.33331024  0.49873000  1
  Ru4+  Ru103  1  0.50071712  0.33471552  0.75393002  1
  Ru4+  Ru104  1  0.49792017  0.66420128  -0.00210556  1
  Ru4+  Ru105  1  0.49960555  0.66707407  0.25082698  1
  Ru4+  Ru106  1  0.49823404  0.67013415  0.49935746  1
  Ru4+  Ru107  1  0.50108637  0.66816077  0.75065616  1
  Ru4+  Ru108  1  0.11649366  0.16804591  -0.00030249  1
  Ru4+  Ru109  1  0.11318637  0.16946534  0.24979446  1
  Ru4+  Ru110  1  0.11159575  0.16797967  0.50035004  1
  Ru4+  Ru111  1  0.11355471  0.16475974  0.74996146  1
  Ru4+  Ru112  1  0.11174911  0.50205133  -0.00027517  1
  Ru4+  Ru113  1  0.11275858  0.49984666  0.24831654  1
  Ru4+  Ru114  1  0.11715630  0.49791744  0.50093655  1
  Ru4+  Ru115  1  0.11373652  0.50091147  0.75008035  1
  Ru4+  Ru116  1  0.11525997  0.83348166  -0.00045812  1
  Ru4+  Ru117  1  0.11398006  0.82896285  0.24997366  1
  Ru4+  Ru118  1  0.11032251  0.83285824  0.50072072  1
  Ru4+  Ru119  1  0.11055387  0.83227611  0.75000450  1
  Ru4+  Ru120  1  0.61134180  0.16597686  -0.00066018  1
  Ru4+  Ru121  1  0.61039939  0.16599337  0.24974750  1
  Ru4+  Ru122  1  0.61343748  0.16512999  0.49964293  1
  Ru4+  Ru123  1  0.61313015  0.16567680  0.74954094  1
  Ru4+  Ru124  1  0.61386700  0.50024940  0.00053360  1
  Ru4+  Ru125  1  0.61431019  0.49972359  0.24893078  1
  Ru4+  Ru126  1  0.61235170  0.49778230  0.49949914  1
  Ru4+  Ru127  1  0.61287858  0.49835342  0.75032489  1
  Ru4+  Ru128  1  0.61505304  0.83046935  0.00043180  1
  Ru4+  Ru129  1  0.61265028  0.83545271  0.25030146  1
  Ru4+  Ru130  1  0.61018367  0.83498350  0.49892074  1
  Ru4+  Ru131  1  0.61115415  0.83135589  0.74920090  1
  Ru4+  Ru132  1  0.38566793  0.16637234  -0.00007551  1
  Ru4+  Ru133  1  0.38518329  0.16953081  0.25111866  1
  Ru4+  Ru134  1  0.38817700  0.16813387  0.49994018  1
  Ru4+  Ru135  1  0.38717415  0.16661578  0.74967665  1
  Ru4+  Ru136  1  0.38922478  0.50248536  -0.00071794  1
  Ru4+  Ru137  1  0.38872951  0.50054307  0.25035099  1
  Ru4+  Ru138  1  0.38493989  0.49990481  0.50014287  1
  Ru4+  Ru139  1  0.38715713  0.50058815  0.75031957  1
  Ru4+  Ru140  1  0.38533358  0.83329061  -0.00053682  1
  Ru4+  Ru141  1  0.38832777  0.83485300  0.25054617  1
  Ru4+  Ru142  1  0.38886711  0.83237711  0.49900756  1
  Ru4+  Ru143  1  0.38992850  0.83298820  0.74976239  1
  Ru4+  Ru144  1  0.88720797  0.16711287  0.00052622  1
  Ru4+  Ru145  1  0.88510654  0.16432979  0.25065617  1
  Ru4+  Ru146  1  0.88642281  0.16390365  0.50059102  1
  Ru4+  Ru147  1  0.88240552  0.16184692  0.75060725  1
  Ru4+  Ru148  1  0.88899253  0.50034823  0.00067137  1
  Ru4+  Ru149  1  0.88530768  0.50018472  0.24839541  1
  Ru4+  Ru150  1  0.88777483  0.50047721  0.50083043  1
  Ru4+  Ru151  1  0.88509828  0.49550333  0.75010035  1
  Ru4+  Ru152  1  0.88889762  0.83406850  0.00019110  1
  Ru4+  Ru153  1  0.88602017  0.83306039  0.25120365  1
  Ru4+  Ru154  1  0.89048529  0.83490537  0.49898759  1
  Ru4+  Ru155  1  0.88876029  0.83215148  0.74955863  1
  Ru4+  Ru156  1  0.24994626  0.39317517  0.25125312  1
  Ru4+  Ru157  1  0.24996162  0.09285983  0.74945596  1
  Ru4+  Ru158  1  0.24983903  0.60632483  0.00430902  1
  Ru4+  Ru159  1  0.74968290  0.29691902  0.24440643  1
  Ru4+  Ru160  1  0.74974162  0.05519545  0.24656058  1
  Ru4+  Ru161  1  0.75031008  0.41883838  0.00081199  1
  Ru4+  Ru162  1  0.74999845  0.95918986  0.76521407  1
  Ru4+  Ru163  1  0.75022045  0.42279113  0.25006294  1
  Ru4+  Ru164  1  0.74966240  0.59340930  0.50551333  1
  Ru4+  Ru165  1  0.24999086  0.09614986  0.25034587  1
  Ru4+  Ru166  1  0.25013329  0.69844292  0.49858597  1
  Ru4+  Ru167  1  0.25012580  0.93878955  0.49830166  1
  Ru4+  Ru168  1  0.24996529  0.24846245  0.74863574  1
  Ru4+  Ru169  1  0.74995980  0.24484463  0.49943803  1
  Ru4+  Ru170  1  0.74994342  0.70898823  0.75871649  1
  Ru4+  Ru171  1  0.75038774  0.72611027  0.00520973  1
  Ru4+  Ru172  1  0.75007790  0.74058905  0.50108482  1
  Ru4+  Ru173  1  0.74965418  0.24332432  0.74497887  1
  Ru4+  Ru174  1  0.75001543  0.58028748  0.75341513  1
  Ru4+  Ru175  1  0.74993276  0.27321701  0.00540998  1
  Ru4+  Ru176  1  0.25012250  0.70663459  0.24845081  1
  Ru4+  Ru177  1  0.25002549  0.93854430  0.25248258  1
  Ru4+  Ru178  1  0.24985156  0.92611492  0.75468825  1
  Ru4+  Ru179  1  0.25008276  0.41932036  0.74578329  1
  O2-  O180  1  0.16699801  0.08193850  0.00092978  1
  O2-  O181  1  0.16659493  0.07993304  0.25068896  1
  O2-  O182  1  0.16731348  0.08047848  0.49960478  1
  O2-  O183  1  0.16695817  0.08115162  0.74940417  1
  O2-  O184  1  0.16737470  0.41330761  0.00022078  1
  O2-  O185  1  0.16690808  0.41285968  0.24983048  1
  O2-  O186  1  0.16658864  0.41404577  0.50000906  1
  O2-  O187  1  0.16920076  0.41442917  0.74969358  1
  O2-  O188  1  0.16620895  0.74783076  0.00066871  1
  O2-  O189  1  0.16748660  0.74563880  0.25039777  1
  O2-  O190  1  0.16583076  0.74510466  0.49904832  1
  O2-  O191  1  0.16483731  0.74617737  0.75055521  1
  O2-  O192  1  0.66525767  0.08061502  0.00031622  1
  O2-  O193  1  0.66673034  0.07958458  0.24996276  1
  O2-  O194  1  0.66575173  0.08192015  0.50065282  1
  O2-  O195  1  0.66581490  0.08180120  0.75110628  1
  O2-  O196  1  0.66710859  0.41528186  0.00046214  1
  O2-  O197  1  0.66755092  0.41494019  0.25015018  1
  O2-  O198  1  0.66654990  0.41250880  0.49985314  1
  O2-  O199  1  0.66812823  0.41410630  0.74935105  1
  O2-  O200  1  0.66812746  0.74658721  -0.00134482  1
  O2-  O201  1  0.66400964  0.74963338  0.25045939  1
  O2-  O202  1  0.66643005  0.74645601  0.50098732  1
  O2-  O203  1  0.66612615  0.74623137  0.75007687  1
  O2-  O204  1  0.33374831  0.25262384  0.00059042  1
  O2-  O205  1  0.33251995  0.25092670  0.24821933  1
  O2-  O206  1  0.33135101  0.25246211  0.50035191  1
  O2-  O207  1  0.33176930  0.25201758  0.74967067  1
  O2-  O208  1  0.33371910  0.58558123  -0.00002241  1
  O2-  O209  1  0.33447789  0.58796590  0.24955361  1
  O2-  O210  1  0.33332437  0.58599647  0.49920684  1
  O2-  O211  1  0.33424854  0.58481496  0.75090193  1
  O2-  O212  1  0.33442905  0.91850193  -0.00015857  1
  O2-  O213  1  0.33394263  0.92050688  0.25049709  1
  O2-  O214  1  0.33451037  0.92125992  0.50064404  1
  O2-  O215  1  0.33337866  0.92095859  0.74954931  1
  O2-  O216  1  0.83264617  0.25286237  0.00019761  1
  O2-  O217  1  0.83298743  0.25367153  0.24949156  1
  O2-  O218  1  0.83109431  0.25371221  0.50072757  1
  O2-  O219  1  0.83076735  0.25325512  0.75004003  1
  O2-  O220  1  0.83239454  0.58440983  -0.00089494  1
  O2-  O221  1  0.83301437  0.58343301  0.25038244  1
  O2-  O222  1  0.83382679  0.58711914  0.49984069  1
  O2-  O223  1  0.83195313  0.58686970  0.75013231  1
  O2-  O224  1  0.83449118  0.91947209  -0.00080964  1
  O2-  O225  1  0.83386540  0.91914366  0.25075996  1
  O2-  O226  1  0.83408633  0.92142570  0.50195610  1
  O2-  O227  1  0.83372474  0.92089458  0.74969644  1
  O2-  O228  1  0.16726414  0.25213659  0.00057919  1
  O2-  O229  1  0.16729228  0.25149392  0.25019154  1
  O2-  O230  1  0.16974209  0.25270951  0.49947180  1
  O2-  O231  1  0.16843622  0.25283082  0.74919787  1
  O2-  O232  1  0.16760252  0.58543762  0.00088226  1
  O2-  O233  1  0.16676533  0.58839638  0.25023778  1
  O2-  O234  1  0.16720803  0.58572248  0.49976101  1
  O2-  O235  1  0.16583763  0.58421026  0.75062132  1
  O2-  O236  1  0.16582963  0.91809299  0.00008383  1
  O2-  O237  1  0.16642127  0.92110700  0.25117576  1
  O2-  O238  1  0.16682700  0.92199924  0.49942097  1
  O2-  O239  1  0.16673903  0.92089685  0.74931317  1
  O2-  O240  1  0.66754605  0.25401652  0.00105920  1
  O2-  O241  1  0.66580096  0.25437934  0.25019837  1
  O2-  O242  1  0.66879648  0.25349083  0.50046272  1
  O2-  O243  1  0.66880659  0.25305463  0.75084194  1
  O2-  O244  1  0.66812402  0.58515536  -0.00160189  1
  O2-  O245  1  0.66718894  0.58323452  0.25096001  1
  O2-  O246  1  0.66731113  0.58767004  0.50067125  1
  O2-  O247  1  0.66718497  0.58643408  0.74996508  1
  O2-  O248  1  0.66557527  0.91898585  -0.00113217  1
  O2-  O249  1  0.66790260  0.91880302  0.25073386  1
  O2-  O250  1  0.66511022  0.92043526  0.50104520  1
  O2-  O251  1  0.66724511  0.92049042  0.75098231  1
  O2-  O252  1  0.33309816  0.08199967  -0.00033671  1
  O2-  O253  1  0.33296404  0.08063202  0.24967537  1
  O2-  O254  1  0.33199729  0.07992336  0.50043298  1
  O2-  O255  1  0.33326103  0.08098873  0.74949714  1
  O2-  O256  1  0.33252466  0.41272330  0.00123898  1
  O2-  O257  1  0.33324294  0.41348371  0.24870811  1
  O2-  O258  1  0.33346781  0.41459983  0.50047995  1
  O2-  O259  1  0.33061067  0.41397871  0.74924717  1
  O2-  O260  1  0.33425886  0.74729923  0.00029037  1
  O2-  O261  1  0.33241353  0.74540897  0.25017889  1
  O2-  O262  1  0.33308408  0.74527269  0.49977850  1
  O2-  O263  1  0.33560615  0.74649442  0.75173045  1
  O2-  O264  1  0.83347742  0.08060204  -0.00022127  1
  O2-  O265  1  0.83343202  0.07905435  0.25005925  1
  O2-  O266  1  0.83436404  0.08153762  0.50105461  1
  O2-  O267  1  0.83413154  0.08095990  0.75009211  1
  O2-  O268  1  0.83203131  0.41502467  0.00029076  1
  O2-  O269  1  0.83076403  0.41547942  0.25007997  1
  O2-  O270  1  0.83277505  0.41177000  0.50096190  1
  O2-  O271  1  0.83345893  0.41494695  0.74962212  1
  O2-  O272  1  0.83244963  0.74602643  -0.00046040  1
  O2-  O273  1  0.83487300  0.74866386  0.25078729  1
  O2-  O274  1  0.83437868  0.74661663  0.50077871  1
  O2-  O275  1  0.83261991  0.74568664  0.74993029  1
  O2-  O276  1  0.45449827  0.56876500  0.48454132  1
  O2-  O277  1  0.95035680  0.43426930  0.98705202  1
  O2-  O278  1  0.54405150  0.56314904  0.27356165  1
  O2-  O279  1  0.96942076  0.45018815  0.24383552  1
  O2-  O280  1  0.95814312  0.89474407  0.49275249  1
  O2-  O281  1  0.45123428  0.57226134  0.98440533  1
  O2-  O282  1  0.03003457  0.55202952  0.99795613  1
  O2-  O283  1  0.95467328  0.90125711  0.73510124  1
  O2-  O284  1  0.55410173  0.58211830  0.54307137  1
  O2-  O285  1  0.54800514  0.90292460  0.01389175  1
  O2-  O286  1  0.54461867  0.42858455  0.23495427  1
  O2-  O287  1  0.96512206  0.21684399  0.24918988  1
  O2-  O288  1  0.04419092  0.90099966  0.98567045  1
  O2-  O289  1  0.45493973  0.43030220  0.51568478  1
  O2-  O290  1  0.95072546  0.90660918  0.51533841  1
  O2-  O291  1  0.55012521  0.90601256  0.26227935  1
  O2-  O292  1  0.05439182  0.58079744  0.22628075  1
  O2-  O293  1  0.04510140  0.22350405  0.72444079  1
  O2-  O294  1  0.46129222  0.22534813  0.77976763  1
  O2-  O295  1  0.94814797  0.57983445  0.27072503  1
  O2-  O296  1  0.04527220  0.10146591  0.23711023  1
  O2-  O297  1  0.46037171  0.77490552  0.28147051  1
  O2-  O298  1  0.95880483  0.10871424  0.97040082  1
  O2-  O299  1  0.54984190  0.23520457  0.26538558  1
  O2-  O300  1  0.46517701  0.21842191  0.25337979  1
  O2-  O301  1  0.54342272  0.89317338  0.23980893  1
  O2-  O302  1  0.45994716  0.10184425  0.22304080  1
  O2-  O303  1  0.45944439  0.43751136  0.02560928  1
  O2-  O304  1  0.04422342  0.76382125  0.01472896  1
  O2-  O305  1  0.04787379  0.42909556  0.48719183  1
  O2-  O306  1  0.04751011  0.57093755  0.48509725  1
  O2-  O307  1  0.95551947  0.56643490  0.76876212  1
  O2-  O308  1  0.95707264  0.22820281  0.73880445  1
  O2-  O309  1  0.54222670  0.89532777  0.77642947  1
  O2-  O310  1  0.95710422  0.22820643  0.73892849  1
  O2-  O311  1  0.45143014  0.56776985  0.26461378  1
  O2-  O312  1  0.95307441  0.43166998  0.51744336  1
  O2-  O313  1  0.95331711  0.56967938  0.72961122  1
  O2-  O314  1  0.45467736  0.09776484  0.51440924  1
  O2-  O315  1  0.04321480  0.10871701  0.02499037  1
  O2-  O316  1  0.54398072  0.55950503  0.97585623  1
  O2-  O317  1  0.54557346  0.76575486  0.51506278  1
  O2-  O318  1  0.04278582  0.43313404  0.97295328  1
  O2-  O319  1  0.04647744  0.90164776  0.23526904  1
  O2-  O320  1  0.54515512  0.76346133  0.73452190  1
  O2-  O321  1  0.45192700  0.89996482  0.73468673  1
  O2-  O322  1  0.45555380  0.09682606  0.73411914  1
  O2-  O323  1  0.95899633  0.22917721  0.23835715  1
  O2-  O324  1  0.56294290  0.26462797  0.96845010  1
  O2-  O325  1  0.43576613  0.73646531  0.46657516  1
  O2-  O326  1  0.56471955  0.92812630  0.47098093  1
  O2-  O327  1  0.06490888  0.26075909  0.52682776  1
  O2-  O328  1  0.93557092  0.59961086  0.03248604  1
  O2-  O329  1  0.43031838  0.39894060  0.96243477  1
  O2-  O330  1  0.56363277  0.73791844  0.03273729  1
  O2-  O331  1  0.05614696  0.58412458  0.22565321  1
  O2-  O332  1  0.42128060  0.28259424  0.28771915  1
  O2-  O333  1  0.56488862  0.07260572  0.21588559  1
  O2-  O334  1  0.93971485  0.59133045  0.27855023  1
  O2-  O335  1  0.07753739  0.61995918  0.95612967  1
  O2-  O336  1  0.07083599  0.39986603  0.03913674  1
  O2-  O337  1  0.06631949  0.26247232  0.22213970  1
  O2-  O338  1  0.56664964  0.93281991  0.21546311  1
  O2-  O339  1  0.93472642  0.73869087  0.77864663  1
  O2-  O340  1  0.57005620  0.93518672  0.71076500  1
  O2-  O341  1  0.93524815  0.26147745  0.97123401  1
  O2-  O342  1  0.06330640  0.92415276  0.21947250  1
  O2-  O343  1  0.06469408  0.40596059  0.72134641  1
  O2-  O344  1  0.56169261  0.92776721  0.03267855  1
  O2-  O345  1  0.93645550  0.06938077  0.30367632  1
  O2-  O346  1  0.91980419  0.27944676  0.29310183  1
  O2-  O347  1  0.43572834  0.07215322  0.02873202  1
  O2-  O348  1  0.06615141  0.92757224  0.52964617  1
  O2-  O349  1  0.56795955  0.60136489  0.04230132  1
  O2-  O350  1  0.93329055  0.93344208  0.46729784  1
  O2-  O351  1  0.06161608  0.59515040  0.46594676  1
  O2-  O352  1  0.42902613  0.72295840  0.19703794  1
  O2-  O353  1  0.43502160  0.40598391  0.77820426  1
  O2-  O354  1  0.55084711  0.57416039  0.54902388  1
  O2-  O355  1  0.56822373  0.60570763  0.20521456  1
  O2-  O356  1  0.06897790  0.27031307  0.79678865  1
  O2-  O357  1  0.93446544  0.26020744  0.45529071  1
  O2-  O358  1  0.91962257  0.38606652  0.21122938  1
  O2-  O359  1  0.42894471  0.06443755  0.29052342  1
  O2-  O360  1  0.06312476  0.26292708  0.96596450  1
  O2-  O361  1  0.92932149  0.05768207  0.05020989  1
  O2-  O362  1  0.06299737  0.73763766  0.21632606  1
  O2-  O363  1  0.56387482  0.26329583  0.71618081  1
  O2-  O364  1  0.42992328  0.27355831  0.70012042  1
  O2-  O365  1  0.57427270  0.60226280  0.42983441  1
  O2-  O366  1  0.92382690  0.27646176  0.79355493  1
  O2-  O367  1  0.07165292  0.06491478  0.95715926  1
  O2-  O368  1  0.93528790  0.06922015  0.19747904  1
  O2-  O369  1  0.93561204  0.26304825  0.54944060  1
  O2-  O370  1  0.56376817  0.26397203  0.46772069  1
  O2-  O371  1  0.56252802  0.40233233  0.78182530  1
  O2-  O372  1  0.75031400  0.00016912  0.65258500  1
  O2-  O373  1  0.75017850  0.66614383  0.32309924  1
  O2-  O374  1  0.24994657  0.33499830  0.84346713  1
  O2-  O375  1  0.25005430  0.01371286  0.33585383  1
  O2-  O376  1  0.74991357  0.33646744  0.90120839  1
  O2-  O377  1  0.25004259  0.66197527  0.35374272  1
  O2-  O378  1  0.75020271  0.00247868  0.07254624  1
  O2-  O379  1  0.75006663  0.00172207  0.42515612  1
  O2-  O380  1  0.75015668  0.66602505  0.41170402  1
  O2-  O381  1  0.75003266  -0.01404881  0.33776905  1
  O2-  O382  1  0.25015802  0.01913734  0.42196126  1
  O2-  O383  1  0.24984623  0.33191615  0.34578487  1
  O2-  O384  1  0.24987704  0.67067590  0.65209274  1
  O2-  O385  1  0.75010501  0.66905165  0.14860943  1
  O2-  O386  1  0.25013433  0.01576741  0.58055255  1
  O2-  O387  1  0.24998582  0.01101933  0.16088315  1
  O2-  O388  1  0.25009359  -0.00037579  0.07415248  1
  O2-  O389  1  0.24999478  0.00784645  0.83710229  1
  O2-  O390  1  0.25019436  0.66713323  0.90421970  1
  O2-  O391  1  0.75006222  -0.01650019  0.16010513  1
  O2-  O392  1  0.25008053  -0.00030253  0.92393050  1
  O2-  O393  1  0.25005175  0.00580578  0.66989910  1
  O2-  O394  1  0.74993825  0.66838701  0.60314516  1
  O2-  O395  1  0.75003391  -0.00005353  0.90273359  1
  O2-  O396  1  0.75008104  0.16632117  0.13855633  1
  O2-  O397  1  0.25002292  0.83528530  0.32398953  1
  O2-  O398  1  0.24988425  0.16741011  0.91817514  1
  O2-  O399  1  0.25000150  0.16501042  0.34207385  1
  O2-  O400  1  0.24998924  0.16581167  0.08343001  1
  O2-  O401  1  0.75001859  0.16962296  0.41545848  1
  O2-  O402  1  0.24997041  0.83388817  0.92984404  1
  O2-  O403  1  0.25016185  0.83709991  0.40139185  1
  O2-  O404  1  0.74983982  0.17172187  0.66230458  1
  O2-  O405  1  0.75003696  0.83499457  0.83847680  1
  O2-  O406  1  0.25003183  0.83296027  0.08109206  1
  O2-  O407  1  0.25003134  0.83771049  0.84853823  1
  O2-  O408  1  0.25003157  0.16955484  0.16571657  1
  O2-  O409  1  0.74998020  0.82642724  0.91746777  1
  O2-  O410  1  0.25004573  0.49701143  0.59540817  1
  O2-  O411  1  0.75009138  0.83131605  0.15951458  1
  O2-  O412  1  0.25008984  0.84332402  0.63115332  1
  O2-  O413  1  0.74994348  0.50420627  0.59453030  1
  O2-  O414  1  0.75000948  0.49605558  0.68129430  1
  O2-  O415  1  0.25003809  0.50144373  0.10350880  1
  O2-  O416  1  0.25005328  0.49515005  0.36062339  1
  O2-  O417  1  0.75011945  0.82475244  0.38244326  1
  O2-  O418  1  0.24997062  0.16766627  0.83409027  1
  O2-  O419  1  0.74993587  0.82392592  0.60015872  1
  O2-  O420  1  0.97659396  0.33734928  0.87370675  1
  O2-  O421  1  0.47611542  0.32749689  0.87656309  1
  O2-  O422  1  0.02818486  0.66720546  0.62697057  1
  O2-  O423  1  0.96198442  -0.00119231  0.87449534  1
  O2-  O424  1  0.02814434  0.33164643  0.12624435  1
  O2-  O425  1  0.52493310  0.67344692  0.37041792  1
  O2-  O426  1  0.02801411  0.00048798  0.37609795  1
  O2-  O427  1  0.03506771  -0.00368888  0.86670261  1
  O2-  O428  1  0.47151604  0.66534027  0.62580309  1
  O2-  O429  1  0.53818544  0.00197306  0.87723512  1
  O2-  O430  1  0.02562783  0.00024287  0.12062507  1
  O2-  O431  1  0.46801740  -0.00448748  0.38236270  1
  O2-  O432  1  0.47310201  -0.00370078  0.12777502  1
  O2-  O433  1  0.47556664  0.33666802  0.37901599  1
  O2-  O434  1  0.47285020  0.33078651  0.12573742  1
  O2-  O435  1  0.02480668  0.33590884  0.62509420  1
  O2-  O436  1  0.52564785  0.00459651  0.61993138  1
  O2-  O437  1  0.97395697  0.66646304  0.87862597  1
  O2-  O438  1  0.53151449  0.00558863  0.37176607  1
  O2-  O439  1  0.02622239  0.00246796  0.62902881  1
  O2-  O440  1  0.97670654  0.34042598  0.37440308  1
  O2-  O441  1  0.97029790  0.33021940  0.11789789  1
  O2-  O442  1  0.52770638  0.66834109  0.87304140  1
  O2-  O443  1  0.46159175  -0.00018462  0.87426353  1
