# generated using pymatgen
data_La7(Ru4O11)2
_symmetry_space_group_name_H-M   'P 1'
_cell_length_a   23.99472733
_cell_length_b   16.83489206
_cell_length_c   15.42993497
_cell_angle_alpha   90.00104841
_cell_angle_beta   90.00127237
_cell_angle_gamma   89.99904047
_symmetry_Int_Tables_number   1
_chemical_formula_structural   La7(Ru4O11)2
_chemical_formula_sum   'La84 Ru96 O264'
_cell_volume   6232.90131175
_cell_formula_units_Z   12
loop_
 _symmetry_equiv_pos_site_id
 _symmetry_equiv_pos_as_xyz
  1  'x, y, z'
loop_
 _atom_type_symbol
 _atom_type_oxidation_number
  La3+  3.0
  Ru4+  4.0
  O2-  -2.0
loop_
 _atom_site_type_symbol
 _atom_site_label
 _atom_site_symmetry_multiplicity
 _atom_site_fract_x
 _atom_site_fract_y
 _atom_site_fract_z
 _atom_site_occupancy
  La3+  La0  1  0.14000012  -0.00058201  0.12189657  1
  La3+  La1  1  0.14190954  -0.00345014  0.37942282  1
  La3+  La2  1  0.13324970  -0.00081860  0.62703948  1
  La3+  La3  1  0.14904175  -0.00128512  0.87886232  1
  La3+  La4  1  0.13271224  0.33491211  0.12011506  1
  La3+  La5  1  0.13796188  0.33314863  0.37926044  1
  La3+  La6  1  0.13999008  0.33685216  0.63202836  1
  La3+  La7  1  0.14851230  0.32301497  0.86730450  1
  La3+  La8  1  0.14331449  0.66566044  0.11943110  1
  La3+  La9  1  0.14680357  0.65851076  0.37637678  1
  La3+  La10  1  0.13602787  0.65703005  0.62717032  1
  La3+  La11  1  0.13580538  0.66216443  0.87465259  1
  La3+  La12  1  0.63281135  -0.00089354  0.12351161  1
  La3+  La13  1  0.65216548  0.00161268  0.37346342  1
  La3+  La14  1  0.64739870  -0.00324329  0.62897252  1
  La3+  La15  1  0.63917080  -0.00302463  0.87338413  1
  La3+  La16  1  0.64947945  0.33585165  0.11744228  1
  La3+  La17  1  0.63965804  0.33157407  0.37462571  1
  La3+  La18  1  0.63915109  0.33176062  0.62471284  1
  La3+  La19  1  0.63456195  0.33757808  0.87715498  1
  La3+  La20  1  0.64721771  0.67091844  0.13083018  1
  La3+  La21  1  0.63869818  0.67720207  0.37729638  1
  La3+  La22  1  0.63549254  0.67558141  0.62223898  1
  La3+  La23  1  0.64113237  0.67214591  0.87701513  1
  La3+  La24  1  0.35417978  0.00370262  0.12251165  1
  La3+  La25  1  0.36129154  -0.00457016  0.37967837  1
  La3+  La26  1  0.36670223  -0.00525901  0.62728670  1
  La3+  La27  1  0.35935551  -0.00265404  0.87888325  1
  La3+  La28  1  0.36685580  0.32472769  0.12501034  1
  La3+  La29  1  0.36620865  0.32691672  0.37427210  1
  La3+  La30  1  0.35154081  0.33891640  0.63286146  1
  La3+  La31  1  0.34807196  0.32758602  0.87651641  1
  La3+  La32  1  0.35702565  0.66287277  0.11652333  1
  La3+  La33  1  0.36526394  0.66772560  0.37162456  1
  La3+  La34  1  0.36206234  0.66412532  0.62685835  1
  La3+  La35  1  0.37130233  0.66936165  0.87618952  1
  La3+  La36  1  0.85657869  0.00076514  0.12401458  1
  La3+  La37  1  0.85877730  -0.00341186  0.38216439  1
  La3+  La38  1  0.85286485  -0.00451343  0.63551320  1
  La3+  La39  1  0.86103783  -0.00680304  0.86815124  1
  La3+  La40  1  0.85445292  0.33460879  0.11850070  1
  La3+  La41  1  0.85853440  0.33465161  0.37106862  1
  La3+  La42  1  0.85646382  0.33434651  0.61919574  1
  La3+  La43  1  0.86736303  0.33244909  0.87705746  1
  La3+  La44  1  0.85679409  0.67300717  0.13001989  1
  La3+  La45  1  0.85891786  0.67213994  0.37392243  1
  La3+  La46  1  0.86591683  0.66924442  0.62577816  1
  La3+  La47  1  0.85717877  0.66971850  0.87771421  1
  La3+  La48  1  0.50382657  0.17625563  0.11670058  1
  La3+  La49  1  -0.00232655  0.49638970  0.38752520  1
  La3+  La50  1  0.49588209  0.49563266  0.10552529  1
  La3+  La51  1  0.51526183  0.82989252  0.38465987  1
  La3+  La52  1  0.50391703  0.51321475  0.62622600  1
  La3+  La53  1  0.00043462  0.16090877  0.38005419  1
  La3+  La54  1  -0.00648819  0.50889732  0.13568788  1
  La3+  La55  1  0.49869201  0.49518173  0.36902828  1
  La3+  La56  1  0.48979375  0.17187176  0.63256762  1
  La3+  La57  1  -0.01855381  0.18297982  0.12075989  1
  La3+  La58  1  0.50427739  0.16278627  0.88630528  1
  La3+  La59  1  -0.00146452  0.17244374  0.36160122  1
  La3+  La60  1  0.00069571  0.83329807  0.13250270  1
  La3+  La61  1  0.49829928  0.16982323  0.65045659  1
  La3+  La62  1  0.49589849  0.15729391  0.37113137  1
  La3+  La63  1  0.49448590  0.50477585  0.38764756  1
  La3+  La64  1  0.49795455  0.50395826  0.12561224  1
  La3+  La65  1  0.00539701  0.16351403  0.87135451  1
  La3+  La66  1  -0.00682684  0.83996736  0.64741016  1
  La3+  La67  1  -0.00033381  0.49184829  0.85958404  1
  La3+  La68  1  0.49780914  0.82300759  0.64337696  1
  La3+  La69  1  -0.01078739  0.84385132  0.62648146  1
  La3+  La70  1  0.00522747  0.49692852  0.87981592  1
  La3+  La71  1  0.49643459  0.83670166  0.12438848  1
  La3+  La72  1  0.24948551  0.89717613  0.27121787  1
  La3+  La73  1  0.25057655  0.21035947  0.24286251  1
  La3+  La74  1  0.74822407  0.20658020  0.00406297  1
  La3+  La75  1  0.24973753  0.13185172  0.52202622  1
  La3+  La76  1  0.75122092  0.15642412  0.48623031  1
  La3+  La77  1  0.25064065  0.49731888  0.78769996  1
  La3+  La78  1  0.75020534  0.51060635  0.49530610  1
  La3+  La79  1  0.75159417  0.82786793  -0.00077283  1
  La3+  La80  1  0.24936130  0.84146501  0.78987121  1
  La3+  La81  1  0.25087125  0.49998254  0.51592252  1
  La3+  La82  1  0.24996394  0.42560138  0.26182079  1
  La3+  La83  1  0.74801157  0.51270301  0.78168734  1
  Ru4+  Ru84  1  0.01110317  0.00906380  0.00586223  1
  Ru4+  Ru85  1  -0.00343733  -0.01353005  0.24628509  1
  Ru4+  Ru86  1  -0.00062645  -0.00323180  0.49871590  1
  Ru4+  Ru87  1  0.00274663  0.00980738  0.74188380  1
  Ru4+  Ru88  1  -0.00031570  0.34165240  0.00607992  1
  Ru4+  Ru89  1  -0.00217300  0.33685626  0.25992598  1
  Ru4+  Ru90  1  0.00262014  0.33668044  0.49730667  1
  Ru4+  Ru91  1  0.00050760  0.32283255  0.73587932  1
  Ru4+  Ru92  1  -0.00179749  0.67134073  -0.00101329  1
  Ru4+  Ru93  1  -0.00550536  0.66855747  0.23750592  1
  Ru4+  Ru94  1  0.00163814  0.67029227  0.48651782  1
  Ru4+  Ru95  1  -0.00469824  0.66643924  0.74571637  1
  Ru4+  Ru96  1  0.49973003  -0.00507701  -0.01240509  1
  Ru4+  Ru97  1  0.50271288  0.00105077  0.26031239  1
  Ru4+  Ru98  1  0.50068831  -0.01045461  0.51352604  1
  Ru4+  Ru99  1  0.50798627  -0.00421766  0.74533262  1
  Ru4+  Ru100  1  0.49918979  0.33358357  -0.00063244  1
  Ru4+  Ru101  1  0.50952963  0.34376852  0.24607907  1
  Ru4+  Ru102  1  0.49768479  0.33150339  0.49735862  1
  Ru4+  Ru103  1  0.49572704  0.33854507  0.76065249  1
  Ru4+  Ru104  1  0.50000763  0.66136809  -0.00028293  1
  Ru4+  Ru105  1  0.49070412  0.67031291  0.26453823  1
  Ru4+  Ru106  1  0.49885083  0.65782028  0.52047848  1
  Ru4+  Ru107  1  0.50987159  0.66590903  0.76714247  1
  Ru4+  Ru108  1  0.11676116  0.16101313  -0.00384517  1
  Ru4+  Ru109  1  0.10930576  0.16329105  0.25014960  1
  Ru4+  Ru110  1  0.10980772  0.16326556  0.50222748  1
  Ru4+  Ru111  1  0.11432689  0.16752017  0.74983578  1
  Ru4+  Ru112  1  0.11227992  0.49376772  0.00159653  1
  Ru4+  Ru113  1  0.10666786  0.50024937  0.25221392  1
  Ru4+  Ru114  1  0.10999220  0.49886955  0.50019535  1
  Ru4+  Ru115  1  0.11551456  0.49014035  0.74246453  1
  Ru4+  Ru116  1  0.10589272  0.83521253  -0.00257808  1
  Ru4+  Ru117  1  0.10807128  0.83285759  0.24972192  1
  Ru4+  Ru118  1  0.10902525  0.82531129  0.48830637  1
  Ru4+  Ru119  1  0.11253796  0.83316957  0.74897728  1
  Ru4+  Ru120  1  0.60756304  0.16783487  0.00018048  1
  Ru4+  Ru121  1  0.61236556  0.16856115  0.24921748  1
  Ru4+  Ru122  1  0.61272152  0.16244009  0.48566232  1
  Ru4+  Ru123  1  0.61062338  0.16529859  0.75583879  1
  Ru4+  Ru124  1  0.61335231  0.49436056  -0.00607548  1
  Ru4+  Ru125  1  0.61140778  0.49272315  0.24775096  1
  Ru4+  Ru126  1  0.61281194  0.50260808  0.49969491  1
  Ru4+  Ru127  1  0.60830673  0.50025861  0.74826036  1
  Ru4+  Ru128  1  0.61176364  0.83630188  0.00019246  1
  Ru4+  Ru129  1  0.61603443  0.83957839  0.25051549  1
  Ru4+  Ru130  1  0.61197991  0.84110178  0.50091747  1
  Ru4+  Ru131  1  0.61424759  0.83249142  0.75464179  1
  Ru4+  Ru132  1  0.38502100  0.15673390  -0.00661291  1
  Ru4+  Ru133  1  0.39196898  0.15847532  0.24845517  1
  Ru4+  Ru134  1  0.38561070  0.16959026  0.49897863  1
  Ru4+  Ru135  1  0.38805290  0.17220200  0.75195847  1
  Ru4+  Ru136  1  0.38377778  0.49601935  -0.00703534  1
  Ru4+  Ru137  1  0.38928555  0.49665398  0.24644704  1
  Ru4+  Ru138  1  0.38759093  0.49718343  0.50160500  1
  Ru4+  Ru139  1  0.39541423  0.48987423  0.75656991  1
  Ru4+  Ru140  1  0.38376053  0.84269167  0.00036341  1
  Ru4+  Ru141  1  0.39442638  0.83150019  0.24422459  1
  Ru4+  Ru142  1  0.38438469  0.83329898  0.49534148  1
  Ru4+  Ru143  1  0.37925809  0.83420772  0.74959336  1
  Ru4+  Ru144  1  0.88887904  0.16771486  -0.00265447  1
  Ru4+  Ru145  1  0.89135476  0.16676659  0.24971907  1
  Ru4+  Ru146  1  0.88878821  0.16562462  0.49814447  1
  Ru4+  Ru147  1  0.88885923  0.17556267  0.74307458  1
  Ru4+  Ru148  1  0.88853003  0.50011784  0.00107941  1
  Ru4+  Ru149  1  0.88890536  0.50199743  0.25024842  1
  Ru4+  Ru150  1  0.89119265  0.50313822  0.50053093  1
  Ru4+  Ru151  1  0.88744616  0.49663549  0.74809885  1
  Ru4+  Ru152  1  0.89040850  0.83335924  -0.00028913  1
  Ru4+  Ru153  1  0.89457812  0.83971390  0.25076758  1
  Ru4+  Ru154  1  0.88614841  0.83348831  0.49145353  1
  Ru4+  Ru155  1  0.87838762  0.82826229  0.75621993  1
  Ru4+  Ru156  1  0.24881755  0.71204784  0.72397328  1
  Ru4+  Ru157  1  0.74998718  0.35825871  0.49642950  1
  Ru4+  Ru158  1  0.24987526  0.74388679  0.49739779  1
  Ru4+  Ru159  1  0.75049008  0.23692180  0.25432517  1
  Ru4+  Ru160  1  0.75109647  0.90392668  0.51873776  1
  Ru4+  Ru161  1  0.75039992  0.66141452  0.48797733  1
  Ru4+  Ru162  1  0.24908470  0.06759989  0.24418751  1
  Ru4+  Ru163  1  0.25143776  0.11403255  0.74496963  1
  Ru4+  Ru164  1  0.24875233  0.75254870  0.25055157  1
  Ru4+  Ru165  1  0.24854029  0.28248807  0.50297951  1
  Ru4+  Ru166  1  0.74979869  0.36710544  0.73923046  1
  Ru4+  Ru167  1  0.74817875  0.22532869  0.73650885  1
  Ru4+  Ru168  1  0.75056307  0.65667829  0.75181824  1
  Ru4+  Ru169  1  0.24977724  0.41832747  -0.00593499  1
  Ru4+  Ru170  1  0.75154004  0.91031187  0.25599303  1
  Ru4+  Ru171  1  0.74978256  0.43288533  0.24639742  1
  Ru4+  Ru172  1  0.24939482  0.57276746  0.24504929  1
  Ru4+  Ru173  1  0.24882671  0.97976658  0.74779921  1
  Ru4+  Ru174  1  0.75052360  0.05018696  0.00338457  1
  Ru4+  Ru175  1  0.74965829  0.57447500  0.00992865  1
  Ru4+  Ru176  1  0.75195648  0.09894024  0.23762583  1
  Ru4+  Ru177  1  0.24877972  0.92343325  0.48760226  1
  Ru4+  Ru178  1  0.24921155  0.75255128  -0.00306764  1
  Ru4+  Ru179  1  0.74955518  0.57935574  0.24294176  1
  O2-  O180  1  0.16776529  0.08195551  0.00277951  1
  O2-  O181  1  0.16583555  0.08107738  0.24952598  1
  O2-  O182  1  0.16142349  0.07728364  0.50523555  1
  O2-  O183  1  0.16873519  0.08378480  0.74229969  1
  O2-  O184  1  0.17150124  0.41201290  0.00352290  1
  O2-  O185  1  0.15411335  0.40763122  0.24689595  1
  O2-  O186  1  0.16851990  0.41596145  0.50445521  1
  O2-  O187  1  0.17109061  0.41269073  0.75079802  1
  O2-  O188  1  0.16398792  0.74856679  -0.00466023  1
  O2-  O189  1  0.16207763  0.74783193  0.25045026  1
  O2-  O190  1  0.16682614  0.74765470  0.50727902  1
  O2-  O191  1  0.16343563  0.74276689  0.75023004  1
  O2-  O192  1  0.67076980  0.08115096  0.00259747  1
  O2-  O193  1  0.67272697  0.08560282  0.24020807  1
  O2-  O194  1  0.66886188  0.08553588  0.50729197  1
  O2-  O195  1  0.66151287  0.08133977  0.75388793  1
  O2-  O196  1  0.66547393  0.41533621  -0.00269388  1
  O2-  O197  1  0.66723564  0.41338078  0.25058647  1
  O2-  O198  1  0.66703083  0.40885762  0.50230234  1
  O2-  O199  1  0.66572339  0.40847413  0.74997607  1
  O2-  O200  1  0.66906061  0.74937445  -0.00170014  1
  O2-  O201  1  0.66006586  0.74928241  0.25069991  1
  O2-  O202  1  0.66924835  0.74813773  0.50058963  1
  O2-  O203  1  0.66749961  0.74419652  0.75006614  1
  O2-  O204  1  0.34145309  0.25136389  0.00539874  1
  O2-  O205  1  0.34151483  0.25256467  0.25155639  1
  O2-  O206  1  0.32890439  0.25350422  0.50308146  1
  O2-  O207  1  0.33417640  0.25089628  0.74741996  1
  O2-  O208  1  0.33533743  0.57950730  -0.01060619  1
  O2-  O209  1  0.33201644  0.58365726  0.25012974  1
  O2-  O210  1  0.33573303  0.58489044  0.50171487  1
  O2-  O211  1  0.33856813  0.57757545  0.75889894  1
  O2-  O212  1  0.33275346  0.92178692  -0.00032672  1
  O2-  O213  1  0.33841773  0.92165001  0.25870941  1
  O2-  O214  1  0.33035340  0.92069689  0.50350437  1
  O2-  O215  1  0.32978263  0.92438085  0.74931693  1
  O2-  O216  1  0.83522107  0.25242425  -0.00931484  1
  O2-  O217  1  0.83194023  0.25098637  0.25070775  1
  O2-  O218  1  0.83440038  0.25208547  0.49868892  1
  O2-  O219  1  0.82667892  0.24837902  0.75613835  1
  O2-  O220  1  0.83195944  0.58602496  0.00292665  1
  O2-  O221  1  0.83470227  0.58523850  0.24921695  1
  O2-  O222  1  0.83006023  0.59075520  0.50173539  1
  O2-  O223  1  0.83111543  0.59054047  0.74987232  1
  O2-  O224  1  0.83721824  0.91970607  0.00080470  1
  O2-  O225  1  0.83459607  0.91941496  0.25368587  1
  O2-  O226  1  0.83360082  0.91747656  0.50732526  1
  O2-  O227  1  0.83294728  0.91837904  0.75777613  1
  O2-  O228  1  0.15998208  0.25455602  0.00452304  1
  O2-  O229  1  0.16091593  0.25497425  0.24675094  1
  O2-  O230  1  0.16704580  0.25456214  0.50387422  1
  O2-  O231  1  0.17024417  0.24715968  0.73997669  1
  O2-  O232  1  0.15761624  0.58043847  -0.00456129  1
  O2-  O233  1  0.16303987  0.58254521  0.24568900  1
  O2-  O234  1  0.16251063  0.58400723  0.50755170  1
  O2-  O235  1  0.16060019  0.58247882  0.75256125  1
  O2-  O236  1  0.15989493  0.91866508  0.00274151  1
  O2-  O237  1  0.15884398  0.92443165  0.24944211  1
  O2-  O238  1  0.16280118  0.91580604  0.50391483  1
  O2-  O239  1  0.16944980  0.92488458  0.74534380  1
  O2-  O240  1  0.65807205  0.25467158  -0.00903181  1
  O2-  O241  1  0.66695044  0.25161365  0.25391291  1
  O2-  O242  1  0.66464981  0.25237691  0.49861647  1
  O2-  O243  1  0.66907372  0.25151080  0.75018500  1
  O2-  O244  1  0.66518504  0.58546249  0.00191761  1
  O2-  O245  1  0.66715005  0.58602374  0.25209936  1
  O2-  O246  1  0.67019234  0.59155361  0.50166202  1
  O2-  O247  1  0.66727550  0.59034690  0.75113912  1
  O2-  O248  1  0.66806465  0.92001177  0.00070274  1
  O2-  O249  1  0.67071579  0.91920038  0.24124110  1
  O2-  O250  1  0.66979667  0.91741108  0.50959362  1
  O2-  O251  1  0.66420977  0.91874384  0.75619308  1
  O2-  O252  1  0.33053320  0.08152204  -0.00714929  1
  O2-  O253  1  0.32953135  0.08462633  0.25115627  1
  O2-  O254  1  0.33683109  0.07645838  0.50706032  1
  O2-  O255  1  0.33403417  0.08087943  0.74743216  1
  O2-  O256  1  0.32866871  0.41255430  0.00622290  1
  O2-  O257  1  0.34425691  0.40372638  0.24668117  1
  O2-  O258  1  0.33696291  0.41100684  0.49756720  1
  O2-  O259  1  0.33151448  0.42097359  0.74847891  1
  O2-  O260  1  0.33459340  0.74976779  -0.00538121  1
  O2-  O261  1  0.33248946  0.74910559  0.25405458  1
  O2-  O262  1  0.33428779  0.74562236  0.50003746  1
  O2-  O263  1  0.33092008  0.74313773  0.75293659  1
  O2-  O264  1  0.83213923  0.08142744  -0.00315947  1
  O2-  O265  1  0.83301971  0.08358555  0.24822371  1
  O2-  O266  1  0.83481773  0.08315434  0.50157218  1
  O2-  O267  1  0.84138763  0.08382319  0.75557863  1
  O2-  O268  1  0.84211134  0.41246151  -0.00397586  1
  O2-  O269  1  0.83083583  0.41606778  0.24727362  1
  O2-  O270  1  0.83352923  0.41350497  0.49634344  1
  O2-  O271  1  0.83154599  0.40956779  0.75423342  1
  O2-  O272  1  0.83670022  0.74567248  0.00174100  1
  O2-  O273  1  0.84048221  0.75581029  0.25526836  1
  O2-  O274  1  0.83539811  0.74318933  0.50264211  1
  O2-  O275  1  0.82766720  0.74104333  0.75048189  1
  O2-  O276  1  0.04705768  0.13253718  0.04120106  1
  O2-  O277  1  0.05285818  0.56736869  0.72797399  1
  O2-  O278  1  0.53745654  0.88558303  0.52628069  1
  O2-  O279  1  0.94599736  0.90939102  0.74910729  1
  O2-  O280  1  0.55452116  0.91479449  0.01238083  1
  O2-  O281  1  0.44560536  0.91064440  0.00475176  1
  O2-  O282  1  0.45576433  0.76052379  0.76168243  1
  O2-  O283  1  0.48277153  0.44469976  0.73883467  1
  O2-  O284  1  0.94819289  0.08881113  0.98831668  1
  O2-  O285  1  0.96581098  0.88932911  0.30242161  1
  O2-  O286  1  0.44613383  0.74900021  0.01093248  1
  O2-  O287  1  0.44138308  0.90330064  0.48610091  1
  O2-  O288  1  0.55358419  0.76413355  0.25939021  1
  O2-  O289  1  0.45424741  0.90710162  0.76305310  1
  O2-  O290  1  0.54885183  0.56809482  0.00771899  1
  O2-  O291  1  0.55714266  0.75199813  0.76957669  1
  O2-  O292  1  0.55510231  0.90540940  0.73536646  1
  O2-  O293  1  0.44966540  0.10005660  0.50642969  1
  O2-  O294  1  0.04182556  0.90796093  0.00986593  1
  O2-  O295  1  0.45843386  0.09948548  0.76409879  1
  O2-  O296  1  0.46057599  0.57171881  0.77789884  1
  O2-  O297  1  0.04610569  0.56986636  0.48801785  1
  O2-  O298  1  0.54618532  0.42429592  0.50902614  1
  O2-  O299  1  0.04833885  0.43186595  0.05255478  1
  O2-  O300  1  0.44264269  0.76569937  0.97693195  1
  O2-  O301  1  0.94979536  0.56520388  0.74396359  1
  O2-  O302  1  0.95371756  0.43221701  0.51241344  1
  O2-  O303  1  0.04576647  0.23307211  0.48950388  1
  O2-  O304  1  0.96368197  0.18029974  0.74395048  1
  O2-  O305  1  0.05056037  0.91276596  0.48254637  1
  O2-  O306  1  0.44811013  0.24452282  0.24162766  1
  O2-  O307  1  0.54359849  0.77317007  -0.00879258  1
  O2-  O308  1  0.03894204  0.76945474  0.54222635  1
  O2-  O309  1  0.46867384  0.89879216  0.28275971  1
  O2-  O310  1  0.04575664  0.76229195  1.00171309  1
  O2-  O311  1  0.54542580  0.43157492  0.50222271  1
  O2-  O312  1  0.54488057  0.75039481  0.51458979  1
  O2-  O313  1  0.04670473  0.75937999  0.01042873  1
  O2-  O314  1  0.47062369  0.11085740  0.21942177  1
  O2-  O315  1  0.43811168  0.90687724  0.73310093  1
  O2-  O316  1  0.44729500  0.75705704  0.29663589  1
  O2-  O317  1  0.05390272  0.58084476  0.76449281  1
  O2-  O318  1  0.54499961  0.12988704  0.53333942  1
  O2-  O319  1  0.54706081  0.57166116  0.25463842  1
  O2-  O320  1  0.03454754  0.12053081  0.21648897  1
  O2-  O321  1  0.54403125  0.89202431  0.54054061  1
  O2-  O322  1  0.05881239  0.24935412  0.77811294  1
  O2-  O323  1  0.43828895  0.75759016  0.73414985  1
  O2-  O324  1  0.06149232  0.07651082  0.77635822  1
  O2-  O325  1  0.93939087  0.41550708  0.27243655  1
  O2-  O326  1  0.06560877  0.04307469  0.92940465  1
  O2-  O327  1  0.41630614  0.75988698  0.15093697  1
  O2-  O328  1  0.43923240  0.07197694  0.92669724  1
  O2-  O329  1  0.56316131  0.59460112  0.46139105  1
  O2-  O330  1  0.43870431  0.25714390  0.47832998  1
  O2-  O331  1  0.42875128  0.58878800  0.70290953  1
  O2-  O332  1  0.57772822  0.08642713  0.40754423  1
  O2-  O333  1  0.93538701  0.74114512  0.73355302  1
  O2-  O334  1  0.43369433  0.58964419  0.27234861  1
  O2-  O335  1  0.43708715  0.58507949  0.02238993  1
  O2-  O336  1  0.56518813  0.08488388  0.23090753  1
  O2-  O337  1  0.58741099  0.93455274  0.42646109  1
  O2-  O338  1  0.43894239  0.75362418  0.31048061  1
  O2-  O339  1  0.06493013  0.92737267  0.71232288  1
  O2-  O340  1  0.05431280  0.42074982  0.05807628  1
  O2-  O341  1  0.41763977  0.07471749  0.31702462  1
  O2-  O342  1  0.07341379  0.71941040  0.43044997  1
  O2-  O343  1  0.92310105  0.30581581  0.71295859  1
  O2-  O344  1  0.55851114  0.26139827  0.78124911  1
  O2-  O345  1  0.93048525  0.94245321  0.17918867  1
  O2-  O346  1  0.06245864  0.25792732  0.78580332  1
  O2-  O347  1  0.55903053  0.73937100  0.28697703  1
  O2-  O348  1  0.43725727  0.40572366  0.97659945  1
  O2-  O349  1  0.56113257  0.40183310  0.96732819  1
  O2-  O350  1  0.93368316  0.92512543  0.71949972  1
  O2-  O351  1  0.41649953  0.91941872  0.17650777  1
  O2-  O352  1  0.44030888  0.58032838  0.52503439  1
  O2-  O353  1  0.93493000  0.59484944  0.47283091  1
  O2-  O354  1  0.44111610  0.26706238  0.21280739  1
  O2-  O355  1  0.06582561  0.41017171  0.48556299  1
  O2-  O356  1  0.93757897  0.74706388  0.22572373  1
  O2-  O357  1  0.56977006  0.74181218  0.51817400  1
  O2-  O358  1  0.42072496  0.36445732  0.79405601  1
  O2-  O359  1  0.05854786  0.41244466  0.72779631  1
  O2-  O360  1  0.06226692  0.91854061  0.22029190  1
  O2-  O361  1  0.93890834  0.59105782  0.95940257  1
  O2-  O362  1  0.06389310  0.05285600  0.33031869  1
  O2-  O363  1  0.94002056  0.07593495  0.46374055  1
  O2-  O364  1  0.56644675  0.92759110  0.27537282  1
  O2-  O365  1  0.55790476  0.08007879  0.01972620  1
  O2-  O366  1  0.07067704  0.39761059  0.90009338  1
  O2-  O367  1  0.93552986  0.26570663  0.01343980  1
  O2-  O368  1  0.05983409  0.25707847  0.25964496  1
  O2-  O369  1  0.57027945  0.71299091  0.04390241  1
  O2-  O370  1  0.93492204  0.92240756  0.46982605  1
  O2-  O371  1  0.42741736  0.10232158  0.07512882  1
  O2-  O372  1  0.74820289  0.33107386  0.61740294  1
  O2-  O373  1  0.24890941  0.66383841  0.32272900  1
  O2-  O374  1  0.25120774  0.31904763  0.62117312  1
  O2-  O375  1  0.25077535  0.35933712  0.87698094  1
  O2-  O376  1  0.25013354  0.65741586  0.05687525  1
  O2-  O377  1  0.25088386  0.33589325  0.39101467  1
  O2-  O378  1  0.74971988  0.33490484  0.19159425  1
  O2-  O379  1  0.75331908  -0.01178743  0.62431929  1
  O2-  O380  1  0.24931526  0.65654942  0.93214959  1
  O2-  O381  1  0.75155503  0.00304830  0.45572668  1
  O2-  O382  1  0.24908601  0.66437381  0.17362892  1
  O2-  O383  1  0.74997797  0.65903703  0.89402706  1
  O2-  O384  1  0.74984232  0.65717851  0.35517587  1
  O2-  O385  1  0.74829820  0.32290661  0.37760774  1
  O2-  O386  1  0.24831580  0.66351104  0.61415199  1
  O2-  O387  1  0.74899823  0.31979654  0.05919389  1
  O2-  O388  1  0.24941460  0.64167400  0.81499364  1
  O2-  O389  1  0.24820611  -0.00526797  0.14928730  1
  O2-  O390  1  0.75219846  0.00741481  0.31385465  1
  O2-  O391  1  0.75191777  -0.00011251  0.89793367  1
  O2-  O392  1  0.25169569  -0.00490467  0.87552756  1
  O2-  O393  1  0.24967441  0.00392709  0.39432767  1
  O2-  O394  1  0.74934896  0.65759386  0.14548031  1
  O2-  O395  1  0.25031235  0.64771113  0.45486132  1
  O2-  O396  1  0.25056801  0.84892482  0.06424914  1
  O2-  O397  1  0.25084052  0.15530695  0.12058183  1
  O2-  O398  1  0.24926771  0.17051663  0.38891407  1
  O2-  O399  1  0.74958998  0.51042997  0.10729784  1
  O2-  O400  1  0.24963768  0.83886412  0.56265802  1
  O2-  O401  1  0.75018768  0.80724541  0.21367588  1
  O2-  O402  1  0.74990992  0.50007417  0.34308402  1
  O2-  O403  1  0.75011277  0.49878328  0.92692408  1
  O2-  O404  1  0.74954429  0.85015379  0.13344043  1
  O2-  O405  1  0.24980987  0.50111133  0.13770931  1
  O2-  O406  1  0.24985032  0.50044603  0.65225149  1
  O2-  O407  1  0.24993793  0.16080159  0.91770194  1
  O2-  O408  1  0.24970558  0.81692692  0.39646837  1
  O2-  O409  1  0.25097655  0.82248877  0.15126411  1
  O2-  O410  1  0.24861331  0.51616567  0.36301718  1
  O2-  O411  1  0.74918087  0.83130789  0.77885862  1
  O2-  O412  1  0.75059499  0.49680139  0.63710443  1
  O2-  O413  1  0.75097178  0.84767952  0.41829621  1
  O2-  O414  1  0.24940473  0.83209478  0.92021029  1
  O2-  O415  1  0.74926887  0.83566068  0.86205599  1
  O2-  O416  1  0.75005802  0.17586785  0.63177152  1
  O2-  O417  1  0.25098542  0.82440977  0.65053740  1
  O2-  O418  1  0.75059855  0.84678417  0.61482509  1
  O2-  O419  1  0.25100326  0.17909629  0.83622194  1
  O2-  O420  1  0.95631308  0.65363315  0.11132265  1
  O2-  O421  1  0.48523702  0.00062503  0.39064912  1
  O2-  O422  1  0.03887205  0.34780481  0.36706372  1
  O2-  O423  1  0.49084756  0.64908203  0.13364676  1
  O2-  O424  1  0.97097656  0.33935462  0.87306400  1
  O2-  O425  1  0.45798691  -0.00034911  0.62628864  1
  O2-  O426  1  0.97996518  0.66639507  0.35927963  1
  O2-  O427  1  0.54263163  0.64475515  0.64046400  1
  O2-  O428  1  0.97572469  0.66697608  0.61435180  1
  O2-  O429  1  0.53317889  0.00786096  0.86726776  1
  O2-  O430  1  0.47946316  0.64991151  0.39490678  1
  O2-  O431  1  0.02299234  0.66122413  0.87390224  1
  O2-  O432  1  0.05127928  0.65719556  0.15118753  1
  O2-  O433  1  0.54937314  0.02532891  0.63558748  1
  O2-  O434  1  0.48007812  -0.00453081  0.11083119  1
  O2-  O435  1  0.97529131  0.33385009  0.13710107  1
  O2-  O436  1  0.02379050  0.32662616  0.61358276  1
  O2-  O437  1  0.95034145  0.30509732  0.39439603  1
  O2-  O438  1  0.01941701  0.00608270  0.12389593  1
  O2-  O439  1  0.97714558  0.01016782  0.61962039  1
  O2-  O440  1  0.47412827  0.34342626  0.36519711  1
  O2-  O441  1  0.45505912  0.69997314  0.60573192  1
  O2-  O442  1  0.47853031  0.66212255  0.88199179  1
  O2-  O443  1  0.53432054  -0.01724798  0.14538177  1
