# generated using pymatgen
data_La7(Ru4O11)2
_symmetry_space_group_name_H-M   'P 1'
_cell_length_a   23.99115257
_cell_length_b   16.83094570
_cell_length_c   15.42777244
_cell_angle_alpha   90.00147668
_cell_angle_beta   89.99935469
_cell_angle_gamma   89.99801758
_symmetry_Int_Tables_number   1
_chemical_formula_structural   La7(Ru4O11)2
_chemical_formula_sum   'La84 Ru96 O264'
_cell_volume   6229.63863835
_cell_formula_units_Z   12
loop_
 _symmetry_equiv_pos_site_id
 _symmetry_equiv_pos_as_xyz
  1  'x, y, z'
loop_
 _atom_type_symbol
 _atom_type_oxidation_number
  La3+  3.0
  Ru4+  4.0
  O2-  -2.0
loop_
 _atom_site_type_symbol
 _atom_site_label
 _atom_site_symmetry_multiplicity
 _atom_site_fract_x
 _atom_site_fract_y
 _atom_site_fract_z
 _atom_site_occupancy
  La3+  La0  1  0.13511069  0.00582134  0.11876027  1
  La3+  La1  1  0.13956478  0.00186988  0.37634354  1
  La3+  La2  1  0.13550139  0.00090791  0.62736476  1
  La3+  La3  1  0.14271260  0.00224031  0.87498208  1
  La3+  La4  1  0.14046733  0.33211670  0.12662530  1
  La3+  La5  1  0.14741665  0.33424971  0.36849750  1
  La3+  La6  1  0.13973581  0.33154924  0.62295514  1
  La3+  La7  1  0.13920019  0.33384554  0.87057603  1
  La3+  La8  1  0.13521192  0.66674296  0.12731496  1
  La3+  La9  1  0.13433524  0.66595902  0.37528390  1
  La3+  La10  1  0.13899677  0.66406072  0.62442904  1
  La3+  La11  1  0.14025425  0.66582680  0.87389992  1
  La3+  La12  1  0.63739943  0.00167577  0.12771675  1
  La3+  La13  1  0.63978377  -0.00119186  0.37791347  1
  La3+  La14  1  0.63731190  0.00113683  0.62138323  1
  La3+  La15  1  0.64007857  0.00216857  0.87392151  1
  La3+  La16  1  0.64161967  0.33062436  0.12926776  1
  La3+  La17  1  0.64029990  0.33809087  0.37752176  1
  La3+  La18  1  0.63626126  0.33528965  0.62227356  1
  La3+  La19  1  0.63956682  0.33498812  0.87537940  1
  La3+  La20  1  0.64378780  0.66457345  0.12211630  1
  La3+  La21  1  0.64339240  0.66723502  0.37566278  1
  La3+  La22  1  0.64573320  0.66739799  0.62797870  1
  La3+  La23  1  0.64326256  0.66623600  0.87485067  1
  La3+  La24  1  0.37529200  -0.00654008  0.11152092  1
  La3+  La25  1  0.36159308  0.00477760  0.37218900  1
  La3+  La26  1  0.36293261  0.00273440  0.62782859  1
  La3+  La27  1  0.36283331  -0.00746355  0.88011826  1
  La3+  La28  1  0.35797348  0.33331151  0.12408106  1
  La3+  La29  1  0.36141101  0.33438799  0.37272719  1
  La3+  La30  1  0.36024965  0.33320171  0.63028571  1
  La3+  La31  1  0.36468821  0.33347106  0.87095133  1
  La3+  La32  1  0.36254227  0.66608812  0.12698847  1
  La3+  La33  1  0.35959908  0.66467240  0.37112474  1
  La3+  La34  1  0.35829780  0.66335548  0.62618072  1
  La3+  La35  1  0.35905071  0.66483769  0.87344346  1
  La3+  La36  1  0.86195622  -0.00196632  0.12485473  1
  La3+  La37  1  0.86027001  -0.00043075  0.38083269  1
  La3+  La38  1  0.86001465  0.00434011  0.61938493  1
  La3+  La39  1  0.85965329  0.00021037  0.87472786  1
  La3+  La40  1  0.86351133  0.33691340  0.12361139  1
  La3+  La41  1  0.86192702  0.33511468  0.37632571  1
  La3+  La42  1  0.86354175  0.33279590  0.62276533  1
  La3+  La43  1  0.85845494  0.33458058  0.87457837  1
  La3+  La44  1  0.86013089  0.66260045  0.12162313  1
  La3+  La45  1  0.85644389  0.66816703  0.37349722  1
  La3+  La46  1  0.85272490  0.66950978  0.62894504  1
  La3+  La47  1  0.85967189  0.66611460  0.87457123  1
  La3+  La48  1  0.50506776  0.83512177  0.38394851  1
  La3+  La49  1  -0.00717503  0.51067890  0.87779489  1
  La3+  La50  1  0.00017917  0.49581209  0.37036839  1
  La3+  La51  1  0.00355049  0.82990874  0.38356551  1
  La3+  La52  1  -0.00250147  0.50414364  0.89798366  1
  La3+  La53  1  0.00147406  0.16630949  0.88957749  1
  La3+  La54  1  -0.00006643  0.83542459  0.36283878  1
  La3+  La55  1  0.00130852  0.83073614  0.13218857  1
  La3+  La56  1  0.50334454  0.15719528  0.37356913  1
  La3+  La57  1  0.50162694  0.49754468  0.12908789  1
  La3+  La58  1  0.49487940  0.83795094  0.86903778  1
  La3+  La59  1  -0.00224806  0.50398284  0.63063115  1
  La3+  La60  1  -0.00194755  0.16372402  0.38523939  1
  La3+  La61  1  0.00132622  0.16567604  0.86701330  1
  La3+  La62  1  0.50707319  0.84513154  0.61954416  1
  La3+  La63  1  0.00841550  0.15236130  0.13833528  1
  La3+  La64  1  -0.00013361  0.50503927  0.12977328  1
  La3+  La65  1  0.49950164  0.50191108  0.86171075  1
  La3+  La66  1  0.50065705  0.49800342  0.36719558  1
  La3+  La67  1  -0.00845309  0.83438668  0.62396879  1
  La3+  La68  1  0.50055192  0.83253731  0.88856883  1
  La3+  La69  1  0.49768416  0.83679962  0.36498198  1
  La3+  La70  1  0.50177896  0.16889520  0.13218130  1
  La3+  La71  1  0.49611056  0.83944663  0.12457306  1
  La3+  La72  1  0.75006695  0.83047619  0.30170447  1
  La3+  La73  1  0.24929226  0.16177869  0.74675298  1
  La3+  La74  1  0.24959121  0.88134563  0.55802095  1
  La3+  La75  1  0.24989091  0.48160704  0.04829884  1
  La3+  La76  1  0.74940048  0.54507141  0.74898245  1
  La3+  La77  1  0.25035014  0.16361245  -0.01389198  1
  La3+  La78  1  0.25025216  0.78450197  -0.01880856  1
  La3+  La79  1  0.25007892  0.82690828  0.74162874  1
  La3+  La80  1  0.25058643  0.83157186  0.25253879  1
  La3+  La81  1  0.75084210  0.77663794  -0.00751927  1
  La3+  La82  1  0.24999962  0.49540049  0.26276851  1
  La3+  La83  1  0.74944941  0.17534670  0.25337334  1
  Ru4+  Ru84  1  -0.00443698  -0.00876023  -0.00072518  1
  Ru4+  Ru85  1  -0.00131852  -0.00225024  0.25079481  1
  Ru4+  Ru86  1  0.00466318  -0.00022505  0.49986084  1
  Ru4+  Ru87  1  -0.00568767  -0.00758779  0.75690480  1
  Ru4+  Ru88  1  -0.00186261  0.33289374  -0.00055063  1
  Ru4+  Ru89  1  0.00348143  0.34031703  0.24788853  1
  Ru4+  Ru90  1  -0.01000560  0.33418534  0.50131248  1
  Ru4+  Ru91  1  0.00275628  0.33410604  0.74923896  1
  Ru4+  Ru92  1  0.00488441  0.67791930  0.00563169  1
  Ru4+  Ru93  1  -0.00532639  0.66025822  0.24474040  1
  Ru4+  Ru94  1  -0.00003179  0.66277675  0.50573538  1
  Ru4+  Ru95  1  -0.00147244  0.67362475  0.75376731  1
  Ru4+  Ru96  1  0.49998077  -0.00555675  0.00318590  1
  Ru4+  Ru97  1  0.50054027  -0.01059225  0.24514057  1
  Ru4+  Ru98  1  0.50287841  0.00547541  0.50458783  1
  Ru4+  Ru99  1  0.50067561  0.00293039  0.74782952  1
  Ru4+  Ru100  1  0.49653641  0.33594249  0.00257364  1
  Ru4+  Ru101  1  0.49915218  0.33087311  0.25535449  1
  Ru4+  Ru102  1  0.50219184  0.33128594  0.50240451  1
  Ru4+  Ru103  1  0.50110524  0.33190684  0.74520065  1
  Ru4+  Ru104  1  0.50106035  0.66672209  -0.00428404  1
  Ru4+  Ru105  1  0.50010024  0.66252260  0.24876947  1
  Ru4+  Ru106  1  0.50448894  0.66427489  0.50005744  1
  Ru4+  Ru107  1  0.49982066  0.66416360  0.74991904  1
  Ru4+  Ru108  1  0.11494931  0.17257060  -0.00128517  1
  Ru4+  Ru109  1  0.11107942  0.16775047  0.24997775  1
  Ru4+  Ru110  1  0.11035739  0.17108457  0.50038031  1
  Ru4+  Ru111  1  0.10774657  0.16645564  0.75225558  1
  Ru4+  Ru112  1  0.11024395  0.49900162  0.00188983  1
  Ru4+  Ru113  1  0.11093376  0.49952441  0.24871502  1
  Ru4+  Ru114  1  0.11537543  0.50282250  0.49822787  1
  Ru4+  Ru115  1  0.11463521  0.49449491  0.74693055  1
  Ru4+  Ru116  1  0.10826018  0.83302436  0.00078303  1
  Ru4+  Ru117  1  0.11408576  0.83852400  0.24898579  1
  Ru4+  Ru118  1  0.11245031  0.83481506  0.50210490  1
  Ru4+  Ru119  1  0.11123468  0.82955296  0.75349925  1
  Ru4+  Ru120  1  0.61457828  0.16545843  -0.00379589  1
  Ru4+  Ru121  1  0.61173891  0.17595440  0.25079669  1
  Ru4+  Ru122  1  0.61222263  0.16555201  0.50163177  1
  Ru4+  Ru123  1  0.61124938  0.16361490  0.74851061  1
  Ru4+  Ru124  1  0.61512882  0.50113390  0.00487074  1
  Ru4+  Ru125  1  0.61210013  0.49773823  0.24974021  1
  Ru4+  Ru126  1  0.61252963  0.49659143  0.49814957  1
  Ru4+  Ru127  1  0.60822651  0.50046661  0.74676231  1
  Ru4+  Ru128  1  0.60955506  0.83522581  0.00028515  1
  Ru4+  Ru129  1  0.61425585  0.83375767  0.24791332  1
  Ru4+  Ru130  1  0.61636059  0.83367370  0.50094562  1
  Ru4+  Ru131  1  0.61313686  0.83160648  0.74991333  1
  Ru4+  Ru132  1  0.38997030  0.16644437  -0.00292609  1
  Ru4+  Ru133  1  0.38699751  0.17229279  0.24797114  1
  Ru4+  Ru134  1  0.38668481  0.16716540  0.50145340  1
  Ru4+  Ru135  1  0.39309292  0.16690080  0.74885107  1
  Ru4+  Ru136  1  0.39013698  0.50090526  0.00062778  1
  Ru4+  Ru137  1  0.38857212  0.49933208  0.25114207  1
  Ru4+  Ru138  1  0.38529779  0.49911540  0.50202245  1
  Ru4+  Ru139  1  0.38854421  0.49785290  0.74810986  1
  Ru4+  Ru140  1  0.39114331  0.83052618  -0.00066571  1
  Ru4+  Ru141  1  0.38890751  0.83277021  0.24643883  1
  Ru4+  Ru142  1  0.38697042  0.83329670  0.50154697  1
  Ru4+  Ru143  1  0.38949000  0.83229378  0.75226777  1
  Ru4+  Ru144  1  0.88819805  0.16630437  0.00036730  1
  Ru4+  Ru145  1  0.88522889  0.16235625  0.25192629  1
  Ru4+  Ru146  1  0.88258865  0.16967249  0.49947064  1
  Ru4+  Ru147  1  0.88951786  0.16625514  0.75299371  1
  Ru4+  Ru148  1  0.88097184  0.49698802  0.00182630  1
  Ru4+  Ru149  1  0.88532956  0.49971836  0.25062254  1
  Ru4+  Ru150  1  0.88518222  0.49798818  0.49978701  1
  Ru4+  Ru151  1  0.88671310  0.50064893  0.74854950  1
  Ru4+  Ru152  1  0.89167417  0.83385138  0.00035188  1
  Ru4+  Ru153  1  0.88758143  0.83332644  0.24835946  1
  Ru4+  Ru154  1  0.88327885  0.83199537  0.50050171  1
  Ru4+  Ru155  1  0.89035105  0.83331885  0.75092616  1
  Ru4+  Ru156  1  0.24956926  0.94477858  -0.02275301  1
  Ru4+  Ru157  1  0.74919244  0.43232170  -0.00467122  1
  Ru4+  Ru158  1  0.25049999  0.96436179  0.21293088  1
  Ru4+  Ru159  1  0.25077841  0.24366597  0.49890312  1
  Ru4+  Ru160  1  0.74946769  0.31433718  0.23790964  1
  Ru4+  Ru161  1  0.74968475  0.39103650  0.74894933  1
  Ru4+  Ru162  1  0.25036928  0.36673833  -0.03444533  1
  Ru4+  Ru163  1  0.75026084  0.24851196  0.75410351  1
  Ru4+  Ru164  1  0.25007908  0.60216341  -0.01238601  1
  Ru4+  Ru165  1  0.75043572  0.08376736  0.75044964  1
  Ru4+  Ru166  1  0.24975350  0.24657183  0.25135366  1
  Ru4+  Ru167  1  0.25005973  0.71508128  0.50674814  1
  Ru4+  Ru168  1  0.74960875  0.03630579  0.24022635  1
  Ru4+  Ru169  1  0.74950792  0.24761849  0.49955182  1
  Ru4+  Ru170  1  0.74923182  0.58344829  0.25305370  1
  Ru4+  Ru171  1  0.74955184  0.93873858  0.00021820  1
  Ru4+  Ru172  1  0.25008641  0.10095414  0.24066592  1
  Ru4+  Ru173  1  0.25001110  0.42002094  0.49673854  1
  Ru4+  Ru174  1  0.75014676  0.23589635  -0.00369477  1
  Ru4+  Ru175  1  0.25007469  0.57608125  0.74613009  1
  Ru4+  Ru176  1  0.24942175  0.69565611  0.27888731  1
  Ru4+  Ru177  1  0.74999462  0.92151169  0.74329814  1
  Ru4+  Ru178  1  0.25045094  0.09531825  0.50303918  1
  Ru4+  Ru179  1  0.74989716  0.56998430  0.50761313  1
  O2-  O180  1  0.16801415  0.08185389  -0.00169223  1
  O2-  O181  1  0.16602682  0.08166972  0.24824006  1
  O2-  O182  1  0.16610808  0.08419777  0.50257089  1
  O2-  O183  1  0.16849375  0.08098692  0.74651701  1
  O2-  O184  1  0.16524645  0.41138943  -0.00026708  1
  O2-  O185  1  0.16890950  0.41698436  0.24627988  1
  O2-  O186  1  0.16938206  0.41444913  0.50280919  1
  O2-  O187  1  0.16841802  0.41484038  0.75231556  1
  O2-  O188  1  0.15961222  0.74546801  0.00157493  1
  O2-  O189  1  0.16643694  0.74376694  0.25187738  1
  O2-  O190  1  0.16798561  0.74511091  0.50044323  1
  O2-  O191  1  0.16740296  0.75060111  0.74802553  1
  O2-  O192  1  0.66283918  0.08126426  0.00143036  1
  O2-  O193  1  0.66429362  0.07909639  0.24984388  1
  O2-  O194  1  0.66430561  0.08292628  0.50137560  1
  O2-  O195  1  0.66928271  0.08030666  0.75038707  1
  O2-  O196  1  0.67034913  0.41586331  -0.00511158  1
  O2-  O197  1  0.66614731  0.41513303  0.25021634  1
  O2-  O198  1  0.66667288  0.41528852  0.50323766  1
  O2-  O199  1  0.66716486  0.41212137  0.74950157  1
  O2-  O200  1  0.66119431  0.74519937  0.00231264  1
  O2-  O201  1  0.66498561  0.74716027  0.25064923  1
  O2-  O202  1  0.66366801  0.74616365  0.49898187  1
  O2-  O203  1  0.66308368  0.75023489  0.74912599  1
  O2-  O204  1  0.33307974  0.25079155  -0.00382713  1
  O2-  O205  1  0.33138881  0.25136040  0.25099782  1
  O2-  O206  1  0.33130061  0.25282039  0.50047087  1
  O2-  O207  1  0.32948832  0.25171124  0.75139260  1
  O2-  O208  1  0.33440066  0.58782031  0.00271427  1
  O2-  O209  1  0.33079903  0.58545465  0.24840885  1
  O2-  O210  1  0.33351132  0.58324897  0.50106252  1
  O2-  O211  1  0.33421051  0.58469693  0.74939251  1
  O2-  O212  1  0.33136569  0.92132293  -0.00024847  1
  O2-  O213  1  0.33397138  0.92389641  0.24809323  1
  O2-  O214  1  0.33495428  0.92008560  0.50249756  1
  O2-  O215  1  0.33466102  0.91817543  0.74409755  1
  O2-  O216  1  0.83063587  0.25319449  0.00383402  1
  O2-  O217  1  0.83058822  0.25284636  0.24885257  1
  O2-  O218  1  0.83018658  0.25281608  0.50031664  1
  O2-  O219  1  0.83179499  0.25254492  0.74970241  1
  O2-  O220  1  0.83470091  0.58376108  -0.00162804  1
  O2-  O221  1  0.83052293  0.58321252  0.25164244  1
  O2-  O222  1  0.83236298  0.58645957  0.50146170  1
  O2-  O223  1  0.83761301  0.58857756  0.74967261  1
  O2-  O224  1  0.83309941  0.92012400  -0.00153568  1
  O2-  O225  1  0.83179790  0.91884615  0.25158009  1
  O2-  O226  1  0.83544947  0.91844781  0.50282011  1
  O2-  O227  1  0.83286981  0.91981915  0.74918063  1
  O2-  O228  1  0.16797421  0.25470355  -0.00321251  1
  O2-  O229  1  0.16621004  0.25103892  0.24679348  1
  O2-  O230  1  0.17266348  0.24983717  0.50220823  1
  O2-  O231  1  0.17094305  0.25266265  0.75018170  1
  O2-  O232  1  0.16822100  0.58881435  0.00169111  1
  O2-  O233  1  0.16644260  0.58594766  0.25221883  1
  O2-  O234  1  0.16790718  0.58672649  0.49852235  1
  O2-  O235  1  0.16569610  0.58439132  0.74998082  1
  O2-  O236  1  0.16629969  0.92112492  -0.00182110  1
  O2-  O237  1  0.16622563  0.92452313  0.24811717  1
  O2-  O238  1  0.16651388  0.91954049  0.50242450  1
  O2-  O239  1  0.16781427  0.91618198  0.74243937  1
  O2-  O240  1  0.66951363  0.25228214  0.00079182  1
  O2-  O241  1  0.66977215  0.25436356  0.25230872  1
  O2-  O242  1  0.66742438  0.25276115  0.50008622  1
  O2-  O243  1  0.66684298  0.25100039  0.75043933  1
  O2-  O244  1  0.66596509  0.58350811  -0.00128182  1
  O2-  O245  1  0.66678042  0.58513375  0.25062316  1
  O2-  O246  1  0.66740442  0.58567363  0.50149622  1
  O2-  O247  1  0.66092742  0.58713546  0.75120767  1
  O2-  O248  1  0.66688603  0.92222662  0.00055710  1
  O2-  O249  1  0.66818628  0.91951761  0.24952078  1
  O2-  O250  1  0.66699362  0.91843690  0.50084634  1
  O2-  O251  1  0.66748608  0.92182865  0.74758821  1
  O2-  O252  1  0.33176069  0.08165638  -0.00025376  1
  O2-  O253  1  0.33532363  0.08377301  0.24789443  1
  O2-  O254  1  0.33313285  0.08111375  0.50240096  1
  O2-  O255  1  0.33380636  0.08411993  0.74586058  1
  O2-  O256  1  0.33298982  0.41156716  -0.00277311  1
  O2-  O257  1  0.33165843  0.41607054  0.24806443  1
  O2-  O258  1  0.33229929  0.41331234  0.50025821  1
  O2-  O259  1  0.33390590  0.41386401  0.75128906  1
  O2-  O260  1  0.34088164  0.74391085  0.00387777  1
  O2-  O261  1  0.33277866  0.74378907  0.24906443  1
  O2-  O262  1  0.33301402  0.74625956  0.50252902  1
  O2-  O263  1  0.33114681  0.74981182  0.74619893  1
  O2-  O264  1  0.83728193  0.08196290  -0.00151884  1
  O2-  O265  1  0.83380454  0.07608456  0.25002424  1
  O2-  O266  1  0.83283566  0.08414376  0.50140102  1
  O2-  O267  1  0.83338029  0.08029847  0.75052855  1
  O2-  O268  1  0.83063564  0.41292767  -0.00130303  1
  O2-  O269  1  0.83386678  0.41285785  0.24919390  1
  O2-  O270  1  0.83424697  0.41339171  0.50157461  1
  O2-  O271  1  0.83224516  0.41170010  0.74675268  1
  O2-  O272  1  0.84135841  0.74481350  0.00066857  1
  O2-  O273  1  0.83565252  0.74730010  0.25193143  1
  O2-  O274  1  0.83551353  0.74582791  0.49988976  1
  O2-  O275  1  0.83504827  0.75269306  0.74873333  1
  O2-  O276  1  0.94637359  0.43151286  0.48305616  1
  O2-  O277  1  0.03852419  0.44085549  0.51730952  1
  O2-  O278  1  0.04310910  0.44899241  0.52249661  1
  O2-  O279  1  0.04635902  0.76296827  0.26280036  1
  O2-  O280  1  0.55120516  0.10032615  0.23649136  1
  O2-  O281  1  0.44713163  0.24484531  0.01731512  1
  O2-  O282  1  0.45930283  0.55962735  0.49728406  1
  O2-  O283  1  0.95934580  0.88713718  0.79848499  1
  O2-  O284  1  0.46567075  0.43923150  0.51013858  1
  O2-  O285  1  0.04333748  0.44273258  0.78899444  1
  O2-  O286  1  0.44698953  0.90891906  0.01366541  1
  O2-  O287  1  0.94917871  0.43225223  0.73679574  1
  O2-  O288  1  0.44856923  0.42655110  0.76236905  1
  O2-  O289  1  0.95452772  0.09210403  0.48778653  1
  O2-  O290  1  0.46233214  0.22457781  0.28106665  1
  O2-  O291  1  0.95115807  0.09537346  0.25954018  1
  O2-  O292  1  0.96667096  0.21054490  0.03677542  1
  O2-  O293  1  0.46396967  0.10724818  0.03132174  1
  O2-  O294  1  0.04279457  0.09995924  0.01271869  1
  O2-  O295  1  0.53776055  0.21434820  0.99093988  1
  O2-  O296  1  0.95454570  0.22669288  0.24229329  1
  O2-  O297  1  0.96313218  0.23962351  0.26255481  1
  O2-  O298  1  0.53640458  0.45126157  -0.00928835  1
  O2-  O299  1  0.46568606  0.77946840  0.71149197  1
  O2-  O300  1  0.45724784  0.89583800  0.99548359  1
  O2-  O301  1  0.54502557  0.24042236  0.48583219  1
  O2-  O302  1  0.95453239  0.89656272  0.48990373  1
  O2-  O303  1  0.55301580  0.57236384  0.48416447  1
  O2-  O304  1  0.04815280  0.57424601  0.73931508  1
  O2-  O305  1  0.95412920  0.43758265  0.24152452  1
  O2-  O306  1  0.04851358  0.90710355  0.71427728  1
  O2-  O307  1  0.45412734  0.90741107  0.49091242  1
  O2-  O308  1  0.44737168  0.09390638  0.25771525  1
  O2-  O309  1  0.03899268  0.77328767  0.71503278  1
  O2-  O310  1  0.54942713  0.43313768  0.73850097  1
  O2-  O311  1  0.04525132  0.89721720  0.01299499  1
  O2-  O312  1  0.54767879  0.09628018  0.49196425  1
  O2-  O313  1  0.45520333  0.76061678  0.48941957  1
  O2-  O314  1  0.44559983  0.42772350  0.02062513  1
  O2-  O315  1  0.03535172  0.21504167  0.51439005  1
  O2-  O316  1  0.54015318  0.44627606  0.97252113  1
  O2-  O317  1  0.45311985  0.23478303  0.75824507  1
  O2-  O318  1  0.45225813  0.23600839  0.73803806  1
  O2-  O319  1  0.45344443  0.57221896  0.73336334  1
  O2-  O320  1  0.95568400  0.76990508  0.01209734  1
  O2-  O321  1  0.95408611  0.56565967  0.01340549  1
  O2-  O322  1  0.03952084  0.22360852  0.52720221  1
  O2-  O323  1  0.54586217  0.76205078  0.25831947  1
  O2-  O324  1  0.42516925  0.27630374  0.18595929  1
  O2-  O325  1  0.43955032  0.06820804  0.28220704  1
  O2-  O326  1  0.93674666  0.59257738  0.77319829  1
  O2-  O327  1  0.56170410  0.59695723  0.03993564  1
  O2-  O328  1  0.43784453  0.41018122  0.27451141  1
  O2-  O329  1  0.93448780  0.74170116  0.77443652  1
  O2-  O330  1  0.93684209  0.59017910  0.02299567  1
  O2-  O331  1  0.56281196  0.74464890  0.97730268  1
  O2-  O332  1  0.07035168  0.38089588  0.68536228  1
  O2-  O333  1  0.93138198  0.25965509  0.47128694  1
  O2-  O334  1  0.92956913  0.25657219  0.30114112  1
  O2-  O335  1  0.42677410  0.38260893  0.53821777  1
  O2-  O336  1  0.43553374  0.74176534  0.28425836  1
  O2-  O337  1  0.93333458  0.07761134  0.47367446  1
  O2-  O338  1  0.08504532  0.27091529  0.43656348  1
  O2-  O339  1  0.07141659  0.93517379  0.79282665  1
  O2-  O340  1  0.42790654  0.61880347  0.45756212  1
  O2-  O341  1  0.42193038  0.72821231  0.80085247  1
  O2-  O342  1  0.58842033  0.38968749  0.05687755  1
  O2-  O343  1  0.93625018  0.92178767  0.22274703  1
  O2-  O344  1  0.07276143  0.72102692  0.81156469  1
  O2-  O345  1  0.56561142  0.92393721  0.52419312  1
  O2-  O346  1  0.56608321  0.07754042  0.72724566  1
  O2-  O347  1  0.42662799  0.06545557  0.93618403  1
  O2-  O348  1  0.92795275  0.26975177  0.19523209  1
  O2-  O349  1  0.43271117  0.92680889  0.95873509  1
  O2-  O350  1  0.93433747  0.58948147  0.22792809  1
  O2-  O351  1  0.56439011  0.92491428  0.27314404  1
  O2-  O352  1  0.05968537  0.74209424  0.28724585  1
  O2-  O353  1  0.56485543  0.40258861  0.46390333  1
  O2-  O354  1  0.93061550  0.94961544  0.68628441  1
  O2-  O355  1  0.06238679  0.92978085  0.53592919  1
  O2-  O356  1  0.06354805  0.74084195  0.46684401  1
  O2-  O357  1  0.06390196  0.59150030  0.01990262  1
  O2-  O358  1  0.93490481  0.41144420  0.02708314  1
  O2-  O359  1  0.55969612  0.06962755  0.22062809  1
  O2-  O360  1  0.92038960  0.26472393  0.94664347  1
  O2-  O361  1  0.08201430  0.39403475  0.42775676  1
  O2-  O362  1  0.06499941  0.40413198  0.21611420  1
  O2-  O363  1  0.43627431  0.92274402  0.22744385  1
  O2-  O364  1  0.56243977  0.60154245  0.71544556  1
  O2-  O365  1  0.43897985  0.59151855  0.28196700  1
  O2-  O366  1  0.56337841  0.92670970  0.78588436  1
  O2-  O367  1  0.56831565  0.25160541  0.18618881  1
  O2-  O368  1  0.06315879  0.08089109  0.02306576  1
  O2-  O369  1  0.56492466  0.26460129  0.32118471  1
  O2-  O370  1  0.06659229  0.59323252  0.52467027  1
  O2-  O371  1  0.57658631  0.27246829  0.96678411  1
  O2-  O372  1  0.24992589  0.67276790  0.80966933  1
  O2-  O373  1  0.74980082  0.66348848  0.34505435  1
  O2-  O374  1  0.25035457  0.01182686  0.32337503  1
  O2-  O375  1  0.24979555  0.64435082  0.16750231  1
  O2-  O376  1  0.24951400  0.00409694  0.86089352  1
  O2-  O377  1  0.25015227  0.68276830  0.08521362  1
  O2-  O378  1  0.24969052  0.34017155  0.17546315  1
  O2-  O379  1  0.74950414  0.33305220  0.90734006  1
  O2-  O380  1  0.75016084  0.66896205  0.82867530  1
  O2-  O381  1  0.75006248  0.00094055  0.84866899  1
  O2-  O382  1  0.75018905  -0.02090209  0.34345841  1
  O2-  O383  1  0.25048667  -0.00176680  0.45164143  1
  O2-  O384  1  0.24999360  0.68282284  0.90273630  1
  O2-  O385  1  0.74981959  0.66195925  0.91861693  1
  O2-  O386  1  0.75026431  0.65937943  0.64247343  1
  O2-  O387  1  0.25058279  0.32946485  0.34475888  1
  O2-  O388  1  0.75005628  0.66896578  0.17417322  1
  O2-  O389  1  0.25029410  0.66639182  0.65285207  1
  O2-  O390  1  0.24972020  0.32282735  0.08215822  1
  O2-  O391  1  0.25016198  0.00389274  0.09666579  1
  O2-  O392  1  0.74926492  -0.00820084  0.13084102  1
  O2-  O393  1  0.75046750  0.33312462  0.35897875  1
  O2-  O394  1  0.74971293  0.00678458  0.42814446  1
  O2-  O395  1  0.74971022  0.66456736  0.08352491  1
  O2-  O396  1  0.25025258  0.50535036  0.58160225  1
  O2-  O397  1  0.75019972  0.49395585  0.61229174  1
  O2-  O398  1  0.25005433  0.50512809  0.89225746  1
  O2-  O399  1  0.75000106  0.17140160  0.90825293  1
  O2-  O400  1  0.24986990  0.85682205  0.86971646  1
  O2-  O401  1  0.25088784  0.81028201  0.45020994  1
  O2-  O402  1  0.24913724  0.80960289  0.12682936  1
  O2-  O403  1  0.25003099  0.16643754  0.34400863  1
  O2-  O404  1  0.24995546  0.87636438  0.07373143  1
  O2-  O405  1  0.75012782  0.83110336  0.42403262  1
  O2-  O406  1  0.75025458  0.48403091  0.88488820  1
  O2-  O407  1  0.24981278  0.16700714  0.13011320  1
  O2-  O408  1  0.74957418  0.85407612  0.88361548  1
  O2-  O409  1  0.75001918  0.49238387  0.08747054  1
  O2-  O410  1  0.75006324  0.16825038  0.66844226  1
  O2-  O411  1  0.74973674  0.82646434  0.80097895  1
  O2-  O412  1  0.74989997  0.17276733  0.09470366  1
  O2-  O413  1  0.24966180  0.85083726  0.37715336  1
  O2-  O414  1  0.24983470  0.49622596  0.40550858  1
  O2-  O415  1  0.75000801  0.50935892  0.41383421  1
  O2-  O416  1  0.75019058  0.86045825  0.09194835  1
  O2-  O417  1  0.75013415  0.16380832  0.57871359  1
  O2-  O418  1  0.74972862  0.82626371  0.17135921  1
  O2-  O419  1  0.25018274  0.49271225  0.66845940  1
  O2-  O420  1  0.97850577  0.66186424  0.88690985  1
  O2-  O421  1  0.95758723  -0.01143602  0.36625093  1
  O2-  O422  1  0.95979348  0.67837884  0.12929795  1
  O2-  O423  1  0.02308905  0.01398453  0.88257118  1
  O2-  O424  1  0.98571150  0.33554728  0.12245681  1
  O2-  O425  1  0.51532286  0.33838949  0.12733270  1
  O2-  O426  1  0.98275535  0.34446072  0.37077455  1
  O2-  O427  1  0.04348962  0.67476393  0.13012108  1
  O2-  O428  1  0.52781610  0.33095718  0.62568467  1
  O2-  O429  1  0.47332712  0.33173130  0.38288058  1
  O2-  O430  1  0.04626975  0.00161978  0.37109919  1
  O2-  O431  1  0.02056333  0.67133414  0.62636877  1
  O2-  O432  1  0.52383683  0.00073552  0.37607728  1
  O2-  O433  1  0.51834671  -0.00400754  0.62615252  1
  O2-  O434  1  0.47486040  0.00410726  0.12784350  1
  O2-  O435  1  0.97026277  0.33132569  0.62724089  1
  O2-  O436  1  0.54357603  0.66116173  0.86163306  1
  O2-  O437  1  0.95948072  0.34362377  0.85772359  1
  O2-  O438  1  0.95746750  0.00735923  0.10967041  1
  O2-  O439  1  0.04656634  0.32396369  0.88205782  1
  O2-  O440  1  0.45646800  0.65669476  0.90091848  1
  O2-  O441  1  0.04443191  -0.00476128  0.14456788  1
  O2-  O442  1  0.52881604  0.33457215  0.86008692  1
  O2-  O443  1  0.46721964  0.33641765  0.88106727  1
