# generated using pymatgen
data_La7(Ru4O11)2
_symmetry_space_group_name_H-M   'P 1'
_cell_length_a   23.98964480
_cell_length_b   16.82924626
_cell_length_c   15.42624097
_cell_angle_alpha   90.00017693
_cell_angle_beta   90.00039070
_cell_angle_gamma   90.00028824
_symmetry_Int_Tables_number   1
_chemical_formula_structural   La7(Ru4O11)2
_chemical_formula_sum   'La84 Ru96 O264'
_cell_volume   6227.99985984
_cell_formula_units_Z   12
loop_
 _symmetry_equiv_pos_site_id
 _symmetry_equiv_pos_as_xyz
  1  'x, y, z'
loop_
 _atom_type_symbol
 _atom_type_oxidation_number
  La3+  3.0
  Ru4+  4.0
  O2-  -2.0
loop_
 _atom_site_type_symbol
 _atom_site_label
 _atom_site_symmetry_multiplicity
 _atom_site_fract_x
 _atom_site_fract_y
 _atom_site_fract_z
 _atom_site_occupancy
  La3+  La0  1  0.13897783  0.00060673  0.12593105  1
  La3+  La1  1  0.13775694  0.00143347  0.37419334  1
  La3+  La2  1  0.14051550  -0.00037592  0.62572799  1
  La3+  La3  1  0.14031277  -0.00003420  0.87477960  1
  La3+  La4  1  0.13882979  0.33362838  0.12771251  1
  La3+  La5  1  0.14183440  0.33196270  0.37428868  1
  La3+  La6  1  0.14035513  0.33197880  0.62392037  1
  La3+  La7  1  0.13869157  0.33341277  0.87350634  1
  La3+  La8  1  0.13925418  0.66455276  0.12469520  1
  La3+  La9  1  0.14093744  0.66600747  0.37689639  1
  La3+  La10  1  0.14165743  0.66640828  0.62438074  1
  La3+  La11  1  0.14146330  0.66484964  0.87348353  1
  La3+  La12  1  0.64141064  0.00063424  0.12356009  1
  La3+  La13  1  0.64005931  0.00033696  0.37290834  1
  La3+  La14  1  0.63705337  0.00112814  0.62640502  1
  La3+  La15  1  0.63652186  0.00194483  0.87649633  1
  La3+  La16  1  0.63865007  0.33258500  0.12470072  1
  La3+  La17  1  0.63769586  0.33615517  0.37452122  1
  La3+  La18  1  0.63712186  0.33261198  0.62522748  1
  La3+  La19  1  0.63631648  0.33206293  0.87570922  1
  La3+  La20  1  0.63974597  0.66746978  0.12722529  1
  La3+  La21  1  0.63695420  0.66701845  0.37416347  1
  La3+  La22  1  0.63820021  0.66509987  0.62634849  1
  La3+  La23  1  0.63700866  0.66604446  0.87430111  1
  La3+  La24  1  0.36014390  -0.00011706  0.12399139  1
  La3+  La25  1  0.36206785  0.00041390  0.37499259  1
  La3+  La26  1  0.36093762  0.00004078  0.62619409  1
  La3+  La27  1  0.36113276  0.00090641  0.87610969  1
  La3+  La28  1  0.36173363  0.33367949  0.12712470  1
  La3+  La29  1  0.36036618  0.33206762  0.37515943  1
  La3+  La30  1  0.35965319  0.33216467  0.62437338  1
  La3+  La31  1  0.36136411  0.33270284  0.87409655  1
  La3+  La32  1  0.36119424  0.66466777  0.12411544  1
  La3+  La33  1  0.35859087  0.66552193  0.37810733  1
  La3+  La34  1  0.35914529  0.66583754  0.62407495  1
  La3+  La35  1  0.35895258  0.66480230  0.87356951  1
  La3+  La36  1  0.85857812  0.00132416  0.12380143  1
  La3+  La37  1  0.86014676  -0.00103183  0.37227305  1
  La3+  La38  1  0.86276726  0.00171815  0.62492005  1
  La3+  La39  1  0.86166583  0.00185994  0.87723689  1
  La3+  La40  1  0.86020539  0.33415591  0.12595961  1
  La3+  La41  1  0.86053518  0.33531820  0.37252841  1
  La3+  La42  1  0.86557982  0.33559626  0.63150027  1
  La3+  La43  1  0.86623263  0.33521467  0.87140808  1
  La3+  La44  1  0.86038291  0.66797997  0.12782327  1
  La3+  La45  1  0.86169647  0.66746637  0.37240505  1
  La3+  La46  1  0.86335018  0.66619198  0.62638584  1
  La3+  La47  1  0.86407476  0.66714999  0.87382357  1
  La3+  La48  1  0.50312905  0.82827316  0.62825045  1
  La3+  La49  1  0.00020417  0.16628903  0.62463523  1
  La3+  La50  1  0.49938241  0.49908186  0.11686370  1
  La3+  La51  1  0.00259112  0.16854181  0.86654071  1
  La3+  La52  1  -0.00303832  0.82677099  0.87583243  1
  La3+  La53  1  0.50006741  0.16784620  0.38728534  1
  La3+  La54  1  0.50156817  0.17111740  0.13548198  1
  La3+  La55  1  0.49570036  0.83348475  0.88266276  1
  La3+  La56  1  -0.00149578  0.16764585  0.11717104  1
  La3+  La57  1  0.00236158  0.50394960  0.37736169  1
  La3+  La58  1  0.49839873  0.82979039  0.11526353  1
  La3+  La59  1  0.50009846  0.83108658  0.36198761  1
  La3+  La60  1  0.50208468  0.16608502  0.88190286  1
  La3+  La61  1  -0.00429595  0.82742778  0.62858619  1
  La3+  La62  1  0.49961714  0.16432177  0.11467520  1
  La3+  La63  1  0.50298986  0.83340454  0.86318573  1
  La3+  La64  1  -0.00151787  0.49801236  0.63556588  1
  La3+  La65  1  0.49779767  0.50269627  0.86896469  1
  La3+  La66  1  0.49725490  0.83607995  0.38329349  1
  La3+  La67  1  -0.00467517  0.16468443  0.88541919  1
  La3+  La68  1  0.50196877  0.50124322  0.62998135  1
  La3+  La69  1  -0.00230179  0.83437148  0.36456517  1
  La3+  La70  1  0.00090109  0.83258249  0.38603693  1
  La3+  La71  1  -0.00284105  0.49822921  0.86566980  1
  La3+  La72  1  0.75039407  0.86543012  0.51973434  1
  La3+  La73  1  0.74934976  0.83115948  0.74203543  1
  La3+  La74  1  0.75019307  0.53186602  0.77382296  1
  La3+  La75  1  0.75016694  0.87043655  0.00501564  1
  La3+  La76  1  0.25016935  0.83058496  0.77723955  1
  La3+  La77  1  0.24999312  0.87330621  0.26804974  1
  La3+  La78  1  0.74967415  0.16376795  0.46789848  1
  La3+  La79  1  0.24995258  0.49977396  0.23937512  1
  La3+  La80  1  0.75005024  0.46431263  0.52172155  1
  La3+  La81  1  0.25007207  0.86743883  -0.04076160  1
  La3+  La82  1  0.74977573  0.16728615  0.75260245  1
  La3+  La83  1  0.25002465  0.13772755  -0.00245824  1
  Ru4+  Ru84  1  -0.00016890  -0.00314454  0.00250690  1
  Ru4+  Ru85  1  0.00016269  -0.00268913  0.25175604  1
  Ru4+  Ru86  1  0.00162555  -0.00169579  0.49680062  1
  Ru4+  Ru87  1  -0.00407292  0.00715862  0.74907870  1
  Ru4+  Ru88  1  -0.00173348  0.33776871  -0.00259081  1
  Ru4+  Ru89  1  -0.00235282  0.33298655  0.24591602  1
  Ru4+  Ru90  1  0.00008723  0.33578786  0.50259197  1
  Ru4+  Ru91  1  0.00186999  0.33899671  0.74960666  1
  Ru4+  Ru92  1  0.00001832  0.66564767  -0.00230069  1
  Ru4+  Ru93  1  0.00002896  0.66669444  0.25125919  1
  Ru4+  Ru94  1  0.00076257  0.66563953  0.49944531  1
  Ru4+  Ru95  1  0.00172935  0.66409422  0.75091771  1
  Ru4+  Ru96  1  0.49677913  0.00525963  -0.00132545  1
  Ru4+  Ru97  1  0.50039078  0.00011949  0.24975978  1
  Ru4+  Ru98  1  0.49808201  0.00218431  0.50299149  1
  Ru4+  Ru99  1  0.49687631  -0.00012378  0.74942277  1
  Ru4+  Ru100  1  0.49715394  0.33861345  -0.00278459  1
  Ru4+  Ru101  1  0.49864133  0.33387436  0.25340032  1
  Ru4+  Ru102  1  0.50027883  0.33428015  0.49954143  1
  Ru4+  Ru103  1  0.49915829  0.32891327  0.74875028  1
  Ru4+  Ru104  1  0.49841761  0.66388866  0.00025331  1
  Ru4+  Ru105  1  0.50041430  0.66506350  0.25210184  1
  Ru4+  Ru106  1  0.49898300  0.66209248  0.49715855  1
  Ru4+  Ru107  1  0.50025869  0.66545245  0.74998829  1
  Ru4+  Ru108  1  0.11338391  0.16617359  0.00049157  1
  Ru4+  Ru109  1  0.11484441  0.17112688  0.25022344  1
  Ru4+  Ru110  1  0.11491683  0.16486492  0.49910647  1
  Ru4+  Ru111  1  0.11479074  0.16911037  0.74956458  1
  Ru4+  Ru112  1  0.11324343  0.50177891  -0.00007296  1
  Ru4+  Ru113  1  0.11266925  0.50315386  0.25020183  1
  Ru4+  Ru114  1  0.11341462  0.50168553  0.50002111  1
  Ru4+  Ru115  1  0.11518524  0.50105139  0.74957433  1
  Ru4+  Ru116  1  0.11223258  0.83557432  -0.00049340  1
  Ru4+  Ru117  1  0.11179737  0.83421049  0.24941730  1
  Ru4+  Ru118  1  0.11283220  0.83170439  0.50042156  1
  Ru4+  Ru119  1  0.11702104  0.82921894  0.74963660  1
  Ru4+  Ru120  1  0.61617373  0.16226088  -0.00032228  1
  Ru4+  Ru121  1  0.61443996  0.16533560  0.24970306  1
  Ru4+  Ru122  1  0.61017968  0.16642781  0.50012277  1
  Ru4+  Ru123  1  0.61316131  0.17039592  0.75030354  1
  Ru4+  Ru124  1  0.61284153  0.49877277  -0.00016409  1
  Ru4+  Ru125  1  0.61250472  0.49905991  0.25009265  1
  Ru4+  Ru126  1  0.60964698  0.49952446  0.49835580  1
  Ru4+  Ru127  1  0.61349104  0.50426881  0.75020149  1
  Ru4+  Ru128  1  0.61556171  0.83073230  0.00023560  1
  Ru4+  Ru129  1  0.61463478  0.83046115  0.24862221  1
  Ru4+  Ru130  1  0.61356118  0.83430335  0.50167345  1
  Ru4+  Ru131  1  0.61024629  0.83306817  0.74958957  1
  Ru4+  Ru132  1  0.38744802  0.16483040  -0.00090903  1
  Ru4+  Ru133  1  0.38623008  0.16919270  0.25034921  1
  Ru4+  Ru134  1  0.38665934  0.16909369  0.49991846  1
  Ru4+  Ru135  1  0.38693307  0.16737899  0.75026174  1
  Ru4+  Ru136  1  0.38657220  0.50241380  0.00001061  1
  Ru4+  Ru137  1  0.38783719  0.50019856  0.24974563  1
  Ru4+  Ru138  1  0.38640235  0.50293750  0.50055330  1
  Ru4+  Ru139  1  0.38578653  0.50184590  0.75023769  1
  Ru4+  Ru140  1  0.38728407  0.83393895  0.00003992  1
  Ru4+  Ru141  1  0.38771336  0.83236426  0.24947629  1
  Ru4+  Ru142  1  0.38593618  0.83074010  0.50082614  1
  Ru4+  Ru143  1  0.38635041  0.83156524  0.74931372  1
  Ru4+  Ru144  1  0.88520730  0.16447569  0.00160877  1
  Ru4+  Ru145  1  0.88583223  0.16530850  0.24960445  1
  Ru4+  Ru146  1  0.88713943  0.16669060  0.49868418  1
  Ru4+  Ru147  1  0.88470145  0.16317295  0.74863351  1
  Ru4+  Ru148  1  0.88764300  0.49772896  -0.00089094  1
  Ru4+  Ru149  1  0.88803831  0.49792171  0.24968400  1
  Ru4+  Ru150  1  0.88771852  0.50089861  0.50221688  1
  Ru4+  Ru151  1  0.88966777  0.49980754  0.75046634  1
  Ru4+  Ru152  1  0.88838187  0.83409678  -0.00023851  1
  Ru4+  Ru153  1  0.88628823  0.83085933  0.24945609  1
  Ru4+  Ru154  1  0.88887469  0.83418918  0.49936523  1
  Ru4+  Ru155  1  0.88487868  0.83519871  0.74968936  1
  Ru4+  Ru156  1  0.25003994  0.08675692  0.50545634  1
  Ru4+  Ru157  1  0.24998170  0.08864529  0.75066305  1
  Ru4+  Ru158  1  0.75006650  0.58196397  0.00302401  1
  Ru4+  Ru159  1  0.25007325  0.42029361  0.00119125  1
  Ru4+  Ru160  1  0.75004279  0.24141557  0.00330070  1
  Ru4+  Ru161  1  0.74995202  0.95834009  0.77120736  1
  Ru4+  Ru162  1  0.75013534  0.73599582  0.50654021  1
  Ru4+  Ru163  1  0.74991337  0.03833130  0.48101254  1
  Ru4+  Ru164  1  0.75002341  0.28488632  0.49454421  1
  Ru4+  Ru165  1  0.75005543  0.91572050  0.24875022  1
  Ru4+  Ru166  1  0.25000652  0.08544305  0.24994080  1
  Ru4+  Ru167  1  0.25002860  0.72595361  0.25522302  1
  Ru4+  Ru168  1  0.24996556  0.72411252  -0.00562277  1
  Ru4+  Ru169  1  0.75013512  0.24945726  0.24546559  1
  Ru4+  Ru170  1  0.74994017  0.59724469  0.50801080  1
  Ru4+  Ru171  1  0.25018506  0.42799174  0.74868386  1
  Ru4+  Ru172  1  0.25012712  0.27698476  0.00026903  1
  Ru4+  Ru173  1  0.74984445  0.70237354  0.76086077  1
  Ru4+  Ru174  1  0.24993848  0.41488057  0.50617463  1
  Ru4+  Ru175  1  0.75016387  0.41763682  0.00110435  1
  Ru4+  Ru176  1  0.74964881  0.39854937  0.76031620  1
  Ru4+  Ru177  1  0.75000264  0.58256149  0.24457917  1
  Ru4+  Ru178  1  0.75011051  0.72590799  0.00128312  1
  Ru4+  Ru179  1  0.24999176  0.91710782  0.49867435  1
  O2-  O180  1  0.16651019  0.07982685  0.00155710  1
  O2-  O181  1  0.16791502  0.07982459  0.24999601  1
  O2-  O182  1  0.16692920  0.08054723  0.49927282  1
  O2-  O183  1  0.16747322  0.08064856  0.74986849  1
  O2-  O184  1  0.16853847  0.41395137  0.00003288  1
  O2-  O185  1  0.16772976  0.41371497  0.24768432  1
  O2-  O186  1  0.16674239  0.41406494  0.50044896  1
  O2-  O187  1  0.16698252  0.41353309  0.75067368  1
  O2-  O188  1  0.16789016  0.74635323  0.00066764  1
  O2-  O189  1  0.16753962  0.74664943  0.24946158  1
  O2-  O190  1  0.16578284  0.74877191  0.50010231  1
  O2-  O191  1  0.16710017  0.74780685  0.74970318  1
  O2-  O192  1  0.66551209  0.08058550  -0.00165223  1
  O2-  O193  1  0.66725793  0.08225233  0.25050044  1
  O2-  O194  1  0.66609731  0.07869655  0.50040393  1
  O2-  O195  1  0.66759050  0.08063261  0.74990948  1
  O2-  O196  1  0.66848627  0.41445066  0.00040576  1
  O2-  O197  1  0.66578433  0.41522042  0.25031180  1
  O2-  O198  1  0.66629712  0.41235504  0.49991936  1
  O2-  O199  1  0.66731296  0.41276360  0.75066842  1
  O2-  O200  1  0.66735177  0.74648431  -0.00004524  1
  O2-  O201  1  0.66670267  0.74914801  0.25006633  1
  O2-  O202  1  0.66749832  0.74660040  0.49994247  1
  O2-  O203  1  0.66664575  0.74527481  0.75057838  1
  O2-  O204  1  0.33286095  0.25367917  0.00090015  1
  O2-  O205  1  0.33339940  0.25195445  0.24824049  1
  O2-  O206  1  0.33328386  0.25111664  0.50046229  1
  O2-  O207  1  0.33392963  0.25216519  0.74969663  1
  O2-  O208  1  0.33394405  0.58463661  0.00048243  1
  O2-  O209  1  0.33337024  0.58714892  0.24965302  1
  O2-  O210  1  0.33290551  0.58389723  0.49958278  1
  O2-  O211  1  0.33508372  0.58400260  0.75000078  1
  O2-  O212  1  0.33254552  0.91985842  0.00227540  1
  O2-  O213  1  0.33518899  0.92187218  0.24984095  1
  O2-  O214  1  0.33196643  0.92067170  0.49925990  1
  O2-  O215  1  0.33157694  0.91899595  0.74965933  1
  O2-  O216  1  0.83199760  0.25347123  0.00032800  1
  O2-  O217  1  0.83169389  0.25237699  0.25009898  1
  O2-  O218  1  0.83255653  0.25437546  0.50066542  1
  O2-  O219  1  0.83239441  0.25242389  0.75060478  1
  O2-  O220  1  0.83183281  0.58577234  -0.00042525  1
  O2-  O221  1  0.83272749  0.58488471  0.24957097  1
  O2-  O222  1  0.83325587  0.58634464  0.50046973  1
  O2-  O223  1  0.83510807  0.58733614  0.75005385  1
  O2-  O224  1  0.83586633  0.92046475  -0.00122886  1
  O2-  O225  1  0.83213699  0.91840064  0.24960297  1
  O2-  O226  1  0.83449176  0.92072828  0.49979022  1
  O2-  O227  1  0.83310676  0.92046618  0.75002168  1
  O2-  O228  1  0.16716524  0.25366997  -0.00027053  1
  O2-  O229  1  0.16622104  0.25080757  0.24806971  1
  O2-  O230  1  0.16708854  0.25163962  0.50083705  1
  O2-  O231  1  0.16645470  0.25287175  0.75026605  1
  O2-  O232  1  0.16607569  0.58443441  0.00064445  1
  O2-  O233  1  0.16772020  0.58568415  0.24889708  1
  O2-  O234  1  0.16566439  0.58447839  0.50041227  1
  O2-  O235  1  0.16668724  0.58406084  0.74914002  1
  O2-  O236  1  0.16597614  0.91948419  0.00139803  1
  O2-  O237  1  0.16448276  0.92126583  0.24989317  1
  O2-  O238  1  0.16775712  0.92066047  0.49882970  1
  O2-  O239  1  0.16942999  0.91858083  0.75065665  1
  O2-  O240  1  0.66795478  0.25360221  -0.00009883  1
  O2-  O241  1  0.66850877  0.25213866  0.25137471  1
  O2-  O242  1  0.66564976  0.25373496  0.49934056  1
  O2-  O243  1  0.66838522  0.25151177  0.74965036  1
  O2-  O244  1  0.66730584  0.58578045  0.00040673  1
  O2-  O245  1  0.66673981  0.58561670  0.24952561  1
  O2-  O246  1  0.66753644  0.58648755  0.50080204  1
  O2-  O247  1  0.66707315  0.58739772  0.75017051  1
  O2-  O248  1  0.66448487  0.92028876  -0.00161205  1
  O2-  O249  1  0.66876590  0.91867372  0.24949094  1
  O2-  O250  1  0.66538471  0.92119430  0.50073284  1
  O2-  O251  1  0.66643573  0.92209050  0.75027559  1
  O2-  O252  1  0.33240818  0.08019720  0.00208736  1
  O2-  O253  1  0.33248830  0.07978968  0.24995381  1
  O2-  O254  1  0.33290524  0.07961387  0.49982960  1
  O2-  O255  1  0.33258932  0.08116237  0.74928385  1
  O2-  O256  1  0.33122582  0.41396936  0.00030383  1
  O2-  O257  1  0.33348883  0.41326181  0.24883889  1
  O2-  O258  1  0.33371687  0.41451880  0.50009852  1
  O2-  O259  1  0.33147610  0.41289956  0.74957528  1
  O2-  O260  1  0.33238394  0.74664477  0.00044732  1
  O2-  O261  1  0.33248720  0.74644412  0.24940371  1
  O2-  O262  1  0.33416441  0.74912634  0.49976531  1
  O2-  O263  1  0.33350780  0.74893087  0.74997953  1
  O2-  O264  1  0.83365741  0.08182919  -0.00088245  1
  O2-  O265  1  0.83386686  0.08220261  0.24969915  1
  O2-  O266  1  0.83326581  0.07990082  0.49990420  1
  O2-  O267  1  0.83072781  0.08092880  0.75104001  1
  O2-  O268  1  0.83192903  0.41515699  0.00070832  1
  O2-  O269  1  0.83346410  0.41479827  0.24960345  1
  O2-  O270  1  0.83391332  0.41254830  0.49905687  1
  O2-  O271  1  0.83141107  0.41258703  0.74974871  1
  O2-  O272  1  0.83286245  0.74637787  -0.00041575  1
  O2-  O273  1  0.83299438  0.74905575  0.25081215  1
  O2-  O274  1  0.83269104  0.74562407  0.50126582  1
  O2-  O275  1  0.83395684  0.74600465  0.75041553  1
  O2-  O276  1  0.45410432  0.43423003  0.98735124  1
  O2-  O277  1  0.46125764  0.89083656  0.72040282  1
  O2-  O278  1  0.04517567  0.09844637  0.26943664  1
  O2-  O279  1  0.95521580  0.90048443  0.98558745  1
  O2-  O280  1  0.45512318  0.09947682  0.26408958  1
  O2-  O281  1  0.04891319  0.09641694  0.51140693  1
  O2-  O282  1  0.04634562  0.23881490  0.98811101  1
  O2-  O283  1  0.95163758  0.76434810  0.76497727  1
  O2-  O284  1  0.54709280  0.90412334  0.98089732  1
  O2-  O285  1  0.95531819  0.23511804  0.72853900  1
  O2-  O286  1  0.04313003  0.43977132  0.22268826  1
  O2-  O287  1  0.04767841  0.09767938  0.76021500  1
  O2-  O288  1  0.96031771  0.56184007  0.97314178  1
  O2-  O289  1  0.54570713  0.90476491  0.02010013  1
  O2-  O290  1  0.04584453  0.43087977  0.98525522  1
  O2-  O291  1  0.04551779  0.09659189  0.01633462  1
  O2-  O292  1  0.03729351  0.88955170  0.74334987  1
  O2-  O293  1  0.54732956  0.90362917  0.51649726  1
  O2-  O294  1  0.54876789  0.23498614  0.01565843  1
  O2-  O295  1  0.95120461  0.43241436  0.23506858  1
  O2-  O296  1  0.95190684  0.23557505  0.76737776  1
  O2-  O297  1  0.55372379  0.41905556  0.78441220  1
  O2-  O298  1  0.96196064  0.44288741  0.47244585  1
  O2-  O299  1  0.04419666  0.90301442  0.23450045  1
  O2-  O300  1  0.54545628  0.56509688  0.26097076  1
  O2-  O301  1  0.94887531  0.08258719  0.54175727  1
  O2-  O302  1  0.96227313  0.21937095  0.49000841  1
  O2-  O303  1  0.45133961  0.90349993  0.26240394  1
  O2-  O304  1  0.04557589  0.09817930  0.22994092  1
  O2-  O305  1  0.03722736  0.88963234  0.75707867  1
  O2-  O306  1  0.54550845  0.56844754  0.01492806  1
  O2-  O307  1  0.54686053  0.76332960  0.98876576  1
  O2-  O308  1  0.44346430  0.42189860  0.69729217  1
  O2-  O309  1  0.55654460  0.75391201  0.45673270  1
  O2-  O310  1  0.55059458  0.09754405  0.76644938  1
  O2-  O311  1  0.45223798  0.23522585  0.98792202  1
  O2-  O312  1  0.04539450  0.23113265  0.52539573  1
  O2-  O313  1  0.95721762  0.44246920  0.75898869  1
  O2-  O314  1  0.04574937  0.76311881  0.26327422  1
  O2-  O315  1  0.45201192  0.09923152  0.48520027  1
  O2-  O316  1  0.53948468  0.88991500  0.21314336  1
  O2-  O317  1  0.55501904  0.41973596  0.47656435  1
  O2-  O318  1  0.95095817  0.42727158  0.73775698  1
  O2-  O319  1  0.45227102  0.90077746  0.51495708  1
  O2-  O320  1  0.04781505  0.43056894  0.76393238  1
  O2-  O321  1  0.54751246  0.09864718  0.51424548  1
  O2-  O322  1  0.45271372  0.10216610  0.76417562  1
  O2-  O323  1  0.03915280  0.77283271  0.02696443  1
  O2-  O324  1  0.93622999  0.06935769  0.03412365  1
  O2-  O325  1  0.93157918  0.60598570  0.04516478  1
  O2-  O326  1  0.56572049  0.59384892  0.77888404  1
  O2-  O327  1  0.55361658  0.41912707  0.78413638  1
  O2-  O328  1  0.56377202  0.73590816  0.21608036  1
  O2-  O329  1  0.93571835  0.73756651  0.46610988  1
  O2-  O330  1  0.07123319  0.26893465  0.46026660  1
  O2-  O331  1  0.56400145  0.26439404  0.21801991  1
  O2-  O332  1  0.93398599  0.07303128  0.72117434  1
  O2-  O333  1  0.07677576  0.93981596  0.69076095  1
  O2-  O334  1  0.93464844  0.26004338  0.97304741  1
  O2-  O335  1  0.06467760  0.59462142  0.27895801  1
  O2-  O336  1  0.43446024  0.73904353  0.97234005  1
  O2-  O337  1  0.06996208  0.73283254  0.96138876  1
  O2-  O338  1  0.07662167  0.94079025  0.80899587  1
  O2-  O339  1  0.43408564  0.92639299  0.97218160  1
  O2-  O340  1  0.56396388  0.40313846  0.96784654  1
  O2-  O341  1  0.92782314  0.06571226  0.43567322  1
  O2-  O342  1  0.55442662  0.41487845  0.47646101  1
  O2-  O343  1  0.56333082  0.07009636  0.21583228  1
  O2-  O344  1  0.42644727  0.39791721  0.81905630  1
  O2-  O345  1  0.43562803  0.59422283  0.52781313  1
  O2-  O346  1  0.93860769  0.73699116  0.78068834  1
  O2-  O347  1  0.93650134  0.59666185  0.53432397  1
  O2-  O348  1  0.54991623  0.75886938  0.46172150  1
  O2-  O349  1  0.56252548  0.26026985  0.03352473  1
  O2-  O350  1  0.94039720  0.09346935  0.53850979  1
  O2-  O351  1  0.43539441  0.07372440  0.97264323  1
  O2-  O352  1  0.57540622  0.73368637  0.57111415  1
  O2-  O353  1  0.07122939  0.40005697  0.28921738  1
  O2-  O354  1  0.57175842  0.94282344  0.30401346  1
  O2-  O355  1  0.56577273  0.59464979  0.47160262  1
  O2-  O356  1  0.42591186  0.93920853  0.79545623  1
  O2-  O357  1  0.93657208  0.59678923  0.28427776  1
  O2-  O358  1  0.92954498  0.39216073  0.55318463  1
  O2-  O359  1  0.06616459  0.59277478  0.79883515  1
  O2-  O360  1  0.06281563  0.59743276  0.69453387  1
  O2-  O361  1  0.93674591  0.73587176  0.21752522  1
  O2-  O362  1  0.57044396  0.40193796  0.69861613  1
  O2-  O363  1  0.93316617  0.92469940  0.79766302  1
  O2-  O364  1  0.43536928  0.26197803  0.47174172  1
  O2-  O365  1  0.92310111  0.27583770  0.46382535  1
  O2-  O366  1  0.93005662  0.40052254  0.77897374  1
  O2-  O367  1  0.56424694  0.26223950  0.78414445  1
  O2-  O368  1  0.93300113  0.92370188  0.70202494  1
  O2-  O369  1  0.45161537  0.42299313  0.71251183  1
  O2-  O370  1  0.56198002  0.06883502  0.78249197  1
  O2-  O371  1  0.93409888  0.40591976  0.97225311  1
  O2-  O372  1  0.24997213  0.00145229  0.15710734  1
  O2-  O373  1  0.74991733  0.66378735  0.15415322  1
  O2-  O374  1  0.24989263  0.00196595  0.65537439  1
  O2-  O375  1  0.75022237  0.34951362  0.58888102  1
  O2-  O376  1  0.75015568  0.66229815  0.64797160  1
  O2-  O377  1  0.74993489  -0.00402634  0.09806574  1
  O2-  O378  1  0.24974807  -0.00303251  0.82868752  1
  O2-  O379  1  0.74994845  0.66861687  0.32100414  1
  O2-  O380  1  0.25020935  0.66841175  0.39791191  1
  O2-  O381  1  0.25001960  0.66729417  0.66782720  1
  O2-  O382  1  0.25017696  0.33648583  0.59428882  1
  O2-  O383  1  0.24994589  0.66681430  0.58225286  1
  O2-  O384  1  0.75013196  0.33095388  0.15641763  1
  O2-  O385  1  0.74998265  0.34041803  0.39426887  1
  O2-  O386  1  0.75035089  0.32157739  0.67374011  1
  O2-  O387  1  0.24977055  0.33579813  0.33100437  1
  O2-  O388  1  0.24978654  0.66618134  0.09750736  1
  O2-  O389  1  0.74995458  -0.00108668  0.34222234  1
  O2-  O390  1  0.24974246  0.33184137  0.41995336  1
  O2-  O391  1  0.75003022  0.01592789  0.66911201  1
  O2-  O392  1  0.24977458  0.00129172  0.92104665  1
  O2-  O393  1  0.75004240  0.66610422  0.41195297  1
  O2-  O394  1  0.75000008  -0.01493545  0.58484409  1
  O2-  O395  1  0.25008895  0.67305742  0.85009175  1
  O2-  O396  1  0.74995058  0.49901646  0.91221067  1
  O2-  O397  1  0.25003655  0.49673476  0.11584562  1
  O2-  O398  1  0.74994577  0.17028578  0.90937731  1
  O2-  O399  1  0.24999909  0.82805112  0.38307339  1
  O2-  O400  1  0.24997676  0.16193080  0.58885144  1
  O2-  O401  1  0.25003591  0.82265477  0.15779288  1
  O2-  O402  1  0.24999166  0.82989808  0.56669131  1
  O2-  O403  1  0.75001490  0.17251995  0.08888235  1
  O2-  O404  1  0.75007498  0.16802857  0.61022742  1
  O2-  O405  1  0.75000767  0.82803879  0.12587193  1
  O2-  O406  1  0.25006476  0.50422441  0.43981951  1
  O2-  O407  1  0.24989588  0.16558612  0.33049397  1
  O2-  O408  1  0.24994314  0.49388548  0.83924870  1
  O2-  O409  1  0.74998715  0.82768629  0.87890097  1
  O2-  O410  1  0.24994581  0.16417530  0.83984937  1
  O2-  O411  1  0.74992970  0.50038786  0.64563272  1
  O2-  O412  1  0.24993025  0.49514277  0.66087656  1
  O2-  O413  1  0.75010382  0.49653078  0.31762578  1
  O2-  O414  1  0.75007734  0.50480810  0.40234516  1
  O2-  O415  1  0.24981393  0.49939411  0.35854284  1
  O2-  O416  1  0.25000117  0.83456559  0.65217759  1
  O2-  O417  1  0.74999340  0.83179689  0.38821425  1
  O2-  O418  1  0.24997066  0.82793687  0.07583767  1
  O2-  O419  1  0.24981375  0.16769559  0.41769556  1
  O2-  O420  1  0.96427829  0.00707837  0.87845695  1
  O2-  O421  1  0.53113990  0.65943735  0.63403539  1
  O2-  O422  1  0.97819082  0.33087389  0.87118467  1
  O2-  O423  1  0.96998300  0.33580709  0.36967757  1
  O2-  O424  1  0.52245346  0.66568404  0.36687209  1
  O2-  O425  1  0.02307813  0.66739899  0.87522288  1
  O2-  O426  1  0.47922314  0.00271862  0.87388947  1
  O2-  O427  1  0.47344867  0.00072627  0.62488425  1
  O2-  O428  1  0.46592065  0.67129011  0.62928275  1
  O2-  O429  1  0.03566886  0.00357940  0.88409391  1
  O2-  O430  1  0.52509910  0.32789540  0.61954119  1
  O2-  O431  1  0.02856976  0.33473158  0.62667453  1
  O2-  O432  1  0.03106558  0.00408485  0.61833574  1
  O2-  O433  1  0.47304240  -0.00127134  0.37690534  1
  O2-  O434  1  0.53585068  0.66951927  0.87839715  1
  O2-  O435  1  0.47424883  0.33543393  0.36918269  1
  O2-  O436  1  0.47207844  0.33376770  0.12596856  1
  O2-  O437  1  0.97268314  -0.00339957  0.62145480  1
  O2-  O438  1  0.47543104  0.32733635  0.87766616  1
  O2-  O439  1  0.02699796  0.33397957  0.37505965  1
  O2-  O440  1  0.47206250  0.66631898  0.12535352  1
  O2-  O441  1  0.46372540  0.66268575  0.86936539  1
  O2-  O442  1  0.02611494  0.66917049  0.38006454  1
  O2-  O443  1  0.97558362  -0.00760141  0.36908854  1
