# generated using pymatgen
data_La7(Ru4O11)2
_symmetry_space_group_name_H-M   'P 1'
_cell_length_a   23.99151061
_cell_length_b   16.83255711
_cell_length_c   15.42715166
_cell_angle_alpha   89.99863018
_cell_angle_beta   90.00157145
_cell_angle_gamma   90.00137077
_symmetry_Int_Tables_number   1
_chemical_formula_structural   La7(Ru4O11)2
_chemical_formula_sum   'La84 Ru96 O264'
_cell_volume   6230.07735659
_cell_formula_units_Z   12
loop_
 _symmetry_equiv_pos_site_id
 _symmetry_equiv_pos_as_xyz
  1  'x, y, z'
loop_
 _atom_type_symbol
 _atom_type_oxidation_number
  La3+  3.0
  Ru4+  4.0
  O2-  -2.0
loop_
 _atom_site_type_symbol
 _atom_site_label
 _atom_site_symmetry_multiplicity
 _atom_site_fract_x
 _atom_site_fract_y
 _atom_site_fract_z
 _atom_site_occupancy
  La3+  La0  1  0.13928985  0.00249603  0.12709937  1
  La3+  La1  1  0.14080299  -0.00075332  0.36832246  1
  La3+  La2  1  0.13620757  0.00118205  0.62876005  1
  La3+  La3  1  0.13832199  0.00221020  0.87402225  1
  La3+  La4  1  0.13505150  0.33359738  0.12943246  1
  La3+  La5  1  0.13685714  0.33436323  0.37496757  1
  La3+  La6  1  0.14111698  0.32969330  0.62172590  1
  La3+  La7  1  0.13625859  0.33057690  0.87135881  1
  La3+  La8  1  0.13301799  0.66514669  0.12755572  1
  La3+  La9  1  0.14003554  0.66924108  0.37148922  1
  La3+  La10  1  0.13431647  0.66369891  0.62766196  1
  La3+  La11  1  0.13773410  0.66413740  0.86970325  1
  La3+  La12  1  0.63509394  0.00267372  0.12381300  1
  La3+  La13  1  0.64348511  0.00318067  0.37817855  1
  La3+  La14  1  0.64203664  0.00196772  0.62359789  1
  La3+  La15  1  0.63730250  0.00080332  0.87657445  1
  La3+  La16  1  0.63842270  0.33701297  0.12507663  1
  La3+  La17  1  0.63977767  0.33741852  0.37320767  1
  La3+  La18  1  0.64129725  0.33304147  0.62541769  1
  La3+  La19  1  0.64308285  0.33420349  0.87325569  1
  La3+  La20  1  0.63513671  0.66268299  0.12610687  1
  La3+  La21  1  0.64076109  0.66226929  0.37393062  1
  La3+  La22  1  0.64152757  0.66377932  0.62317379  1
  La3+  La23  1  0.63940446  0.66382650  0.87601460  1
  La3+  La24  1  0.35941111  0.00447753  0.12609550  1
  La3+  La25  1  0.36924146  0.00978089  0.38246964  1
  La3+  La26  1  0.36819144  0.01282450  0.62289419  1
  La3+  La27  1  0.36176610  0.00452457  0.87281629  1
  La3+  La28  1  0.36181694  0.33095910  0.12819205  1
  La3+  La29  1  0.36293426  0.33075605  0.37745321  1
  La3+  La30  1  0.35862047  0.33180004  0.62056970  1
  La3+  La31  1  0.36392033  0.33152961  0.87267228  1
  La3+  La32  1  0.36886472  0.66819324  0.12809999  1
  La3+  La33  1  0.36020935  0.66592264  0.37104275  1
  La3+  La34  1  0.36564000  0.66408456  0.62695925  1
  La3+  La35  1  0.36185594  0.66556517  0.87135596  1
  La3+  La36  1  0.86130869  0.00337459  0.12390103  1
  La3+  La37  1  0.85454609  0.00236193  0.37851759  1
  La3+  La38  1  0.85669364  0.00163310  0.62253475  1
  La3+  La39  1  0.85985779  0.00178626  0.87232676  1
  La3+  La40  1  0.86040328  0.33573942  0.12298217  1
  La3+  La41  1  0.86021065  0.33728240  0.37545485  1
  La3+  La42  1  0.85928381  0.33164572  0.62540634  1
  La3+  La43  1  0.86008761  0.33234993  0.87581016  1
  La3+  La44  1  0.86529142  0.66187953  0.12628434  1
  La3+  La45  1  0.85788436  0.66243738  0.37578829  1
  La3+  La46  1  0.86014500  0.66543109  0.62563677  1
  La3+  La47  1  0.85849479  0.66118841  0.87678601  1
  La3+  La48  1  0.00484073  0.50398184  0.37756657  1
  La3+  La49  1  0.00513417  0.50166054  0.36030125  1
  La3+  La50  1  0.50050778  0.83642577  0.88584197  1
  La3+  La51  1  0.49374322  0.15902144  0.63421279  1
  La3+  La52  1  0.49460453  0.16207487  0.88133546  1
  La3+  La53  1  0.50060054  0.16377675  0.61502151  1
  La3+  La54  1  0.50010562  0.83964425  0.86924963  1
  La3+  La55  1  -0.00510875  0.49657795  0.62477309  1
  La3+  La56  1  0.49865716  0.50421950  0.89016958  1
  La3+  La57  1  0.49893102  0.83188315  0.11519061  1
  La3+  La58  1  0.00232817  0.16482978  0.36473261  1
  La3+  La59  1  0.00204338  0.16492316  0.63658907  1
  La3+  La60  1  0.00055074  0.83184088  0.88224196  1
  La3+  La61  1  -0.00347948  0.83417713  0.38161279  1
  La3+  La62  1  -0.00113717  0.50181019  0.64563334  1
  La3+  La63  1  0.49907049  0.49786229  0.37847347  1
  La3+  La64  1  0.49960795  0.83458219  0.63075247  1
  La3+  La65  1  0.50446879  0.83866675  0.13480562  1
  La3+  La66  1  0.49816275  0.16386032  0.38138158  1
  La3+  La67  1  0.00150310  0.17291280  0.11476611  1
  La3+  La68  1  0.50720492  0.82473190  0.37520950  1
  La3+  La69  1  -0.00460095  0.17030581  0.38347651  1
  La3+  La70  1  0.01344397  0.84557352  0.11704072  1
  La3+  La71  1  0.50039980  0.50116636  0.62174274  1
  La3+  La72  1  0.24972769  0.45545702  0.25365538  1
  La3+  La73  1  0.75042358  0.88340267  0.50254112  1
  La3+  La74  1  0.74943996  0.88444986  0.25625069  1
  La3+  La75  1  0.24925455  0.81751991  0.49005230  1
  La3+  La76  1  0.24951413  0.85491049  0.05389214  1
  La3+  La77  1  0.74962193  0.86541462  0.77326906  1
  La3+  La78  1  0.25036798  0.48323880  -0.00271846  1
  La3+  La79  1  0.75006703  0.49495217  0.00534639  1
  La3+  La80  1  0.25056693  0.16519244  0.21749273  1
  La3+  La81  1  0.75077033  0.82364344  -0.01337876  1
  La3+  La82  1  0.74949223  0.12334766  0.24965790  1
  La3+  La83  1  0.75028954  0.49979255  0.78140809  1
  Ru4+  Ru84  1  0.00098062  0.00205635  -0.00191774  1
  Ru4+  Ru85  1  -0.00247623  -0.00185267  0.24998871  1
  Ru4+  Ru86  1  -0.00053892  -0.00110862  0.49823145  1
  Ru4+  Ru87  1  -0.00005410  -0.00305714  0.75339146  1
  Ru4+  Ru88  1  -0.00199531  0.33860370  0.00165466  1
  Ru4+  Ru89  1  -0.00290692  0.32903409  0.24389480  1
  Ru4+  Ru90  1  -0.00054793  0.33250574  0.50025188  1
  Ru4+  Ru91  1  -0.00015639  0.33379137  0.75802414  1
  Ru4+  Ru92  1  -0.00186774  0.66065992  0.00638377  1
  Ru4+  Ru93  1  -0.00644303  0.67343309  0.25395125  1
  Ru4+  Ru94  1  -0.00448140  0.66839768  0.50576408  1
  Ru4+  Ru95  1  0.00300228  0.66722035  0.74988927  1
  Ru4+  Ru96  1  0.49715596  0.01234515  0.00460590  1
  Ru4+  Ru97  1  0.49878558  0.00592666  0.25321236  1
  Ru4+  Ru98  1  0.49732317  -0.00054201  0.49953483  1
  Ru4+  Ru99  1  0.50604710  -0.00647792  0.74600000  1
  Ru4+  Ru100  1  0.50008354  0.33284129  -0.00080554  1
  Ru4+  Ru101  1  0.49849837  0.33018905  0.25107825  1
  Ru4+  Ru102  1  0.49976725  0.33253932  0.49734864  1
  Ru4+  Ru103  1  0.50314968  0.33919278  0.75617924  1
  Ru4+  Ru104  1  0.49846526  0.65998667  0.00082308  1
  Ru4+  Ru105  1  0.50211700  0.65696169  0.24923827  1
  Ru4+  Ru106  1  0.49832756  0.66786138  0.49969912  1
  Ru4+  Ru107  1  0.49785614  0.66411286  0.74609783  1
  Ru4+  Ru108  1  0.11292751  0.16474645  -0.00007376  1
  Ru4+  Ru109  1  0.11107741  0.16622857  0.25013512  1
  Ru4+  Ru110  1  0.11212207  0.16963919  0.50081936  1
  Ru4+  Ru111  1  0.11383482  0.16988786  0.75056228  1
  Ru4+  Ru112  1  0.10498164  0.49902463  0.00220169  1
  Ru4+  Ru113  1  0.11642264  0.49999535  0.24842940  1
  Ru4+  Ru114  1  0.11590318  0.49708081  0.49790381  1
  Ru4+  Ru115  1  0.11337525  0.50337890  0.75019381  1
  Ru4+  Ru116  1  0.10989763  0.83660972  -0.00040350  1
  Ru4+  Ru117  1  0.11342434  0.83714914  0.25159943  1
  Ru4+  Ru118  1  0.10819925  0.83474461  0.49942254  1
  Ru4+  Ru119  1  0.11133992  0.83477074  0.75193834  1
  Ru4+  Ru120  1  0.61556963  0.16416585  -0.00097016  1
  Ru4+  Ru121  1  0.60870145  0.16567612  0.25207627  1
  Ru4+  Ru122  1  0.61383067  0.16387937  0.49838887  1
  Ru4+  Ru123  1  0.61561939  0.16857312  0.75207090  1
  Ru4+  Ru124  1  0.60945740  0.49919419  0.00245696  1
  Ru4+  Ru125  1  0.61221027  0.49810127  0.24843680  1
  Ru4+  Ru126  1  0.61597478  0.49898185  0.49947959  1
  Ru4+  Ru127  1  0.61117764  0.49676209  0.74856952  1
  Ru4+  Ru128  1  0.61689689  0.82816221  -0.00050706  1
  Ru4+  Ru129  1  0.61361551  0.83126496  0.25084035  1
  Ru4+  Ru130  1  0.61058225  0.83326076  0.50064401  1
  Ru4+  Ru131  1  0.61031642  0.83751152  0.75027801  1
  Ru4+  Ru132  1  0.38968984  0.16464679  0.00128121  1
  Ru4+  Ru133  1  0.39251101  0.16692237  0.25152309  1
  Ru4+  Ru134  1  0.38852699  0.16910087  0.49745325  1
  Ru4+  Ru135  1  0.38214254  0.17412899  0.74758780  1
  Ru4+  Ru136  1  0.39242331  0.49977166  0.00182171  1
  Ru4+  Ru137  1  0.39125476  0.49875716  0.25092250  1
  Ru4+  Ru138  1  0.38618075  0.49913227  0.49936516  1
  Ru4+  Ru139  1  0.38657729  0.50116454  0.74957113  1
  Ru4+  Ru140  1  0.38673846  0.83527419  -0.00133173  1
  Ru4+  Ru141  1  0.38330497  0.84014450  0.25320795  1
  Ru4+  Ru142  1  0.39239126  0.83517679  0.49984544  1
  Ru4+  Ru143  1  0.38839166  0.83341845  0.74924813  1
  Ru4+  Ru144  1  0.88441105  0.16689187  -0.00123067  1
  Ru4+  Ru145  1  0.88752603  0.16475271  0.25123541  1
  Ru4+  Ru146  1  0.88786047  0.16619020  0.50206024  1
  Ru4+  Ru147  1  0.88713607  0.16933943  0.74947403  1
  Ru4+  Ru148  1  0.89160193  0.49870643  0.00440697  1
  Ru4+  Ru149  1  0.88565013  0.50374221  0.24839879  1
  Ru4+  Ru150  1  0.88583089  0.50051228  0.49966503  1
  Ru4+  Ru151  1  0.88981752  0.50166770  0.75012124  1
  Ru4+  Ru152  1  0.89070657  0.83129768  -0.00211088  1
  Ru4+  Ru153  1  0.89188838  0.83413083  0.25189183  1
  Ru4+  Ru154  1  0.89074459  0.83206666  0.50044033  1
  Ru4+  Ru155  1  0.88915411  0.83586129  0.75101645  1
  Ru4+  Ru156  1  0.24969058  0.76890074  0.24475799  1
  Ru4+  Ru157  1  0.75044383  0.96585503  0.01090926  1
  Ru4+  Ru158  1  0.74974833  0.24510014  0.00165493  1
  Ru4+  Ru159  1  0.25073574  0.98511184  -0.00605382  1
  Ru4+  Ru160  1  0.75011269  0.09553217  0.74216745  1
  Ru4+  Ru161  1  0.24994353  0.23400562  0.00062258  1
  Ru4+  Ru162  1  0.25005621  0.95005218  0.49522815  1
  Ru4+  Ru163  1  0.24923666  0.09667350  0.49979399  1
  Ru4+  Ru164  1  0.75041394  0.68172629  0.01531574  1
  Ru4+  Ru165  1  0.24948658  0.35666639  -0.04273568  1
  Ru4+  Ru166  1  0.24924844  0.73707161  -0.01708876  1
  Ru4+  Ru167  1  0.74975785  0.24145828  0.49311450  1
  Ru4+  Ru168  1  0.25061618  0.59040236  0.23719296  1
  Ru4+  Ru169  1  0.25055799  0.69073237  0.54561643  1
  Ru4+  Ru170  1  0.75030873  0.73145661  0.23396129  1
  Ru4+  Ru171  1  0.74984713  0.72288068  0.74169618  1
  Ru4+  Ru172  1  0.25011614  0.75697561  0.75665969  1
  Ru4+  Ru173  1  0.24965673  0.42268055  0.75455199  1
  Ru4+  Ru174  1  0.25055143  0.90294533  0.76581408  1
  Ru4+  Ru175  1  0.74995234  0.27517931  0.25192736  1
  Ru4+  Ru176  1  0.25005864  0.56103580  0.50026549  1
  Ru4+  Ru177  1  0.24978165  0.61176177  0.02246082  1
  Ru4+  Ru178  1  0.74979165  0.73382821  0.50853560  1
  Ru4+  Ru179  1  0.25030539  0.08972256  0.75820515  1
  O2-  O180  1  0.16571097  0.07989198  -0.00010854  1
  O2-  O181  1  0.16468138  0.08050934  0.24770805  1
  O2-  O182  1  0.16490647  0.07931091  0.49954479  1
  O2-  O183  1  0.16580535  0.08048861  0.75051831  1
  O2-  O184  1  0.16558417  0.41278510  -0.00077413  1
  O2-  O185  1  0.16401814  0.41062851  0.25105884  1
  O2-  O186  1  0.16793262  0.41434424  0.49895586  1
  O2-  O187  1  0.16542595  0.41291139  0.74955218  1
  O2-  O188  1  0.16524087  0.74461114  0.00192672  1
  O2-  O189  1  0.16506906  0.74901240  0.24466205  1
  O2-  O190  1  0.16461189  0.74528614  0.50135955  1
  O2-  O191  1  0.16742178  0.74745161  0.75009204  1
  O2-  O192  1  0.66417277  0.08210314  0.00099182  1
  O2-  O193  1  0.66280990  0.07776340  0.24762196  1
  O2-  O194  1  0.66601073  0.08426742  0.50161829  1
  O2-  O195  1  0.66752881  0.08105691  0.75024572  1
  O2-  O196  1  0.67048080  0.41669408  0.00082224  1
  O2-  O197  1  0.66792539  0.41590279  0.25295992  1
  O2-  O198  1  0.66618774  0.41260445  0.49911092  1
  O2-  O199  1  0.67248678  0.41535938  0.75169165  1
  O2-  O200  1  0.66943740  0.74156946  0.00033513  1
  O2-  O201  1  0.66889651  0.74722239  0.24901653  1
  O2-  O202  1  0.66643844  0.74652354  0.50000972  1
  O2-  O203  1  0.66727108  0.74411433  0.75125983  1
  O2-  O204  1  0.33443991  0.25068305  -0.00005165  1
  O2-  O205  1  0.33399667  0.25231722  0.25143044  1
  O2-  O206  1  0.33355471  0.25294352  0.50174636  1
  O2-  O207  1  0.33334021  0.25572121  0.74820670  1
  O2-  O208  1  0.33594782  0.58820220  0.00226389  1
  O2-  O209  1  0.33517706  0.58639348  0.24664027  1
  O2-  O210  1  0.33236053  0.58337824  0.49920107  1
  O2-  O211  1  0.33546013  0.58621032  0.74931196  1
  O2-  O212  1  0.33105489  0.92143659  0.00261621  1
  O2-  O213  1  0.33418212  0.91844164  0.24898154  1
  O2-  O214  1  0.33404074  0.92297229  0.49813853  1
  O2-  O215  1  0.33436055  0.91750641  0.75074556  1
  O2-  O216  1  0.83282711  0.25160566  0.00127715  1
  O2-  O217  1  0.83313526  0.25420656  0.25124935  1
  O2-  O218  1  0.82894443  0.25386979  0.49944160  1
  O2-  O219  1  0.83503953  0.25337374  0.74965052  1
  O2-  O220  1  0.82888700  0.58357444  0.00239789  1
  O2-  O221  1  0.83204767  0.58287816  0.24729804  1
  O2-  O222  1  0.83715790  0.58446418  0.50189458  1
  O2-  O223  1  0.83173571  0.58396823  0.74936582  1
  O2-  O224  1  0.83541773  0.92043386  0.00054345  1
  O2-  O225  1  0.83795731  0.92145183  0.24448684  1
  O2-  O226  1  0.84143259  0.92104197  0.50244582  1
  O2-  O227  1  0.83669631  0.91967269  0.74805629  1
  O2-  O228  1  0.16515489  0.25243163  -0.00069012  1
  O2-  O229  1  0.16841350  0.25297118  0.25233645  1
  O2-  O230  1  0.16678879  0.25361975  0.49904698  1
  O2-  O231  1  0.16715459  0.25275141  0.74968446  1
  O2-  O232  1  0.16324400  0.58783263  0.00146590  1
  O2-  O233  1  0.16652058  0.58748507  0.24628022  1
  O2-  O234  1  0.16723156  0.58493939  0.50262465  1
  O2-  O235  1  0.16818906  0.58625434  0.74866366  1
  O2-  O236  1  0.16593017  0.92100790  0.00005034  1
  O2-  O237  1  0.16642672  0.91715338  0.24615226  1
  O2-  O238  1  0.16407526  0.92171365  0.50027788  1
  O2-  O239  1  0.16759556  0.91816983  0.75099650  1
  O2-  O240  1  0.67032855  0.25193497  0.00265680  1
  O2-  O241  1  0.66697163  0.25372789  0.25204015  1
  O2-  O242  1  0.66828565  0.25290278  0.49841840  1
  O2-  O243  1  0.66503029  0.25300933  0.74986077  1
  O2-  O244  1  0.67105724  0.58488636  -0.00113132  1
  O2-  O245  1  0.66360027  0.58399187  0.24864157  1
  O2-  O246  1  0.66376990  0.58577793  0.50050834  1
  O2-  O247  1  0.66704966  0.58548774  0.75174520  1
  O2-  O248  1  0.66633124  0.92211888  -0.00050459  1
  O2-  O249  1  0.66038961  0.92457026  0.24812829  1
  O2-  O250  1  0.66059639  0.92173315  0.50038200  1
  O2-  O251  1  0.66364655  0.92094358  0.74945295  1
  O2-  O252  1  0.33201985  0.08156059  0.00203623  1
  O2-  O253  1  0.33547639  0.08211608  0.25048456  1
  O2-  O254  1  0.33377356  0.08165418  0.49875344  1
  O2-  O255  1  0.33257761  0.08134782  0.75031156  1
  O2-  O256  1  0.33590666  0.41156548  0.00101668  1
  O2-  O257  1  0.33437904  0.41160506  0.25036581  1
  O2-  O258  1  0.33327836  0.41327153  0.49866478  1
  O2-  O259  1  0.33298668  0.41307009  0.74931696  1
  O2-  O260  1  0.33366564  0.74571041  0.00180505  1
  O2-  O261  1  0.33334608  0.74925568  0.24709627  1
  O2-  O262  1  0.33276298  0.74670934  0.50246264  1
  O2-  O263  1  0.32997559  0.74621922  0.75218523  1
  O2-  O264  1  0.83186946  0.08291714  0.00227903  1
  O2-  O265  1  0.83625958  0.07699681  0.24785145  1
  O2-  O266  1  0.83726955  0.08375020  0.50157252  1
  O2-  O267  1  0.83507030  0.08152853  0.74953827  1
  O2-  O268  1  0.83103752  0.41690364  0.00009143  1
  O2-  O269  1  0.83669072  0.41478697  0.25209615  1
  O2-  O270  1  0.83563072  0.41108213  0.50037923  1
  O2-  O271  1  0.83151945  0.41204969  0.75087027  1
  O2-  O272  1  0.82957464  0.74414497  0.00371920  1
  O2-  O273  1  0.83156409  0.74932700  0.24597793  1
  O2-  O274  1  0.83197081  0.74719560  0.50159070  1
  O2-  O275  1  0.82913588  0.74748075  0.74979906  1
  O2-  O276  1  0.46505888  0.78109758  0.51568290  1
  O2-  O277  1  0.54385208  0.23115743  0.76169963  1
  O2-  O278  1  0.45525933  0.10548967  0.50613990  1
  O2-  O279  1  0.45231728  0.76229778  0.27222613  1
  O2-  O280  1  0.95462112  0.43112998  0.76239709  1
  O2-  O281  1  0.45392801  0.09244841  0.23806556  1
  O2-  O282  1  0.96326153  0.77464906  0.74894059  1
  O2-  O283  1  0.55063857  0.23669093  0.26675874  1
  O2-  O284  1  0.54457025  0.56695157  0.23731346  1
  O2-  O285  1  0.45134477  0.57123176  0.01224427  1
  O2-  O286  1  0.45185230  0.76208282  0.23310629  1
  O2-  O287  1  0.45620014  0.90243309  0.44827449  1
  O2-  O288  1  0.04502574  0.09820042  0.50274616  1
  O2-  O289  1  0.45357388  0.09984272  0.76162358  1
  O2-  O290  1  0.54232833  0.45746957  0.78675897  1
  O2-  O291  1  0.04925451  0.42833602  0.26601101  1
  O2-  O292  1  0.54997485  0.90512633  0.26618229  1
  O2-  O293  1  0.04469118  0.09867479  0.49941514  1
  O2-  O294  1  0.44593291  0.09061653  0.48787276  1
  O2-  O295  1  0.04868071  0.57111713  0.26162796  1
  O2-  O296  1  0.96739076  0.76767043  0.20533898  1
  O2-  O297  1  0.46751299  0.10886575  0.04532330  1
  O2-  O298  1  0.05369314  0.76687788  0.76710101  1
  O2-  O299  1  0.95254416  0.23668846  0.73574317  1
  O2-  O300  1  0.55035474  0.42605620  0.50751025  1
  O2-  O301  1  0.53906730  0.21763346  1.00404031  1
  O2-  O302  1  0.54512540  0.76366870  0.76156398  1
  O2-  O303  1  0.44952335  0.90842978  0.26489988  1
  O2-  O304  1  0.44986563  0.42989905  0.51405283  1
  O2-  O305  1  0.95317760  0.23427738  0.23531134  1
  O2-  O306  1  0.04756147  0.57216410  0.01423076  1
  O2-  O307  1  0.45420580  0.56905986  0.73907515  1
  O2-  O308  1  0.05317338  0.75729001  0.00977215  1
  O2-  O309  1  0.96142721  0.90021110  0.20993112  1
  O2-  O310  1  0.54553641  0.57124786  0.49169963  1
  O2-  O311  1  0.95189092  0.90831135  0.76012297  1
  O2-  O312  1  0.96132607  0.11513716  0.98954852  1
  O2-  O313  1  0.54921629  0.90544289  0.51336806  1
  O2-  O314  1  0.55413510  0.75531414  0.51938195  1
  O2-  O315  1  0.05271695  0.09621510  0.01078291  1
  O2-  O316  1  0.45057500  0.23826907  0.23900336  1
  O2-  O317  1  0.44843395  0.42789038  0.75879808  1
  O2-  O318  1  0.04726687  0.76633905  0.48549567  1
  O2-  O319  1  0.45304948  0.42703493  0.99014522  1
  O2-  O320  1  0.04991724  0.56871771  0.54154896  1
  O2-  O321  1  0.44553797  0.24165933  0.00972558  1
  O2-  O322  1  0.54269132  0.90129772  0.98907811  1
  O2-  O323  1  0.95839695  0.77813295  0.03932664  1
  O2-  O324  1  0.56219551  0.74015431  0.03004357  1
  O2-  O325  1  0.92803097  0.93739683  0.32065759  1
  O2-  O326  1  0.06270645  0.26486481  0.78015330  1
  O2-  O327  1  0.06174221  0.59900321  0.27546933  1
  O2-  O328  1  0.92052796  0.73188483  0.94157836  1
  O2-  O329  1  0.43512266  0.58925664  0.52585993  1
  O2-  O330  1  0.06598668  0.92931571  0.78540263  1
  O2-  O331  1  0.43323597  0.74267582  0.72617511  1
  O2-  O332  1  0.06214258  0.26354098  0.53854419  1
  O2-  O333  1  0.06541591  0.25694419  0.22644734  1
  O2-  O334  1  0.93724255  0.59400597  0.21654911  1
  O2-  O335  1  0.56556284  0.41107236  0.02474006  1
  O2-  O336  1  0.57963836  0.27090689  0.96797012  1
  O2-  O337  1  0.43547346  0.26018693  0.47554336  1
  O2-  O338  1  0.93679166  0.26246913  0.53403920  1
  O2-  O339  1  0.06237776  0.92992922  0.28357514  1
  O2-  O340  1  0.06461910  0.40432086  0.02023848  1
  O2-  O341  1  0.43324027  0.07224831  0.54203401  1
  O2-  O342  1  0.57717637  0.39167806  0.69627495  1
  O2-  O343  1  0.42403740  0.06670317  0.94982513  1
  O2-  O344  1  0.92137095  0.73387253  0.30718298  1
  O2-  O345  1  0.43628361  0.40993513  0.27458775  1
  O2-  O346  1  0.06349170  0.59061897  0.77317254  1
  O2-  O347  1  0.56341135  0.06916744  0.28424248  1
  O2-  O348  1  0.06025071  0.40623470  0.29198825  1
  O2-  O349  1  0.43480044  0.92905630  0.07568018  1
  O2-  O350  1  0.93694108  0.25955429  0.03466763  1
  O2-  O351  1  0.06078755  0.07240392  0.71537185  1
  O2-  O352  1  0.07056632  0.60448778  0.41442397  1
  O2-  O353  1  0.93959555  0.07622888  0.28202662  1
  O2-  O354  1  0.06127396  0.40708054  0.46400003  1
  O2-  O355  1  0.05675162  0.57021771  0.54701616  1
  O2-  O356  1  0.56248870  0.06778018  0.46626831  1
  O2-  O357  1  0.93546383  0.40999569  0.03191796  1
  O2-  O358  1  0.42273897  0.71291507  0.44698858  1
  O2-  O359  1  0.43691385  0.74352821  0.97136605  1
  O2-  O360  1  0.56498931  0.73639174  0.21561705  1
  O2-  O361  1  0.93555978  0.59463694  0.03239517  1
  O2-  O362  1  0.42806757  0.90919898  0.93348080  1
  O2-  O363  1  0.56423914  0.40561605  0.23027032  1
  O2-  O364  1  0.43371839  0.07929638  0.77071131  1
  O2-  O365  1  0.92204199  0.05567782  0.97186896  1
  O2-  O366  1  0.92068966  0.72360764  0.77893203  1
  O2-  O367  1  0.42784004  0.93328037  0.56936441  1
  O2-  O368  1  0.56446678  0.59361561  0.03050457  1
  O2-  O369  1  0.56232078  0.91705794  0.97162382  1
  O2-  O370  1  0.93590722  0.74215905  0.47369241  1
  O2-  O371  1  0.56692992  0.07522710  0.72004181  1
  O2-  O372  1  0.24956924  0.67814943  0.14884045  1
  O2-  O373  1  0.74937314  0.02181076  0.90666495  1
  O2-  O374  1  0.25114358  0.02268166  0.39955196  1
  O2-  O375  1  0.75024466  0.33390052  0.90814149  1
  O2-  O376  1  0.75039872  0.00927462  0.12236149  1
  O2-  O377  1  0.75047535  0.00206133  0.58164712  1
  O2-  O378  1  0.25039418  0.67943276  0.30958110  1
  O2-  O379  1  0.25007458  -0.00849319  0.70016804  1
  O2-  O380  1  0.75012234  -0.00269001  0.81901064  1
  O2-  O381  1  0.75015517  0.33653815  0.14976029  1
  O2-  O382  1  0.74969087  -0.00554163  0.39443575  1
  O2-  O383  1  0.75006627  0.65527778  0.31160664  1
  O2-  O384  1  0.74985443  0.65415912  0.43461953  1
  O2-  O385  1  0.24960490  0.00229799  0.11519442  1
  O2-  O386  1  0.25027459  0.33357919  0.18479372  1
  O2-  O387  1  0.24923047  0.00593991  0.87150849  1
  O2-  O388  1  0.24989333  0.00023921  0.31379342  1
  O2-  O389  1  0.74946769  0.65979606  0.88760137  1
  O2-  O390  1  0.25019001  0.02207641  0.58742342  1
  O2-  O391  1  0.25007189  0.65222852  0.42831295  1
  O2-  O392  1  0.74932484  0.66283823  0.60777283  1
  O2-  O393  1  0.25035891  0.32425410  0.09119519  1
  O2-  O394  1  0.75016046  -0.00482792  0.67307572  1
  O2-  O395  1  0.24983300  0.66782576  0.87831850  1
  O2-  O396  1  0.24999311  0.83453023  0.87598336  1
  O2-  O397  1  0.25014451  0.15778343  0.91702497  1
  O2-  O398  1  0.24977950  0.16276289  0.08517037  1
  O2-  O399  1  0.75019501  0.16511437  0.65764378  1
  O2-  O400  1  0.74998698  0.50006659  0.64830304  1
  O2-  O401  1  0.24984255  0.83115022  0.34062554  1
  O2-  O402  1  0.25007230  0.16706858  0.35008152  1
  O2-  O403  1  0.75020571  0.49803874  0.40650490  1
  O2-  O404  1  0.24997915  0.49383680  0.84317004  1
  O2-  O405  1  0.75008289  0.18049344  0.11363190  1
  O2-  O406  1  0.75010280  0.18662944  0.38506121  1
  O2-  O407  1  0.75008181  0.81363926  0.37752167  1
  O2-  O408  1  0.75043316  0.49928138  0.56510598  1
  O2-  O409  1  0.25046964  0.16935019  0.67202031  1
  O2-  O410  1  0.74981947  0.82115775  0.63816164  1
  O2-  O411  1  0.74979198  0.17359181  0.83372735  1
  O2-  O412  1  0.25010318  0.17783341  0.83159078  1
  O2-  O413  1  0.24995057  0.50649513  0.67025511  1
  O2-  O414  1  0.24980524  0.83288367  0.65860270  1
  O2-  O415  1  0.25017004  0.17580447  0.58431991  1
  O2-  O416  1  0.74985157  0.16324528  0.92105732  1
  O2-  O417  1  0.74984594  0.81801591  0.12886672  1
  O2-  O418  1  0.25020430  0.18721621  0.43377650  1
  O2-  O419  1  0.24971289  0.48751667  0.58445625  1
  O2-  O420  1  0.45513198  0.32337895  0.87245387  1
  O2-  O421  1  0.97304066  0.33264249  0.88196127  1
  O2-  O422  1  0.52554286  -0.00344788  0.62374201  1
  O2-  O423  1  0.53042530  -0.00166102  0.12297136  1
  O2-  O424  1  0.97593111  0.65022014  0.87288383  1
  O2-  O425  1  0.54559822  0.00890254  0.86435858  1
  O2-  O426  1  0.47023080  -0.00992838  0.86252220  1
  O2-  O427  1  0.02194717  0.32968097  0.12398353  1
  O2-  O428  1  0.46791558  0.33646895  0.12387961  1
  O2-  O429  1  0.96940784  0.33298673  0.37247238  1
  O2-  O430  1  0.48112718  0.66919431  0.62400674  1
  O2-  O431  1  0.97762945  0.64860312  0.38096219  1
  O2-  O432  1  0.51970310  0.31855142  0.61980214  1
  O2-  O433  1  0.04149500  0.67981541  0.63777296  1
  O2-  O434  1  0.52791093  0.66879135  0.37252475  1
  O2-  O435  1  0.97811139  -0.00260283  0.87384964  1
  O2-  O436  1  0.48105361  0.33436162  0.37316455  1
  O2-  O437  1  0.52625547  0.32435829  0.12264966  1
  O2-  O438  1  0.03134161  0.67411338  0.87822937  1
  O2-  O439  1  0.47838704  0.66299030  0.87121134  1
  O2-  O440  1  0.53796774  0.33976019  0.87130182  1
  O2-  O441  1  0.02888683  -0.00133299  0.12528508  1
  O2-  O442  1  0.47309144  0.66814560  0.12669208  1
  O2-  O443  1  0.95463642  0.66213134  0.62572425  1
