# generated using pymatgen
data_La7(Ru4O11)2
_symmetry_space_group_name_H-M   'P 1'
_cell_length_a   23.99417590
_cell_length_b   16.83649351
_cell_length_c   15.43030705
_cell_angle_alpha   90.00157645
_cell_angle_beta   89.99950104
_cell_angle_gamma   90.00204806
_symmetry_Int_Tables_number   1
_chemical_formula_structural   La7(Ru4O11)2
_chemical_formula_sum   'La84 Ru96 O264'
_cell_volume   6233.50128993
_cell_formula_units_Z   12
loop_
 _symmetry_equiv_pos_site_id
 _symmetry_equiv_pos_as_xyz
  1  'x, y, z'
loop_
 _atom_type_symbol
 _atom_type_oxidation_number
  La3+  3.0
  Ru4+  4.0
  O2-  -2.0
loop_
 _atom_site_type_symbol
 _atom_site_label
 _atom_site_symmetry_multiplicity
 _atom_site_fract_x
 _atom_site_fract_y
 _atom_site_fract_z
 _atom_site_occupancy
  La3+  La0  1  0.14194078  -0.00496575  0.13187286  1
  La3+  La1  1  0.13909147  0.00165049  0.37629796  1
  La3+  La2  1  0.13431428  0.00020090  0.61814143  1
  La3+  La3  1  0.13632950  -0.00611873  0.87695618  1
  La3+  La4  1  0.12621617  0.32686101  0.12788344  1
  La3+  La5  1  0.15171683  0.33221266  0.36681700  1
  La3+  La6  1  0.13119743  0.33114936  0.62227275  1
  La3+  La7  1  0.13094786  0.32852153  0.89056460  1
  La3+  La8  1  0.12812970  0.65560654  0.13755747  1
  La3+  La9  1  0.12745945  0.65541264  0.35972591  1
  La3+  La10  1  0.13921938  0.66804784  0.62519476  1
  La3+  La11  1  0.13614971  0.67154675  0.87377742  1
  La3+  La12  1  0.64285070  -0.00136687  0.12395422  1
  La3+  La13  1  0.64181873  0.00438283  0.37483382  1
  La3+  La14  1  0.63573075  -0.00216453  0.62543244  1
  La3+  La15  1  0.63742116  -0.00217751  0.88145624  1
  La3+  La16  1  0.63541878  0.33267228  0.11810555  1
  La3+  La17  1  0.63968278  0.33119403  0.36748347  1
  La3+  La18  1  0.63939981  0.33014227  0.62750062  1
  La3+  La19  1  0.63826406  0.33085916  0.87948504  1
  La3+  La20  1  0.63567055  0.67123280  0.11877309  1
  La3+  La21  1  0.64571106  0.67039626  0.37815041  1
  La3+  La22  1  0.64918062  0.67317925  0.63350568  1
  La3+  La23  1  0.64134413  0.67602730  0.87544727  1
  La3+  La24  1  0.36501139  -0.00079479  0.13509836  1
  La3+  La25  1  0.35945175  0.00211061  0.36573450  1
  La3+  La26  1  0.36815982  0.00072923  0.62440195  1
  La3+  La27  1  0.36198394  -0.00067728  0.87397443  1
  La3+  La28  1  0.36174827  0.33436855  0.13545272  1
  La3+  La29  1  0.34342642  0.33028758  0.37089785  1
  La3+  La30  1  0.36576053  0.33243086  0.61873207  1
  La3+  La31  1  0.36384572  0.33273079  0.87794971  1
  La3+  La32  1  0.36544329  0.66838755  0.12929864  1
  La3+  La33  1  0.35855849  0.66703489  0.37218009  1
  La3+  La34  1  0.36098804  0.66941344  0.62605677  1
  La3+  La35  1  0.36512213  0.67143227  0.86811720  1
  La3+  La36  1  0.86085787  0.00485814  0.12239565  1
  La3+  La37  1  0.85996198  0.00187265  0.37152686  1
  La3+  La38  1  0.86194570  0.00007266  0.62574727  1
  La3+  La39  1  0.86293187  -0.00366966  0.87895659  1
  La3+  La40  1  0.86531349  0.32567881  0.12255939  1
  La3+  La41  1  0.86050195  0.33197670  0.36990779  1
  La3+  La42  1  0.85306837  0.33424581  0.62889370  1
  La3+  La43  1  0.85709045  0.32855816  0.87994623  1
  La3+  La44  1  0.85957356  0.67185032  0.12469609  1
  La3+  La45  1  0.85702871  0.66936660  0.38083724  1
  La3+  La46  1  0.84932791  0.66988357  0.63181436  1
  La3+  La47  1  0.85394673  0.67001249  0.87005669  1
  La3+  La48  1  0.50107926  0.50093251  0.36327674  1
  La3+  La49  1  0.50042612  0.82595836  0.36200558  1
  La3+  La50  1  0.00259762  0.15204205  0.35867585  1
  La3+  La51  1  0.00358378  0.50559575  0.37747243  1
  La3+  La52  1  0.50971777  0.51355622  0.63580728  1
  La3+  La53  1  -0.00105047  0.16978774  0.60688985  1
  La3+  La54  1  0.00802025  0.51510683  0.86302319  1
  La3+  La55  1  0.49505076  0.49976825  0.38377269  1
  La3+  La56  1  0.00563449  0.49420966  0.35883635  1
  La3+  La57  1  0.50320366  0.16901426  0.86970301  1
  La3+  La58  1  -0.00279047  0.83178000  0.63362916  1
  La3+  La59  1  0.49722495  0.83306998  0.38144189  1
  La3+  La60  1  -0.00190135  0.83610700  0.09797451  1
  La3+  La61  1  0.50026548  0.50176338  0.86988392  1
  La3+  La62  1  -0.00364619  0.17891704  0.12795099  1
  La3+  La63  1  0.00027124  0.17710545  0.88332816  1
  La3+  La64  1  0.49815146  0.16314578  0.62300546  1
  La3+  La65  1  -0.00005182  0.50028000  0.62181264  1
  La3+  La66  1  0.00320466  0.18338014  0.86863054  1
  La3+  La67  1  0.00667385  0.51366638  0.13406918  1
  La3+  La68  1  0.50077201  0.17496709  0.38385690  1
  La3+  La69  1  0.50082911  0.83174150  0.88363624  1
  La3+  La70  1  0.00365801  0.17090456  0.11038225  1
  La3+  La71  1  0.49977035  0.49096403  0.12765943  1
  La3+  La72  1  0.75026816  0.46977180  -0.03921706  1
  La3+  La73  1  0.25060322  0.16245780  0.23596558  1
  La3+  La74  1  0.25003155  0.80346886  0.50471890  1
  La3+  La75  1  0.25079307  0.20239811  0.76108169  1
  La3+  La76  1  0.74860842  0.53555657  0.25418748  1
  La3+  La77  1  0.24931282  0.19600524  -0.04076660  1
  La3+  La78  1  0.24930720  0.48677965  0.50091519  1
  La3+  La79  1  0.24595447  0.78438942  0.04284508  1
  La3+  La80  1  0.24972243  0.52820488  -0.01339257  1
  La3+  La81  1  0.74862259  0.16873092  0.50223150  1
  La3+  La82  1  0.74840436  0.17456166  -0.01987231  1
  La3+  La83  1  0.74685864  0.89131028  0.24514824  1
  Ru4+  Ru84  1  -0.00206386  -0.00328242  0.00051752  1
  Ru4+  Ru85  1  0.00770529  -0.00462901  0.24843103  1
  Ru4+  Ru86  1  0.00094975  -0.00918418  0.49184285  1
  Ru4+  Ru87  1  -0.00156791  0.00018189  0.75441157  1
  Ru4+  Ru88  1  0.00639683  0.34463216  0.00049030  1
  Ru4+  Ru89  1  0.00229048  0.33572012  0.26272137  1
  Ru4+  Ru90  1  -0.00593749  0.32585968  0.48996436  1
  Ru4+  Ru91  1  0.00181444  0.33569872  0.73618275  1
  Ru4+  Ru92  1  -0.00091697  0.66668717  0.00307730  1
  Ru4+  Ru93  1  0.00147543  0.67176519  0.25286486  1
  Ru4+  Ru94  1  0.00287198  0.67365587  0.49773117  1
  Ru4+  Ru95  1  -0.00082007  0.66980981  0.75421057  1
  Ru4+  Ru96  1  0.50353327  0.00970518  0.00756597  1
  Ru4+  Ru97  1  0.50073590  -0.00766785  0.23706269  1
  Ru4+  Ru98  1  0.50130499  -0.00417843  0.50453571  1
  Ru4+  Ru99  1  0.49456418  -0.01236420  0.74218622  1
  Ru4+  Ru100  1  0.50324979  0.32769316  0.00077061  1
  Ru4+  Ru101  1  0.49665200  0.32307538  0.25794316  1
  Ru4+  Ru102  1  0.49791493  0.33432089  0.49421051  1
  Ru4+  Ru103  1  0.50801738  0.33409091  0.74619390  1
  Ru4+  Ru104  1  0.49296497  0.66674354  0.00992556  1
  Ru4+  Ru105  1  0.50163891  0.66787369  0.25828427  1
  Ru4+  Ru106  1  0.49787831  0.66814755  0.49209918  1
  Ru4+  Ru107  1  0.49383814  0.66792896  0.74367262  1
  Ru4+  Ru108  1  0.11395492  0.16502774  -0.00206297  1
  Ru4+  Ru109  1  0.11712003  0.15934464  0.24960111  1
  Ru4+  Ru110  1  0.11662190  0.17507458  0.49951322  1
  Ru4+  Ru111  1  0.11018745  0.16730524  0.75406943  1
  Ru4+  Ru112  1  0.10928672  0.49602442  0.00638010  1
  Ru4+  Ru113  1  0.11663977  0.50259453  0.24524183  1
  Ru4+  Ru114  1  0.11225236  0.50559772  0.49950651  1
  Ru4+  Ru115  1  0.11291058  0.50418588  0.74784466  1
  Ru4+  Ru116  1  0.10670306  0.83155663  -0.00412927  1
  Ru4+  Ru117  1  0.11558781  0.83694955  0.25625960  1
  Ru4+  Ru118  1  0.10815442  0.83265389  0.49613588  1
  Ru4+  Ru119  1  0.11190164  0.83070374  0.75029013  1
  Ru4+  Ru120  1  0.60852280  0.16040561  0.00691094  1
  Ru4+  Ru121  1  0.61639540  0.16954601  0.24865948  1
  Ru4+  Ru122  1  0.60813510  0.16776654  0.50113686  1
  Ru4+  Ru123  1  0.61463013  0.16451104  0.75195656  1
  Ru4+  Ru124  1  0.61949686  0.50402010  0.00042154  1
  Ru4+  Ru125  1  0.60961719  0.50341517  0.25027349  1
  Ru4+  Ru126  1  0.61387901  0.50563432  0.50331257  1
  Ru4+  Ru127  1  0.61440624  0.50232602  0.74667169  1
  Ru4+  Ru128  1  0.61491801  0.83918791  -0.00453273  1
  Ru4+  Ru129  1  0.60478076  0.83269925  0.25613303  1
  Ru4+  Ru130  1  0.61180311  0.83378191  0.49947195  1
  Ru4+  Ru131  1  0.61414871  0.83955931  0.74819536  1
  Ru4+  Ru132  1  0.38992755  0.16215851  0.00286203  1
  Ru4+  Ru133  1  0.38901750  0.17331501  0.25112291  1
  Ru4+  Ru134  1  0.38788967  0.16934935  0.50040052  1
  Ru4+  Ru135  1  0.38555644  0.15964480  0.75038691  1
  Ru4+  Ru136  1  0.38762209  0.49487050  0.00450174  1
  Ru4+  Ru137  1  0.38346264  0.50051697  0.24579283  1
  Ru4+  Ru138  1  0.38748830  0.49574736  0.50017588  1
  Ru4+  Ru139  1  0.38880808  0.50032873  0.75272579  1
  Ru4+  Ru140  1  0.39039217  0.82971609  0.00502790  1
  Ru4+  Ru141  1  0.38526890  0.83409721  0.25012427  1
  Ru4+  Ru142  1  0.39490400  0.83413600  0.49371575  1
  Ru4+  Ru143  1  0.38997342  0.83691599  0.75328936  1
  Ru4+  Ru144  1  0.87989020  0.16111200  -0.00455808  1
  Ru4+  Ru145  1  0.88113567  0.16348852  0.25491827  1
  Ru4+  Ru146  1  0.89241636  0.17325050  0.50407496  1
  Ru4+  Ru147  1  0.88581022  0.16739867  0.74947683  1
  Ru4+  Ru148  1  0.89307026  0.49198029  0.00239923  1
  Ru4+  Ru149  1  0.88225045  0.50427878  0.24641859  1
  Ru4+  Ru150  1  0.88691166  0.49878022  0.50389650  1
  Ru4+  Ru151  1  0.88531577  0.50342801  0.75014023  1
  Ru4+  Ru152  1  0.88444177  0.82971026  0.00025584  1
  Ru4+  Ru153  1  0.89305438  0.82614747  0.25063958  1
  Ru4+  Ru154  1  0.89097926  0.83112559  0.49691618  1
  Ru4+  Ru155  1  0.88897878  0.83125026  0.74922278  1
  Ru4+  Ru156  1  0.75046448  0.09399954  0.74447333  1
  Ru4+  Ru157  1  0.24949189  0.87735034  0.76196838  1
  Ru4+  Ru158  1  0.24863482  0.39891895  0.03698580  1
  Ru4+  Ru159  1  0.24972289  0.44429799  0.74544513  1
  Ru4+  Ru160  1  0.24938477  0.05786044  0.73348683  1
  Ru4+  Ru161  1  0.24920708  0.31955015  0.68777238  1
  Ru4+  Ru162  1  0.25054405  0.65928699  -0.00659112  1
  Ru4+  Ru163  1  0.24827399  0.66172033  0.48334791  1
  Ru4+  Ru164  1  0.74953948  0.42123679  0.75036337  1
  Ru4+  Ru165  1  0.75097430  0.89834892  0.51060592  1
  Ru4+  Ru166  1  0.25094610  0.06301918  0.02826623  1
  Ru4+  Ru167  1  0.25244157  0.27503091  0.09000536  1
  Ru4+  Ru168  1  0.24969892  0.10071878  0.49002814  1
  Ru4+  Ru169  1  0.75052509  0.59160078  0.50969129  1
  Ru4+  Ru170  1  0.75192424  0.60439018  0.02052891  1
  Ru4+  Ru171  1  0.25171014  0.93876774  0.48523923  1
  Ru4+  Ru172  1  0.75035071  0.90508472  0.77390900  1
  Ru4+  Ru173  1  0.74982758  0.30391162  0.46824936  1
  Ru4+  Ru174  1  0.74976129  0.38882588  0.24186281  1
  Ru4+  Ru175  1  0.74885755  0.73380852  0.25777026  1
  Ru4+  Ru176  1  0.25137020  0.91306207  -0.00404060  1
  Ru4+  Ru177  1  0.75099084  0.02964795  0.52090305  1
  Ru4+  Ru178  1  0.24979087  0.58393203  0.74410296  1
  Ru4+  Ru179  1  0.74928261  0.43326514  0.50634427  1
  O2-  O180  1  0.16779590  0.07661660  -0.00100429  1
  O2-  O181  1  0.16612167  0.07756888  0.24965277  1
  O2-  O182  1  0.16575883  0.08381649  0.50266404  1
  O2-  O183  1  0.16395689  0.07220916  0.74782006  1
  O2-  O184  1  0.16762850  0.41274581  0.00524455  1
  O2-  O185  1  0.16420361  0.41534406  0.25135247  1
  O2-  O186  1  0.16559448  0.41654049  0.50014924  1
  O2-  O187  1  0.16680842  0.41834532  0.74760196  1
  O2-  O188  1  0.15649444  0.74253594  -0.00174976  1
  O2-  O189  1  0.15957712  0.74136581  0.25077388  1
  O2-  O190  1  0.16232922  0.74188377  0.49914392  1
  O2-  O191  1  0.16607133  0.74511691  0.75003794  1
  O2-  O192  1  0.67161909  0.08063833  -0.00479404  1
  O2-  O193  1  0.66125527  0.08058111  0.25144964  1
  O2-  O194  1  0.66731614  0.07435258  0.50323861  1
  O2-  O195  1  0.66858128  0.07875885  0.75031735  1
  O2-  O196  1  0.66650281  0.41377371  0.00061159  1
  O2-  O197  1  0.66996690  0.41406959  0.24636473  1
  O2-  O198  1  0.66642402  0.41486959  0.50075120  1
  O2-  O199  1  0.66780919  0.41394517  0.74904015  1
  O2-  O200  1  0.66091419  0.74788812  0.00433927  1
  O2-  O201  1  0.66514344  0.74677388  0.24868231  1
  O2-  O202  1  0.66087362  0.74939110  0.50244582  1
  O2-  O203  1  0.66444648  0.75219164  0.75140873  1
  O2-  O204  1  0.33377317  0.25209845  -0.00211624  1
  O2-  O205  1  0.33022362  0.24641452  0.24702734  1
  O2-  O206  1  0.33963144  0.25307860  0.50405951  1
  O2-  O207  1  0.34186461  0.25767721  0.75197108  1
  O2-  O208  1  0.33858364  0.59171545  -0.00000773  1
  O2-  O209  1  0.33499525  0.58928801  0.24893076  1
  O2-  O210  1  0.32772549  0.58301089  0.49856639  1
  O2-  O211  1  0.33020827  0.58817343  0.74766966  1
  O2-  O212  1  0.33820819  0.91812457  -0.00057936  1
  O2-  O213  1  0.33584812  0.91766837  0.25105179  1
  O2-  O214  1  0.33596598  0.92382208  0.49787204  1
  O2-  O215  1  0.33157168  0.91160163  0.75288226  1
  O2-  O216  1  0.83069998  0.25246348  -0.00146668  1
  O2-  O217  1  0.83810763  0.25389801  0.25121680  1
  O2-  O218  1  0.83290919  0.25536725  0.49619833  1
  O2-  O219  1  0.83578735  0.25203669  0.75184885  1
  O2-  O220  1  0.83761967  0.58480670  0.00144998  1
  O2-  O221  1  0.83573129  0.59171055  0.25260324  1
  O2-  O222  1  0.83304871  0.58604195  0.50355937  1
  O2-  O223  1  0.83168005  0.58178264  0.75002180  1
  O2-  O224  1  0.83899467  0.92057026  -0.00108018  1
  O2-  O225  1  0.83442135  0.92132565  0.25647577  1
  O2-  O226  1  0.83477206  0.91773851  0.50398406  1
  O2-  O227  1  0.83245570  0.91968777  0.75316368  1
  O2-  O228  1  0.16523956  0.25245004  0.00271936  1
  O2-  O229  1  0.16690256  0.24994956  0.24563542  1
  O2-  O230  1  0.16311599  0.25636419  0.50414293  1
  O2-  O231  1  0.16477710  0.25922584  0.74564415  1
  O2-  O232  1  0.16267150  0.58905531  -0.00165812  1
  O2-  O233  1  0.17133081  0.58560353  0.25504945  1
  O2-  O234  1  0.17026629  0.58822346  0.49525128  1
  O2-  O235  1  0.16756427  0.58789356  0.75031483  1
  O2-  O236  1  0.16439831  0.91786391  -0.00197678  1
  O2-  O237  1  0.16705954  0.91246874  0.24948689  1
  O2-  O238  1  0.16771854  0.92159392  0.50372872  1
  O2-  O239  1  0.16489410  0.91228844  0.75223880  1
  O2-  O240  1  0.66795123  0.25169909  -0.00069960  1
  O2-  O241  1  0.66949218  0.24948635  0.24896907  1
  O2-  O242  1  0.66258532  0.25628177  0.50017661  1
  O2-  O243  1  0.66352205  0.25394184  0.74925933  1
  O2-  O244  1  0.66880400  0.59035301  0.00062969  1
  O2-  O245  1  0.65913216  0.59016284  0.24829206  1
  O2-  O246  1  0.66689490  0.58760056  0.50407323  1
  O2-  O247  1  0.66289743  0.58487006  0.75101399  1
  O2-  O248  1  0.66622702  0.91771501  0.00283772  1
  O2-  O249  1  0.65545595  0.92611005  0.25386164  1
  O2-  O250  1  0.66889390  0.91723322  0.50293514  1
  O2-  O251  1  0.66938883  0.91792411  0.75142492  1
  O2-  O252  1  0.33404002  0.07810424  0.00386339  1
  O2-  O253  1  0.33794266  0.08246964  0.24912103  1
  O2-  O254  1  0.33261215  0.08344809  0.49460169  1
  O2-  O255  1  0.33197391  0.07684631  0.74822663  1
  O2-  O256  1  0.32539864  0.41803610  -0.00649589  1
  O2-  O257  1  0.33249911  0.42009349  0.24882181  1
  O2-  O258  1  0.32836898  0.41676164  0.50739815  1
  O2-  O259  1  0.33622210  0.41716442  0.74626376  1
  O2-  O260  1  0.33556856  0.74230885  -0.00456016  1
  O2-  O261  1  0.33899766  0.74369890  0.24820742  1
  O2-  O262  1  0.33802392  0.74251738  0.50163376  1
  O2-  O263  1  0.33394763  0.75018627  0.74553142  1
  O2-  O264  1  0.82601684  0.07646557  -0.00535142  1
  O2-  O265  1  0.83197690  0.07840027  0.25254870  1
  O2-  O266  1  0.83630882  0.07930560  0.50242082  1
  O2-  O267  1  0.83404782  0.07878446  0.75091338  1
  O2-  O268  1  0.83172258  0.41280871  -0.00176736  1
  O2-  O269  1  0.82998352  0.41492171  0.24727391  1
  O2-  O270  1  0.83370287  0.41604491  0.49885997  1
  O2-  O271  1  0.83160979  0.41580545  0.75247811  1
  O2-  O272  1  0.83390758  0.74841804  -0.00055450  1
  O2-  O273  1  0.82967566  0.74905244  0.24844770  1
  O2-  O274  1  0.83682191  0.74930903  0.50426537  1
  O2-  O275  1  0.83334404  0.75258678  0.75190081  1
  O2-  O276  1  0.55602462  0.75947625  0.76977751  1
  O2-  O277  1  0.44719453  0.23888224  0.76814960  1
  O2-  O278  1  0.54492280  0.57558209  0.01795412  1
  O2-  O279  1  0.44996962  0.24665881  0.72986182  1
  O2-  O280  1  0.04924109  0.23457750  0.99499048  1
  O2-  O281  1  0.05036932  0.56815196  0.26092314  1
  O2-  O282  1  0.47143083  0.22093409  0.00639816  1
  O2-  O283  1  0.04920901  0.22989547  0.26099552  1
  O2-  O284  1  0.94712629  0.07873662  0.51814730  1
  O2-  O285  1  0.45018519  0.09968595  0.27322699  1
  O2-  O286  1  0.04753822  0.90592699  0.97876712  1
  O2-  O287  1  0.94879110  0.42893440  0.76146882  1
  O2-  O288  1  0.53368398  0.12900851  -0.00540584  1
  O2-  O289  1  0.55091353  0.43423989  0.48708933  1
  O2-  O290  1  0.46505544  0.48999416  -0.00468053  1
  O2-  O291  1  0.05103931  0.10193931  0.48731237  1
  O2-  O292  1  0.05180458  0.24195630  0.22418423  1
  O2-  O293  1  0.55913016  0.43170944  0.01719138  1
  O2-  O294  1  0.94745419  0.57194779  0.24957880  1
  O2-  O295  1  0.96358450  0.89527386  0.26000947  1
  O2-  O296  1  0.96142608  0.76730577  0.20048219  1
  O2-  O297  1  0.95348148  0.57190359  0.50357274  1
  O2-  O298  1  0.05028419  0.43477429  0.73809062  1
  O2-  O299  1  0.04742149  0.76387361  0.74390326  1
  O2-  O300  1  0.54916105  0.22870145  0.73734288  1
  O2-  O301  1  0.45592759  0.44562478  0.55594058  1
  O2-  O302  1  0.95133269  0.23837755  -0.00149846  1
  O2-  O303  1  0.96762579  0.21847161  0.46166401  1
  O2-  O304  1  0.05753851  0.23706158  0.70041650  1
  O2-  O305  1  0.55036815  0.42296075  0.98178838  1
  O2-  O306  1  0.55196278  0.57228904  0.98044449  1
  O2-  O307  1  0.94812899  0.75916408  0.49729573  1
  O2-  O308  1  0.95551868  0.42613321  0.23293354  1
  O2-  O309  1  0.44200632  0.08111208  0.00375815  1
  O2-  O310  1  0.45575257  0.08753342  0.23741125  1
  O2-  O311  1  0.55478023  0.76116711  0.98904610  1
  O2-  O312  1  0.53412423  0.20991993  0.24376263  1
  O2-  O313  1  0.95034710  0.91103162  0.49174475  1
  O2-  O314  1  0.04303681  0.43814064  0.49643221  1
  O2-  O315  1  0.95239619  0.23662229  0.74051049  1
  O2-  O316  1  0.05260882  0.86298065  0.20310337  1
  O2-  O317  1  0.54542659  0.43508981  0.75444215  1
  O2-  O318  1  0.96364354  0.45160859  0.95736856  1
  O2-  O319  1  0.95315001  0.90045349  0.75588080  1
  O2-  O320  1  0.05076042  0.76091784  0.48441338  1
  O2-  O321  1  0.54280364  0.76627757  0.49166186  1
  O2-  O322  1  0.54620567  0.75321364  0.73416881  1
  O2-  O323  1  0.54848786  0.90437557  0.74272880  1
  O2-  O324  1  0.92853573  0.28361650  0.56699480  1
  O2-  O325  1  0.93183539  0.41347585  0.23108480  1
  O2-  O326  1  0.05490661  0.24620989  0.70205197  1
  O2-  O327  1  0.43891639  0.07739017  0.72489312  1
  O2-  O328  1  0.57474622  0.27136885  0.22315510  1
  O2-  O329  1  0.07338664  0.94529867  0.30036692  1
  O2-  O330  1  0.42349612  0.26405404  0.03242468  1
  O2-  O331  1  0.06072915  0.25073610  0.98160986  1
  O2-  O332  1  0.56122963  0.08073127  0.53387275  1
  O2-  O333  1  0.06169048  0.58373960  0.27532730  1
  O2-  O334  1  0.06545165  0.92666636  0.47907558  1
  O2-  O335  1  0.55869313  0.06678252  0.78299058  1
  O2-  O336  1  0.41416761  0.39374094  0.03592087  1
  O2-  O337  1  0.56078999  0.41345107  0.27434790  1
  O2-  O338  1  0.44076869  0.58699444  0.78126691  1
  O2-  O339  1  0.06346909  0.07052226  0.48655588  1
  O2-  O340  1  0.93948856  0.58983222  0.77030151  1
  O2-  O341  1  0.92340117  0.40581150  0.06722652  1
  O2-  O342  1  0.92034332  0.72873330  0.30471249  1
  O2-  O343  1  0.06594680  0.60102146  0.21722918  1
  O2-  O344  1  0.06191935  0.41026959  0.22131130  1
  O2-  O345  1  0.08008314  0.23847597  0.83729171  1
  O2-  O346  1  0.43981824  0.92587193  0.83327158  1
  O2-  O347  1  0.93646962  0.73519691  0.03250924  1
  O2-  O348  1  0.91969200  0.93575050  0.22203360  1
  O2-  O349  1  0.43819506  0.73914950  0.03096824  1
  O2-  O350  1  0.56032231  0.73926626  0.95892885  1
  O2-  O351  1  0.41764456  0.40541823  0.43578141  1
  O2-  O352  1  0.44229800  0.41576672  0.27297069  1
  O2-  O353  1  0.06584177  0.26509799  0.04146768  1
  O2-  O354  1  0.43341828  0.25961294  0.22177521  1
  O2-  O355  1  0.06972284  0.42484780  0.92706545  1
  O2-  O356  1  0.93516170  0.25321944  0.02367632  1
  O2-  O357  1  0.57851072  0.04289731  0.05121576  1
  O2-  O358  1  0.06047271  0.41624877  0.07084571  1
  O2-  O359  1  0.43714957  0.74637426  0.79188764  1
  O2-  O360  1  0.43734447  0.07773959  0.51584253  1
  O2-  O361  1  0.56352029  0.92451277  0.52446198  1
  O2-  O362  1  0.57146539  0.26297246  0.02293132  1
  O2-  O363  1  0.43830288  0.92010019  0.23234710  1
  O2-  O364  1  0.93623079  0.08166638  0.02022967  1
  O2-  O365  1  0.94143600  0.08136902  0.22860547  1
  O2-  O366  1  0.93685470  0.74109392  0.70790982  1
  O2-  O367  1  0.06648643  0.07235606  0.01259519  1
  O2-  O368  1  0.43172837  0.90836746  0.68374045  1
  O2-  O369  1  0.55819353  0.92703019  0.95938485  1
  O2-  O370  1  0.43769518  0.58841746  0.47613267  1
  O2-  O371  1  0.06054551  0.58968210  0.01976701  1
  O2-  O372  1  0.74907994  0.66066131  0.15300416  1
  O2-  O373  1  0.25058396  0.00283769  0.92770202  1
  O2-  O374  1  0.75065344  0.65993715  0.40304537  1
  O2-  O375  1  0.74876121  0.33458290  0.60239304  1
  O2-  O376  1  0.24979127  0.02071205  0.40115666  1
  O2-  O377  1  0.24954808  0.65923405  0.61499620  1
  O2-  O378  1  0.24900294  0.01372714  0.18378528  1
  O2-  O379  1  0.75021572  -0.00651421  0.39080844  1
  O2-  O380  1  0.24991793  0.02372691  0.57625643  1
  O2-  O381  1  0.74911428  0.65833399  0.62045074  1
  O2-  O382  1  0.25021562  0.33797976  0.35474435  1
  O2-  O383  1  0.25006081  0.32659255  0.93930143  1
  O2-  O384  1  0.25055182  0.00062692  0.31411321  1
  O2-  O385  1  0.75000677  0.33145730  0.82649579  1
  O2-  O386  1  0.74956988  0.33208208  0.91819654  1
  O2-  O387  1  0.25124968  -0.02785693  0.10330856  1
  O2-  O388  1  0.74884270  0.65664947  0.83545573  1
  O2-  O389  1  0.24837838  -0.04901613  0.67465449  1
  O2-  O390  1  0.74943801  0.67715701  0.92333352  1
  O2-  O391  1  0.74976072  0.33267381  0.34919045  1
  O2-  O392  1  0.75079599  -0.00008802  0.65559233  1
  O2-  O393  1  0.25004186  0.34837547  0.57766846  1
  O2-  O394  1  0.25187363  0.34691222  0.81137527  1
  O2-  O395  1  0.24832880  -0.02432747  0.81333119  1
  O2-  O396  1  0.25006430  0.20540517  0.43205922  1
  O2-  O397  1  0.74967817  0.50361162  0.40879950  1
  O2-  O398  1  0.75016604  0.85495496  0.87062775  1
  O2-  O399  1  0.24945579  0.15035895  0.36647479  1
  O2-  O400  1  0.25180426  0.11270518  0.85467459  1
  O2-  O401  1  0.25112418  0.14538777  0.63585781  1
  O2-  O402  1  0.75010528  0.17369472  0.37185020  1
  O2-  O403  1  0.75071606  0.81441294  0.13085118  1
  O2-  O404  1  0.24990408  0.15622485  0.09900857  1
  O2-  O405  1  0.24981128  0.19288097  0.56451730  1
  O2-  O406  1  0.75036326  0.15398250  0.84101863  1
  O2-  O407  1  0.75002397  0.50334057  0.10614700  1
  O2-  O408  1  0.24977081  0.84325511  0.88717847  1
  O2-  O409  1  0.74996625  0.50234839  0.60212642  1
  O2-  O410  1  0.75030190  0.83796446  0.04981936  1
  O2-  O411  1  0.75063966  0.15478521  0.65058327  1
  O2-  O412  1  0.25093582  0.48238530  0.12361382  1
  O2-  O413  1  0.25075204  0.83899655  0.37569819  1
  O2-  O414  1  0.75027472  0.80782964  0.35495473  1
  O2-  O415  1  0.74977023  0.16622505  0.20424404  1
  O2-  O416  1  0.25083492  0.83885779  0.15334114  1
  O2-  O417  1  0.75029686  0.16537495  0.12136666  1
  O2-  O418  1  0.25009530  0.50446496  0.84837703  1
  O2-  O419  1  0.75000507  0.81229156  0.44666084  1
  O2-  O420  1  0.04624449  0.33508045  0.37910704  1
  O2-  O421  1  0.52317748  0.32249508  0.87602674  1
  O2-  O422  1  0.53094893  0.34951385  0.12475001  1
  O2-  O423  1  0.45928467  0.29871452  0.37231974  1
  O2-  O424  1  0.98282941  0.31840434  0.13993378  1
  O2-  O425  1  0.02681846  0.65687993  0.62422527  1
  O2-  O426  1  0.96185101  -0.02080023  0.10570519  1
  O2-  O427  1  0.98239152  0.65633191  0.37849375  1
  O2-  O428  1  0.04701206  0.00218425  0.13866875  1
  O2-  O429  1  0.54856286  0.31624744  0.39161293  1
  O2-  O430  1  0.47271124  0.34696797  0.13668088  1
  O2-  O431  1  0.47760978  -0.00418422  0.12041357  1
  O2-  O432  1  0.00965747  0.01801869  0.36953256  1
  O2-  O433  1  0.54755025  0.65845947  0.37510845  1
  O2-  O434  1  0.47018288  0.66134800  0.61909980  1
  O2-  O435  1  0.02003335  0.34675509  0.60836241  1
  O2-  O436  1  0.00622564  0.33001326  0.86547910  1
  O2-  O437  1  0.95207003  0.34389330  0.37047642  1
  O2-  O438  1  0.52613569  0.33452201  0.61870204  1
  O2-  O439  1  0.45331007  0.68815670  0.36372503  1
  O2-  O440  1  0.48681401  0.00306816  0.62082527  1
  O2-  O441  1  0.97209800  0.00705969  0.87929598  1
  O2-  O442  1  0.98003749  0.67067915  0.88284984  1
  O2-  O443  1  0.02497962  0.68539994  0.12489157  1
