# generated using pymatgen
data_La7(Ru4O11)2
_symmetry_space_group_name_H-M   'P 1'
_cell_length_a   23.99008967
_cell_length_b   16.82994518
_cell_length_c   15.42673615
_cell_angle_alpha   89.99962410
_cell_angle_beta   90.00052628
_cell_angle_gamma   89.99944350
_symmetry_Int_Tables_number   1
_chemical_formula_structural   La7(Ru4O11)2
_chemical_formula_sum   'La84 Ru96 O264'
_cell_volume   6228.57393966
_cell_formula_units_Z   12
loop_
 _symmetry_equiv_pos_site_id
 _symmetry_equiv_pos_as_xyz
  1  'x, y, z'
loop_
 _atom_type_symbol
 _atom_type_oxidation_number
  La3+  3.0
  Ru4+  4.0
  O2-  -2.0
loop_
 _atom_site_type_symbol
 _atom_site_label
 _atom_site_symmetry_multiplicity
 _atom_site_fract_x
 _atom_site_fract_y
 _atom_site_fract_z
 _atom_site_occupancy
  La3+  La0  1  0.14201629  -0.00040759  0.12542733  1
  La3+  La1  1  0.14161271  0.00101944  0.37629407  1
  La3+  La2  1  0.13906279  0.00095940  0.62246566  1
  La3+  La3  1  0.13721795  -0.00065572  0.87393150  1
  La3+  La4  1  0.13696678  0.33513721  0.12403619  1
  La3+  La5  1  0.13715382  0.33354896  0.37699638  1
  La3+  La6  1  0.13874627  0.33378398  0.62670150  1
  La3+  La7  1  0.13987477  0.33520293  0.87196730  1
  La3+  La8  1  0.13810603  0.66644943  0.12561223  1
  La3+  La9  1  0.13639651  0.66494744  0.37229457  1
  La3+  La10  1  0.13940067  0.66721476  0.62429457  1
  La3+  La11  1  0.13828569  0.66508219  0.87678437  1
  La3+  La12  1  0.63797220  0.00070194  0.12169142  1
  La3+  La13  1  0.63747180  -0.00227469  0.37542761  1
  La3+  La14  1  0.63848890  -0.00159738  0.62587350  1
  La3+  La15  1  0.64107966  0.00109188  0.87625357  1
  La3+  La16  1  0.63830249  0.33295807  0.12315265  1
  La3+  La17  1  0.63701750  0.33371807  0.37363647  1
  La3+  La18  1  0.63786256  0.33319561  0.62737811  1
  La3+  La19  1  0.64292980  0.33310912  0.87597902  1
  La3+  La20  1  0.63824073  0.66637685  0.12354652  1
  La3+  La21  1  0.64280638  0.66727846  0.37696672  1
  La3+  La22  1  0.63967662  0.66724144  0.62251036  1
  La3+  La23  1  0.63981630  0.66657892  0.87691012  1
  La3+  La24  1  0.36038127  -0.00153962  0.12715615  1
  La3+  La25  1  0.35924417  0.00017888  0.37640464  1
  La3+  La26  1  0.36199954  0.00068775  0.62582792  1
  La3+  La27  1  0.36486906  -0.00089199  0.87117157  1
  La3+  La28  1  0.36347241  0.33190848  0.12532031  1
  La3+  La29  1  0.36279024  0.33236013  0.37455671  1
  La3+  La30  1  0.35892596  0.33455354  0.62571370  1
  La3+  La31  1  0.36014163  0.33487043  0.87404779  1
  La3+  La32  1  0.35996533  0.66764633  0.12329510  1
  La3+  La33  1  0.36033488  0.66842058  0.37619038  1
  La3+  La34  1  0.36133763  0.66639785  0.62637064  1
  La3+  La35  1  0.35949077  0.66590823  0.87572517  1
  La3+  La36  1  0.86149490  0.00015748  0.12162090  1
  La3+  La37  1  0.86320029  0.00079284  0.37746003  1
  La3+  La38  1  0.86277188  -0.00099837  0.62400545  1
  La3+  La39  1  0.85851975  0.00022403  0.87686256  1
  La3+  La40  1  0.86364562  0.33348325  0.12416172  1
  La3+  La41  1  0.86461022  0.33226704  0.37058857  1
  La3+  La42  1  0.86229113  0.33392752  0.62715383  1
  La3+  La43  1  0.85985034  0.33403465  0.87578394  1
  La3+  La44  1  0.86349589  0.66673602  0.12162935  1
  La3+  La45  1  0.85792127  0.66599862  0.37708750  1
  La3+  La46  1  0.86187050  0.66628822  0.62190704  1
  La3+  La47  1  0.86046275  0.66595787  0.87865336  1
  La3+  La48  1  0.00260464  0.16780723  0.86532284  1
  La3+  La49  1  -0.00382879  0.49469395  0.86602459  1
  La3+  La50  1  0.49770322  0.49534341  0.12893613  1
  La3+  La51  1  0.49960361  0.83363610  0.36611099  1
  La3+  La52  1  0.00510009  0.17116826  0.61281658  1
  La3+  La53  1  0.49940144  0.16915788  0.63304364  1
  La3+  La54  1  -0.00007685  0.49991042  0.37225712  1
  La3+  La55  1  0.00053730  0.16857168  0.37964096  1
  La3+  La56  1  -0.00431751  0.16962786  0.14143689  1
  La3+  La57  1  0.49906519  0.83371988  0.88393292  1
  La3+  La58  1  0.49902930  0.16790505  0.13005570  1
  La3+  La59  1  0.50010393  0.50190704  0.63356610  1
  La3+  La60  1  0.49947839  0.50052631  0.88711981  1
  La3+  La61  1  0.49898066  0.83312603  0.61667179  1
  La3+  La62  1  0.00007204  0.50074911  0.11400587  1
  La3+  La63  1  0.00046362  0.83341328  0.86724274  1
  La3+  La64  1  0.49970333  0.83350731  0.13306476  1
  La3+  La65  1  0.00081132  0.50067419  0.61427046  1
  La3+  La66  1  -0.00020885  0.16824570  0.63322515  1
  La3+  La67  1  -0.00532533  0.16979291  0.12465176  1
  La3+  La68  1  -0.00071242  0.83430269  0.36692607  1
  La3+  La69  1  0.49946753  0.50041680  0.86490826  1
  La3+  La70  1  0.50063598  0.49879281  0.61132832  1
  La3+  La71  1  0.49978280  0.16873824  0.36204718  1
  La3+  La72  1  0.24987238  0.86755634  0.45333670  1
  La3+  La73  1  0.74993520  0.79402281  0.25489806  1
  La3+  La74  1  0.75051818  0.15282272  0.47159122  1
  La3+  La75  1  0.24984120  0.49938825  0.48781756  1
  La3+  La76  1  0.75002333  0.16624465  0.73033757  1
  La3+  La77  1  0.75058911  0.54979596  0.24902262  1
  La3+  La78  1  0.75000945  0.87645668  0.74713177  1
  La3+  La79  1  0.74985590  0.20511282  0.22068201  1
  La3+  La80  1  0.75019803  0.83554080  0.00332495  1
  La3+  La81  1  0.25039691  0.16882773  0.04955235  1
  La3+  La82  1  0.24992673  0.79367812  0.78883476  1
  La3+  La83  1  0.24972604  0.49591111  0.21384147  1
  Ru4+  Ru84  1  0.00017980  -0.00191826  -0.00406235  1
  Ru4+  Ru85  1  -0.00075781  0.00097337  0.25123794  1
  Ru4+  Ru86  1  0.00393744  -0.00508308  0.49891337  1
  Ru4+  Ru87  1  0.00153045  -0.00285910  0.75058027  1
  Ru4+  Ru88  1  -0.00148100  0.33576038  -0.00466171  1
  Ru4+  Ru89  1  0.00939180  0.33310669  0.24932023  1
  Ru4+  Ru90  1  0.00255821  0.33378731  0.50088669  1
  Ru4+  Ru91  1  -0.00342541  0.34090467  0.75053785  1
  Ru4+  Ru92  1  0.00300516  0.66701153  -0.00161017  1
  Ru4+  Ru93  1  -0.00464203  0.67218833  0.25474649  1
  Ru4+  Ru94  1  0.00052292  0.66710498  0.49973859  1
  Ru4+  Ru95  1  0.00130362  0.66629079  0.75006339  1
  Ru4+  Ru96  1  0.50060247  0.00194613  0.00167987  1
  Ru4+  Ru97  1  0.50077747  -0.00196070  0.25007930  1
  Ru4+  Ru98  1  0.50007033  -0.00090024  0.49616990  1
  Ru4+  Ru99  1  0.50346178  -0.00262281  0.74738484  1
  Ru4+  Ru100  1  0.49974501  0.32996497  0.00278846  1
  Ru4+  Ru101  1  0.50414524  0.33817676  0.25274545  1
  Ru4+  Ru102  1  0.49943618  0.33449969  0.50047144  1
  Ru4+  Ru103  1  0.49681883  0.33200458  0.74662110  1
  Ru4+  Ru104  1  0.50114050  0.66729349  0.00028039  1
  Ru4+  Ru105  1  0.49994281  0.67135237  0.25245053  1
  Ru4+  Ru106  1  0.49907206  0.67062988  0.49194420  1
  Ru4+  Ru107  1  0.50055566  0.66702438  0.75190678  1
  Ru4+  Ru108  1  0.11368148  0.16636627  -0.00224465  1
  Ru4+  Ru109  1  0.11289304  0.16850272  0.24948820  1
  Ru4+  Ru110  1  0.11392269  0.16455752  0.49886953  1
  Ru4+  Ru111  1  0.11639424  0.16174593  0.75262831  1
  Ru4+  Ru112  1  0.11592225  0.49976786  0.00078987  1
  Ru4+  Ru113  1  0.11586982  0.49623627  0.25032703  1
  Ru4+  Ru114  1  0.11208520  0.49964563  0.49959414  1
  Ru4+  Ru115  1  0.11390824  0.49869993  0.74966531  1
  Ru4+  Ru116  1  0.10989974  0.83282028  0.00163920  1
  Ru4+  Ru117  1  0.11457822  0.83595167  0.24919235  1
  Ru4+  Ru118  1  0.11028837  0.83379202  0.49960776  1
  Ru4+  Ru119  1  0.10951252  0.83152078  0.74921535  1
  Ru4+  Ru120  1  0.61151201  0.16459184  -0.00083868  1
  Ru4+  Ru121  1  0.61087394  0.16903146  0.24991756  1
  Ru4+  Ru122  1  0.61107569  0.16746633  0.49894427  1
  Ru4+  Ru123  1  0.61374556  0.16644080  0.75089251  1
  Ru4+  Ru124  1  0.61431684  0.50073047  0.00054348  1
  Ru4+  Ru125  1  0.61204677  0.49833597  0.25041624  1
  Ru4+  Ru126  1  0.61373599  0.50032305  0.50006044  1
  Ru4+  Ru127  1  0.61355828  0.50256949  0.74983338  1
  Ru4+  Ru128  1  0.61025672  0.83324439  0.00012748  1
  Ru4+  Ru129  1  0.60961198  0.83229533  0.24955677  1
  Ru4+  Ru130  1  0.61485781  0.83256060  0.50007566  1
  Ru4+  Ru131  1  0.61097240  0.83398107  0.75022973  1
  Ru4+  Ru132  1  0.39085861  0.16678990  0.00044757  1
  Ru4+  Ru133  1  0.38472151  0.16272443  0.25031158  1
  Ru4+  Ru134  1  0.38579389  0.16519706  0.49991138  1
  Ru4+  Ru135  1  0.38671310  0.17222117  0.75085000  1
  Ru4+  Ru136  1  0.38530613  0.50135545  0.00038889  1
  Ru4+  Ru137  1  0.38746130  0.49948701  0.25064769  1
  Ru4+  Ru138  1  0.38721700  0.49778001  0.49968343  1
  Ru4+  Ru139  1  0.38708284  0.49786046  0.75029784  1
  Ru4+  Ru140  1  0.38825709  0.83222514  0.00162576  1
  Ru4+  Ru141  1  0.38599066  0.83342623  0.24969340  1
  Ru4+  Ru142  1  0.38821316  0.83453104  0.49938541  1
  Ru4+  Ru143  1  0.38736378  0.82826154  0.74920393  1
  Ru4+  Ru144  1  0.88688700  0.16513390  0.00033932  1
  Ru4+  Ru145  1  0.88610734  0.16287486  0.24947369  1
  Ru4+  Ru146  1  0.88486743  0.17152668  0.49995720  1
  Ru4+  Ru147  1  0.88675198  0.16880726  0.75127828  1
  Ru4+  Ru148  1  0.88523934  0.49967952  -0.00032493  1
  Ru4+  Ru149  1  0.88532740  0.50597067  0.24957189  1
  Ru4+  Ru150  1  0.88625926  0.50339502  0.49981651  1
  Ru4+  Ru151  1  0.88833306  0.49971038  0.74987402  1
  Ru4+  Ru152  1  0.88614973  0.83770938  0.00037855  1
  Ru4+  Ru153  1  0.88797436  0.83042357  0.25005760  1
  Ru4+  Ru154  1  0.88461120  0.83221550  0.49968270  1
  Ru4+  Ru155  1  0.88779539  0.83493983  0.74986372  1
  Ru4+  Ru156  1  0.74972998  0.72954664  0.74207030  1
  Ru4+  Ru157  1  0.25013278  0.93361907  0.74637325  1
  Ru4+  Ru158  1  0.25009791  0.57227019  0.75210035  1
  Ru4+  Ru159  1  0.75038560  0.24824668  0.00201274  1
  Ru4+  Ru160  1  0.74999159  0.42550848  0.50753345  1
  Ru4+  Ru161  1  0.24993257  0.91219996  0.00360822  1
  Ru4+  Ru162  1  0.24951504  0.08724178  0.25107144  1
  Ru4+  Ru163  1  0.24977336  0.23834510  0.50046757  1
  Ru4+  Ru164  1  0.74974956  0.92891698  0.24901179  1
  Ru4+  Ru165  1  0.75004311  0.40080823  0.23586668  1
  Ru4+  Ru166  1  0.24991796  0.73228002  0.51224744  1
  Ru4+  Ru167  1  0.25024666  0.24020784  0.25182320  1
  Ru4+  Ru168  1  0.74963307  0.02578004  0.49538477  1
  Ru4+  Ru169  1  0.74990181  0.07150204  0.25258931  1
  Ru4+  Ru170  1  0.24992319  0.25164408  0.74580901  1
  Ru4+  Ru171  1  0.24997778  0.37078651  0.25708611  1
  Ru4+  Ru172  1  0.75053711  0.57788823  0.74951114  1
  Ru4+  Ru173  1  0.24991077  0.08346515  0.74227848  1
  Ru4+  Ru174  1  0.24999822  0.74535412  0.00264356  1
  Ru4+  Ru175  1  0.25044443  0.62537253  0.23369742  1
  Ru4+  Ru176  1  0.24998844  0.04227251  -0.00560384  1
  Ru4+  Ru177  1  0.24996765  0.29419689  -0.00876756  1
  Ru4+  Ru178  1  0.74998271  0.42194377  0.75639889  1
  Ru4+  Ru179  1  0.74967307  0.27554137  0.50679539  1
  O2-  O180  1  0.16759288  0.08012481  -0.00016560  1
  O2-  O181  1  0.16827741  0.08173008  0.24977759  1
  O2-  O182  1  0.16514613  0.08119261  0.50199488  1
  O2-  O183  1  0.16783882  0.08050995  0.74947640  1
  O2-  O184  1  0.16561466  0.41450261  0.00017360  1
  O2-  O185  1  0.16549302  0.41142640  0.24980065  1
  O2-  O186  1  0.16795454  0.41274933  0.49770228  1
  O2-  O187  1  0.16472377  0.41620079  0.74899669  1
  O2-  O188  1  0.16760825  0.74839560  -0.00094422  1
  O2-  O189  1  0.16743631  0.74896420  0.25009509  1
  O2-  O190  1  0.16625130  0.74727729  0.50043639  1
  O2-  O191  1  0.16621084  0.74568722  0.74912731  1
  O2-  O192  1  0.66521528  0.08179253  0.00056859  1
  O2-  O193  1  0.66616724  0.07898616  0.24988980  1
  O2-  O194  1  0.66673206  0.07906731  0.50043527  1
  O2-  O195  1  0.66606856  0.08090156  0.74858891  1
  O2-  O196  1  0.66821813  0.41411603  0.00101532  1
  O2-  O197  1  0.66654362  0.41340963  0.24962364  1
  O2-  O198  1  0.66635733  0.41422451  0.49945974  1
  O2-  O199  1  0.66838483  0.41410445  0.74965503  1
  O2-  O200  1  0.66843200  0.74549372  0.00081782  1
  O2-  O201  1  0.66568736  0.74574376  0.24740539  1
  O2-  O202  1  0.66661809  0.74864979  0.50036964  1
  O2-  O203  1  0.66679392  0.74565324  0.75009433  1
  O2-  O204  1  0.33317696  0.25364115  -0.00008744  1
  O2-  O205  1  0.33119048  0.25251097  0.25034732  1
  O2-  O206  1  0.33390341  0.25224928  0.49900734  1
  O2-  O207  1  0.33345709  0.25058198  0.74964216  1
  O2-  O208  1  0.33374864  0.58428079  -0.00069238  1
  O2-  O209  1  0.33229517  0.58681057  0.24902133  1
  O2-  O210  1  0.33195990  0.58674661  0.50042808  1
  O2-  O211  1  0.33086408  0.58733363  0.74897700  1
  O2-  O212  1  0.33399765  0.91973639  -0.00079618  1
  O2-  O213  1  0.33447284  0.91857813  0.25002263  1
  O2-  O214  1  0.33266835  0.91976093  0.50169830  1
  O2-  O215  1  0.33399390  0.92004941  0.75147588  1
  O2-  O216  1  0.83187747  0.25376061  0.00017866  1
  O2-  O217  1  0.83457642  0.25498581  0.25006467  1
  O2-  O218  1  0.83318140  0.25573746  0.49930732  1
  O2-  O219  1  0.83376553  0.25257384  0.74906473  1
  O2-  O220  1  0.83248579  0.58523701  -0.00015307  1
  O2-  O221  1  0.83656108  0.58844071  0.24810104  1
  O2-  O222  1  0.83250608  0.58436586  0.50134180  1
  O2-  O223  1  0.83220113  0.58639414  0.75032676  1
  O2-  O224  1  0.83174549  0.91780876  0.00162597  1
  O2-  O225  1  0.83306899  0.91959024  0.24961979  1
  O2-  O226  1  0.83278092  0.91786641  0.50012347  1
  O2-  O227  1  0.83750515  0.92151549  0.74914026  1
  O2-  O228  1  0.16775508  0.25400487  0.00146737  1
  O2-  O229  1  0.16776896  0.25201330  0.25011242  1
  O2-  O230  1  0.16683971  0.25397267  0.49894457  1
  O2-  O231  1  0.16716352  0.25164921  0.74946439  1
  O2-  O232  1  0.16647120  0.58370583  -0.00183151  1
  O2-  O233  1  0.16792899  0.58675034  0.25007118  1
  O2-  O234  1  0.16584841  0.58621440  0.50019051  1
  O2-  O235  1  0.16906746  0.58693724  0.74963189  1
  O2-  O236  1  0.16685748  0.91895638  -0.00060331  1
  O2-  O237  1  0.16817724  0.91609895  0.25101780  1
  O2-  O238  1  0.16717113  0.91958334  0.50249539  1
  O2-  O239  1  0.16608664  0.91996135  0.74967557  1
  O2-  O240  1  0.66709759  0.25278075  0.00117570  1
  O2-  O241  1  0.66451022  0.25432313  0.25122321  1
  O2-  O242  1  0.66513917  0.25483679  0.49933711  1
  O2-  O243  1  0.66823331  0.25166727  0.74805454  1
  O2-  O244  1  0.66574141  0.58642633  -0.00000067  1
  O2-  O245  1  0.66428617  0.58819825  0.24694781  1
  O2-  O246  1  0.66807742  0.58508802  0.49987549  1
  O2-  O247  1  0.66705925  0.58611142  0.75034641  1
  O2-  O248  1  0.66752885  0.92005664  0.00112572  1
  O2-  O249  1  0.66603375  0.92087454  0.24982080  1
  O2-  O250  1  0.66643656  0.91895249  0.49924730  1
  O2-  O251  1  0.66266952  0.92224482  0.74946918  1
  O2-  O252  1  0.33381506  0.07884147  -0.00044710  1
  O2-  O253  1  0.33295990  0.08146784  0.25012394  1
  O2-  O254  1  0.33317791  0.08194663  0.49989962  1
  O2-  O255  1  0.33348602  0.08075070  0.75025761  1
  O2-  O256  1  0.33442561  0.41408000  -0.00032263  1
  O2-  O257  1  0.33345448  0.41201182  0.25045256  1
  O2-  O258  1  0.33404235  0.41244702  0.49849331  1
  O2-  O259  1  0.33502419  0.41480256  0.74929592  1
  O2-  O260  1  0.33233411  0.74791739  -0.00017882  1
  O2-  O261  1  0.33366769  0.74846350  0.24963477  1
  O2-  O262  1  0.33345002  0.74700603  0.50132087  1
  O2-  O263  1  0.33313507  0.74672182  0.74898144  1
  O2-  O264  1  0.83474581  0.08155139  0.00027959  1
  O2-  O265  1  0.83381314  0.07998656  0.24907347  1
  O2-  O266  1  0.83442775  0.07866993  0.49972652  1
  O2-  O267  1  0.83300319  0.07958868  0.74861768  1
  O2-  O268  1  0.83251717  0.41449374  0.00076192  1
  O2-  O269  1  0.83294972  0.41212178  0.24973487  1
  O2-  O270  1  0.83372500  0.41344682  0.50023330  1
  O2-  O271  1  0.83286337  0.41415920  0.74997195  1
  O2-  O272  1  0.83139376  0.74682194  0.00116230  1
  O2-  O273  1  0.83433509  0.74715723  0.24782904  1
  O2-  O274  1  0.83271457  0.74906996  0.50030661  1
  O2-  O275  1  0.83210558  0.74562933  0.74912688  1
  O2-  O276  1  0.54495736  0.23609239  0.48309118  1
  O2-  O277  1  0.95309235  0.89590407  0.22093846  1
  O2-  O278  1  0.54521267  0.90206421  0.48701931  1
  O2-  O279  1  0.45212915  0.09536476  0.73121328  1
  O2-  O280  1  0.45241935  0.23551877  0.23642494  1
  O2-  O281  1  0.04988296  0.42871346  0.23483892  1
  O2-  O282  1  0.04635207  0.76622169  0.48809834  1
  O2-  O283  1  0.04862105  0.57285143  0.78849392  1
  O2-  O284  1  0.45541976  0.09753697  0.76996881  1
  O2-  O285  1  0.53696225  0.55472098  0.46503216  1
  O2-  O286  1  0.95471765  0.76173120  0.23831551  1
  O2-  O287  1  0.46255091  0.43403485  0.28359181  1
  O2-  O288  1  0.03836037  0.55526915  0.97249807  1
  O2-  O289  1  0.04175592  0.56514767  0.24163698  1
  O2-  O290  1  0.04172735  0.56515627  0.24143390  1
  O2-  O291  1  0.04723378  0.89830963  0.01275784  1
  O2-  O292  1  0.03766338  0.10641837  0.03013909  1
  O2-  O293  1  0.04532464  0.09948953  0.23944630  1
  O2-  O294  1  0.54796032  0.76297426  0.48481895  1
  O2-  O295  1  0.95334419  0.09690272  0.74259816  1
  O2-  O296  1  0.46248063  0.55844858  0.25860526  1
  O2-  O297  1  0.95640517  0.77526495  0.72373253  1
  O2-  O298  1  0.45111762  0.09457018  0.01656190  1
  O2-  O299  1  0.45261313  0.76715934  0.48785226  1
  O2-  O300  1  0.95137923  0.76923073  0.01811206  1
  O2-  O301  1  0.95334198  0.09768764  0.52086545  1
  O2-  O302  1  0.54833033  0.09564183  0.98373658  1
  O2-  O303  1  0.03860487  0.22860794  0.02921876  1
  O2-  O304  1  0.54658944  0.09928877  0.23858027  1
  O2-  O305  1  0.95918709  0.89091234  0.52584881  1
  O2-  O306  1  0.54930538  0.23626738  0.01721490  1
  O2-  O307  1  0.95381068  0.10098358  0.48182083  1
  O2-  O308  1  0.03355580  0.86875924  0.22868926  1
  O2-  O309  1  0.45253367  0.90336352  0.76727430  1
  O2-  O310  1  0.44918756  0.23755455  0.76153892  1
  O2-  O311  1  0.53855407  0.21525100  0.75776520  1
  O2-  O312  1  0.95548811  0.75987152  0.98083164  1
  O2-  O313  1  0.95475705  0.43317245  0.48567809  1
  O2-  O314  1  0.04737522  0.23456348  0.73749154  1
  O2-  O315  1  0.54262202  0.10635056  0.53167073  1
  O2-  O316  1  0.05007294  0.76422293  0.73479821  1
  O2-  O317  1  0.45106421  0.24015504  0.01485217  1
  O2-  O318  1  0.95179761  0.43052591  0.26842308  1
  O2-  O319  1  0.95380734  0.23550237  0.26486441  1
  O2-  O320  1  0.04581298  0.90394090  0.76147610  1
  O2-  O321  1  0.45943313  0.11186064  0.46293538  1
  O2-  O322  1  0.54732911  0.56061761  0.22083368  1
  O2-  O323  1  0.95200911  0.43371758  0.22911563  1
  O2-  O324  1  0.07539997  0.27015821  0.95401381  1
  O2-  O325  1  0.93553675  0.26531079  0.53187029  1
  O2-  O326  1  0.06718285  0.74354890  0.29769848  1
  O2-  O327  1  0.42937130  0.05823309  0.55576239  1
  O2-  O328  1  0.06949011  0.94089449  0.32143354  1
  O2-  O329  1  0.42219730  0.61036436  0.28390169  1
  O2-  O330  1  0.93554930  0.40802809  0.97430765  1
  O2-  O331  1  0.43736687  0.92883898  0.78212899  1
  O2-  O332  1  0.07185381  0.60023353  0.04400220  1
  O2-  O333  1  0.56710656  0.41160736  0.80415456  1
  O2-  O334  1  0.05555388  0.57483591  0.79381408  1
  O2-  O335  1  0.06567753  0.07325455  0.77794940  1
  O2-  O336  1  0.56882460  0.60782569  0.29873344  1
  O2-  O337  1  0.43667927  0.59789820  0.93731357  1
  O2-  O338  1  0.43377334  0.59182764  0.44894795  1
  O2-  O339  1  0.43664793  0.74033515  0.03244363  1
  O2-  O340  1  0.43281786  0.59077686  0.54864544  1
  O2-  O341  1  0.93588873  0.93211595  0.96700906  1
  O2-  O342  1  0.93416000  0.73978738  0.54348674  1
  O2-  O343  1  0.43744361  0.25899531  0.21787948  1
  O2-  O344  1  0.92984995  0.93190716  0.46018189  1
  O2-  O345  1  0.07935253  0.94160891  0.19184028  1
  O2-  O346  1  0.93444671  0.74032138  0.44936788  1
  O2-  O347  1  0.56605571  0.40738240  0.69654109  1
  O2-  O348  1  0.56708657  0.40986874  0.94542323  1
  O2-  O349  1  0.56267694  0.40262186  0.06305421  1
  O2-  O350  1  0.43481998  0.74224041  0.72264571  1
  O2-  O351  1  0.06751991  0.74150514  0.20336797  1
  O2-  O352  1  0.57720319  0.27358901  0.78416332  1
  O2-  O353  1  0.07460583  0.60373792  0.29044430  1
  O2-  O354  1  0.06356221  0.93151104  0.46953069  1
  O2-  O355  1  0.93148066  0.72739202  0.79467298  1
  O2-  O356  1  0.57216364  0.06317575  0.45800510  1
  O2-  O357  1  0.93486520  0.26236604  0.03567025  1
  O2-  O358  1  0.42951654  0.39636842  0.20008593  1
  O2-  O359  1  0.06724852  0.73973989  0.02738175  1
  O2-  O360  1  0.06543362  0.40722889  0.52728018  1
  O2-  O361  1  0.93510136  0.59359346  0.02684611  1
  O2-  O362  1  0.43664692  0.93064747  0.46627567  1
  O2-  O363  1  0.92819210  0.93476248  0.29122646  1
  O2-  O364  1  0.43731969  0.59348537  0.06415226  1
  O2-  O365  1  0.57373660  0.60266008  0.54616211  1
  O2-  O366  1  0.07484438  0.06201199  0.95279658  1
  O2-  O367  1  0.43595645  0.59570366  0.78398169  1
  O2-  O368  1  0.93818434  0.25982246  0.28040410  1
  O2-  O369  1  0.93748987  0.59471949  0.46712217  1
  O2-  O370  1  0.06373920  0.25633676  0.71933514  1
  O2-  O371  1  0.07061537  0.60863493  0.67010786  1
  O2-  O372  1  0.75001724  0.66260114  0.84801441  1
  O2-  O373  1  0.25016205  0.33012826  0.84430334  1
  O2-  O374  1  0.75010081  0.00042047  0.14583800  1
  O2-  O375  1  0.74976618  0.66894141  0.34127009  1
  O2-  O376  1  0.74999322  -0.00015873  0.35623884  1
  O2-  O377  1  0.25023519  -0.00271293  0.32870937  1
  O2-  O378  1  0.25016494  0.33636682  0.66914357  1
  O2-  O379  1  0.25030587  0.00086325  0.41924219  1
  O2-  O380  1  0.74998550  -0.00445962  0.60726801  1
  O2-  O381  1  0.75001361  0.32901450  0.68402945  1
  O2-  O382  1  0.25008047  0.68254633  0.33627979  1
  O2-  O383  1  0.75007256  0.35033971  0.41463588  1
  O2-  O384  1  0.24994953  0.00367949  0.64766596  1
  O2-  O385  1  0.75002958  -0.00176223  0.91999213  1
  O2-  O386  1  0.75002794  0.32208076  0.32205350  1
  O2-  O387  1  0.24995055  0.65589234  0.42332550  1
  O2-  O388  1  0.25003943  0.67010534  0.90546440  1
  O2-  O389  1  0.75013888  0.33551900  0.84398597  1
  O2-  O390  1  0.25031102  0.00367675  0.15473564  1
  O2-  O391  1  0.74985277  0.34925166  0.59560546  1
  O2-  O392  1  0.25019991  0.66859030  0.09406981  1
  O2-  O393  1  0.25022142  0.00404260  0.84933321  1
  O2-  O394  1  0.74996067  0.00044573  0.82925329  1
  O2-  O395  1  0.25027187  0.33401468  0.57768002  1
  O2-  O396  1  0.75001232  0.16826749  0.85132256  1
  O2-  O397  1  0.24993840  0.49878869  0.09046029  1
  O2-  O398  1  0.74995760  0.16869015  0.08657206  1
  O2-  O399  1  0.25009399  0.50494775  0.83443983  1
  O2-  O400  1  0.24994956  0.83624968  0.91566815  1
  O2-  O401  1  0.25020967  0.83368798  0.09001597  1
  O2-  O402  1  0.74981950  0.16107930  0.34529856  1
  O2-  O403  1  0.74981723  0.48728899  0.35860153  1
  O2-  O404  1  0.75001556  0.16148831  0.93447295  1
  O2-  O405  1  0.24969847  0.16710664  0.90954936  1
  O2-  O406  1  0.74981425  0.48823988  0.13948542  1
  O2-  O407  1  0.25014732  0.17107710  0.59151606  1
  O2-  O408  1  0.74999140  0.82482567  0.87326215  1
  O2-  O409  1  0.25014212  0.16601868  0.82034000  1
  O2-  O410  1  0.25010443  0.49914473  0.35445952  1
  O2-  O411  1  0.25001949  0.84186902  0.66773610  1
  O2-  O412  1  0.74995176  0.82078721  0.62857117  1
  O2-  O413  1  0.25004683  0.17205906  0.40815652  1
  O2-  O414  1  0.25015257  0.50462344  0.62057379  1
  O2-  O415  1  0.25001371  0.82676287  0.58168226  1
  O2-  O416  1  0.74995489  0.50055298  0.65822247  1
  O2-  O417  1  0.74998469  0.51203062  0.44141133  1
  O2-  O418  1  0.74989694  0.50041018  0.05715385  1
  O2-  O419  1  0.74987200  0.17062441  0.60364430  1
  O2-  O420  1  0.02798500  0.33287897  0.37546638  1
  O2-  O421  1  0.47832277  0.67720192  0.37301624  1
  O2-  O422  1  0.97339775  -0.00048283  0.62784874  1
  O2-  O423  1  0.52479991  0.32798277  0.62039165  1
  O2-  O424  1  0.02543933  0.67591171  0.88110866  1
  O2-  O425  1  0.02470275  0.66486254  0.12718030  1
  O2-  O426  1  0.96479341  0.00264581  0.12332524  1
  O2-  O427  1  0.46848997  0.66806184  0.62741205  1
  O2-  O428  1  0.03618344  0.34089429  0.86680572  1
  O2-  O429  1  0.46345047  0.33650124  0.87523733  1
  O2-  O430  1  0.02174324  0.33554858  0.62619920  1
  O2-  O431  1  0.97390520  0.65760108  0.62934480  1
  O2-  O432  1  0.53505663  0.67340235  0.63317473  1
  O2-  O433  1  0.02312155  0.66409657  0.38134974  1
  O2-  O434  1  0.02828166  0.00651153  0.11943015  1
  O2-  O435  1  0.52385435  -0.00378150  0.36685481  1
  O2-  O436  1  0.52836534  -0.00148881  0.62750688  1
  O2-  O437  1  0.02733744  0.33302424  0.12410644  1
  O2-  O438  1  0.52719713  -0.00287882  0.12491515  1
  O2-  O439  1  0.96227536  0.32763840  0.86948117  1
  O2-  O440  1  0.96812346  0.66573961  0.12955776  1
  O2-  O441  1  0.97833765  0.00906593  0.37290311  1
  O2-  O442  1  0.52513470  0.32616881  0.87972695  1
  O2-  O443  1  0.02106324  -0.00695798  0.87431372  1
