# generated using pymatgen
data_La7(Ru4O11)2
_symmetry_space_group_name_H-M   'P 1'
_cell_length_a   23.99042170
_cell_length_b   16.83058619
_cell_length_c   15.42695824
_cell_angle_alpha   90.00081231
_cell_angle_beta   89.99973546
_cell_angle_gamma   89.99952386
_symmetry_Int_Tables_number   1
_chemical_formula_structural   La7(Ru4O11)2
_chemical_formula_sum   'La84 Ru96 O264'
_cell_volume   6228.98705125
_cell_formula_units_Z   12
loop_
 _symmetry_equiv_pos_site_id
 _symmetry_equiv_pos_as_xyz
  1  'x, y, z'
loop_
 _atom_type_symbol
 _atom_type_oxidation_number
  La3+  3.0
  Ru4+  4.0
  O2-  -2.0
loop_
 _atom_site_type_symbol
 _atom_site_label
 _atom_site_symmetry_multiplicity
 _atom_site_fract_x
 _atom_site_fract_y
 _atom_site_fract_z
 _atom_site_occupancy
  La3+  La0  1  0.14047298  0.00083085  0.12813755  1
  La3+  La1  1  0.13943116  0.00106234  0.37116155  1
  La3+  La2  1  0.13598788  0.00221512  0.62607154  1
  La3+  La3  1  0.13818433  0.00262491  0.87331641  1
  La3+  La4  1  0.14053667  0.33173065  0.12621214  1
  La3+  La5  1  0.13246484  0.32830266  0.38084121  1
  La3+  La6  1  0.13622170  0.32928015  0.61893421  1
  La3+  La7  1  0.13806600  0.33217891  0.87625539  1
  La3+  La8  1  0.14121545  0.66416176  0.12583224  1
  La3+  La9  1  0.14067572  0.66322735  0.37822215  1
  La3+  La10  1  0.13698937  0.66521261  0.62143490  1
  La3+  La11  1  0.13656810  0.66555968  0.87810275  1
  La3+  La12  1  0.63686533  -0.00142059  0.12771023  1
  La3+  La13  1  0.64180383  -0.00279723  0.37628584  1
  La3+  La14  1  0.64172789  0.00068080  0.62482774  1
  La3+  La15  1  0.63941126  0.00017640  0.87202479  1
  La3+  La16  1  0.63571844  0.33536241  0.12462896  1
  La3+  La17  1  0.63765772  0.33316259  0.37285255  1
  La3+  La18  1  0.63790174  0.33317271  0.63025992  1
  La3+  La19  1  0.63928526  0.33372620  0.87375148  1
  La3+  La20  1  0.63825556  0.66688945  0.12617554  1
  La3+  La21  1  0.64071477  0.66886439  0.37425921  1
  La3+  La22  1  0.63922049  0.66624127  0.62699220  1
  La3+  La23  1  0.64160178  0.66419750  0.87346384  1
  La3+  La24  1  0.35906879  0.00116469  0.12770716  1
  La3+  La25  1  0.35942773  0.00120147  0.37193113  1
  La3+  La26  1  0.36258112  0.00247299  0.62617589  1
  La3+  La27  1  0.36187065  0.00196122  0.87464122  1
  La3+  La28  1  0.35878943  0.33209572  0.12523618  1
  La3+  La29  1  0.36045214  0.33230091  0.37471877  1
  La3+  La30  1  0.36075169  0.33462658  0.62560133  1
  La3+  La31  1  0.36111555  0.33281829  0.87528802  1
  La3+  La32  1  0.35836941  0.66373791  0.12567146  1
  La3+  La33  1  0.35958083  0.66385011  0.37673114  1
  La3+  La34  1  0.36142604  0.66387505  0.62052523  1
  La3+  La35  1  0.36302890  0.66432051  0.87668061  1
  La3+  La36  1  0.86537785  -0.00523636  0.12703050  1
  La3+  La37  1  0.86085430  -0.00345015  0.37433858  1
  La3+  La38  1  0.85976676  0.00017128  0.62584725  1
  La3+  La39  1  0.86325652  -0.00182004  0.87190818  1
  La3+  La40  1  0.86498050  0.33411789  0.12698184  1
  La3+  La41  1  0.86421322  0.33343328  0.37038127  1
  La3+  La42  1  0.86145886  0.33332069  0.62871238  1
  La3+  La43  1  0.86048782  0.33387185  0.87395359  1
  La3+  La44  1  0.86445337  0.66654303  0.12248928  1
  La3+  La45  1  0.86228924  0.66951791  0.37409593  1
  La3+  La46  1  0.86237658  0.66625731  0.62427504  1
  La3+  La47  1  0.86399333  0.66335314  0.88135907  1
  La3+  La48  1  0.49975151  0.49854658  0.13738120  1
  La3+  La49  1  0.49989492  0.16773466  0.86644436  1
  La3+  La50  1  0.50061614  0.17021575  0.63222978  1
  La3+  La51  1  0.00348041  0.16098441  0.62311288  1
  La3+  La52  1  0.49957388  0.50131734  0.38565524  1
  La3+  La53  1  0.00215391  0.16931334  0.37517979  1
  La3+  La54  1  0.49964366  0.83208507  0.86464288  1
  La3+  La55  1  -0.00125154  0.50373235  0.88231024  1
  La3+  La56  1  -0.00077651  0.49971628  0.63485935  1
  La3+  La57  1  0.50072452  0.16538633  0.36198292  1
  La3+  La58  1  0.50089555  0.16669622  0.11607336  1
  La3+  La59  1  0.50065117  0.82971091  0.36651019  1
  La3+  La60  1  0.00017843  0.49679275  0.11698210  1
  La3+  La61  1  0.50156021  0.83142558  0.61122901  1
  La3+  La62  1  -0.00085466  0.83693608  0.13592245  1
  La3+  La63  1  0.00113771  0.16205606  0.13510162  1
  La3+  La64  1  0.50410661  0.49668264  0.87012728  1
  La3+  La65  1  0.49909439  0.83276078  0.63336809  1
  La3+  La66  1  0.00146472  0.17261954  0.11578001  1
  La3+  La67  1  0.00095071  0.16852833  0.86658586  1
  La3+  La68  1  0.49457022  0.84030718  0.11733516  1
  La3+  La69  1  0.49978279  0.83450669  0.88678908  1
  La3+  La70  1  0.49700183  0.84263426  0.13357297  1
  La3+  La71  1  -0.00026759  0.83601902  0.61870078  1
  La3+  La72  1  0.75121385  0.11568270  0.47450557  1
  La3+  La73  1  0.25012614  0.78708121  0.05070972  1
  La3+  La74  1  0.74995047  0.83731025  0.51745276  1
  La3+  La75  1  0.74976769  0.20333996  0.22460159  1
  La3+  La76  1  0.25212265  0.84299919  0.75118348  1
  La3+  La77  1  0.24957288  0.46086020  0.74622858  1
  La3+  La78  1  0.25000702  0.87635107  0.44922672  1
  La3+  La79  1  0.25037203  0.19724351  0.49556687  1
  La3+  La80  1  0.74983820  0.50106140  0.02163917  1
  La3+  La81  1  0.74999384  0.17189048  0.02290995  1
  La3+  La82  1  0.74979474  0.49948696  0.75603682  1
  La3+  La83  1  0.74958855  0.52175458  0.49548781  1
  Ru4+  Ru84  1  0.00072438  0.00158294  -0.00104285  1
  Ru4+  Ru85  1  -0.00337331  -0.00087882  0.25339237  1
  Ru4+  Ru86  1  0.00065069  -0.00176700  0.49774607  1
  Ru4+  Ru87  1  0.00437849  -0.00677828  0.74757232  1
  Ru4+  Ru88  1  -0.00024509  0.33200411  -0.00146247  1
  Ru4+  Ru89  1  0.00330351  0.34050223  0.24633869  1
  Ru4+  Ru90  1  -0.00241593  0.33195769  0.50594326  1
  Ru4+  Ru91  1  0.00001292  0.33325242  0.75214229  1
  Ru4+  Ru92  1  0.00126044  0.66424322  -0.00229877  1
  Ru4+  Ru93  1  -0.00303195  0.66653753  0.25380834  1
  Ru4+  Ru94  1  -0.00156872  0.67028358  0.49515939  1
  Ru4+  Ru95  1  0.00049480  0.66553025  0.75255572  1
  Ru4+  Ru96  1  0.50126585  0.00184114  0.00252644  1
  Ru4+  Ru97  1  0.50016207  0.00074903  0.24835627  1
  Ru4+  Ru98  1  0.49597817  -0.00427714  0.49958261  1
  Ru4+  Ru99  1  0.50333153  0.00263015  0.74893582  1
  Ru4+  Ru100  1  0.49572274  0.33012532  0.00383773  1
  Ru4+  Ru101  1  0.49949074  0.33144489  0.24700400  1
  Ru4+  Ru102  1  0.50189144  0.33577291  0.49899825  1
  Ru4+  Ru103  1  0.49853409  0.33618747  0.74593845  1
  Ru4+  Ru104  1  0.49895209  0.66355994  -0.00031184  1
  Ru4+  Ru105  1  0.50097367  0.66223009  0.24719523  1
  Ru4+  Ru106  1  0.49796683  0.66479714  0.49957482  1
  Ru4+  Ru107  1  0.50409610  0.66869481  0.74889043  1
  Ru4+  Ru108  1  0.11195709  0.16874552  -0.00038547  1
  Ru4+  Ru109  1  0.11537978  0.16640292  0.25206160  1
  Ru4+  Ru110  1  0.11176067  0.16614591  0.50090247  1
  Ru4+  Ru111  1  0.11263431  0.16522040  0.74796869  1
  Ru4+  Ru112  1  0.11309638  0.50295098  -0.00012562  1
  Ru4+  Ru113  1  0.11398100  0.50094389  0.24941073  1
  Ru4+  Ru114  1  0.11454466  0.50330909  0.49881058  1
  Ru4+  Ru115  1  0.11008234  0.50149245  0.75113535  1
  Ru4+  Ru116  1  0.11214640  0.83254898  0.00031878  1
  Ru4+  Ru117  1  0.11483216  0.83519914  0.25034999  1
  Ru4+  Ru118  1  0.11227205  0.84046329  0.49871227  1
  Ru4+  Ru119  1  0.10980735  0.83317208  0.75050052  1
  Ru4+  Ru120  1  0.60962453  0.16725622  -0.00073687  1
  Ru4+  Ru121  1  0.60973141  0.16687531  0.24943339  1
  Ru4+  Ru122  1  0.61456970  0.17086192  0.50081383  1
  Ru4+  Ru123  1  0.61419636  0.16935017  0.75019232  1
  Ru4+  Ru124  1  0.61504853  0.50414615  -0.00151635  1
  Ru4+  Ru125  1  0.61325472  0.50052593  0.24997547  1
  Ru4+  Ru126  1  0.60916632  0.49835903  0.50080408  1
  Ru4+  Ru127  1  0.61069189  0.50107925  0.74893598  1
  Ru4+  Ru128  1  0.61383788  0.83446186  -0.00049201  1
  Ru4+  Ru129  1  0.61628194  0.83333674  0.25056352  1
  Ru4+  Ru130  1  0.61154609  0.83363072  0.49946758  1
  Ru4+  Ru131  1  0.61545647  0.83468806  0.75026144  1
  Ru4+  Ru132  1  0.38592153  0.16715527  -0.00095624  1
  Ru4+  Ru133  1  0.38526801  0.16806828  0.25042082  1
  Ru4+  Ru134  1  0.38841678  0.16581189  0.50037297  1
  Ru4+  Ru135  1  0.38558472  0.16727819  0.75017717  1
  Ru4+  Ru136  1  0.38648826  0.50154236  -0.00030476  1
  Ru4+  Ru137  1  0.38640219  0.50258785  0.25018252  1
  Ru4+  Ru138  1  0.38741720  0.50239101  0.50068324  1
  Ru4+  Ru139  1  0.38629125  0.49457635  0.74749929  1
  Ru4+  Ru140  1  0.38956338  0.83167833  -0.00102094  1
  Ru4+  Ru141  1  0.38560229  0.83816199  0.25079745  1
  Ru4+  Ru142  1  0.38818956  0.83217016  0.49993068  1
  Ru4+  Ru143  1  0.39063866  0.83192426  0.75038383  1
  Ru4+  Ru144  1  0.88856274  0.16893682  -0.00152941  1
  Ru4+  Ru145  1  0.88477340  0.16131795  0.25173173  1
  Ru4+  Ru146  1  0.88892691  0.16475488  0.49998918  1
  Ru4+  Ru147  1  0.88387236  0.17004447  0.74896941  1
  Ru4+  Ru148  1  0.88735159  0.49926409  -0.00022057  1
  Ru4+  Ru149  1  0.88861150  0.49872464  0.24913590  1
  Ru4+  Ru150  1  0.88746547  0.49521632  0.50097146  1
  Ru4+  Ru151  1  0.88855779  0.49936538  0.75164952  1
  Ru4+  Ru152  1  0.88347743  0.83330222  -0.00082920  1
  Ru4+  Ru153  1  0.88549381  0.83279771  0.25167438  1
  Ru4+  Ru154  1  0.88808290  0.83397132  0.49987178  1
  Ru4+  Ru155  1  0.88564706  0.83524649  0.74888457  1
  Ru4+  Ru156  1  0.25032344  0.72407427  0.49850563  1
  Ru4+  Ru157  1  0.24993315  0.75282249  0.24813677  1
  Ru4+  Ru158  1  0.74982323  0.30308566  0.00517425  1
  Ru4+  Ru159  1  0.25024636  0.41790420  0.00241265  1
  Ru4+  Ru160  1  0.74990238  0.04182780  0.02079070  1
  Ru4+  Ru161  1  0.75031909  0.25140970  0.50362595  1
  Ru4+  Ru162  1  0.25006753  0.24302665  0.74523976  1
  Ru4+  Ru163  1  0.74926916  0.74831921  -0.00427196  1
  Ru4+  Ru164  1  0.74965014  0.90837194  0.00068501  1
  Ru4+  Ru165  1  0.74947609  0.08923853  0.75491723  1
  Ru4+  Ru166  1  0.24949947  0.71346610  0.75041651  1
  Ru4+  Ru167  1  0.74980300  0.06120449  0.24209267  1
  Ru4+  Ru168  1  0.24962009  0.41991391  0.25084196  1
  Ru4+  Ru169  1  0.24955227  0.97404074  0.73757409  1
  Ru4+  Ru170  1  0.24999130  0.94468408  -0.00482539  1
  Ru4+  Ru171  1  0.75019824  0.42823768  0.24874695  1
  Ru4+  Ru172  1  0.24981570  0.06023446  0.50131331  1
  Ru4+  Ru173  1  0.24966249  0.58955397  0.75236294  1
  Ru4+  Ru174  1  0.74992626  0.65080526  0.49887376  1
  Ru4+  Ru175  1  0.75015381  0.39387734  0.50316360  1
  Ru4+  Ru176  1  0.25046676  0.42315525  0.50220338  1
  Ru4+  Ru177  1  0.24984467  0.08793505  0.00082614  1
  Ru4+  Ru178  1  0.75011875  0.74982107  0.75000536  1
  Ru4+  Ru179  1  0.75018160  0.57851342  0.25370183  1
  O2-  O180  1  0.16709324  0.07954703  -0.00208635  1
  O2-  O181  1  0.16706414  0.08063950  0.24917253  1
  O2-  O182  1  0.16494529  0.08032042  0.50073735  1
  O2-  O183  1  0.16790010  0.08031197  0.75109288  1
  O2-  O184  1  0.16845617  0.41445314  -0.00150911  1
  O2-  O185  1  0.16794459  0.41439968  0.25122660  1
  O2-  O186  1  0.16629482  0.41194527  0.49956324  1
  O2-  O187  1  0.16502944  0.41089939  0.75114188  1
  O2-  O188  1  0.16519899  0.74475121  -0.00239014  1
  O2-  O189  1  0.16704295  0.74915838  0.24957817  1
  O2-  O190  1  0.16632157  0.74684329  0.50100110  1
  O2-  O191  1  0.16500081  0.74446072  0.75020141  1
  O2-  O192  1  0.66484560  0.07818526  0.00198716  1
  O2-  O193  1  0.66814258  0.07942833  0.24906536  1
  O2-  O194  1  0.66465235  0.08139664  0.49967334  1
  O2-  O195  1  0.66702774  0.08137254  0.75178950  1
  O2-  O196  1  0.66669420  0.41411967  0.00221265  1
  O2-  O197  1  0.66783013  0.41476251  0.24881498  1
  O2-  O198  1  0.66677457  0.41157028  0.49888713  1
  O2-  O199  1  0.66597565  0.41455782  0.75092305  1
  O2-  O200  1  0.66875135  0.74699872  0.00289651  1
  O2-  O201  1  0.66778703  0.74790156  0.24712036  1
  O2-  O202  1  0.66937241  0.74570771  0.50224952  1
  O2-  O203  1  0.66929911  0.74870846  0.74987894  1
  O2-  O204  1  0.33209451  0.25193940  -0.00107590  1
  O2-  O205  1  0.33285015  0.25250064  0.25110245  1
  O2-  O206  1  0.33309157  0.25447890  0.49819309  1
  O2-  O207  1  0.33140940  0.25165203  0.75232879  1
  O2-  O208  1  0.33331808  0.58681713  -0.00104129  1
  O2-  O209  1  0.33476696  0.58459525  0.25001699  1
  O2-  O210  1  0.33349705  0.58385230  0.49858556  1
  O2-  O211  1  0.33217482  0.58651834  0.75286719  1
  O2-  O212  1  0.33158797  0.92162888  -0.00010986  1
  O2-  O213  1  0.33258024  0.91930226  0.25044741  1
  O2-  O214  1  0.33543350  0.92134644  0.50325821  1
  O2-  O215  1  0.33294457  0.92384555  0.74789778  1
  O2-  O216  1  0.83228459  0.25473193  0.00173893  1
  O2-  O217  1  0.83503129  0.25432149  0.24810542  1
  O2-  O218  1  0.83252141  0.25359251  0.50097217  1
  O2-  O219  1  0.83547318  0.25153151  0.75157815  1
  O2-  O220  1  0.83155147  0.58633348  0.00136447  1
  O2-  O221  1  0.83307726  0.58492467  0.24838662  1
  O2-  O222  1  0.83549333  0.58888507  0.49928254  1
  O2-  O223  1  0.83395733  0.58726834  0.75118594  1
  O2-  O224  1  0.83368667  0.91795893  -0.00065738  1
  O2-  O225  1  0.83292901  0.91868598  0.24996828  1
  O2-  O226  1  0.83477783  0.91845662  0.50068202  1
  O2-  O227  1  0.83484965  0.91801535  0.75055102  1
  O2-  O228  1  0.16615542  0.25268026  -0.00161658  1
  O2-  O229  1  0.16453509  0.25314268  0.25090710  1
  O2-  O230  1  0.16744361  0.25631954  0.49897267  1
  O2-  O231  1  0.16619828  0.25298994  0.75150210  1
  O2-  O232  1  0.16662046  0.58636261  -0.00122961  1
  O2-  O233  1  0.16464089  0.58449064  0.25011034  1
  O2-  O234  1  0.16414059  0.58434146  0.50104116  1
  O2-  O235  1  0.16539858  0.58663219  0.75007632  1
  O2-  O236  1  0.16662587  0.92121744  -0.00115074  1
  O2-  O237  1  0.16697535  0.91896936  0.25093575  1
  O2-  O238  1  0.16510420  0.92014745  0.50208117  1
  O2-  O239  1  0.16533325  0.92256563  0.74963557  1
  O2-  O240  1  0.66772068  0.25581112  0.00204710  1
  O2-  O241  1  0.66363793  0.25505701  0.24981540  1
  O2-  O242  1  0.66602927  0.25488350  0.49879125  1
  O2-  O243  1  0.66631656  0.25039958  0.75244972  1
  O2-  O244  1  0.66883615  0.58539230  0.00381882  1
  O2-  O245  1  0.66888139  0.58450730  0.24835861  1
  O2-  O246  1  0.66497785  0.58887359  0.50033747  1
  O2-  O247  1  0.66832764  0.58481612  0.74901544  1
  O2-  O248  1  0.66595059  0.91874436  0.00058723  1
  O2-  O249  1  0.66490932  0.91859253  0.24911760  1
  O2-  O250  1  0.66470708  0.91874788  0.50018249  1
  O2-  O251  1  0.66762006  0.91719098  0.75094969  1
  O2-  O252  1  0.33245061  0.08159321  -0.00080736  1
  O2-  O253  1  0.33554994  0.08140930  0.24942700  1
  O2-  O254  1  0.33340110  0.07991401  0.50200799  1
  O2-  O255  1  0.33418173  0.08029430  0.74893142  1
  O2-  O256  1  0.33172905  0.41484764  -0.00161684  1
  O2-  O257  1  0.33320216  0.41437684  0.25075280  1
  O2-  O258  1  0.33273289  0.41427620  0.49853155  1
  O2-  O259  1  0.33228222  0.41222816  0.75233458  1
  O2-  O260  1  0.33485618  0.74455030  -0.00172943  1
  O2-  O261  1  0.33390951  0.74754479  0.25017878  1
  O2-  O262  1  0.33179267  0.74735723  0.49961679  1
  O2-  O263  1  0.33476381  0.74455028  0.75081260  1
  O2-  O264  1  0.83507317  0.07733056  0.00031657  1
  O2-  O265  1  0.83158458  0.08017971  0.24822428  1
  O2-  O266  1  0.83849342  0.07926965  0.50113281  1
  O2-  O267  1  0.83285215  0.08157841  0.75176724  1
  O2-  O268  1  0.83384915  0.41457191  0.00182995  1
  O2-  O269  1  0.83041655  0.41500470  0.24781506  1
  O2-  O270  1  0.83387867  0.41233819  0.49930950  1
  O2-  O271  1  0.83426106  0.41492979  0.75089775  1
  O2-  O272  1  0.83348780  0.74805310  0.00071890  1
  O2-  O273  1  0.83510020  0.74731881  0.24919038  1
  O2-  O274  1  0.83261674  0.74553651  0.50079235  1
  O2-  O275  1  0.83238519  0.74684947  0.75110798  1
  O2-  O276  1  0.45099652  0.76270673  0.23694384  1
  O2-  O277  1  0.95824673  0.56218834  0.98364901  1
  O2-  O278  1  0.04956509  0.90453370  0.48400295  1
  O2-  O279  1  0.04787263  0.43563252  0.48054257  1
  O2-  O280  1  0.04527467  0.22635748  0.51002294  1
  O2-  O281  1  0.95445512  0.76252979  0.02011753  1
  O2-  O282  1  0.95379812  0.23517569  0.23036932  1
  O2-  O283  1  0.46019353  0.56137376  0.75525678  1
  O2-  O284  1  0.04447553  0.43348157  0.76123214  1
  O2-  O285  1  0.04009252  0.90027241  0.28160489  1
  O2-  O286  1  0.96362995  0.10932015  0.73840280  1
  O2-  O287  1  0.53919077  0.77784940  0.02890627  1
  O2-  O288  1  0.45872431  0.23037019  0.46725279  1
  O2-  O289  1  0.54722119  0.56620069  0.48749490  1
  O2-  O290  1  0.04993012  0.75914847  0.51798755  1
  O2-  O291  1  0.95367677  0.23236177  0.26948690  1
  O2-  O292  1  0.54962210  0.43256958  0.98111684  1
  O2-  O293  1  0.53576595  0.55982984  0.03224629  1
  O2-  O294  1  0.95404302  0.90404142  0.01844753  1
  O2-  O295  1  0.94872059  0.76557926  0.26096832  1
  O2-  O296  1  0.95471115  0.56930543  0.73736302  1
  O2-  O297  1  0.95739055  0.10103600  0.77499865  1
  O2-  O298  1  0.04358785  0.42758189  0.51822274  1
  O2-  O299  1  0.95456498  0.23892592  0.76014753  1
  O2-  O300  1  0.45352905  0.09739792  0.73894055  1
  O2-  O301  1  0.94987038  0.42848565  0.98693484  1
  O2-  O302  1  0.95059907  0.56745724  0.51797315  1
  O2-  O303  1  0.04743710  0.75778098  0.47888048  1
  O2-  O304  1  0.94919784  0.76276527  0.51914374  1
  O2-  O305  1  0.54413544  0.42493725  0.01858099  1
  O2-  O306  1  0.95990121  0.22569078  0.53354898  1
  O2-  O307  1  0.95549699  0.90262354  0.97935920  1
  O2-  O308  1  0.45306193  0.43324428  0.24172504  1
  O2-  O309  1  0.54293538  0.78087502  0.21939786  1
  O2-  O310  1  0.55023964  0.24213489  0.51261829  1
  O2-  O311  1  0.03924097  0.77527072  0.25546636  1
  O2-  O312  1  0.45531928  0.90063540  0.48563707  1
  O2-  O313  1  0.54664451  0.43442540  0.73862212  1
  O2-  O314  1  0.45976129  0.56163377  0.75560988  1
  O2-  O315  1  0.53727152  0.11053221  0.49964341  1
  O2-  O316  1  0.95512403  0.10079064  0.00947824  1
  O2-  O317  1  0.96231842  0.56476847  -0.00634310  1
  O2-  O318  1  0.44765149  0.09291997  0.48319604  1
  O2-  O319  1  0.04840639  0.23984641  0.48564930  1
  O2-  O320  1  0.95043734  0.90597050  0.51745030  1
  O2-  O321  1  0.53723390  0.11043983  0.50006740  1
  O2-  O322  1  0.95574728  0.76198198  0.98105709  1
  O2-  O323  1  0.04933694  0.43222438  0.98920335  1
  O2-  O324  1  0.06758884  0.26720081  0.53494961  1
  O2-  O325  1  0.43761165  0.26483450  0.31672784  1
  O2-  O326  1  0.43597574  0.40864210  0.52341472  1
  O2-  O327  1  0.57158936  0.05006524  0.43141852  1
  O2-  O328  1  0.56498779  0.25752411  0.97248910  1
  O2-  O329  1  0.57567734  0.73080593  0.30061343  1
  O2-  O330  1  0.56481115  0.74318485  0.72118698  1
  O2-  O331  1  0.92513245  0.05222318  0.70028984  1
  O2-  O332  1  0.42687262  0.26535396  0.54268320  1
  O2-  O333  1  0.57464102  0.59918370  0.95067784  1
  O2-  O334  1  0.93446231  0.92504110  0.21939132  1
  O2-  O335  1  0.57837085  0.05934942  0.56059907  1
  O2-  O336  1  0.56834344  0.59298040  0.78020918  1
  O2-  O337  1  0.06214318  0.07125112  0.28518472  1
  O2-  O338  1  0.93692062  0.40330807  0.53560302  1
  O2-  O339  1  0.43706992  0.07407817  0.96615643  1
  O2-  O340  1  0.43552075  0.93156908  0.18290731  1
  O2-  O341  1  0.43257936  0.40618456  0.72415591  1
  O2-  O342  1  0.43352723  0.25524591  0.05716137  1
  O2-  O343  1  0.43470087  0.59192338  0.52726411  1
  O2-  O344  1  0.43642866  0.93080783  0.78310328  1
  O2-  O345  1  0.43422945  0.25564116  0.19214739  1
  O2-  O346  1  0.06805766  0.93829382  0.20058416  1
  O2-  O347  1  0.93559817  0.07409977  0.27830336  1
  O2-  O348  1  0.93525027  0.25863971  0.97275708  1
  O2-  O349  1  0.43483512  0.25714620  0.72298040  1
  O2-  O350  1  0.56711066  0.91966468  0.68758198  1
  O2-  O351  1  0.92364697  0.26910880  0.45093874  1
  O2-  O352  1  0.56614989  0.92331991  0.81153900  1
  O2-  O353  1  0.43795573  0.93173322  0.31798153  1
  O2-  O354  1  0.07375429  0.71693567  0.29030883  1
  O2-  O355  1  0.43422468  0.25477012  0.94212510  1
  O2-  O356  1  0.43624041  0.92720409  0.96654671  1
  O2-  O357  1  0.42023586  0.60849652  0.71048357  1
  O2-  O358  1  0.56480598  0.40577344  0.52335642  1
  O2-  O359  1  0.93278715  0.40943770  0.27550734  1
  O2-  O360  1  0.06494933  0.41084226  0.22270393  1
  O2-  O361  1  0.56395933  0.07395296  0.22426476  1
  O2-  O362  1  0.06525567  0.07371235  0.72366443  1
  O2-  O363  1  0.43572228  0.74289006  0.47179652  1
  O2-  O364  1  0.56554337  0.07458582  0.72164180  1
  O2-  O365  1  0.56368326  0.58793417  0.27715724  1
  O2-  O366  1  0.57720622  0.73288550  0.94831566  1
  O2-  O367  1  0.92214264  0.61761937  0.05372272  1
  O2-  O368  1  0.56455634  0.74110558  0.47307561  1
  O2-  O369  1  0.56468829  0.25893560  0.72421069  1
  O2-  O370  1  0.94035961  0.59807967  0.53129728  1
  O2-  O371  1  0.56407800  0.40201977  0.21824779  1
  O2-  O372  1  0.24997595  0.33318994  0.17027372  1
  O2-  O373  1  0.74973483  -0.01078533  0.33198657  1
  O2-  O374  1  0.24981622  0.00286403  0.10025004  1
  O2-  O375  1  0.24959651  0.66447527  0.60072511  1
  O2-  O376  1  0.75038729  0.67003874  0.65662878  1
  O2-  O377  1  0.75051465  -0.00653699  0.81812464  1
  O2-  O378  1  0.24987932  -0.00110932  0.40024972  1
  O2-  O379  1  0.75007542  0.66190406  0.34464075  1
  O2-  O380  1  0.75059489  0.66982339  0.90557499  1
  O2-  O381  1  0.74982561  0.33807647  0.89540586  1
  O2-  O382  1  0.75012710  0.00074846  0.57881555  1
  O2-  O383  1  0.75002582  0.32614709  0.59862381  1
  O2-  O384  1  0.24955415  0.32975615  0.57812728  1
  O2-  O385  1  0.74999457  0.33007697  0.30979117  1
  O2-  O386  1  0.24976698  0.00361353  0.85554857  1
  O2-  O387  1  0.74984267  -0.00245782  0.42330730  1
  O2-  O388  1  0.24993129  0.67022752  0.15542567  1
  O2-  O389  1  0.75011725  0.33545634  0.68645735  1
  O2-  O390  1  0.75001676  0.32401435  0.40733266  1
  O2-  O391  1  0.24976132  0.33601488  0.67332039  1
  O2-  O392  1  0.75032959  -0.00180093  0.67204293  1
  O2-  O393  1  0.24984635  0.33361139  0.07716997  1
  O2-  O394  1  0.24986494  0.66600682  0.39901172  1
  O2-  O395  1  0.75045102  -0.00910705  0.91212957  1
  O2-  O396  1  0.75003047  0.49550995  0.62463741  1
  O2-  O397  1  0.75008196  0.83175005  0.90614527  1
  O2-  O398  1  0.74959470  0.17340755  0.59686261  1
  O2-  O399  1  0.24983092  0.50131330  0.41850265  1
  O2-  O400  1  0.75005211  0.16908893  0.35124383  1
  O2-  O401  1  0.75000028  0.16320142  0.88313466  1
  O2-  O402  1  0.74983673  0.83431501  0.16926338  1
  O2-  O403  1  0.74999177  0.49521517  0.36170951  1
  O2-  O404  1  0.74987128  0.82992510  0.08448102  1
  O2-  O405  1  0.25003963  0.83613098  0.17132184  1
  O2-  O406  1  0.74987439  0.83232604  0.39237738  1
  O2-  O407  1  0.24995407  0.50028675  0.32896906  1
  O2-  O408  1  0.75029357  0.17490721  0.68523709  1
  O2-  O409  1  0.24981035  0.49656302  0.59267474  1
  O2-  O410  1  0.24989874  0.16560000  0.35226288  1
  O2-  O411  1  0.24994320  0.16439812  0.16578016  1
  O2-  O412  1  0.25001951  0.16896344  0.66075793  1
  O2-  O413  1  0.74998993  0.49951681  0.89112389  1
  O2-  O414  1  0.24996916  0.17030337  0.08209282  1
  O2-  O415  1  0.24938717  0.82342735  0.86800363  1
  O2-  O416  1  0.24932485  0.83984046  0.63256202  1
  O2-  O417  1  0.25025287  0.81885053  0.55887530  1
  O2-  O418  1  0.25009892  0.82704004  0.33017017  1
  O2-  O419  1  0.25026273  0.84757564  0.94119103  1
  O2-  O420  1  0.53110887  0.33470359  0.86980932  1
  O2-  O421  1  0.53057942  0.33266062  0.62661401  1
  O2-  O422  1  0.47416834  0.33505525  0.62788929  1
  O2-  O423  1  0.97478647  -0.00095911  0.38036326  1
  O2-  O424  1  0.52645502  0.66623590  0.12715734  1
  O2-  O425  1  0.52634639  -0.00406016  0.11955107  1
  O2-  O426  1  0.52551567  0.66108157  0.38066732  1
  O2-  O427  1  0.96293592  0.34055037  0.86929729  1
  O2-  O428  1  0.04117165  0.32777138  0.87656779  1
  O2-  O429  1  0.51649471  0.67239378  0.86958608  1
  O2-  O430  1  0.03466963  0.33304261  0.36808186  1
  O2-  O431  1  0.46762247  0.68113332  0.62328000  1
  O2-  O432  1  0.97428650  0.33634498  0.37057315  1
  O2-  O433  1  0.95711840  0.33629551  0.12376619  1
  O2-  O434  1  0.47062366  0.34172082  0.86798114  1
  O2-  O435  1  0.04102820  0.32524928  0.11857173  1
  O2-  O436  1  0.52341045  0.00788700  0.88219285  1
  O2-  O437  1  0.53626306  0.66233710  0.61924733  1
  O2-  O438  1  0.97619997  0.00684445  0.12451141  1
  O2-  O439  1  0.97180105  0.66285057  0.37335916  1
  O2-  O440  1  0.51647687  -0.00503547  0.62062679  1
  O2-  O441  1  0.46634573  0.66104940  0.37024156  1
  O2-  O442  1  0.47996706  0.34521912  0.12202343  1
  O2-  O443  1  0.02582507  -0.00342116  0.62056567  1
