# generated using pymatgen
data_La7(Ru4O11)2
_symmetry_space_group_name_H-M   'P 1'
_cell_length_a   23.99264512
_cell_length_b   16.83494554
_cell_length_c   15.42815794
_cell_angle_alpha   89.99819594
_cell_angle_beta   89.99859889
_cell_angle_gamma   89.99898223
_symmetry_Int_Tables_number   1
_chemical_formula_structural   La7(Ru4O11)2
_chemical_formula_sum   'La84 Ru96 O264'
_cell_volume   6231.66246443
_cell_formula_units_Z   12
loop_
 _symmetry_equiv_pos_site_id
 _symmetry_equiv_pos_as_xyz
  1  'x, y, z'
loop_
 _atom_type_symbol
 _atom_type_oxidation_number
  La3+  3.0
  Ru4+  4.0
  O2-  -2.0
loop_
 _atom_site_type_symbol
 _atom_site_label
 _atom_site_symmetry_multiplicity
 _atom_site_fract_x
 _atom_site_fract_y
 _atom_site_fract_z
 _atom_site_occupancy
  La3+  La0  1  0.13591821  -0.00085042  0.12910615  1
  La3+  La1  1  0.13722654  0.00113202  0.36815598  1
  La3+  La2  1  0.14447105  -0.00203409  0.63173194  1
  La3+  La3  1  0.14381278  0.00166505  0.87118213  1
  La3+  La4  1  0.13872933  0.33328893  0.12942060  1
  La3+  La5  1  0.13696319  0.33081898  0.36692059  1
  La3+  La6  1  0.13761056  0.33108957  0.62696272  1
  La3+  La7  1  0.13789841  0.33353633  0.87296624  1
  La3+  La8  1  0.14125357  0.66629039  0.12925912  1
  La3+  La9  1  0.14212301  0.66797489  0.37514852  1
  La3+  La10  1  0.14311950  0.67166819  0.62960839  1
  La3+  La11  1  0.13829801  0.66727012  0.86729746  1
  La3+  La12  1  0.64120694  0.00166233  0.12782160  1
  La3+  La13  1  0.64484218  -0.00230944  0.37166770  1
  La3+  La14  1  0.64935493  0.00393609  0.62887281  1
  La3+  La15  1  0.63242517  0.00193133  0.86832604  1
  La3+  La16  1  0.63266703  0.33641131  0.12753665  1
  La3+  La17  1  0.63370740  0.32931744  0.37888596  1
  La3+  La18  1  0.64256634  0.32562535  0.62322122  1
  La3+  La19  1  0.63156158  0.33350707  0.87066165  1
  La3+  La20  1  0.63553017  0.67158345  0.13009466  1
  La3+  La21  1  0.63522661  0.67259054  0.37051028  1
  La3+  La22  1  0.64186659  0.66861434  0.62608623  1
  La3+  La23  1  0.63955715  0.67125194  0.87373492  1
  La3+  La24  1  0.36292216  0.00169999  0.12500845  1
  La3+  La25  1  0.36162552  -0.00163155  0.37042646  1
  La3+  La26  1  0.35789424  -0.00182647  0.63040830  1
  La3+  La27  1  0.35334380  0.00175175  0.86882052  1
  La3+  La28  1  0.36481641  0.33328335  0.12842509  1
  La3+  La29  1  0.36247297  0.33368368  0.36492202  1
  La3+  La30  1  0.36148698  0.33462882  0.62640765  1
  La3+  La31  1  0.35528628  0.33108858  0.87868116  1
  La3+  La32  1  0.36049612  0.66821617  0.12826606  1
  La3+  La33  1  0.35684186  0.67047976  0.37017449  1
  La3+  La34  1  0.35274829  0.66753201  0.62930925  1
  La3+  La35  1  0.35700661  0.66457371  0.87077609  1
  La3+  La36  1  0.85915367  0.00072746  0.12500397  1
  La3+  La37  1  0.85688641  -0.00123540  0.37252328  1
  La3+  La38  1  0.84798490  0.00855623  0.62455546  1
  La3+  La39  1  0.85186385  0.00322700  0.87104303  1
  La3+  La40  1  0.86451061  0.33764717  0.12873419  1
  La3+  La41  1  0.86019959  0.33416041  0.37514509  1
  La3+  La42  1  0.85496904  0.32874267  0.62258245  1
  La3+  La43  1  0.85839014  0.33888013  0.87500697  1
  La3+  La44  1  0.86210881  0.66820606  0.12770533  1
  La3+  La45  1  0.86073274  0.66890626  0.37295032  1
  La3+  La46  1  0.85725437  0.66816856  0.62983648  1
  La3+  La47  1  0.85641371  0.66840356  0.86979359  1
  La3+  La48  1  0.49728241  0.17859557  0.37177746  1
  La3+  La49  1  0.00201153  0.82845603  0.88569889  1
  La3+  La50  1  0.50628460  0.16725825  0.35952357  1
  La3+  La51  1  0.00016155  0.49477551  0.62639805  1
  La3+  La52  1  0.49773836  0.83651745  0.13538092  1
  La3+  La53  1  0.50875711  0.16839104  0.63163802  1
  La3+  La54  1  0.50332009  0.50606561  0.60561387  1
  La3+  La55  1  -0.00085732  0.16837158  0.88068778  1
  La3+  La56  1  -0.00203068  0.16598753  0.85809608  1
  La3+  La57  1  0.50121274  0.49134832  0.86476910  1
  La3+  La58  1  0.50566704  0.17014097  0.61538363  1
  La3+  La59  1  0.49943867  0.82521829  0.89080535  1
  La3+  La60  1  0.50166426  0.49980716  0.36603365  1
  La3+  La61  1  0.00361492  0.16118559  0.61292934  1
  La3+  La62  1  0.50526062  0.16116069  0.88733981  1
  La3+  La63  1  0.50132349  0.16721060  0.86653655  1
  La3+  La64  1  0.00460093  0.82429550  0.86998342  1
  La3+  La65  1  -0.00025615  0.16669020  0.14170453  1
  La3+  La66  1  -0.00047495  0.50044206  0.12010086  1
  La3+  La67  1  0.49714058  0.50277507  0.11572214  1
  La3+  La68  1  0.00142948  0.82921088  0.37764381  1
  La3+  La69  1  0.00837646  0.84105209  0.13079826  1
  La3+  La70  1  0.00097418  0.50209777  0.38276659  1
  La3+  La71  1  0.00237347  0.82891560  0.61404393  1
  La3+  La72  1  0.74967778  0.90351790  0.49753251  1
  La3+  La73  1  0.74854642  0.55415527  0.75924414  1
  La3+  La74  1  0.75076860  0.16435006  0.49028378  1
  La3+  La75  1  0.75094370  0.12178504  0.27053164  1
  La3+  La76  1  0.25058104  0.53139338  0.50928551  1
  La3+  La77  1  0.24938551  0.17006088  0.23658310  1
  La3+  La78  1  0.24986503  0.12678370  0.01880966  1
  La3+  La79  1  0.74899389  0.18035056  0.07286561  1
  La3+  La80  1  0.24949784  0.82549643  -0.06256942  1
  La3+  La81  1  0.24926046  0.15513045  0.53871166  1
  La3+  La82  1  0.75061332  0.54869466  -0.02303459  1
  La3+  La83  1  0.74955632  0.82247642  0.05053954  1
  Ru4+  Ru84  1  -0.00047049  0.00059865  0.00506571  1
  Ru4+  Ru85  1  0.00061479  0.00109592  0.24842241  1
  Ru4+  Ru86  1  -0.00348160  -0.00053645  0.50413405  1
  Ru4+  Ru87  1  -0.01316014  -0.01130104  0.74855849  1
  Ru4+  Ru88  1  0.00081818  0.33742237  0.00636546  1
  Ru4+  Ru89  1  -0.00626731  0.33509825  0.24624276  1
  Ru4+  Ru90  1  0.00102340  0.33051053  0.50097261  1
  Ru4+  Ru91  1  -0.00314055  0.34167373  0.74338297  1
  Ru4+  Ru92  1  -0.00794706  0.66976770  0.01613939  1
  Ru4+  Ru93  1  -0.00344297  0.66561424  0.24845066  1
  Ru4+  Ru94  1  0.00407692  0.66663661  0.48859018  1
  Ru4+  Ru95  1  -0.00429386  0.66065922  0.74581421  1
  Ru4+  Ru96  1  0.50581667  -0.00277034  0.01035924  1
  Ru4+  Ru97  1  0.49730121  -0.00334226  0.24050055  1
  Ru4+  Ru98  1  0.49534991  -0.00776271  0.50469766  1
  Ru4+  Ru99  1  0.49595046  -0.01250581  0.74470658  1
  Ru4+  Ru100  1  0.49704287  0.32913132  0.00730449  1
  Ru4+  Ru101  1  0.49561305  0.34517277  0.24356939  1
  Ru4+  Ru102  1  0.49518404  0.34229848  0.49995765  1
  Ru4+  Ru103  1  0.49456363  0.34321150  0.75076398  1
  Ru4+  Ru104  1  0.49898609  0.66580086  0.01509514  1
  Ru4+  Ru105  1  0.49469346  0.66529587  0.24958802  1
  Ru4+  Ru106  1  0.50040770  0.66451982  0.49595525  1
  Ru4+  Ru107  1  0.49118628  0.67486687  0.73983752  1
  Ru4+  Ru108  1  0.10944904  0.16780768  0.00564009  1
  Ru4+  Ru109  1  0.11178370  0.16037358  0.25718809  1
  Ru4+  Ru110  1  0.10814951  0.16884166  0.49817039  1
  Ru4+  Ru111  1  0.11819191  0.16071823  0.74502399  1
  Ru4+  Ru112  1  0.11172350  0.49877470  0.00124400  1
  Ru4+  Ru113  1  0.11269698  0.49804108  0.24960528  1
  Ru4+  Ru114  1  0.10840792  0.49829870  0.49901506  1
  Ru4+  Ru115  1  0.11118142  0.50235720  0.75179225  1
  Ru4+  Ru116  1  0.11238905  0.82912684  0.00145413  1
  Ru4+  Ru117  1  0.11655769  0.82916782  0.25175854  1
  Ru4+  Ru118  1  0.11454966  0.82946407  0.50217866  1
  Ru4+  Ru119  1  0.11830962  0.83469057  0.75065870  1
  Ru4+  Ru120  1  0.60875886  0.16583125  0.00078246  1
  Ru4+  Ru121  1  0.61250944  0.16190658  0.24222972  1
  Ru4+  Ru122  1  0.61815371  0.16287870  0.50240989  1
  Ru4+  Ru123  1  0.62289078  0.16647625  0.74943895  1
  Ru4+  Ru124  1  0.61268238  0.50775520  0.00155428  1
  Ru4+  Ru125  1  0.61404220  0.49963172  0.25045769  1
  Ru4+  Ru126  1  0.61443537  0.49775749  0.49945702  1
  Ru4+  Ru127  1  0.60919894  0.50025643  0.75001764  1
  Ru4+  Ru128  1  0.60759047  0.84255407  0.00057831  1
  Ru4+  Ru129  1  0.61814619  0.83516607  0.25173743  1
  Ru4+  Ru130  1  0.60676204  0.83282902  0.50309680  1
  Ru4+  Ru131  1  0.61568974  0.83360594  0.74861988  1
  Ru4+  Ru132  1  0.39556728  0.15769032  0.00107330  1
  Ru4+  Ru133  1  0.38384908  0.15926535  0.24615112  1
  Ru4+  Ru134  1  0.38550681  0.16336142  0.50322540  1
  Ru4+  Ru135  1  0.38588822  0.16374429  0.75018235  1
  Ru4+  Ru136  1  0.38815424  0.50096112  0.00065626  1
  Ru4+  Ru137  1  0.38829592  0.49783824  0.25044705  1
  Ru4+  Ru138  1  0.39017652  0.50680373  0.49844391  1
  Ru4+  Ru139  1  0.39073749  0.49748963  0.75195703  1
  Ru4+  Ru140  1  0.38829486  0.83142417  0.00165590  1
  Ru4+  Ru141  1  0.38985360  0.83095548  0.25357125  1
  Ru4+  Ru142  1  0.38641972  0.82866359  0.49926293  1
  Ru4+  Ru143  1  0.38779768  0.82672316  0.74863264  1
  Ru4+  Ru144  1  0.88996159  0.15795928  0.00424059  1
  Ru4+  Ru145  1  0.89054657  0.16686698  0.25182857  1
  Ru4+  Ru146  1  0.88978552  0.16713453  0.50149420  1
  Ru4+  Ru147  1  0.88302648  0.17142802  0.74675265  1
  Ru4+  Ru148  1  0.89256352  0.49850623  0.00002895  1
  Ru4+  Ru149  1  0.88655340  0.49622753  0.25074235  1
  Ru4+  Ru150  1  0.88711934  0.49579660  0.49991895  1
  Ru4+  Ru151  1  0.89018597  0.50039841  0.74728102  1
  Ru4+  Ru152  1  0.89026545  0.82886460  -0.00217948  1
  Ru4+  Ru153  1  0.88447430  0.83429684  0.24637643  1
  Ru4+  Ru154  1  0.89094385  0.83551743  0.49795451  1
  Ru4+  Ru155  1  0.88912254  0.84106665  0.74871753  1
  Ru4+  Ru156  1  0.24967662  0.42307172  0.74089728  1
  Ru4+  Ru157  1  0.25094251  0.26733862  -0.01186772  1
  Ru4+  Ru158  1  0.74897351  0.27970449  0.25257297  1
  Ru4+  Ru159  1  0.74999600  0.38981076  0.73035196  1
  Ru4+  Ru160  1  0.24973820  0.94309022  0.02196808  1
  Ru4+  Ru161  1  0.24995893  0.70732014  0.03072202  1
  Ru4+  Ru162  1  0.24981169  0.26714144  0.45601138  1
  Ru4+  Ru163  1  0.74954284  0.27733836  -0.03816518  1
  Ru4+  Ru164  1  0.74991193  0.93456871  -0.03683537  1
  Ru4+  Ru165  1  0.25047400  0.24045908  0.76026019  1
  Ru4+  Ru166  1  0.25014086  0.57367800  0.25102725  1
  Ru4+  Ru167  1  0.24797770  0.67592207  0.50275984  1
  Ru4+  Ru168  1  0.25081453  0.90922982  0.23680667  1
  Ru4+  Ru169  1  0.74969500  0.74644722  0.50548553  1
  Ru4+  Ru170  1  0.24969539  0.88652583  0.52578895  1
  Ru4+  Ru171  1  0.24855576  0.02451329  0.47606522  1
  Ru4+  Ru172  1  0.74999216  0.58324780  0.25155060  1
  Ru4+  Ru173  1  0.25001042  0.39643396  0.48539194  1
  Ru4+  Ru174  1  0.24939578  0.41427404  0.00936336  1
  Ru4+  Ru175  1  0.24965619  0.57444784  0.01622567  1
  Ru4+  Ru176  1  0.74865226  0.40701983  0.01081943  1
  Ru4+  Ru177  1  0.74785461  0.07086644  -0.02936452  1
  Ru4+  Ru178  1  0.75000427  0.57255972  0.49264514  1
  Ru4+  Ru179  1  0.74930995  0.69136332  0.00584385  1
  O2-  O180  1  0.16352913  0.07996432  0.00069326  1
  O2-  O181  1  0.17019374  0.08009755  0.24887047  1
  O2-  O182  1  0.16307847  0.07651748  0.49980048  1
  O2-  O183  1  0.16731259  0.08081734  0.74920902  1
  O2-  O184  1  0.16464976  0.41350838  0.00071093  1
  O2-  O185  1  0.16174174  0.41526866  0.24912806  1
  O2-  O186  1  0.16429619  0.41335878  0.49942569  1
  O2-  O187  1  0.16659814  0.41305107  0.74842556  1
  O2-  O188  1  0.16689303  0.74362130  -0.00049979  1
  O2-  O189  1  0.16433633  0.74685266  0.25084354  1
  O2-  O190  1  0.17152676  0.74690580  0.49849903  1
  O2-  O191  1  0.16743303  0.74789878  0.75352905  1
  O2-  O192  1  0.66649603  0.08032641  -0.00204267  1
  O2-  O193  1  0.66628051  0.07966413  0.24789855  1
  O2-  O194  1  0.66645647  0.07753572  0.49564840  1
  O2-  O195  1  0.66753547  0.07798370  0.75158978  1
  O2-  O196  1  0.66518001  0.41388568  0.00030663  1
  O2-  O197  1  0.66193937  0.41382653  0.25010318  1
  O2-  O198  1  0.66497620  0.41533185  0.49826228  1
  O2-  O199  1  0.67021107  0.41225395  0.74839517  1
  O2-  O200  1  0.66330957  0.74723958  0.00147142  1
  O2-  O201  1  0.66439629  0.74703077  0.25007277  1
  O2-  O202  1  0.66253981  0.74731199  0.49907870  1
  O2-  O203  1  0.66172514  0.74780337  0.75322405  1
  O2-  O204  1  0.33674533  0.25021516  0.00468044  1
  O2-  O205  1  0.33219377  0.25325701  0.24768629  1
  O2-  O206  1  0.33447322  0.25481173  0.49667641  1
  O2-  O207  1  0.33407391  0.25493918  0.74936067  1
  O2-  O208  1  0.33501386  0.58505565  0.00074616  1
  O2-  O209  1  0.33466370  0.58590086  0.25074084  1
  O2-  O210  1  0.33593661  0.59067904  0.49817287  1
  O2-  O211  1  0.33952585  0.58189267  0.75256769  1
  O2-  O212  1  0.33306581  0.92102582  -0.00084579  1
  O2-  O213  1  0.32921703  0.91698349  0.24978946  1
  O2-  O214  1  0.32930070  0.91555762  0.50283343  1
  O2-  O215  1  0.33954091  0.91369267  0.74896716  1
  O2-  O216  1  0.83467958  0.25323367  0.00233177  1
  O2-  O217  1  0.83069315  0.25243781  0.24867786  1
  O2-  O218  1  0.83149789  0.25206690  0.49235767  1
  O2-  O219  1  0.82900201  0.25141745  0.74679166  1
  O2-  O220  1  0.84062127  0.58942585  0.00361375  1
  O2-  O221  1  0.83477780  0.58552555  0.25015600  1
  O2-  O222  1  0.83513037  0.58649645  0.49992826  1
  O2-  O223  1  0.83878977  0.58856667  0.75045315  1
  O2-  O224  1  0.83433339  0.91754731  0.00181420  1
  O2-  O225  1  0.83367408  0.91665985  0.25166406  1
  O2-  O226  1  0.84123890  0.92266755  0.49796904  1
  O2-  O227  1  0.83081060  0.91334447  0.74930699  1
  O2-  O228  1  0.16807270  0.25338687  0.00212532  1
  O2-  O229  1  0.16657382  0.25034312  0.24571896  1
  O2-  O230  1  0.16944139  0.25420140  0.49792428  1
  O2-  O231  1  0.16794089  0.25253188  0.75296373  1
  O2-  O232  1  0.16473703  0.58488357  0.00095588  1
  O2-  O233  1  0.16582421  0.58603468  0.25037368  1
  O2-  O234  1  0.16711478  0.59214589  0.50227154  1
  O2-  O235  1  0.16150609  0.58523024  0.75139851  1
  O2-  O236  1  0.16700401  0.92206556  -0.00036170  1
  O2-  O237  1  0.17274168  0.91902116  0.25159207  1
  O2-  O238  1  0.16682648  0.91611881  0.50033088  1
  O2-  O239  1  0.16434856  0.91924573  0.74874013  1
  O2-  O240  1  0.66605560  0.25681342  0.00099397  1
  O2-  O241  1  0.66536975  0.25246441  0.24926215  1
  O2-  O242  1  0.66795910  0.25296529  0.49679085  1
  O2-  O243  1  0.66680545  0.25692036  0.75259543  1
  O2-  O244  1  0.66054725  0.59307696  0.00070347  1
  O2-  O245  1  0.66528626  0.58600304  0.25087288  1
  O2-  O246  1  0.66602280  0.58604912  0.49878741  1
  O2-  O247  1  0.65647384  0.59141557  0.75159157  1
  O2-  O248  1  0.66834046  0.92167491  -0.00212518  1
  O2-  O249  1  0.66356968  0.92094223  0.24963604  1
  O2-  O250  1  0.65652859  0.92318373  0.49799370  1
  O2-  O251  1  0.66244478  0.91963686  0.75240934  1
  O2-  O252  1  0.33680944  0.07982809  0.00251994  1
  O2-  O253  1  0.33135335  0.07814166  0.25031527  1
  O2-  O254  1  0.33177166  0.07512933  0.49883523  1
  O2-  O255  1  0.33419720  0.08388380  0.74695758  1
  O2-  O256  1  0.33122952  0.41342091  0.00195793  1
  O2-  O257  1  0.33888959  0.41305234  0.24803762  1
  O2-  O258  1  0.33539399  0.41204144  0.49873693  1
  O2-  O259  1  0.33247769  0.41360344  0.74671786  1
  O2-  O260  1  0.32993584  0.74537668  -0.00138154  1
  O2-  O261  1  0.33532930  0.75063819  0.24996641  1
  O2-  O262  1  0.33394983  0.74852921  0.49747237  1
  O2-  O263  1  0.33004464  0.75008113  0.75890867  1
  O2-  O264  1  0.82892111  0.08190855  0.00314570  1
  O2-  O265  1  0.83527903  0.07994791  0.24598895  1
  O2-  O266  1  0.83439265  0.08387256  0.49067450  1
  O2-  O267  1  0.83497818  0.08458015  0.75061700  1
  O2-  O268  1  0.83120792  0.41643713  0.00403341  1
  O2-  O269  1  0.83360718  0.41600664  0.25133824  1
  O2-  O270  1  0.83659238  0.41511874  0.49705788  1
  O2-  O271  1  0.82958480  0.41422456  0.75010602  1
  O2-  O272  1  0.83227577  0.74543898  0.00375134  1
  O2-  O273  1  0.83784952  0.74770673  0.25005892  1
  O2-  O274  1  0.83608065  0.74622996  0.50157159  1
  O2-  O275  1  0.83886019  0.75362214  0.75012540  1
  O2-  O276  1  0.95901580  0.55902546  0.25971747  1
  O2-  O277  1  0.95379519  0.56716824  0.51296402  1
  O2-  O278  1  0.44949946  0.90108219  0.99325809  1
  O2-  O279  1  0.96161381  0.88882362  0.25859630  1
  O2-  O280  1  0.54690360  0.09712208  0.75953093  1
  O2-  O281  1  0.95441889  0.23134323  0.01293129  1
  O2-  O282  1  0.05723383  0.90892697  0.24498211  1
  O2-  O283  1  0.54271598  0.43689075  0.23838273  1
  O2-  O284  1  0.55362331  0.24043223  0.26086299  1
  O2-  O285  1  0.55819660  0.91935537  0.94461396  1
  O2-  O286  1  0.05249308  0.09038672  0.73157728  1
  O2-  O287  1  0.46754349  0.11604570  0.04410148  1
  O2-  O288  1  0.95395356  0.76426733  0.49562743  1
  O2-  O289  1  0.05173306  0.90504895  0.99180524  1
  O2-  O290  1  0.94911771  0.09078295  0.73587216  1
  O2-  O291  1  0.05003124  0.23047038  0.26443480  1
  O2-  O292  1  0.05164671  0.75968472  0.76145519  1
  O2-  O293  1  0.46322860  0.44547944  0.70900595  1
  O2-  O294  1  0.54863590  0.75423407  0.23246669  1
  O2-  O295  1  0.95002023  0.90933250  0.98480789  1
  O2-  O296  1  0.04889500  0.90569401  0.49061077  1
  O2-  O297  1  0.54557029  0.09168567  0.49640260  1
  O2-  O298  1  0.54667717  0.23658302  0.73699460  1
  O2-  O299  1  0.55112059  0.90603780  0.50986358  1
  O2-  O300  1  0.54860164  0.23340927  0.49300715  1
  O2-  O301  1  0.45631749  0.57391939  0.74631918  1
  O2-  O302  1  0.97339044  0.87950178  0.75455614  1
  O2-  O303  1  0.94724155  0.74730415  0.76300717  1
  O2-  O304  1  0.05192978  0.24419623  0.76798699  1
  O2-  O305  1  0.96580833  0.77820382  0.03244954  1
  O2-  O306  1  0.95412358  0.76194214  0.26056488  1
  O2-  O307  1  0.95820531  0.56506598  0.00879580  1
  O2-  O308  1  0.97601681  0.87768987  0.73607722  1
  O2-  O309  1  0.54585505  0.76580256  0.01241630  1
  O2-  O310  1  0.44753721  0.75478774  0.26700846  1
  O2-  O311  1  0.45026833  0.23569454  0.51614489  1
  O2-  O312  1  0.46743674  0.89014593  0.28806305  1
  O2-  O313  1  0.45341188  0.43967353  0.48792061  1
  O2-  O314  1  0.55186032  0.77343199  0.26516398  1
  O2-  O315  1  0.45191236  0.24282062  -0.00019094  1
  O2-  O316  1  0.55011717  0.42934548  0.00936406  1
  O2-  O317  1  0.04829978  0.44043279  0.75908075  1
  O2-  O318  1  0.04903406  0.25038686  0.23187639  1
  O2-  O319  1  0.45071105  0.23047498  0.23478215  1
  O2-  O320  1  0.05597968  0.23889930  0.72968970  1
  O2-  O321  1  0.95670732  0.22541990  0.70451592  1
  O2-  O322  1  0.46474955  0.77890352  0.78194640  1
  O2-  O323  1  0.45428005  0.88814024  0.53299114  1
  O2-  O324  1  0.94060708  0.08008057  0.22968148  1
  O2-  O325  1  0.56641485  0.59535062  0.53129404  1
  O2-  O326  1  0.55924362  0.25317332  0.70825054  1
  O2-  O327  1  0.43278882  0.05166992  0.93548990  1
  O2-  O328  1  0.06297033  0.26344373  0.07382568  1
  O2-  O329  1  0.06184038  0.58523170  0.47537777  1
  O2-  O330  1  0.06136827  0.06941071  0.28485280  1
  O2-  O331  1  0.42847673  0.38810689  0.81953334  1
  O2-  O332  1  0.56352469  0.40442183  0.02873955  1
  O2-  O333  1  0.06750811  0.08960353  0.07145577  1
  O2-  O334  1  0.93464062  0.41533797  0.72364442  1
  O2-  O335  1  0.43547445  0.73912921  0.01960944  1
  O2-  O336  1  0.07418506  0.24720675  0.92975302  1
  O2-  O337  1  0.43921136  0.06910868  0.77929865  1
  O2-  O338  1  0.06322450  0.73693424  0.53689876  1
  O2-  O339  1  0.92785591  0.95786656  0.65847011  1
  O2-  O340  1  0.92467092  0.95433586  0.83031214  1
  O2-  O341  1  0.55961843  0.25549705  0.46746315  1
  O2-  O342  1  0.55586601  0.92815933  0.94170251  1
  O2-  O343  1  0.43576197  0.41271969  0.02122417  1
  O2-  O344  1  0.05958967  0.74114738  0.79262163  1
  O2-  O345  1  0.92759127  0.94444551  0.20238312  1
  O2-  O346  1  0.55850655  0.07742708  0.78695810  1
  O2-  O347  1  0.91695977  0.26254263  0.81453858  1
  O2-  O348  1  0.41983162  0.72423831  0.69454054  1
  O2-  O349  1  0.56052469  0.06811744  0.22372904  1
  O2-  O350  1  0.06401284  0.91956133  0.23145234  1
  O2-  O351  1  0.94016944  0.59114386  0.71394038  1
  O2-  O352  1  0.55977633  0.26175349  0.29103893  1
  O2-  O353  1  0.93614902  0.07483909  0.07007834  1
  O2-  O354  1  0.93329527  0.25593283  0.27516777  1
  O2-  O355  1  0.94023501  0.07472422  0.53272748  1
  O2-  O356  1  0.42757597  0.92929572  0.45796347  1
  O2-  O357  1  0.56441280  0.93600862  0.09511977  1
  O2-  O358  1  0.56431846  0.41170464  0.78034332  1
  O2-  O359  1  0.43796970  0.26166889  0.23462259  1
  O2-  O360  1  0.93872141  0.92756627  0.46037853  1
  O2-  O361  1  0.93189230  0.71280454  0.93055228  1
  O2-  O362  1  0.93306860  0.07447407  0.92632630  1
  O2-  O363  1  0.07143479  0.08728086  0.92715984  1
  O2-  O364  1  0.43851947  0.07942181  0.53256529  1
  O2-  O365  1  0.93495915  0.25333785  0.52300521  1
  O2-  O366  1  0.93881257  0.41278775  0.22436667  1
  O2-  O367  1  0.06962832  0.24961763  0.56632442  1
  O2-  O368  1  0.42093538  0.93646690  0.20738543  1
  O2-  O369  1  0.06718608  0.24911757  0.43416640  1
  O2-  O370  1  0.93493853  0.40606201  0.98189523  1
  O2-  O371  1  0.55994550  0.41120740  0.46220423  1
  O2-  O372  1  0.25044441  0.66520205  0.15025886  1
  O2-  O373  1  0.74965277  0.65624075  0.58262928  1
  O2-  O374  1  0.74637411  -0.00225503  0.59768519  1
  O2-  O375  1  0.24973120  0.66738991  0.90162952  1
  O2-  O376  1  0.25005241  0.01736174  0.91816559  1
  O2-  O377  1  0.25035926  0.01651083  0.12519013  1
  O2-  O378  1  0.24945102  -0.00982034  0.83005716  1
  O2-  O379  1  0.25052798  0.00438017  0.68328951  1
  O2-  O380  1  0.74951362  0.33124503  0.35668864  1
  O2-  O381  1  0.74976748  0.66283901  0.42593300  1
  O2-  O382  1  0.25124350  0.66117642  0.35706968  1
  O2-  O383  1  0.24975002  -0.01523374  0.59290600  1
  O2-  O384  1  0.74931097  0.33755960  0.62061011  1
  O2-  O385  1  0.25001060  -0.01977293  0.36417003  1
  O2-  O386  1  0.24988505  0.33656261  0.35592056  1
  O2-  O387  1  0.24993033  0.33563143  0.61395383  1
  O2-  O388  1  0.75004804  0.67500674  0.29985047  1
  O2-  O389  1  0.25016682  0.33198804  0.10403301  1
  O2-  O390  1  0.74937356  0.01273730  0.35645061  1
  O2-  O391  1  0.24903308  0.66244664  0.62884154  1
  O2-  O392  1  0.74893375  0.33226226  0.14068912  1
  O2-  O393  1  0.74825273  0.65989060  0.87839813  1
  O2-  O394  1  0.24903526  0.34664267  0.89079380  1
  O2-  O395  1  0.74974536  0.66911236  0.67788009  1
  O2-  O396  1  0.74903353  0.16749778  0.61532284  1
  O2-  O397  1  0.75028910  0.45845685  0.86815829  1
  O2-  O398  1  0.24990549  0.84941053  0.11263394  1
  O2-  O399  1  0.25057639  0.18731371  0.87982104  1
  O2-  O400  1  0.75032569  0.48385660  0.64218398  1
  O2-  O401  1  0.25003518  0.16658712  0.37493227  1
  O2-  O402  1  0.74925117  0.83282657  0.69414960  1
  O2-  O403  1  0.74947788  0.49057878  0.10422485  1
  O2-  O404  1  0.75009118  0.83198318  0.30847120  1
  O2-  O405  1  0.74975481  0.48678708  0.19265135  1
  O2-  O406  1  0.25000459  0.17320664  0.67234632  1
  O2-  O407  1  0.74963599  0.81548473  0.60999741  1
  O2-  O408  1  0.75023091  0.17000310  0.90556117  1
  O2-  O409  1  0.24963358  0.49783218  0.93171672  1
  O2-  O410  1  0.75006065  0.83453643  0.17313294  1
  O2-  O411  1  0.24984928  0.84268016  0.62746879  1
  O2-  O412  1  0.24993633  0.50356961  0.80924458  1
  O2-  O413  1  0.75021950  0.47933972  0.55362612  1
  O2-  O414  1  0.74991068  0.84399806  0.89405008  1
  O2-  O415  1  0.74981732  0.81750931  0.39066430  1
  O2-  O416  1  0.75018429  0.16661536  0.81835742  1
  O2-  O417  1  0.25008400  0.50608141  0.34260110  1
  O2-  O418  1  0.24984848  0.50913250  0.15340626  1
  O2-  O419  1  0.24986140  0.49315055  0.65288120  1
  O2-  O420  1  0.03233421  0.35400144  0.36160645  1
  O2-  O421  1  0.96214177  0.34358046  0.38918644  1
  O2-  O422  1  0.97487755  0.33715542  0.87739790  1
  O2-  O423  1  0.45529919  0.64929808  0.13800896  1
  O2-  O424  1  0.04607966  0.66306852  0.12457037  1
  O2-  O425  1  0.96377049  0.34225503  0.61742630  1
  O2-  O426  1  0.04511810  0.67942074  0.35703725  1
  O2-  O427  1  0.54753212  0.65318710  0.11860743  1
  O2-  O428  1  0.01666910  -0.00921710  0.12209912  1
  O2-  O429  1  0.95425002  0.65813860  0.37965155  1
  O2-  O430  1  0.47154638  0.32801325  0.62606183  1
  O2-  O431  1  0.03926683  0.35318992  0.63287339  1
  O2-  O432  1  0.52374627  0.32234412  0.88282586  1
  O2-  O433  1  0.48022522  0.65788748  0.61001851  1
  O2-  O434  1  0.52549332  0.65769916  0.37349409  1
  O2-  O435  1  0.47247966  0.33358473  0.36743020  1
  O2-  O436  1  0.48085792  0.01979831  0.36939418  1
  O2-  O437  1  0.95204904  0.66171003  0.13202209  1
  O2-  O438  1  0.47834887  0.34016300  0.12829684  1
  O2-  O439  1  0.47634036  -0.00341686  0.63182084  1
  O2-  O440  1  0.03096361  0.34776134  0.87119284  1
  O2-  O441  1  0.97497277  0.33289224  0.12204856  1
  O2-  O442  1  0.02611471  -0.01437357  0.86178543  1
  O2-  O443  1  0.47536540  0.00182963  0.12302161  1
