# generated using pymatgen
data_La7(Ru4O11)2
_symmetry_space_group_name_H-M   'P 1'
_cell_length_a   23.99463910
_cell_length_b   16.83480919
_cell_length_c   15.43176970
_cell_angle_alpha   90.00133876
_cell_angle_beta   90.00153037
_cell_angle_gamma   90.00267451
_symmetry_Int_Tables_number   1
_chemical_formula_structural   La7(Ru4O11)2
_chemical_formula_sum   'La84 Ru96 O264'
_cell_volume   6233.58883564
_cell_formula_units_Z   12
loop_
 _symmetry_equiv_pos_site_id
 _symmetry_equiv_pos_as_xyz
  1  'x, y, z'
loop_
 _atom_type_symbol
 _atom_type_oxidation_number
  La3+  3.0
  Ru4+  4.0
  O2-  -2.0
loop_
 _atom_site_type_symbol
 _atom_site_label
 _atom_site_symmetry_multiplicity
 _atom_site_fract_x
 _atom_site_fract_y
 _atom_site_fract_z
 _atom_site_occupancy
  La3+  La0  1  0.14695151  0.00195594  0.12348012  1
  La3+  La1  1  0.14031536  -0.00236707  0.37077991  1
  La3+  La2  1  0.13912200  0.00091546  0.62186349  1
  La3+  La3  1  0.15525899  0.00494736  0.88078819  1
  La3+  La4  1  0.15167942  0.32349836  0.12800886  1
  La3+  La5  1  0.13022318  0.32944871  0.36943854  1
  La3+  La6  1  0.14536467  0.32996230  0.62447308  1
  La3+  La7  1  0.13713292  0.33502979  0.87846819  1
  La3+  La8  1  0.14223262  0.67048343  0.12306639  1
  La3+  La9  1  0.13581578  0.66207956  0.36881150  1
  La3+  La10  1  0.13954260  0.66397245  0.62727662  1
  La3+  La11  1  0.13894795  0.66835339  0.87930502  1
  La3+  La12  1  0.64059574  -0.00672066  0.12718939  1
  La3+  La13  1  0.64378051  -0.00620956  0.37292765  1
  La3+  La14  1  0.64260255  -0.00454649  0.62043555  1
  La3+  La15  1  0.63755697  0.00094060  0.87812474  1
  La3+  La16  1  0.64214754  0.33364395  0.12265342  1
  La3+  La17  1  0.64631258  0.34738100  0.36770909  1
  La3+  La18  1  0.63254850  0.33961029  0.62400306  1
  La3+  La19  1  0.63581957  0.33915210  0.86847898  1
  La3+  La20  1  0.64183389  0.66429476  0.12445239  1
  La3+  La21  1  0.63587104  0.66536501  0.36979297  1
  La3+  La22  1  0.63792415  0.66385919  0.62687204  1
  La3+  La23  1  0.63137896  0.66455360  0.87074496  1
  La3+  La24  1  0.34941456  -0.00223226  0.12197942  1
  La3+  La25  1  0.36314094  0.00364449  0.37462202  1
  La3+  La26  1  0.36125154  0.01330447  0.62672387  1
  La3+  La27  1  0.34894501  0.00256668  0.87900170  1
  La3+  La28  1  0.35534103  0.33292589  0.11985564  1
  La3+  La29  1  0.36662170  0.32869535  0.37390828  1
  La3+  La30  1  0.35390474  0.33782105  0.62220136  1
  La3+  La31  1  0.36121892  0.32836439  0.87295119  1
  La3+  La32  1  0.36183707  0.66957080  0.12344917  1
  La3+  La33  1  0.36487712  0.66461313  0.36906296  1
  La3+  La34  1  0.36353569  0.66566028  0.63006232  1
  La3+  La35  1  0.36671785  0.66522079  0.88027432  1
  La3+  La36  1  0.85808856  -0.00696898  0.12860597  1
  La3+  La37  1  0.86124804  -0.00374834  0.37463358  1
  La3+  La38  1  0.86103247  -0.00319561  0.62339573  1
  La3+  La39  1  0.86107409  -0.00462187  0.87739775  1
  La3+  La40  1  0.85223233  0.33780176  0.12571451  1
  La3+  La41  1  0.86417685  0.33592036  0.37301783  1
  La3+  La42  1  0.86194953  0.33883243  0.62433530  1
  La3+  La43  1  0.86166926  0.34019303  0.87452091  1
  La3+  La44  1  0.86201754  0.65873573  0.11648109  1
  La3+  La45  1  0.85821167  0.66627491  0.37572114  1
  La3+  La46  1  0.87119884  0.67671010  0.63314272  1
  La3+  La47  1  0.87125298  0.68408559  0.86689090  1
  La3+  La48  1  0.00212491  0.51622300  0.85158571  1
  La3+  La49  1  -0.00164823  0.83270502  0.37394605  1
  La3+  La50  1  0.50365235  0.16482871  0.11646300  1
  La3+  La51  1  0.00941597  0.15162000  0.88165564  1
  La3+  La52  1  0.00554672  0.16165328  0.86295539  1
  La3+  La53  1  -0.00290865  0.82764294  0.63793242  1
  La3+  La54  1  0.49638685  0.16173351  0.13561283  1
  La3+  La55  1  0.00191093  0.15844112  0.36817024  1
  La3+  La56  1  0.00570094  0.16574075  0.38850306  1
  La3+  La57  1  0.50505141  0.18149325  0.65046739  1
  La3+  La58  1  -0.00588346  0.82770094  0.62163400  1
  La3+  La59  1  0.49896615  0.16155355  0.38226902  1
  La3+  La60  1  0.00159635  0.49301257  0.62387135  1
  La3+  La61  1  -0.00636727  0.82520377  0.87472078  1
  La3+  La62  1  -0.00102837  0.16944177  0.62976345  1
  La3+  La63  1  -0.00996656  0.51645421  0.38572622  1
  La3+  La64  1  0.50542610  0.81864597  0.89494062  1
  La3+  La65  1  0.49785928  0.50663621  0.39867773  1
  La3+  La66  1  0.00122879  0.51430649  0.86852549  1
  La3+  La67  1  0.49759779  0.83329857  0.63864826  1
  La3+  La68  1  0.50949645  0.51777464  0.13440768  1
  La3+  La69  1  -0.00168810  0.49211451  0.12294749  1
  La3+  La70  1  0.50078547  0.17281498  0.89126604  1
  La3+  La71  1  0.50534572  0.82872944  0.61985390  1
  La3+  La72  1  0.75016925  0.24784608  0.77203112  1
  La3+  La73  1  0.75139442  0.83751045  0.49027876  1
  La3+  La74  1  0.25023072  0.53026436  0.18743562  1
  La3+  La75  1  0.25111609  0.86351917  0.52687528  1
  La3+  La76  1  0.24787775  0.42334273  0.49158744  1
  La3+  La77  1  0.75238286  0.19130790  0.48654949  1
  La3+  La78  1  0.24742288  0.88453025  0.77864910  1
  La3+  La79  1  0.75008791  0.12369245  0.19927068  1
  La3+  La80  1  0.75025195  0.86244702  0.75791223  1
  La3+  La81  1  0.74902669  0.12983122  0.00155430  1
  La3+  La82  1  0.24929639  0.77856388  0.25182119  1
  La3+  La83  1  0.24938613  0.17865400  0.50167714  1
  Ru4+  Ru84  1  -0.00200263  -0.00320342  0.00360064  1
  Ru4+  Ru85  1  0.00197242  0.00003727  0.23971655  1
  Ru4+  Ru86  1  -0.00952644  0.00152708  0.50065687  1
  Ru4+  Ru87  1  -0.00036856  0.00757701  0.74939634  1
  Ru4+  Ru88  1  0.01495409  0.34745820  0.00302809  1
  Ru4+  Ru89  1  0.01300440  0.33661918  0.24874342  1
  Ru4+  Ru90  1  -0.00150954  0.33685347  0.51438818  1
  Ru4+  Ru91  1  0.00286237  0.34033873  0.74218320  1
  Ru4+  Ru92  1  0.00330576  0.67540822  0.00920045  1
  Ru4+  Ru93  1  0.00402917  0.67161911  0.25268956  1
  Ru4+  Ru94  1  0.00041936  0.66681958  0.49685529  1
  Ru4+  Ru95  1  0.00119834  0.66980915  0.74716825  1
  Ru4+  Ru96  1  0.49810917  -0.00664741  -0.00018767  1
  Ru4+  Ru97  1  0.50038178  -0.00504075  0.25621172  1
  Ru4+  Ru98  1  0.50192312  0.00982961  0.50305238  1
  Ru4+  Ru99  1  0.48628340  0.01362412  0.75037472  1
  Ru4+  Ru100  1  0.49214177  0.34713549  -0.01086919  1
  Ru4+  Ru101  1  0.50738851  0.34516821  0.25306599  1
  Ru4+  Ru102  1  0.50151218  0.33660848  0.50255207  1
  Ru4+  Ru103  1  0.49947811  0.33503490  0.75163738  1
  Ru4+  Ru104  1  0.49900758  0.66580123  0.00548578  1
  Ru4+  Ru105  1  0.49937351  0.67770768  0.23656032  1
  Ru4+  Ru106  1  0.50359804  0.66725324  0.51099623  1
  Ru4+  Ru107  1  0.50032451  0.65325689  0.75191112  1
  Ru4+  Ru108  1  0.11135733  0.16575913  -0.00031500  1
  Ru4+  Ru109  1  0.11301704  0.16642898  0.24156832  1
  Ru4+  Ru110  1  0.11005652  0.15933459  0.50547920  1
  Ru4+  Ru111  1  0.11193444  0.16331347  0.75183113  1
  Ru4+  Ru112  1  0.11790727  0.49200546  0.00745967  1
  Ru4+  Ru113  1  0.10662297  0.49456433  0.24574547  1
  Ru4+  Ru114  1  0.10795808  0.50017781  0.49986520  1
  Ru4+  Ru115  1  0.10678077  0.50044700  0.75103801  1
  Ru4+  Ru116  1  0.11317719  0.82918974  -0.00012571  1
  Ru4+  Ru117  1  0.10800724  0.83667776  0.25026416  1
  Ru4+  Ru118  1  0.11306495  0.82780328  0.49789313  1
  Ru4+  Ru119  1  0.10617768  0.82938807  0.75826202  1
  Ru4+  Ru120  1  0.60848930  0.16556370  -0.00045758  1
  Ru4+  Ru121  1  0.61255139  0.16571280  0.25145493  1
  Ru4+  Ru122  1  0.60375087  0.16986843  0.49203179  1
  Ru4+  Ru123  1  0.60756907  0.16052818  0.74719952  1
  Ru4+  Ru124  1  0.61168789  0.50576611  -0.00173918  1
  Ru4+  Ru125  1  0.60956051  0.50269518  0.25163011  1
  Ru4+  Ru126  1  0.61347355  0.49807276  0.49885329  1
  Ru4+  Ru127  1  0.60863542  0.49505595  0.74712154  1
  Ru4+  Ru128  1  0.61096174  0.83108600  0.00307442  1
  Ru4+  Ru129  1  0.60656792  0.83205561  0.24991511  1
  Ru4+  Ru130  1  0.61223929  0.83127980  0.49463294  1
  Ru4+  Ru131  1  0.61555504  0.83806655  0.75378041  1
  Ru4+  Ru132  1  0.38520162  0.16794185  0.00166491  1
  Ru4+  Ru133  1  0.38315228  0.16703831  0.24841436  1
  Ru4+  Ru134  1  0.38738322  0.16712870  0.49806342  1
  Ru4+  Ru135  1  0.38734535  0.16904507  0.74415112  1
  Ru4+  Ru136  1  0.39006699  0.49527796  -0.00184096  1
  Ru4+  Ru137  1  0.38982649  0.49926077  0.25044425  1
  Ru4+  Ru138  1  0.39274984  0.50057459  0.49961425  1
  Ru4+  Ru139  1  0.38902069  0.50309375  0.74967324  1
  Ru4+  Ru140  1  0.38665338  0.83421630  -0.00141180  1
  Ru4+  Ru141  1  0.39366813  0.82985388  0.25494787  1
  Ru4+  Ru142  1  0.38904978  0.83385466  0.49221436  1
  Ru4+  Ru143  1  0.38862556  0.83887270  0.75410603  1
  Ru4+  Ru144  1  0.87784600  0.15879735  0.01023985  1
  Ru4+  Ru145  1  0.88897100  0.17169813  0.24172629  1
  Ru4+  Ru146  1  0.88541890  0.16810074  0.50408971  1
  Ru4+  Ru147  1  0.89175558  0.15960669  0.75109255  1
  Ru4+  Ru148  1  0.88188600  0.49642863  0.00054610  1
  Ru4+  Ru149  1  0.88704436  0.50433894  0.25328466  1
  Ru4+  Ru150  1  0.88728898  0.49723924  0.49738083  1
  Ru4+  Ru151  1  0.88965103  0.50548486  0.74892450  1
  Ru4+  Ru152  1  0.88991992  0.83211454  -0.00747794  1
  Ru4+  Ru153  1  0.88606814  0.83518510  0.25128338  1
  Ru4+  Ru154  1  0.89450753  0.83000073  0.50770327  1
  Ru4+  Ru155  1  0.89035425  0.83338805  0.74934492  1
  Ru4+  Ru156  1  0.74960472  0.90373211  0.00741776  1
  Ru4+  Ru157  1  0.25067491  0.73632695  0.77315078  1
  Ru4+  Ru158  1  0.25033809  0.73244986  0.46634616  1
  Ru4+  Ru159  1  0.25048927  0.58110870  -0.00272520  1
  Ru4+  Ru160  1  0.75013824  0.07090910  0.76722146  1
  Ru4+  Ru161  1  0.75008764  0.57283362  0.75297729  1
  Ru4+  Ru162  1  0.74981940  0.76507833  0.24217324  1
  Ru4+  Ru163  1  0.74721760  0.42385438  0.00265566  1
  Ru4+  Ru164  1  0.74806859  0.28145636  0.01396634  1
  Ru4+  Ru165  1  0.75095334  0.42434846  0.24031933  1
  Ru4+  Ru166  1  0.24921609  0.22585481  0.01486675  1
  Ru4+  Ru167  1  0.25128801  0.59123524  0.49415173  1
  Ru4+  Ru168  1  0.24926588  0.57934650  0.78875030  1
  Ru4+  Ru169  1  0.74850679  0.33279293  0.50092182  1
  Ru4+  Ru170  1  0.75042998  0.75951593  0.01382640  1
  Ru4+  Ru171  1  0.25023540  0.92794662  0.24556625  1
  Ru4+  Ru172  1  0.25106785  1.00423197  0.48076536  1
  Ru4+  Ru173  1  0.74873397  0.71792337  0.74125545  1
  Ru4+  Ru174  1  0.24974758  0.41014087  0.77265339  1
  Ru4+  Ru175  1  0.75035109  0.57417058  0.50961431  1
  Ru4+  Ru176  1  0.25123441  0.38941869  0.25865422  1
  Ru4+  Ru177  1  0.24880314  0.24442439  0.77380600  1
  Ru4+  Ru178  1  0.74985866  0.28778660  0.24225760  1
  Ru4+  Ru179  1  0.74904254  0.04661741  0.48009224  1
  O2-  O180  1  0.16056581  0.08242795  0.00265504  1
  O2-  O181  1  0.16334578  0.08233068  0.24929303  1
  O2-  O182  1  0.17136792  0.07764406  0.49848665  1
  O2-  O183  1  0.16116550  0.08081117  0.74819342  1
  O2-  O184  1  0.17192080  0.41662735  -0.00708481  1
  O2-  O185  1  0.16838994  0.41322353  0.25321485  1
  O2-  O186  1  0.15372090  0.40865117  0.49567082  1
  O2-  O187  1  0.16400306  0.41188933  0.75671531  1
  O2-  O188  1  0.16848248  0.74831034  -0.00076562  1
  O2-  O189  1  0.15689716  0.74116275  0.24760285  1
  O2-  O190  1  0.16571906  0.74471419  0.49766365  1
  O2-  O191  1  0.16866469  0.74630208  0.75563364  1
  O2-  O192  1  0.66386866  0.07624664  0.00347607  1
  O2-  O193  1  0.66492988  0.08078561  0.24964368  1
  O2-  O194  1  0.66904838  0.08048829  0.50069674  1
  O2-  O195  1  0.66598547  0.08004456  0.75805164  1
  O2-  O196  1  0.66414314  0.41585003  -0.00271982  1
  O2-  O197  1  0.67032934  0.42354895  0.24229595  1
  O2-  O198  1  0.66806551  0.41377533  0.50222613  1
  O2-  O199  1  0.66688028  0.41400742  0.74849018  1
  O2-  O200  1  0.66844565  0.74705114  -0.00055666  1
  O2-  O201  1  0.66788293  0.74554854  0.25147451  1
  O2-  O202  1  0.66897998  0.74583036  0.49939340  1
  O2-  O203  1  0.66661420  0.74631106  0.74930439  1
  O2-  O204  1  0.32998946  0.25250633  -0.00021976  1
  O2-  O205  1  0.33640888  0.25568870  0.25259135  1
  O2-  O206  1  0.33720262  0.25429205  0.49074019  1
  O2-  O207  1  0.32931167  0.25171576  0.75636461  1
  O2-  O208  1  0.33209894  0.57945808  -0.00228817  1
  O2-  O209  1  0.33041812  0.58670383  0.25171322  1
  O2-  O210  1  0.33819140  0.58619024  0.49843145  1
  O2-  O211  1  0.33194578  0.58584599  0.75847813  1
  O2-  O212  1  0.33423984  0.91258567  0.00330955  1
  O2-  O213  1  0.33184405  0.91658202  0.25077396  1
  O2-  O214  1  0.33631498  0.92416093  0.49618151  1
  O2-  O215  1  0.33276589  0.92249936  0.75174444  1
  O2-  O216  1  0.82847989  0.25312258  -0.00409750  1
  O2-  O217  1  0.82816254  0.25473502  0.25667414  1
  O2-  O218  1  0.83363638  0.26257155  0.49795994  1
  O2-  O219  1  0.84375225  0.25857575  0.74710106  1
  O2-  O220  1  0.83515001  0.58432183  -0.00453092  1
  O2-  O221  1  0.83561577  0.58688826  0.24973507  1
  O2-  O222  1  0.83145133  0.58640585  0.50063118  1
  O2-  O223  1  0.83201894  0.58919131  0.74699661  1
  O2-  O224  1  0.83146381  0.91665258  0.00280705  1
  O2-  O225  1  0.83805486  0.91748912  0.25125985  1
  O2-  O226  1  0.83805301  0.91623270  0.49887427  1
  O2-  O227  1  0.83985654  0.92064774  0.75141138  1
  O2-  O228  1  0.16643685  0.25194369  -0.00555430  1
  O2-  O229  1  0.16535485  0.25138401  0.25908074  1
  O2-  O230  1  0.15791333  0.24979569  0.49487357  1
  O2-  O231  1  0.16435161  0.25404922  0.75643781  1
  O2-  O232  1  0.16636335  0.58402042  -0.00076264  1
  O2-  O233  1  0.16627445  0.58035926  0.24624111  1
  O2-  O234  1  0.16413724  0.58541547  0.49907376  1
  O2-  O235  1  0.16429213  0.58528920  0.75537928  1
  O2-  O236  1  0.15886664  0.91564052  0.00089404  1
  O2-  O237  1  0.16702280  0.91668725  0.24732185  1
  O2-  O238  1  0.16334986  0.92016254  0.49789989  1
  O2-  O239  1  0.15598258  0.91997118  0.74849426  1
  O2-  O240  1  0.66519811  0.25330533  -0.00264755  1
  O2-  O241  1  0.66737821  0.25488110  0.24517615  1
  O2-  O242  1  0.67272864  0.25596810  0.51183627  1
  O2-  O243  1  0.65884920  0.25388449  0.74274831  1
  O2-  O244  1  0.66347722  0.58611102  -0.00328484  1
  O2-  O245  1  0.66608543  0.58204367  0.25181232  1
  O2-  O246  1  0.66834884  0.58706677  0.49614939  1
  O2-  O247  1  0.66708490  0.58272014  0.74787908  1
  O2-  O248  1  0.66590312  0.91660997  0.00158984  1
  O2-  O249  1  0.66021368  0.91708903  0.24832338  1
  O2-  O250  1  0.66842773  0.91199342  0.49435426  1
  O2-  O251  1  0.66423570  0.92146227  0.75302107  1
  O2-  O252  1  0.33677876  0.08362035  0.00315753  1
  O2-  O253  1  0.33847119  0.07938080  0.24967712  1
  O2-  O254  1  0.32611907  0.08089505  0.49342987  1
  O2-  O255  1  0.33424949  0.08668946  0.75182924  1
  O2-  O256  1  0.33006371  0.41953073  0.00564371  1
  O2-  O257  1  0.33716083  0.41189415  0.25106186  1
  O2-  O258  1  0.34067005  0.41264250  0.48760071  1
  O2-  O259  1  0.33631953  0.41548591  0.75650889  1
  O2-  O260  1  0.33529343  0.74553365  -0.00317495  1
  O2-  O261  1  0.34118671  0.74570664  0.24816965  1
  O2-  O262  1  0.33442864  0.74505654  0.49593924  1
  O2-  O263  1  0.33285339  0.75026485  0.75659851  1
  O2-  O264  1  0.83623764  0.06968511  0.00038974  1
  O2-  O265  1  0.83527015  0.08026420  0.25068448  1
  O2-  O266  1  0.83107836  0.07657385  0.49990233  1
  O2-  O267  1  0.83663030  0.07816220  0.75236511  1
  O2-  O268  1  0.82803822  0.41592758  -0.00953634  1
  O2-  O269  1  0.83179065  0.41766310  0.25548606  1
  O2-  O270  1  0.83220311  0.41205740  0.49542860  1
  O2-  O271  1  0.83971344  0.41749622  0.74837978  1
  O2-  O272  1  0.83486059  0.74792063  0.00106916  1
  O2-  O273  1  0.83018034  0.74523874  0.24717847  1
  O2-  O274  1  0.83091266  0.74586865  0.50067992  1
  O2-  O275  1  0.83123878  0.74888228  0.74887911  1
  O2-  O276  1  0.95296442  0.24382852  0.99142183  1
  O2-  O277  1  0.04862589  0.23672309  0.24076323  1
  O2-  O278  1  0.44476309  0.09039930  0.51452248  1
  O2-  O279  1  0.53102289  0.45823021  0.28343025  1
  O2-  O280  1  0.53117067  0.22425802  0.51388100  1
  O2-  O281  1  0.44937290  0.24077122  0.79405560  1
  O2-  O282  1  0.95000807  0.24186883  0.30350638  1
  O2-  O283  1  0.45134118  0.24060496  0.26161580  1
  O2-  O284  1  0.44900327  0.76626187  0.00695865  1
  O2-  O285  1  0.54915847  0.76407987  0.24751861  1
  O2-  O286  1  0.55144375  0.75898210  0.47671284  1
  O2-  O287  1  0.95383191  0.90891190  0.74403085  1
  O2-  O288  1  0.02724363  0.45406309  0.28137292  1
  O2-  O289  1  0.43888774  0.08954538  0.70530896  1
  O2-  O290  1  0.95671763  0.78369150  0.22111439  1
  O2-  O291  1  0.46506013  0.44179894  0.04927071  1
  O2-  O292  1  0.55133768  0.91017003  0.98483495  1
  O2-  O293  1  0.54496696  0.56368074  0.99211808  1
  O2-  O294  1  0.95899418  0.57465285  0.00624278  1
  O2-  O295  1  0.45450441  0.09781363  1.00507759  1
  O2-  O296  1  0.45681896  0.88181704  0.80361112  1
  O2-  O297  1  0.04440696  0.56838037  0.50936632  1
  O2-  O298  1  0.05258423  0.08921982  0.24149102  1
  O2-  O299  1  0.52588560  0.22928689  0.51258054  1
  O2-  O300  1  0.95752190  0.23479576  0.75744314  1
  O2-  O301  1  0.96073770  0.23273379  0.01323298  1
  O2-  O302  1  0.04119950  0.43045422  0.49062717  1
  O2-  O303  1  0.94657266  0.43864258  0.94042467  1
  O2-  O304  1  0.54287134  0.09201532  0.25871819  1
  O2-  O305  1  0.55100196  0.76592632  0.76145041  1
  O2-  O306  1  0.94191339  0.74757180  0.76093184  1
  O2-  O307  1  0.94655257  0.08931146  0.22723249  1
  O2-  O308  1  0.54880231  0.09181286  0.54957643  1
  O2-  O309  1  0.47013992  0.88715912  0.25334490  1
  O2-  O310  1  0.54079838  0.10032704  0.79663147  1
  O2-  O311  1  0.45094721  0.90706830  0.50386390  1
  O2-  O312  1  0.44665508  0.75947857  0.50093678  1
  O2-  O313  1  0.04306799  0.90960146  0.52869988  1
  O2-  O314  1  0.05028227  0.76733216  0.26117011  1
  O2-  O315  1  0.04736896  0.90104665  0.49122876  1
  O2-  O316  1  0.04613887  0.45680418  0.96736820  1
  O2-  O317  1  0.95366794  0.76415124  0.74956233  1
  O2-  O318  1  0.55309873  0.91075507  0.74105236  1
  O2-  O319  1  0.54816929  0.76283178  0.26105619  1
  O2-  O320  1  0.04578995  0.76464358  0.51037569  1
  O2-  O321  1  0.54977590  0.23987129  0.23288425  1
  O2-  O322  1  0.05093892  0.23751427  0.24960991  1
  O2-  O323  1  0.55564211  0.75436288  0.01539267  1
  O2-  O324  1  0.56402597  0.58705738  0.77282928  1
  O2-  O325  1  0.06203116  0.59214051  0.26353437  1
  O2-  O326  1  0.43859626  0.24727072  0.80366961  1
  O2-  O327  1  0.43398769  0.59609240  0.96819482  1
  O2-  O328  1  0.43711422  0.93111255  0.96920426  1
  O2-  O329  1  0.41149780  0.24361372  0.64847243  1
  O2-  O330  1  0.93640515  0.58202531  0.67455744  1
  O2-  O331  1  0.06391632  0.08292444  0.58089435  1
  O2-  O332  1  0.43708966  0.73563006  0.28725112  1
  O2-  O333  1  0.56846844  0.38616448  0.17932478  1
  O2-  O334  1  0.56001993  0.59930055  0.28836900  1
  O2-  O335  1  0.93584182  0.58576791  0.01614809  1
  O2-  O336  1  0.44050658  0.58332849  0.73720853  1
  O2-  O337  1  0.07989712  0.37451293  0.05474102  1
  O2-  O338  1  0.56167982  0.73354961  0.76577832  1
  O2-  O339  1  0.08108456  0.38796137  0.20061820  1
  O2-  O340  1  0.43721668  0.73993693  0.73084166  1
  O2-  O341  1  0.57379523  0.06856268  0.42128434  1
  O2-  O342  1  0.43972044  0.40969019  0.51222433  1
  O2-  O343  1  0.93574669  0.74022566  0.69939500  1
  O2-  O344  1  0.44004072  0.08469276  0.51373038  1
  O2-  O345  1  0.05937600  0.74230970  0.97710588  1
  O2-  O346  1  0.56413047  0.25925607  0.78511840  1
  O2-  O347  1  0.93911055  0.26371048  0.92957570  1
  O2-  O348  1  0.06929712  0.06967053  0.42726908  1
  O2-  O349  1  0.06116062  0.73745919  0.82153483  1
  O2-  O350  1  0.44053521  0.04978244  0.84715603  1
  O2-  O351  1  0.56252282  0.06846937  0.97053244  1
  O2-  O352  1  0.41927520  0.40008415  0.94110298  1
  O2-  O353  1  0.57655804  0.06050159  0.68213599  1
  O2-  O354  1  0.55945784  0.40812156  0.72298189  1
  O2-  O355  1  0.92606726  0.23462464  0.06639055  1
  O2-  O356  1  0.56550586  0.92651529  0.52895586  1
  O2-  O357  1  0.93396237  0.07875815  0.47779846  1
  O2-  O358  1  0.43927553  0.26070429  0.04187346  1
  O2-  O359  1  0.94129012  0.25216395  0.51977140  1
  O2-  O360  1  0.42296703  0.94350497  0.26797584  1
  O2-  O361  1  0.93196726  0.59650721  0.82728830  1
  O2-  O362  1  0.91379983  0.27093691  0.19417860  1
  O2-  O363  1  0.93246018  0.73567069  0.28881634  1
  O2-  O364  1  0.59565312  0.28457984  0.44283125  1
  O2-  O365  1  0.07282874  0.75713877  0.67557994  1
  O2-  O366  1  0.06063831  0.92857918  0.28504178  1
  O2-  O367  1  0.91642633  0.41762384  0.07390473  1
  O2-  O368  1  0.93743056  0.92254911  0.97658717  1
  O2-  O369  1  0.43924562  0.08970114  0.69301785  1
  O2-  O370  1  0.42182723  0.92922049  0.68918404  1
  O2-  O371  1  0.44033445  0.58252852  0.23120099  1
  O2-  O372  1  0.75079615  0.67932180  0.10002001  1
  O2-  O373  1  0.74976791  -0.00128190  0.93436884  1
  O2-  O374  1  0.25053514  0.01762278  0.16821931  1
  O2-  O375  1  0.24565350  -0.01206694  0.88293076  1
  O2-  O376  1  0.75112089  -0.00744350  0.17203943  1
  O2-  O377  1  0.24996644  -0.00006005  0.07914349  1
  O2-  O378  1  0.74923982  0.34080706  0.89431583  1
  O2-  O379  1  0.75034744  0.00110443  0.07911932  1
  O2-  O380  1  0.24969403  0.31398142  0.55829888  1
  O2-  O381  1  0.75053194  -0.01546999  0.69482492  1
  O2-  O382  1  0.24884329  0.66560393  0.07355495  1
  O2-  O383  1  0.24993456  0.33549376  0.07304474  1
  O2-  O384  1  0.25074475  0.00053146  0.35339893  1
  O2-  O385  1  0.24805697  -0.00264185  0.60786999  1
  O2-  O386  1  0.75193108  -0.02959459  0.56778549  1
  O2-  O387  1  0.75066100  -0.02193758  0.84370428  1
  O2-  O388  1  0.75044976  0.66111269  0.85128305  1
  O2-  O389  1  0.25320165  0.31924228  0.16519171  1
  O2-  O390  1  0.24918558  0.33029178  0.69063813  1
  O2-  O391  1  0.24964767  0.67883912  0.57395984  1
  O2-  O392  1  0.75125964  -0.01976673  0.38332835  1
  O2-  O393  1  0.24914460  0.65052395  0.69551855  1
  O2-  O394  1  0.24994931  0.66536523  0.16655942  1
  O2-  O395  1  0.25115078  0.66089123  0.37106652  1
  O2-  O396  1  0.24938656  0.18199003  0.90598120  1
  O2-  O397  1  0.24983022  0.85846335  0.14086272  1
  O2-  O398  1  0.24968911  0.83676711  0.37942571  1
  O2-  O399  1  0.74968904  0.20456997  0.31747819  1
  O2-  O400  1  0.25096134  0.16727413  0.28245565  1
  O2-  O401  1  0.75038105  0.50616696  0.83864126  1
  O2-  O402  1  0.75018964  0.14706624  0.86523965  1
  O2-  O403  1  0.74973605  0.48356246  0.10024092  1
  O2-  O404  1  0.24988993  0.17177762  0.63441371  1
  O2-  O405  1  0.25020921  0.53115195  0.39832377  1
  O2-  O406  1  0.24951319  0.81280626  0.65618674  1
  O2-  O407  1  0.25006362  0.16795911  0.36490966  1
  O2-  O408  1  0.75024019  0.82012959  0.34537289  1
  O2-  O409  1  0.25032740  0.52402025  0.58689113  1
  O2-  O410  1  0.75026421  0.82928626  0.90744003  1
  O2-  O411  1  0.75166109  0.13694642  0.67665051  1
  O2-  O412  1  0.24986684  0.17959434  0.11589414  1
  O2-  O413  1  0.74993036  0.50761570  0.59568858  1
  O2-  O414  1  0.74685701  0.10939816  0.37278984  1
  O2-  O415  1  0.24994552  0.49593142  0.70735441  1
  O2-  O416  1  0.24745753  0.15043085  0.71875405  1
  O2-  O417  1  0.74885898  0.20828443  0.62750539  1
  O2-  O418  1  0.25073762  0.47743749  0.32615560  1
  O2-  O419  1  0.74984487  0.82654411  0.15064170  1
  O2-  O420  1  0.97103364  0.00263449  0.62405432  1
  O2-  O421  1  0.51248347  0.34052506  0.37545422  1
  O2-  O422  1  0.95524834  0.35500166  0.63426423  1
  O2-  O423  1  0.45668595  0.67167114  0.11963425  1
  O2-  O424  1  0.48833427  0.34074741  0.62913018  1
  O2-  O425  1  0.52738883  0.00675510  0.12628661  1
  O2-  O426  1  0.97881413  0.66231831  0.13144903  1
  O2-  O427  1  0.02437292  -0.00383548  0.11562521  1
  O2-  O428  1  0.02674089  0.32225165  0.38506061  1
  O2-  O429  1  0.04126359  0.67734951  0.38291550  1
  O2-  O430  1  0.04879650  0.32549217  0.62599911  1
  O2-  O431  1  0.97298101  -0.01144193  0.36809104  1
  O2-  O432  1  0.02136131  0.65336026  0.62113187  1
  O2-  O433  1  0.51645942  0.67435282  0.87951494  1
  O2-  O434  1  0.54750948  0.64970051  0.12819451  1
  O2-  O435  1  0.45492525  0.65401229  0.60078115  1
  O2-  O436  1  0.54806667  0.67155364  0.62696143  1
  O2-  O437  1  0.49191987  -0.01732825  0.61991951  1
  O2-  O438  1  0.47685056  0.01006666  0.37591558  1
  O2-  O439  1  0.49892472  0.34496684  0.87541425  1
  O2-  O440  1  0.99059873  0.35130074  0.12825205  1
  O2-  O441  1  0.97838948  0.01191893  0.87475225  1
  O2-  O442  1  0.94897670  0.64772502  0.39954311  1
  O2-  O443  1  0.03354140  0.32982178  0.87202829  1
