# generated using pymatgen
data_La7(Ru4O11)2
_symmetry_space_group_name_H-M   'P 1'
_cell_length_a   23.99008833
_cell_length_b   16.82998583
_cell_length_c   15.42754260
_cell_angle_alpha   89.99923060
_cell_angle_beta   90.00064533
_cell_angle_gamma   89.99892486
_symmetry_Int_Tables_number   1
_chemical_formula_structural   La7(Ru4O11)2
_chemical_formula_sum   'La84 Ru96 O264'
_cell_volume   6228.91424066
_cell_formula_units_Z   12
loop_
 _symmetry_equiv_pos_site_id
 _symmetry_equiv_pos_as_xyz
  1  'x, y, z'
loop_
 _atom_type_symbol
 _atom_type_oxidation_number
  La3+  3.0
  Ru4+  4.0
  O2-  -2.0
loop_
 _atom_site_type_symbol
 _atom_site_label
 _atom_site_symmetry_multiplicity
 _atom_site_fract_x
 _atom_site_fract_y
 _atom_site_fract_z
 _atom_site_occupancy
  La3+  La0  1  0.14429367  0.00132150  0.12663873  1
  La3+  La1  1  0.14226594  -0.00115896  0.37552188  1
  La3+  La2  1  0.14267957  0.00022237  0.62349079  1
  La3+  La3  1  0.14064452  -0.00316090  0.87802805  1
  La3+  La4  1  0.13961512  0.33228458  0.12443118  1
  La3+  La5  1  0.13986061  0.33453420  0.37936455  1
  La3+  La6  1  0.13760709  0.33414858  0.62147864  1
  La3+  La7  1  0.13276097  0.33253180  0.87502457  1
  La3+  La8  1  0.13633287  0.66854661  0.12515799  1
  La3+  La9  1  0.14190208  0.66610374  0.37896059  1
  La3+  La10  1  0.13737729  0.66562620  0.62080470  1
  La3+  La11  1  0.13848355  0.66810612  0.87454721  1
  La3+  La12  1  0.63282541  -0.00604489  0.12128749  1
  La3+  La13  1  0.64307170  0.00098837  0.37411623  1
  La3+  La14  1  0.63982218  0.00112276  0.62505234  1
  La3+  La15  1  0.63232011  -0.00621658  0.88248597  1
  La3+  La16  1  0.63840578  0.32973179  0.12478048  1
  La3+  La17  1  0.63942472  0.33246722  0.37709959  1
  La3+  La18  1  0.63689994  0.33880624  0.62788404  1
  La3+  La19  1  0.62799380  0.33879499  0.86552617  1
  La3+  La20  1  0.63858728  0.67005614  0.12307320  1
  La3+  La21  1  0.64110418  0.66469555  0.37799122  1
  La3+  La22  1  0.64035436  0.66498790  0.62580997  1
  La3+  La23  1  0.63976144  0.66821824  0.87578061  1
  La3+  La24  1  0.36555235  -0.00634847  0.11482199  1
  La3+  La25  1  0.35758474  -0.00039258  0.37679716  1
  La3+  La26  1  0.36225251  -0.00026614  0.62316676  1
  La3+  La27  1  0.36638712  -0.00763869  0.88323357  1
  La3+  La28  1  0.35887545  0.33238251  0.12654931  1
  La3+  La29  1  0.35781011  0.33181794  0.37625103  1
  La3+  La30  1  0.36002114  0.33178303  0.62219852  1
  La3+  La31  1  0.36559455  0.33318986  0.87694958  1
  La3+  La32  1  0.36235235  0.66920549  0.12604768  1
  La3+  La33  1  0.35797112  0.66621616  0.37884861  1
  La3+  La34  1  0.36205910  0.66617191  0.62197253  1
  La3+  La35  1  0.36389383  0.66850217  0.87516243  1
  La3+  La36  1  0.86098987  -0.00098989  0.12868839  1
  La3+  La37  1  0.85535340  0.00051918  0.37192404  1
  La3+  La38  1  0.85884104  -0.00003650  0.62230482  1
  La3+  La39  1  0.86178994  0.00026253  0.87490467  1
  La3+  La40  1  0.86188216  0.32998771  0.12633720  1
  La3+  La41  1  0.85830119  0.33229536  0.37688156  1
  La3+  La42  1  0.85684494  0.33382507  0.62054381  1
  La3+  La43  1  0.86114363  0.33222642  0.87555654  1
  La3+  La44  1  0.86636892  0.66515788  0.13168088  1
  La3+  La45  1  0.86299972  0.66319724  0.37359047  1
  La3+  La46  1  0.85829198  0.66292630  0.62367449  1
  La3+  La47  1  0.86060919  0.66758513  0.87429427  1
  La3+  La48  1  0.50299358  0.50069889  0.85985742  1
  La3+  La49  1  0.00038855  0.50004627  0.62955136  1
  La3+  La50  1  -0.00226261  0.49679770  0.36855339  1
  La3+  La51  1  -0.00005435  0.50088831  0.86378908  1
  La3+  La52  1  -0.00086812  0.16531435  0.36080073  1
  La3+  La53  1  0.50685496  0.50567542  0.13154080  1
  La3+  La54  1  -0.00063735  0.82745436  0.87636679  1
  La3+  La55  1  -0.00285484  0.16451504  0.12901447  1
  La3+  La56  1  0.00122964  0.49649630  0.14042982  1
  La3+  La57  1  0.00015931  0.82983442  0.85998645  1
  La3+  La58  1  -0.00321428  0.50376644  0.12078455  1
  La3+  La59  1  0.50235333  0.83083040  0.89082540  1
  La3+  La60  1  0.50273918  0.50100161  0.64010089  1
  La3+  La61  1  0.49992026  0.50435627  0.11170708  1
  La3+  La62  1  -0.00054755  0.83197027  0.38024557  1
  La3+  La63  1  -0.00279657  0.50778233  0.38727455  1
  La3+  La64  1  0.00006565  0.16075006  0.63802536  1
  La3+  La65  1  0.49803410  0.83662053  0.11536173  1
  La3+  La66  1  0.50266736  0.84249412  0.87199870  1
  La3+  La67  1  0.00520188  0.17033550  0.61996935  1
  La3+  La68  1  0.50859440  0.50437696  0.62593726  1
  La3+  La69  1  0.00164430  0.16518435  0.38294343  1
  La3+  La70  1  0.50006622  0.83566652  0.38708843  1
  La3+  La71  1  -0.00220413  0.16546945  0.87138606  1
  La3+  La72  1  0.25073690  0.89189529  0.22972865  1
  La3+  La73  1  0.74969567  0.53175418  0.74177303  1
  La3+  La74  1  0.74954657  0.46642879  0.26087466  1
  La3+  La75  1  0.25050246  0.11547948  0.30463086  1
  La3+  La76  1  0.25002581  0.49107969  0.04116091  1
  La3+  La77  1  0.75048979  0.50487001  0.03649278  1
  La3+  La78  1  0.24992957  0.17269898  0.69426371  1
  La3+  La79  1  0.25077795  0.16700594  0.01186197  1
  La3+  La80  1  0.25014872  0.83417445  0.54977078  1
  La3+  La81  1  0.25015203  0.47123496  0.74522889  1
  La3+  La82  1  0.74992065  0.16498375  0.24782755  1
  La3+  La83  1  0.74962416  0.20757473  -0.00809740  1
  Ru4+  Ru84  1  -0.00021316  -0.00116539  0.00207616  1
  Ru4+  Ru85  1  0.00041046  -0.00712700  0.25201346  1
  Ru4+  Ru86  1  -0.00107073  -0.00563113  0.50308838  1
  Ru4+  Ru87  1  0.00124034  -0.00172586  0.75539712  1
  Ru4+  Ru88  1  -0.00679583  0.33750413  -0.00404124  1
  Ru4+  Ru89  1  -0.00174647  0.33570353  0.25094496  1
  Ru4+  Ru90  1  -0.00406369  0.33162520  0.50125509  1
  Ru4+  Ru91  1  0.00114582  0.33760042  0.75013534  1
  Ru4+  Ru92  1  -0.00042624  0.67101640  0.00639777  1
  Ru4+  Ru93  1  -0.00146259  0.66988624  0.24858120  1
  Ru4+  Ru94  1  0.00039598  0.66871802  0.49910996  1
  Ru4+  Ru95  1  0.00005286  0.66467708  0.74858203  1
  Ru4+  Ru96  1  0.49784980  -0.00063231  0.00203656  1
  Ru4+  Ru97  1  0.50209358  0.00210634  0.24286778  1
  Ru4+  Ru98  1  0.49841657  0.00425526  0.50498109  1
  Ru4+  Ru99  1  0.49931436  0.00721770  0.74529718  1
  Ru4+  Ru100  1  0.50125445  0.32517371  -0.00400427  1
  Ru4+  Ru101  1  0.49971017  0.33000427  0.26024705  1
  Ru4+  Ru102  1  0.49849800  0.33539862  0.49365094  1
  Ru4+  Ru103  1  0.50291892  0.33145936  0.75473645  1
  Ru4+  Ru104  1  0.50005140  0.66989327  -0.00376744  1
  Ru4+  Ru105  1  0.49673035  0.66673048  0.24955466  1
  Ru4+  Ru106  1  0.49836567  0.66476154  0.50264599  1
  Ru4+  Ru107  1  0.50075849  0.66815047  0.74787113  1
  Ru4+  Ru108  1  0.11404093  0.16015450  0.00029365  1
  Ru4+  Ru109  1  0.11231049  0.16370514  0.24917472  1
  Ru4+  Ru110  1  0.11776534  0.16621805  0.49858826  1
  Ru4+  Ru111  1  0.11241835  0.16145476  0.75218883  1
  Ru4+  Ru112  1  0.11219252  0.50166944  -0.00121732  1
  Ru4+  Ru113  1  0.11544987  0.49464370  0.24961090  1
  Ru4+  Ru114  1  0.11687443  0.50728636  0.50286573  1
  Ru4+  Ru115  1  0.11210274  0.49793964  0.75079659  1
  Ru4+  Ru116  1  0.11325139  0.83709204  0.00338229  1
  Ru4+  Ru117  1  0.10828829  0.83393947  0.25032735  1
  Ru4+  Ru118  1  0.11219321  0.83268862  0.50136364  1
  Ru4+  Ru119  1  0.11364291  0.83698531  0.74886832  1
  Ru4+  Ru120  1  0.60688297  0.16616434  0.00034703  1
  Ru4+  Ru121  1  0.60940207  0.16438628  0.24897985  1
  Ru4+  Ru122  1  0.61658617  0.16679228  0.49975139  1
  Ru4+  Ru123  1  0.60709989  0.16697274  0.74934353  1
  Ru4+  Ru124  1  0.61253996  0.50088825  -0.00328500  1
  Ru4+  Ru125  1  0.61021500  0.49900822  0.25112030  1
  Ru4+  Ru126  1  0.61522303  0.49888217  0.50293160  1
  Ru4+  Ru127  1  0.61063036  0.49982429  0.74752825  1
  Ru4+  Ru128  1  0.61160250  0.83474978  0.00491913  1
  Ru4+  Ru129  1  0.61292262  0.83662731  0.24768201  1
  Ru4+  Ru130  1  0.61260363  0.83421802  0.49762532  1
  Ru4+  Ru131  1  0.61187835  0.83485297  0.74738976  1
  Ru4+  Ru132  1  0.39628058  0.16589771  0.00016437  1
  Ru4+  Ru133  1  0.38814532  0.16452431  0.25058075  1
  Ru4+  Ru134  1  0.38643858  0.16395637  0.49957939  1
  Ru4+  Ru135  1  0.39116092  0.16542840  0.74864400  1
  Ru4+  Ru136  1  0.38880938  0.49839677  -0.00187266  1
  Ru4+  Ru137  1  0.38540572  0.50049819  0.25562134  1
  Ru4+  Ru138  1  0.38697902  0.50219644  0.49630053  1
  Ru4+  Ru139  1  0.38912054  0.49873648  0.74976967  1
  Ru4+  Ru140  1  0.38681096  0.83641822  0.00110241  1
  Ru4+  Ru141  1  0.39011210  0.83209460  0.24859254  1
  Ru4+  Ru142  1  0.38814448  0.83462757  0.49849975  1
  Ru4+  Ru143  1  0.38618147  0.83568610  0.74955550  1
  Ru4+  Ru144  1  0.88937587  0.16857811  0.00092175  1
  Ru4+  Ru145  1  0.88643897  0.16751239  0.25099543  1
  Ru4+  Ru146  1  0.88236226  0.16614287  0.49832775  1
  Ru4+  Ru147  1  0.88532156  0.16456416  0.75184225  1
  Ru4+  Ru148  1  0.88899675  0.49768259  0.00038152  1
  Ru4+  Ru149  1  0.88857791  0.49803756  0.25227581  1
  Ru4+  Ru150  1  0.88390065  0.50051941  0.49783658  1
  Ru4+  Ru151  1  0.88706303  0.49765568  0.75034158  1
  Ru4+  Ru152  1  0.88622955  0.82941820  0.00622898  1
  Ru4+  Ru153  1  0.88735198  0.83531831  0.24837320  1
  Ru4+  Ru154  1  0.88671668  0.83323083  0.50052211  1
  Ru4+  Ru155  1  0.88619602  0.83474567  0.74702697  1
  Ru4+  Ru156  1  0.74946420  0.37739335  -0.00742403  1
  Ru4+  Ru157  1  0.25007091  0.76184718  0.00388733  1
  Ru4+  Ru158  1  0.75033980  0.90914934  -0.00385848  1
  Ru4+  Ru159  1  0.25020160  0.29488142  0.76706987  1
  Ru4+  Ru160  1  0.74963944  0.24398032  0.74823970  1
  Ru4+  Ru161  1  0.74966532  0.90524634  0.75472619  1
  Ru4+  Ru162  1  0.25013741  0.37396141  -0.03131071  1
  Ru4+  Ru163  1  0.25013462  0.42152769  0.48772435  1
  Ru4+  Ru164  1  0.75044897  0.75151635  0.49837253  1
  Ru4+  Ru165  1  0.74994642  0.05666470  0.00057882  1
  Ru4+  Ru166  1  0.74998105  0.91155026  0.50200227  1
  Ru4+  Ru167  1  0.25101363  0.04020211  0.75451059  1
  Ru4+  Ru168  1  0.24994389  0.57916057  0.24985250  1
  Ru4+  Ru169  1  0.74935260  0.09088232  0.75624607  1
  Ru4+  Ru170  1  0.75021534  0.75702023  0.74834658  1
  Ru4+  Ru171  1  0.74951954  0.60765686  0.26463979  1
  Ru4+  Ru172  1  0.25009802  0.61400439  0.74737900  1
  Ru4+  Ru173  1  0.75015485  0.63890797  0.00496253  1
  Ru4+  Ru174  1  0.24999702  0.27334816  0.26921908  1
  Ru4+  Ru175  1  0.75058090  0.38715118  0.73353372  1
  Ru4+  Ru176  1  0.74984554  0.75724348  0.24522915  1
  Ru4+  Ru177  1  0.24996927  0.73044645  0.23854794  1
  Ru4+  Ru178  1  0.24984378  0.75900253  0.75285772  1
  Ru4+  Ru179  1  0.25039139  0.61964942  -0.00821378  1
  O2-  O180  1  0.16715125  0.08111221  -0.00128431  1
  O2-  O181  1  0.16450880  0.08182186  0.25037030  1
  O2-  O182  1  0.16690142  0.08130970  0.49908770  1
  O2-  O183  1  0.16879297  0.07758989  0.75052065  1
  O2-  O184  1  0.16566678  0.41051552  -0.00135775  1
  O2-  O185  1  0.16536882  0.41326264  0.24994917  1
  O2-  O186  1  0.16699252  0.41431648  0.50087217  1
  O2-  O187  1  0.16678863  0.41211841  0.75200042  1
  O2-  O188  1  0.16626231  0.74857626  -0.00103801  1
  O2-  O189  1  0.16562240  0.74578147  0.24896345  1
  O2-  O190  1  0.16620623  0.74890895  0.50273989  1
  O2-  O191  1  0.16768265  0.74591061  0.74919888  1
  O2-  O192  1  0.66646293  0.07817699  -0.00069607  1
  O2-  O193  1  0.66430314  0.08026456  0.24711607  1
  O2-  O194  1  0.66355459  0.08248220  0.50026216  1
  O2-  O195  1  0.66574551  0.08159848  0.75140974  1
  O2-  O196  1  0.66545424  0.41126061  -0.00110103  1
  O2-  O197  1  0.66505655  0.41016283  0.25106462  1
  O2-  O198  1  0.66267694  0.41303868  0.49828664  1
  O2-  O199  1  0.66779907  0.41242514  0.75194658  1
  O2-  O200  1  0.66331240  0.74776704  0.00088721  1
  O2-  O201  1  0.66555105  0.74665364  0.25117410  1
  O2-  O202  1  0.66581448  0.74817325  0.50102749  1
  O2-  O203  1  0.66754304  0.74819420  0.75163870  1
  O2-  O204  1  0.33364742  0.25222642  -0.00261665  1
  O2-  O205  1  0.33122491  0.25288501  0.25140454  1
  O2-  O206  1  0.33719873  0.25047601  0.50409772  1
  O2-  O207  1  0.33490864  0.25474313  0.75155087  1
  O2-  O208  1  0.33492346  0.58802418  -0.00087324  1
  O2-  O209  1  0.33252713  0.58515908  0.25019913  1
  O2-  O210  1  0.33341296  0.58325884  0.50418841  1
  O2-  O211  1  0.33168222  0.58725595  0.74882658  1
  O2-  O212  1  0.33126771  0.91749255  0.00111009  1
  O2-  O213  1  0.34155863  0.92110376  0.25118886  1
  O2-  O214  1  0.33068230  0.91934750  0.50302068  1
  O2-  O215  1  0.33525000  0.91788737  0.74886128  1
  O2-  O216  1  0.83680802  0.25555659  -0.00126200  1
  O2-  O217  1  0.83175000  0.25468717  0.25044867  1
  O2-  O218  1  0.83361869  0.25359119  0.49758337  1
  O2-  O219  1  0.83295615  0.25301586  0.75058469  1
  O2-  O220  1  0.83296633  0.58933118  0.00125995  1
  O2-  O221  1  0.83146938  0.58779626  0.25047527  1
  O2-  O222  1  0.83643918  0.58646577  0.49963512  1
  O2-  O223  1  0.83331602  0.58918787  0.75199728  1
  O2-  O224  1  0.83207774  0.91772825  -0.00042084  1
  O2-  O225  1  0.83432107  0.91612532  0.25044805  1
  O2-  O226  1  0.83357537  0.91773145  0.50048988  1
  O2-  O227  1  0.83332605  0.91785042  0.75096202  1
  O2-  O228  1  0.16629041  0.25396000  -0.00061051  1
  O2-  O229  1  0.16607080  0.25529429  0.25199001  1
  O2-  O230  1  0.16649719  0.25293352  0.50010723  1
  O2-  O231  1  0.16577598  0.25593223  0.75125660  1
  O2-  O232  1  0.16704994  0.58908158  -0.00148524  1
  O2-  O233  1  0.16704845  0.58790025  0.24992767  1
  O2-  O234  1  0.16883061  0.58516318  0.50204029  1
  O2-  O235  1  0.16749334  0.58822416  0.74970290  1
  O2-  O236  1  0.16809603  0.91606676  -0.00207444  1
  O2-  O237  1  0.16142623  0.91956151  0.25141571  1
  O2-  O238  1  0.17012635  0.91814381  0.50029251  1
  O2-  O239  1  0.16479647  0.91711715  0.74977682  1
  O2-  O240  1  0.66253554  0.25459057  -0.00178741  1
  O2-  O241  1  0.66511684  0.25360659  0.25087662  1
  O2-  O242  1  0.66369452  0.25206716  0.49825812  1
  O2-  O243  1  0.66582133  0.25230102  0.75127636  1
  O2-  O244  1  0.66903771  0.58787390  0.00086871  1
  O2-  O245  1  0.66675702  0.58803318  0.25088430  1
  O2-  O246  1  0.66260972  0.58667879  0.50060365  1
  O2-  O247  1  0.66448256  0.58710898  0.75266339  1
  O2-  O248  1  0.66912487  0.92050374  0.00099666  1
  O2-  O249  1  0.66376411  0.91881512  0.24781851  1
  O2-  O250  1  0.66704604  0.91861661  0.50072197  1
  O2-  O251  1  0.66808144  0.91789616  0.75196065  1
  O2-  O252  1  0.33487460  0.08144309  -0.00066423  1
  O2-  O253  1  0.33910571  0.08108123  0.24729848  1
  O2-  O254  1  0.33579814  0.08141267  0.50122186  1
  O2-  O255  1  0.33346695  0.07746434  0.75024709  1
  O2-  O256  1  0.33080944  0.41218295  -0.00345526  1
  O2-  O257  1  0.33245393  0.41752982  0.24890872  1
  O2-  O258  1  0.33069178  0.41544797  0.50597533  1
  O2-  O259  1  0.33460426  0.41208131  0.75185808  1
  O2-  O260  1  0.33213183  0.74940713  -0.00011045  1
  O2-  O261  1  0.33205680  0.74693518  0.24901707  1
  O2-  O262  1  0.33435005  0.74874611  0.50469519  1
  O2-  O263  1  0.33265996  0.74710357  0.74781985  1
  O2-  O264  1  0.83213206  0.08014311  -0.00111719  1
  O2-  O265  1  0.83337935  0.08041539  0.24859582  1
  O2-  O266  1  0.83442683  0.08108999  0.50030387  1
  O2-  O267  1  0.83159588  0.08062490  0.75072300  1
  O2-  O268  1  0.83408571  0.41226411  -0.00015106  1
  O2-  O269  1  0.83528183  0.41138213  0.25032361  1
  O2-  O270  1  0.83679989  0.41346626  0.49762567  1
  O2-  O271  1  0.83303861  0.41303956  0.75061612  1
  O2-  O272  1  0.83273697  0.74876705  0.00162928  1
  O2-  O273  1  0.83310338  0.74704891  0.25140155  1
  O2-  O274  1  0.83239643  0.74840264  0.50036245  1
  O2-  O275  1  0.82957688  0.74946841  0.75211218  1
  O2-  O276  1  0.95232689  0.23674363  0.50462681  1
  O2-  O277  1  0.04919464  0.23299342  0.76425362  1
  O2-  O278  1  0.54559077  0.24057232  0.75999140  1
  O2-  O279  1  0.45763361  0.90180637  0.26627093  1
  O2-  O280  1  0.55331133  0.91021606  0.98315724  1
  O2-  O281  1  0.46018045  0.44339534  0.22253591  1
  O2-  O282  1  0.45435868  0.09752188  0.48514677  1
  O2-  O283  1  0.05302115  0.76116000  0.76395426  1
  O2-  O284  1  0.44965092  0.76247067  0.76157505  1
  O2-  O285  1  0.55232553  0.42371312  0.76089995  1
  O2-  O286  1  0.55063731  0.09370714  0.73480325  1
  O2-  O287  1  0.46056753  0.43930261  0.95503705  1
  O2-  O288  1  0.54633720  0.09562918  0.23703686  1
  O2-  O289  1  0.55012814  0.43020214  0.01160108  1
  O2-  O290  1  0.94793436  0.57139347  0.73492872  1
  O2-  O291  1  0.04642563  0.76362566  0.01008012  1
  O2-  O292  1  0.95488728  0.90954817  0.73418548  1
  O2-  O293  1  0.04664657  0.42926760  0.01091470  1
  O2-  O294  1  0.04575272  0.43839719  0.51724033  1
  O2-  O295  1  0.45021610  0.08833476  0.01473031  1
  O2-  O296  1  0.04761895  0.23276888  0.98194073  1
  O2-  O297  1  0.04970469  0.56822514  0.74078113  1
  O2-  O298  1  0.45245822  0.23903457  0.00429737  1
  O2-  O299  1  0.95017469  0.23853974  0.74234004  1
  O2-  O300  1  0.96435386  0.77831055  0.73993516  1
  O2-  O301  1  0.45242674  0.23958676  0.98978743  1
  O2-  O302  1  0.04589402  0.23405387  0.23682452  1
  O2-  O303  1  0.55066222  0.09564234  0.98447693  1
  O2-  O304  1  0.45339213  0.57005456  0.98587712  1
  O2-  O305  1  0.95252412  0.57106813  0.00681736  1
  O2-  O306  1  0.95422704  0.88696819  0.96987892  1
  O2-  O307  1  0.54951489  0.76681319  0.73845460  1
  O2-  O308  1  0.94773181  0.57388654  0.23610378  1
  O2-  O309  1  0.54366068  0.43664200  0.74057729  1
  O2-  O310  1  0.44903108  0.90680299  0.01559144  1
  O2-  O311  1  0.03473362  0.88081825  0.50686151  1
  O2-  O312  1  0.05229623  0.57302192  0.26551895  1
  O2-  O313  1  0.04702959  0.76757125  0.23908954  1
  O2-  O314  1  0.04563592  0.89665845  0.96267652  1
  O2-  O315  1  0.04570096  0.23495940  0.02126427  1
  O2-  O316  1  0.45172818  0.90702561  0.75866757  1
  O2-  O317  1  0.45459320  0.89584199  0.99125511  1
  O2-  O318  1  0.04762226  0.42874222  0.47962667  1
  O2-  O319  1  0.46336292  0.44298130  0.53327416  1
  O2-  O320  1  0.95642130  0.56061022  0.25648937  1
  O2-  O321  1  0.95370553  0.09515548  0.50821748  1
  O2-  O322  1  0.54465435  0.89705249  0.00345458  1
  O2-  O323  1  0.44890874  0.09999646  0.73728517  1
  O2-  O324  1  0.93276935  0.74331059  0.93982664  1
  O2-  O325  1  0.93843887  0.93019272  0.21905240  1
  O2-  O326  1  0.43732011  0.92838112  0.46462504  1
  O2-  O327  1  0.43762308  0.59833474  0.46907684  1
  O2-  O328  1  0.93482327  0.07446274  0.77501371  1
  O2-  O329  1  0.56422974  0.59273234  0.72103522  1
  O2-  O330  1  0.07186305  0.94188890  0.53951922  1
  O2-  O331  1  0.43213188  0.25544784  0.20354230  1
  O2-  O332  1  0.43302486  0.25297098  0.29786980  1
  O2-  O333  1  0.93590205  0.73824739  0.21927816  1
  O2-  O334  1  0.43716541  0.59436333  0.71518062  1
  O2-  O335  1  0.06494292  0.59269688  0.52681497  1
  O2-  O336  1  0.06562829  0.59551251  0.02383251  1
  O2-  O337  1  0.93693955  0.73639021  0.46546350  1
  O2-  O338  1  0.56399600  0.93248220  0.71955545  1
  O2-  O339  1  0.07076858  0.95062887  0.06179826  1
  O2-  O340  1  0.92759960  0.94048298  0.05744492  1
  O2-  O341  1  0.93394990  0.59907776  0.28850689  1
  O2-  O342  1  0.93522682  0.93123714  0.53159782  1
  O2-  O343  1  0.06381009  0.07010951  0.82033946  1
  O2-  O344  1  0.93963682  0.58313779  0.72478652  1
  O2-  O345  1  0.42410143  0.39740162  0.30068432  1
  O2-  O346  1  0.56732835  0.93482935  0.03533180  1
  O2-  O347  1  0.56767915  0.39801755  0.71124839  1
  O2-  O348  1  0.93604585  0.73741861  0.06515286  1
  O2-  O349  1  0.43059193  0.58696354  0.19271652  1
  O2-  O350  1  0.06614904  0.25823377  0.52421062  1
  O2-  O351  1  0.06133947  0.07125906  0.21650194  1
  O2-  O352  1  0.06449022  0.40885670  0.77844990  1
  O2-  O353  1  0.41972696  0.39595359  0.05075519  1
  O2-  O354  1  0.93527290  0.25791842  0.22532927  1
  O2-  O355  1  0.56631580  0.59399360  0.02541969  1
  O2-  O356  1  0.06320396  0.06717713  0.68326067  1
  O2-  O357  1  0.43599652  0.74417800  0.22444700  1
  O2-  O358  1  0.56652671  0.26129870  0.02606678  1
  O2-  O359  1  0.06314023  0.07601624  0.52872262  1
  O2-  O360  1  0.56095389  0.93065908  0.46689030  1
  O2-  O361  1  0.93848272  0.07362652  0.28505589  1
  O2-  O362  1  0.06340250  0.92553774  0.27763482  1
  O2-  O363  1  0.91901220  0.72504098  0.71525479  1
  O2-  O364  1  0.43225357  0.74065881  0.97529897  1
  O2-  O365  1  0.93646133  0.26299858  0.93141865  1
  O2-  O366  1  0.43700816  0.40145902  0.78255263  1
  O2-  O367  1  0.93878622  0.07645235  0.03230645  1
  O2-  O368  1  0.43036384  0.93476329  0.96959632  1
  O2-  O369  1  0.42118363  0.39391267  0.45164849  1
  O2-  O370  1  0.93374308  0.25344810  0.06135492  1
  O2-  O371  1  0.43863980  0.59757538  0.31596673  1
  O2-  O372  1  0.25035022  -0.00634183  0.64425334  1
  O2-  O373  1  0.25029646  0.00166354  0.15286085  1
  O2-  O374  1  0.24985602  0.66022243  0.33424677  1
  O2-  O375  1  0.24987438  0.67208069  0.10790632  1
  O2-  O376  1  0.24977578  0.66925156  0.42617446  1
  O2-  O377  1  0.74990130  -0.00227022  0.33073663  1
  O2-  O378  1  0.75010638  -0.00094426  0.68664921  1
  O2-  O379  1  0.74983499  0.00365312  0.42067253  1
  O2-  O380  1  0.74986625  0.67041593  0.40590478  1
  O2-  O381  1  0.25025192  -0.00423983  0.34840778  1
  O2-  O382  1  0.75007387  0.66631218  0.14660870  1
  O2-  O383  1  0.75019383  0.67065447  0.89143798  1
  O2-  O384  1  0.24959824  0.33538401  0.40637026  1
  O2-  O385  1  0.25049365  0.33878280  0.64857261  1
  O2-  O386  1  0.24955823  0.67818100  0.88772853  1
  O2-  O387  1  0.75005796  0.00217784  0.56531880  1
  O2-  O388  1  0.74935923  0.33481016  0.61258703  1
  O2-  O389  1  0.75022082  0.32517519  0.88498344  1
  O2-  O390  1  0.24967998  0.31881425  0.08124166  1
  O2-  O391  1  0.74976521  0.33130636  0.10847112  1
  O2-  O392  1  0.74968415  -0.00003119  0.84454692  1
  O2-  O393  1  0.24971444  0.34594146  0.17098922  1
  O2-  O394  1  0.74992184  0.67145285  0.65681037  1
  O2-  O395  1  0.24992328  -0.00374838  0.85941951  1
  O2-  O396  1  0.24994419  0.83658383  0.42159419  1
  O2-  O397  1  0.25018499  0.15127178  0.12662377  1
  O2-  O398  1  0.75007056  0.49577339  0.89197104  1
  O2-  O399  1  0.24991746  0.49772516  0.88895947  1
  O2-  O400  1  0.74996784  0.49647293  0.60426162  1
  O2-  O401  1  0.74998941  0.16982326  0.37111377  1
  O2-  O402  1  0.75001972  0.84053351  0.90662016  1
  O2-  O403  1  0.74978288  0.83611418  0.32962869  1
  O2-  O404  1  0.24992810  0.82555134  0.84050027  1
  O2-  O405  1  0.75011822  0.50259565  0.38990840  1
  O2-  O406  1  0.25001669  0.16702545  0.89632950  1
  O2-  O407  1  0.74962528  0.83105032  0.41929235  1
  O2-  O408  1  0.74994061  0.16793953  0.65866367  1
  O2-  O409  1  0.25007498  0.17545685  0.41245210  1
  O2-  O410  1  0.24957784  0.18776715  0.19732449  1
  O2-  O411  1  0.24992679  0.81457936  0.33558482  1
  O2-  O412  1  0.25006008  0.49716502  0.41379287  1
  O2-  O413  1  0.24976925  0.16495056  0.57966424  1
  O2-  O414  1  0.75015304  0.15735484  0.86041088  1
  O2-  O415  1  0.74997302  0.82949333  0.16074410  1
  O2-  O416  1  0.75015229  0.14838838  0.11268962  1
  O2-  O417  1  0.24981211  0.81592332  0.11125326  1
  O2-  O418  1  0.24983314  0.50144712  0.17357349  1
  O2-  O419  1  0.24996775  0.16752738  0.81870438  1
  O2-  O420  1  0.47341722  -0.00171120  0.62294932  1
  O2-  O421  1  0.02699940  0.66851153  0.37710040  1
  O2-  O422  1  0.97358766  -0.00225284  0.87930059  1
  O2-  O423  1  0.95536626  0.33817568  0.62325443  1
  O2-  O424  1  0.53462068  0.33717658  0.13917557  1
  O2-  O425  1  0.46044978  0.65970790  0.86664317  1
  O2-  O426  1  0.52479090  0.66869744  0.61813722  1
  O2-  O427  1  0.54253976  0.67567626  0.13814909  1
  O2-  O428  1  0.02536814  0.66441038  0.12951259  1
  O2-  O429  1  0.52842791  0.33388101  0.87924955  1
  O2-  O430  1  0.47697037  0.00619076  0.86690520  1
  O2-  O431  1  0.46215668  0.67128162  0.10534933  1
  O2-  O432  1  0.02428344  0.33269351  0.87889043  1
  O2-  O433  1  0.97777187  0.34848415  0.12694876  1
  O2-  O434  1  0.04173300  0.33668535  0.63669331  1
  O2-  O435  1  0.97008329  0.66622980  0.60992014  1
  O2-  O436  1  0.97789119  0.65904143  0.87025759  1
  O2-  O437  1  0.54563003  0.66692969  0.87683169  1
  O2-  O438  1  0.03200292  0.67338435  0.62767743  1
  O2-  O439  1  0.47701790  0.33351699  0.12405751  1
  O2-  O440  1  0.02717537  0.32860620  0.37453898  1
  O2-  O441  1  0.47225654  -0.00058337  0.13139996  1
  O2-  O442  1  0.48899305  0.32459408  0.38045027  1
  O2-  O443  1  0.02677089  0.00890685  0.38002934  1
