# generated using pymatgen
data_La7(Ru4O11)2
_symmetry_space_group_name_H-M   'P 1'
_cell_length_a   23.99219225
_cell_length_b   16.83323953
_cell_length_c   15.43025320
_cell_angle_alpha   90.00124882
_cell_angle_beta   89.99831313
_cell_angle_gamma   90.00174287
_symmetry_Int_Tables_number   1
_chemical_formula_structural   La7(Ru4O11)2
_chemical_formula_sum   'La84 Ru96 O264'
_cell_volume   6231.75955051
_cell_formula_units_Z   12
loop_
 _symmetry_equiv_pos_site_id
 _symmetry_equiv_pos_as_xyz
  1  'x, y, z'
loop_
 _atom_type_symbol
 _atom_type_oxidation_number
  La3+  3.0
  Ru4+  4.0
  O2-  -2.0
loop_
 _atom_site_type_symbol
 _atom_site_label
 _atom_site_symmetry_multiplicity
 _atom_site_fract_x
 _atom_site_fract_y
 _atom_site_fract_z
 _atom_site_occupancy
  La3+  La0  1  0.13853402  0.00099562  0.12609154  1
  La3+  La1  1  0.13958082  0.00388918  0.37204097  1
  La3+  La2  1  0.13378250  -0.00184335  0.62407678  1
  La3+  La3  1  0.13253571  -0.00340068  0.87535784  1
  La3+  La4  1  0.14470246  0.33236604  0.12915413  1
  La3+  La5  1  0.14003008  0.34010276  0.37216033  1
  La3+  La6  1  0.13372527  0.33965594  0.62222514  1
  La3+  La7  1  0.13536042  0.33628181  0.88080147  1
  La3+  La8  1  0.14194839  0.66207172  0.12488661  1
  La3+  La9  1  0.14213057  0.66262787  0.37508583  1
  La3+  La10  1  0.13997197  0.65889359  0.62347028  1
  La3+  La11  1  0.13523308  0.66378777  0.87525038  1
  La3+  La12  1  0.64353390  0.00140530  0.12193651  1
  La3+  La13  1  0.64629899  0.00038801  0.38034630  1
  La3+  La14  1  0.64071477  0.00250644  0.62154603  1
  La3+  La15  1  0.63657974  0.00689316  0.87601494  1
  La3+  La16  1  0.63783099  0.33863746  0.12919278  1
  La3+  La17  1  0.64751489  0.33680792  0.37471950  1
  La3+  La18  1  0.63435444  0.32708503  0.62616780  1
  La3+  La19  1  0.63739518  0.33015494  0.86960645  1
  La3+  La20  1  0.63669931  0.66614082  0.13057028  1
  La3+  La21  1  0.63950922  0.66646304  0.37054531  1
  La3+  La22  1  0.63883657  0.66808990  0.62225291  1
  La3+  La23  1  0.64095532  0.66493946  0.87714515  1
  La3+  La24  1  0.35822836  0.00383302  0.12722356  1
  La3+  La25  1  0.36543138  0.00170508  0.37314375  1
  La3+  La26  1  0.36494074  0.00354913  0.62523392  1
  La3+  La27  1  0.36695546  0.00300389  0.87886253  1
  La3+  La28  1  0.35976430  0.33611002  0.12808454  1
  La3+  La29  1  0.36079559  0.33866094  0.37432614  1
  La3+  La30  1  0.36829839  0.33870508  0.61926450  1
  La3+  La31  1  0.36090041  0.33598792  0.87888054  1
  La3+  La32  1  0.36488467  0.66454214  0.12412854  1
  La3+  La33  1  0.36382035  0.65909384  0.37881805  1
  La3+  La34  1  0.36167965  0.66287975  0.61813741  1
  La3+  La35  1  0.36424215  0.66215953  0.87931419  1
  La3+  La36  1  0.85263172  0.00219176  0.12254679  1
  La3+  La37  1  0.85394169  -0.00007823  0.37900687  1
  La3+  La38  1  0.85401904  -0.00176757  0.62115010  1
  La3+  La39  1  0.85984269  0.00650444  0.87265638  1
  La3+  La40  1  0.86031411  0.33622599  0.12602381  1
  La3+  La41  1  0.85144411  0.33417133  0.37583036  1
  La3+  La42  1  0.85965706  0.32646249  0.62458253  1
  La3+  La43  1  0.85706233  0.33726777  0.86978952  1
  La3+  La44  1  0.86254046  0.66489523  0.12818913  1
  La3+  La45  1  0.86159309  0.66256704  0.37242529  1
  La3+  La46  1  0.86738791  0.66593302  0.62185842  1
  La3+  La47  1  0.86217440  0.66630728  0.87655513  1
  La3+  La48  1  0.49739448  0.50493135  0.37579876  1
  La3+  La49  1  0.49766867  0.83588296  0.36038179  1
  La3+  La50  1  0.00315016  0.49730474  0.11695489  1
  La3+  La51  1  0.00067542  0.51153241  0.87742178  1
  La3+  La52  1  0.00055064  0.83144158  0.13039920  1
  La3+  La53  1  0.49858435  0.50407801  0.63230008  1
  La3+  La54  1  0.00523060  0.16406894  0.14658032  1
  La3+  La55  1  -0.00156489  0.84255847  0.39210623  1
  La3+  La56  1  0.00067391  0.17436266  0.88749760  1
  La3+  La57  1  0.49943103  0.16395075  0.87888936  1
  La3+  La58  1  -0.00207217  0.50043591  0.62512762  1
  La3+  La59  1  0.50243933  0.83516636  0.86782956  1
  La3+  La60  1  0.50125323  0.17658810  0.13987491  1
  La3+  La61  1  -0.00040817  0.83182035  0.10778621  1
  La3+  La62  1  0.50461496  0.49186952  0.88187589  1
  La3+  La63  1  -0.00111818  0.51080188  0.86099780  1
  La3+  La64  1  0.00298661  0.83616890  0.37810170  1
  La3+  La65  1  0.50099809  0.16208088  0.86198733  1
  La3+  La66  1  -0.00503899  0.82482722  0.63899596  1
  La3+  La67  1  0.00180147  0.16979023  0.37230534  1
  La3+  La68  1  0.49905604  0.16464970  0.12163531  1
  La3+  La69  1  0.50062878  0.83007578  0.62863243  1
  La3+  La70  1  0.00295675  0.17211082  0.87141033  1
  La3+  La71  1  0.00642617  0.16174829  0.13036724  1
  La3+  La72  1  0.24881906  0.15541470  0.72584469  1
  La3+  La73  1  0.24990177  0.16788765  0.04848475  1
  La3+  La74  1  0.25132381  0.76992087  -0.01267601  1
  La3+  La75  1  0.25022814  0.17187328  0.30091984  1
  La3+  La76  1  0.25177798  0.77396507  0.46763934  1
  La3+  La77  1  0.25067603  0.79994771  0.78776300  1
  La3+  La78  1  0.74936111  0.19555922  0.25479646  1
  La3+  La79  1  0.75052844  0.89551738  -0.00065932  1
  La3+  La80  1  0.25010326  0.50061094  0.51060886  1
  La3+  La81  1  0.24979054  0.83912424  0.30682774  1
  La3+  La82  1  0.74949884  0.45582443  0.51565180  1
  La3+  La83  1  0.74866549  0.88115020  0.76947441  1
  Ru4+  Ru84  1  -0.00120753  -0.00211818  -0.00653387  1
  Ru4+  Ru85  1  0.00016798  0.00306252  0.25239449  1
  Ru4+  Ru86  1  -0.00111262  0.00408763  0.49986772  1
  Ru4+  Ru87  1  -0.00342280  0.00553805  0.74295859  1
  Ru4+  Ru88  1  0.00619777  0.34193573  0.00926246  1
  Ru4+  Ru89  1  0.00022157  0.33931977  0.25691237  1
  Ru4+  Ru90  1  -0.00516373  0.32798459  0.49478093  1
  Ru4+  Ru91  1  -0.01074932  0.32937812  0.73898015  1
  Ru4+  Ru92  1  0.00287992  0.67499417  -0.00075934  1
  Ru4+  Ru93  1  -0.00010113  0.66144017  0.24675137  1
  Ru4+  Ru94  1  0.00447230  0.67151854  0.50827563  1
  Ru4+  Ru95  1  -0.00477982  0.67537204  0.75247035  1
  Ru4+  Ru96  1  0.49332628  -0.01060564  0.00317155  1
  Ru4+  Ru97  1  0.49819310  -0.00074115  0.25711680  1
  Ru4+  Ru98  1  0.50078085  0.00707542  0.49862261  1
  Ru4+  Ru99  1  0.50101283  -0.01061850  0.74268191  1
  Ru4+  Ru100  1  0.50163246  0.33815895  0.01157719  1
  Ru4+  Ru101  1  0.49664430  0.33185034  0.24834461  1
  Ru4+  Ru102  1  0.49925811  0.32238413  0.50199447  1
  Ru4+  Ru103  1  0.49792582  0.33933155  0.74584393  1
  Ru4+  Ru104  1  0.50259912  0.67486179  -0.00246148  1
  Ru4+  Ru105  1  0.49891852  0.66722138  0.24482785  1
  Ru4+  Ru106  1  0.50270823  0.67269167  0.51535247  1
  Ru4+  Ru107  1  0.50047499  0.66789581  0.73929068  1
  Ru4+  Ru108  1  0.11464450  0.16876458  0.00050562  1
  Ru4+  Ru109  1  0.11178076  0.16311284  0.24914506  1
  Ru4+  Ru110  1  0.11010162  0.16599628  0.50055400  1
  Ru4+  Ru111  1  0.10943748  0.16503384  0.74918629  1
  Ru4+  Ru112  1  0.11432259  0.49886519  0.00649813  1
  Ru4+  Ru113  1  0.11154472  0.49716871  0.25249870  1
  Ru4+  Ru114  1  0.11299727  0.50391851  0.49320102  1
  Ru4+  Ru115  1  0.11715087  0.49856898  0.74863254  1
  Ru4+  Ru116  1  0.10668158  0.82943462  -0.00019856  1
  Ru4+  Ru117  1  0.10963484  0.83189052  0.24867300  1
  Ru4+  Ru118  1  0.10922088  0.83376150  0.50247336  1
  Ru4+  Ru119  1  0.11087893  0.82880064  0.74819116  1
  Ru4+  Ru120  1  0.61853692  0.16859170  0.00142611  1
  Ru4+  Ru121  1  0.61140828  0.16872171  0.25067475  1
  Ru4+  Ru122  1  0.60912666  0.16611291  0.49867092  1
  Ru4+  Ru123  1  0.61968320  0.16751853  0.75011423  1
  Ru4+  Ru124  1  0.61516718  0.50214742  -0.00367201  1
  Ru4+  Ru125  1  0.61444056  0.50392463  0.24852659  1
  Ru4+  Ru126  1  0.61089509  0.50041309  0.50320962  1
  Ru4+  Ru127  1  0.61106986  0.50013000  0.75171160  1
  Ru4+  Ru128  1  0.60833606  0.83254649  -0.00072468  1
  Ru4+  Ru129  1  0.61449666  0.83060538  0.24957784  1
  Ru4+  Ru130  1  0.61371221  0.83325044  0.49970734  1
  Ru4+  Ru131  1  0.60780155  0.83344900  0.74937441  1
  Ru4+  Ru132  1  0.38361903  0.16623367  -0.00066503  1
  Ru4+  Ru133  1  0.38850311  0.16969132  0.25308793  1
  Ru4+  Ru134  1  0.38913837  0.16376017  0.49703740  1
  Ru4+  Ru135  1  0.38495136  0.17566058  0.74890872  1
  Ru4+  Ru136  1  0.38727197  0.49390501  0.00178694  1
  Ru4+  Ru137  1  0.38604841  0.50027016  0.24985621  1
  Ru4+  Ru138  1  0.38454859  0.50060526  0.49976405  1
  Ru4+  Ru139  1  0.38929534  0.50077704  0.75015641  1
  Ru4+  Ru140  1  0.39525813  0.83785898  0.00610839  1
  Ru4+  Ru141  1  0.38916660  0.83131591  0.24856574  1
  Ru4+  Ru142  1  0.39245151  0.83302420  0.49784100  1
  Ru4+  Ru143  1  0.39305350  0.83627502  0.74711157  1
  Ru4+  Ru144  1  0.88666149  0.16691000  -0.00199966  1
  Ru4+  Ru145  1  0.88748439  0.17131594  0.25143722  1
  Ru4+  Ru146  1  0.88556928  0.16877532  0.50438381  1
  Ru4+  Ru147  1  0.88884809  0.17025377  0.74278961  1
  Ru4+  Ru148  1  0.88389090  0.50326831  0.00089698  1
  Ru4+  Ru149  1  0.88586768  0.50443406  0.25113087  1
  Ru4+  Ru150  1  0.88466320  0.49561832  0.49894163  1
  Ru4+  Ru151  1  0.88544322  0.49907856  0.74728245  1
  Ru4+  Ru152  1  0.89096865  0.83073032  -0.00440464  1
  Ru4+  Ru153  1  0.88080988  0.83502777  0.24744649  1
  Ru4+  Ru154  1  0.88316736  0.83357816  0.49924231  1
  Ru4+  Ru155  1  0.89066125  0.83576819  0.75515865  1
  Ru4+  Ru156  1  0.25051070  0.43217092  0.75849882  1
  Ru4+  Ru157  1  0.74988160  0.60192578  0.48305124  1
  Ru4+  Ru158  1  0.24999980  0.25697450  0.47789949  1
  Ru4+  Ru159  1  0.25018015  0.68479936  0.71837521  1
  Ru4+  Ru160  1  0.24983165  0.69773990  0.23851799  1
  Ru4+  Ru161  1  0.25044635  0.57579108  0.00546998  1
  Ru4+  Ru162  1  0.24964001  0.92919269  0.73298245  1
  Ru4+  Ru163  1  0.25048884  0.42875843  0.00775051  1
  Ru4+  Ru164  1  0.75008913  0.73209554  0.72579758  1
  Ru4+  Ru165  1  0.74970600  0.73631209  0.01310133  1
  Ru4+  Ru166  1  0.24975757  0.93821312  0.00127915  1
  Ru4+  Ru167  1  0.25028802  0.04537663  0.80100241  1
  Ru4+  Ru168  1  0.75045299  0.09180595  0.76040659  1
  Ru4+  Ru169  1  0.74961981  0.42507534  0.00427365  1
  Ru4+  Ru170  1  0.24956003  0.28668183  0.75642761  1
  Ru4+  Ru171  1  0.75098201  0.24258676  0.00260031  1
  Ru4+  Ru172  1  0.74933236  0.41688497  0.74933769  1
  Ru4+  Ru173  1  0.25116884  0.56557141  0.76996314  1
  Ru4+  Ru174  1  0.74977546  0.58104241  0.74224798  1
  Ru4+  Ru175  1  0.24969906  0.56040574  0.26002055  1
  Ru4+  Ru176  1  0.24969403  0.06935001  0.46727918  1
  Ru4+  Ru177  1  0.25063438  0.94055965  0.49753815  1
  Ru4+  Ru178  1  0.75003089  0.04302317  0.25432089  1
  Ru4+  Ru179  1  0.25036695  0.95840626  0.22594387  1
  O2-  O180  1  0.16523555  0.07886488  0.00317771  1
  O2-  O181  1  0.16703362  0.08152380  0.24684516  1
  O2-  O182  1  0.16687860  0.07932917  0.49973941  1
  O2-  O183  1  0.16286814  0.07755643  0.75004837  1
  O2-  O184  1  0.16907998  0.41476545  0.00091047  1
  O2-  O185  1  0.16635959  0.41681246  0.24826733  1
  O2-  O186  1  0.16419412  0.41641357  0.50234305  1
  O2-  O187  1  0.16600917  0.41351407  0.74984664  1
  O2-  O188  1  0.16041187  0.74411888  -0.00280455  1
  O2-  O189  1  0.16746801  0.74509889  0.25091686  1
  O2-  O190  1  0.16421684  0.74908245  0.49970255  1
  O2-  O191  1  0.16381282  0.74133145  0.75327175  1
  O2-  O192  1  0.66616458  0.08174059  -0.00119837  1
  O2-  O193  1  0.67007390  0.07930211  0.24972054  1
  O2-  O194  1  0.66524292  0.08558248  0.50084677  1
  O2-  O195  1  0.66734525  0.08074130  0.74703851  1
  O2-  O196  1  0.66503369  0.41342797  0.00000427  1
  O2-  O197  1  0.66591301  0.41682399  0.24928974  1
  O2-  O198  1  0.65881292  0.41063271  0.50406688  1
  O2-  O199  1  0.66648664  0.41273719  0.74666776  1
  O2-  O200  1  0.66548964  0.74588916  0.00267966  1
  O2-  O201  1  0.66889172  0.74662322  0.25411908  1
  O2-  O202  1  0.66377608  0.74559038  0.49654829  1
  O2-  O203  1  0.66535332  0.74588840  0.74914821  1
  O2-  O204  1  0.33418144  0.25538243  0.00280861  1
  O2-  O205  1  0.33471281  0.25234076  0.24922987  1
  O2-  O206  1  0.33615092  0.25214878  0.49767857  1
  O2-  O207  1  0.33368699  0.26082989  0.74939517  1
  O2-  O208  1  0.33296975  0.58642018  -0.00023945  1
  O2-  O209  1  0.33138739  0.58584311  0.25119173  1
  O2-  O210  1  0.33313762  0.58483151  0.49999679  1
  O2-  O211  1  0.33542334  0.58617989  0.75404627  1
  O2-  O212  1  0.33119221  0.91797132  -0.00129959  1
  O2-  O213  1  0.33125362  0.92114787  0.25071128  1
  O2-  O214  1  0.33470735  0.92268875  0.49899194  1
  O2-  O215  1  0.33311986  0.92205525  0.74793268  1
  O2-  O216  1  0.82848587  0.24984884  0.00598594  1
  O2-  O217  1  0.83118581  0.25448723  0.24703865  1
  O2-  O218  1  0.83339639  0.24771069  0.49807432  1
  O2-  O219  1  0.83284738  0.24772840  0.74683241  1
  O2-  O220  1  0.83334796  0.58411378  0.00525941  1
  O2-  O221  1  0.83156927  0.58551617  0.24839282  1
  O2-  O222  1  0.83179168  0.58829168  0.50048487  1
  O2-  O223  1  0.83302162  0.58534599  0.74693850  1
  O2-  O224  1  0.84211745  0.92360204  -0.00280026  1
  O2-  O225  1  0.82990473  0.91694278  0.25495959  1
  O2-  O226  1  0.83635940  0.91686346  0.49757473  1
  O2-  O227  1  0.83606903  0.92042502  0.74734504  1
  O2-  O228  1  0.16922814  0.25242144  0.00223389  1
  O2-  O229  1  0.16635224  0.25171833  0.25248926  1
  O2-  O230  1  0.16452813  0.25246438  0.49754964  1
  O2-  O231  1  0.16476473  0.25894390  0.74924170  1
  O2-  O232  1  0.16784529  0.58508884  -0.00162678  1
  O2-  O233  1  0.16774554  0.58382237  0.25152851  1
  O2-  O234  1  0.16901537  0.58360939  0.50094577  1
  O2-  O235  1  0.16745419  0.58484156  0.75657735  1
  O2-  O236  1  0.16429656  0.91954794  0.00058506  1
  O2-  O237  1  0.16972320  0.92309176  0.24886130  1
  O2-  O238  1  0.16928752  0.92048459  0.50268250  1
  O2-  O239  1  0.16466443  0.91950310  0.75037429  1
  O2-  O240  1  0.66951131  0.25261406  0.00012264  1
  O2-  O241  1  0.66541527  0.25447633  0.24994993  1
  O2-  O242  1  0.66192231  0.25058815  0.50406060  1
  O2-  O243  1  0.66674309  0.25252053  0.74447221  1
  O2-  O244  1  0.66336200  0.58535956  0.00217320  1
  O2-  O245  1  0.66593206  0.58522628  0.24967174  1
  O2-  O246  1  0.66683545  0.58811463  0.49933063  1
  O2-  O247  1  0.66397264  0.58584214  0.74944876  1
  O2-  O248  1  0.65760227  0.92267470  -0.00120588  1
  O2-  O249  1  0.66110296  0.91806494  0.25020215  1
  O2-  O250  1  0.66160857  0.91724224  0.49994028  1
  O2-  O251  1  0.65762261  0.92322079  0.74842075  1
  O2-  O252  1  0.32952937  0.08092521  0.00549368  1
  O2-  O253  1  0.33239719  0.08104900  0.25296860  1
  O2-  O254  1  0.33098265  0.07942566  0.49766959  1
  O2-  O255  1  0.33527556  0.07893759  0.75005417  1
  O2-  O256  1  0.33367600  0.41636219  0.00104353  1
  O2-  O257  1  0.33755646  0.41498349  0.24916676  1
  O2-  O258  1  0.33501936  0.41460626  0.50170336  1
  O2-  O259  1  0.33270287  0.41456889  0.75217555  1
  O2-  O260  1  0.34301948  0.74476018  0.00019441  1
  O2-  O261  1  0.33052221  0.74353939  0.25055928  1
  O2-  O262  1  0.33983362  0.74609119  0.50149812  1
  O2-  O263  1  0.33992528  0.74407731  0.75144089  1
  O2-  O264  1  0.83558864  0.08446939  -0.00219441  1
  O2-  O265  1  0.83062476  0.08144353  0.24930086  1
  O2-  O266  1  0.83295586  0.08627798  0.49687949  1
  O2-  O267  1  0.83056116  0.08536893  0.75162811  1
  O2-  O268  1  0.83123000  0.41502675  0.00554569  1
  O2-  O269  1  0.83754780  0.41523817  0.24741234  1
  O2-  O270  1  0.83733702  0.40919529  0.49949284  1
  O2-  O271  1  0.83189550  0.41595395  0.74518807  1
  O2-  O272  1  0.83223823  0.74739951  0.00548002  1
  O2-  O273  1  0.83236226  0.74670902  0.25379361  1
  O2-  O274  1  0.83484444  0.74473287  0.49809385  1
  O2-  O275  1  0.83320658  0.74810896  0.74587496  1
  O2-  O276  1  0.45157505  0.56342816  0.01605682  1
  O2-  O277  1  0.94864294  0.42617167  0.78635426  1
  O2-  O278  1  0.44866298  0.57175565  0.48721937  1
  O2-  O279  1  0.55028351  0.76055999  0.98267100  1
  O2-  O280  1  0.45065479  0.10035259  0.26258655  1
  O2-  O281  1  0.54673587  0.23962865  0.51049951  1
  O2-  O282  1  0.04171784  0.57311674  0.73341595  1
  O2-  O283  1  0.05112093  0.09960896  0.51732519  1
  O2-  O284  1  0.45281749  0.58134644  0.98196064  1
  O2-  O285  1  0.45283712  0.42393551  0.48248979  1
  O2-  O286  1  0.04651540  0.23284319  0.75299863  1
  O2-  O287  1  0.05552137  0.90847128  0.73808124  1
  O2-  O288  1  0.45254220  0.43041272  0.52122743  1
  O2-  O289  1  0.54182537  0.09663148  0.73872806  1
  O2-  O290  1  0.94614733  0.56616540  0.51531387  1
  O2-  O291  1  0.95197335  0.76678928  0.51001825  1
  O2-  O292  1  0.54562872  0.09764970  0.97655808  1
  O2-  O293  1  0.05019066  0.43054681  0.96266243  1
  O2-  O294  1  0.05108399  0.42881579  0.48613134  1
  O2-  O295  1  0.04908161  0.76013030  0.45736600  1
  O2-  O296  1  0.95544873  0.90283583  0.98351504  1
  O2-  O297  1  0.95307585  0.10107644  0.24319762  1
  O2-  O298  1  0.05356522  0.57468865  0.76785429  1
  O2-  O299  1  0.04503848  0.09828971  0.01314609  1
  O2-  O300  1  0.54906771  0.57684787  0.26993268  1
  O2-  O301  1  0.47951583  0.87900924  -0.00484987  1
  O2-  O302  1  0.05129080  0.43162047  0.73391420  1
  O2-  O303  1  0.96027521  0.88441460  0.27333084  1
  O2-  O304  1  0.54638011  0.09786883  0.01574937  1
  O2-  O305  1  0.96434645  0.21781154  0.03038771  1
  O2-  O306  1  0.95975788  0.10372025  0.77657153  1
  O2-  O307  1  0.03630591  0.78687649  0.95164488  1
  O2-  O308  1  0.44982565  0.10351050  0.76064884  1
  O2-  O309  1  0.05026569  0.75665062  0.74121192  1
  O2-  O310  1  0.54226262  0.24100920  0.76146515  1
  O2-  O311  1  0.03455797  0.55761492  0.49575070  1
  O2-  O312  1  0.96636003  0.11113374  0.76277496  1
  O2-  O313  1  0.55165343  0.08873827  0.23971787  1
  O2-  O314  1  0.96819391  0.87329564  0.76031444  1
  O2-  O315  1  0.54952086  0.43628043  0.23695570  1
  O2-  O316  1  0.03290626  0.89146174  0.53885934  1
  O2-  O317  1  0.54571250  0.42365676  0.27320631  1
  O2-  O318  1  0.04577882  0.23353445  0.25387880  1
  O2-  O319  1  0.44543396  0.75508251  0.01023971  1
  O2-  O320  1  0.95718811  0.11040111  0.47256448  1
  O2-  O321  1  0.04532295  0.41912951  0.52275469  1
  O2-  O322  1  0.45542488  0.23334451  -0.00083977  1
  O2-  O323  1  0.55472526  0.09829036  0.77206186  1
  O2-  O324  1  0.56167310  0.24507405  0.78620778  1
  O2-  O325  1  0.91413934  0.05365121  0.69240965  1
  O2-  O326  1  0.93967676  0.42085130  0.79824565  1
  O2-  O327  1  0.08016953  0.93292689  0.44563709  1
  O2-  O328  1  0.91903010  0.93770543  0.18649972  1
  O2-  O329  1  0.43738280  0.59255593  0.28661960  1
  O2-  O330  1  0.93298762  0.25568987  0.80722332  1
  O2-  O331  1  0.44139811  0.60033903  0.46595393  1
  O2-  O332  1  0.06648047  0.39050573  0.09952327  1
  O2-  O333  1  0.56657193  0.25644319  0.02188376  1
  O2-  O334  1  0.43432635  0.07516235  0.48000149  1
  O2-  O335  1  0.06919862  0.72928059  0.06974777  1
  O2-  O336  1  0.43672490  0.41115715  0.72727143  1
  O2-  O337  1  0.93474642  0.74031882  0.78332485  1
  O2-  O338  1  0.93697255  0.59362555  0.28406011  1
  O2-  O339  1  0.43767811  0.74643273  0.22754194  1
  O2-  O340  1  0.43026809  0.90966643  0.81639700  1
  O2-  O341  1  0.92235001  0.94869476  0.80155633  1
  O2-  O342  1  0.56270371  0.74227004  0.22895938  1
  O2-  O343  1  0.05771741  0.40055062  0.71671197  1
  O2-  O344  1  0.93629105  0.41592519  0.98168828  1
  O2-  O345  1  0.56427225  0.06932579  0.46736122  1
  O2-  O346  1  0.07375372  0.61433967  0.45651560  1
  O2-  O347  1  0.91241755  0.26176299  0.94330014  1
  O2-  O348  1  0.93619611  0.59315556  0.78235455  1
  O2-  O349  1  0.06203932  0.93817699  0.71868710  1
  O2-  O350  1  0.93753743  0.25156913  0.67900164  1
  O2-  O351  1  0.06007194  0.58663236  0.03424961  1
  O2-  O352  1  0.43720217  0.08627453  0.97248222  1
  O2-  O353  1  0.93010935  0.06351903  0.53913088  1
  O2-  O354  1  0.93782387  0.59943027  0.52211165  1
  O2-  O355  1  0.06244955  0.59811172  0.27847904  1
  O2-  O356  1  0.56281493  0.41101817  0.77499705  1
  O2-  O357  1  0.43902480  0.07838168  0.78316019  1
  O2-  O358  1  0.06296918  0.40854047  0.27253044  1
  O2-  O359  1  0.93525337  0.73849609  0.97058441  1
  O2-  O360  1  0.93846810  0.26280455  0.52620591  1
  O2-  O361  1  0.06323300  0.25772510  0.97350937  1
  O2-  O362  1  0.05853393  0.42240230  0.95196418  1
  O2-  O363  1  0.06306865  0.92855867  0.21352151  1
  O2-  O364  1  0.07101852  0.72440325  0.57453710  1
  O2-  O365  1  0.42117637  0.95407970  0.04932347  1
  O2-  O366  1  0.43888921  0.92643398  0.67243909  1
  O2-  O367  1  0.93696212  0.74546058  0.22318054  1
  O2-  O368  1  0.93705470  0.26473113  0.28297035  1
  O2-  O369  1  0.94010531  0.59199910  0.96760318  1
  O2-  O370  1  0.93498228  0.39864955  0.64712202  1
  O2-  O371  1  0.43604327  0.92229927  0.27254887  1
  O2-  O372  1  0.25088880  0.66796557  0.09872711  1
  O2-  O373  1  0.74940076  0.65303390  0.94518788  1
  O2-  O374  1  0.24951279  0.00688178  0.90970349  1
  O2-  O375  1  0.74930356  0.33172650  0.39778518  1
  O2-  O376  1  0.75009396  0.00118131  0.84970658  1
  O2-  O377  1  0.74969409  -0.00054662  0.67401353  1
  O2-  O378  1  0.74849181  0.00411492  0.11097578  1
  O2-  O379  1  0.24931085  0.00348429  0.63397999  1
  O2-  O380  1  0.25048387  0.00376076  0.35623968  1
  O2-  O381  1  0.24991318  0.35915717  0.85392568  1
  O2-  O382  1  0.75013261  0.33184236  0.09846327  1
  O2-  O383  1  0.74859576  0.00912983  0.37939459  1
  O2-  O384  1  0.24984541  0.36353068  0.66480623  1
  O2-  O385  1  0.74918241  0.00100851  0.58290859  1
  O2-  O386  1  0.74898191  0.66337470  0.82172669  1
  O2-  O387  1  0.25040780  0.66817291  0.38114571  1
  O2-  O388  1  0.25033271  0.35173895  0.40921968  1
  O2-  O389  1  0.25055716  0.32881101  0.94311299  1
  O2-  O390  1  0.24980026  0.66814222  0.59843174  1
  O2-  O391  1  0.74932458  0.32812464  0.80930530  1
  O2-  O392  1  0.25046491  0.32408803  0.32415746  1
  O2-  O393  1  0.24984038  0.33341681  0.55198337  1
  O2-  O394  1  0.74945388  0.33342732  0.93688507  1
  O2-  O395  1  0.25033516  0.65939056  0.89480340  1
  O2-  O396  1  0.24968391  0.87242631  0.89424415  1
  O2-  O397  1  0.74982033  0.80642491  0.88986349  1
  O2-  O398  1  0.25001014  0.16569220  0.17234490  1
  O2-  O399  1  0.74982334  0.52475114  0.39220112  1
  O2-  O400  1  0.74956593  0.49961302  0.82968023  1
  O2-  O401  1  0.25018203  0.50455638  0.65654341  1
  O2-  O402  1  0.25034960  0.50118970  0.90824410  1
  O2-  O403  1  0.74996647  0.83456585  0.19381368  1
  O2-  O404  1  0.74954939  0.50017076  0.65656468  1
  O2-  O405  1  0.25003369  0.50889849  0.36537914  1
  O2-  O406  1  0.25014635  0.50778068  0.15636150  1
  O2-  O407  1  0.25012117  0.83697102  0.17207972  1
  O2-  O408  1  0.24952868  0.85319083  0.56884039  1
  O2-  O409  1  0.74999165  0.83335031  0.56085520  1
  O2-  O410  1  0.24983967  0.16453387  0.92914489  1
  O2-  O411  1  0.24924455  0.85887731  0.08680261  1
  O2-  O412  1  0.24977553  0.17610710  0.84987973  1
  O2-  O413  1  0.24962677  0.15897574  0.52861067  1
  O2-  O414  1  0.74961080  0.81231386  0.11078389  1
  O2-  O415  1  0.74995078  0.50322397  0.91963331  1
  O2-  O416  1  0.74960301  0.16435675  0.84055863  1
  O2-  O417  1  0.74986369  0.81831433  0.64369036  1
  O2-  O418  1  0.25029209  0.83346902  0.65347954  1
  O2-  O419  1  0.25001044  0.17969731  0.60920277  1
  O2-  O420  1  0.02933108  0.00451028  0.87191854  1
  O2-  O421  1  0.98017862  0.01162233  0.11442672  1
  O2-  O422  1  0.54919662  -0.00945816  0.86554025  1
  O2-  O423  1  0.53288319  0.65929409  0.11613541  1
  O2-  O424  1  0.97340206  0.65717063  0.12124938  1
  O2-  O425  1  0.04160204  0.01910318  0.35755004  1
  O2-  O426  1  0.97948286  -0.01758069  0.62284019  1
  O2-  O427  1  0.45368572  0.66748467  0.62739146  1
  O2-  O428  1  0.46926208  0.00176146  0.88775986  1
  O2-  O429  1  0.54225274  0.33624773  0.13374990  1
  O2-  O430  1  0.02425682  0.32283167  0.38205281  1
  O2-  O431  1  0.98234928  0.33228706  0.89256055  1
  O2-  O432  1  0.51918610  0.33473590  0.88513038  1
  O2-  O433  1  0.47673777  0.32520337  0.62226109  1
  O2-  O434  1  0.97138768  0.66884535  0.63287116  1
  O2-  O435  1  0.95132474  -0.00662967  0.37958870  1
  O2-  O436  1  0.48124511  -0.00907747  0.38043572  1
  O2-  O437  1  0.47526234  0.32986774  0.37000719  1
  O2-  O438  1  0.03573872  0.33019197  0.84393505  1
  O2-  O439  1  0.45157133  0.33364448  0.12945539  1
  O2-  O440  1  0.46881506  0.65678861  0.12566435  1
  O2-  O441  1  0.97092334  0.33551135  0.13113440  1
  O2-  O442  1  0.54768271  0.66895145  0.62334921  1
  O2-  O443  1  0.52821889  -0.00768358  0.61975114  1
