# generated using pymatgen
data_La7(Ru4O11)2
_symmetry_space_group_name_H-M   'P 1'
_cell_length_a   23.98997013
_cell_length_b   16.82938890
_cell_length_c   15.42636046
_cell_angle_alpha   89.99925487
_cell_angle_beta   90.00081885
_cell_angle_gamma   89.99946246
_symmetry_Int_Tables_number   1
_chemical_formula_structural   La7(Ru4O11)2
_chemical_formula_sum   'La84 Ru96 O264'
_cell_volume   6228.18534721
_cell_formula_units_Z   12
loop_
 _symmetry_equiv_pos_site_id
 _symmetry_equiv_pos_as_xyz
  1  'x, y, z'
loop_
 _atom_type_symbol
 _atom_type_oxidation_number
  La3+  3.0
  Ru4+  4.0
  O2-  -2.0
loop_
 _atom_site_type_symbol
 _atom_site_label
 _atom_site_symmetry_multiplicity
 _atom_site_fract_x
 _atom_site_fract_y
 _atom_site_fract_z
 _atom_site_occupancy
  La3+  La0  1  0.14343575  0.00246582  0.12207246  1
  La3+  La1  1  0.13658744  0.00181133  0.37708430  1
  La3+  La2  1  0.13857768  -0.00039914  0.62637305  1
  La3+  La3  1  0.14261657  0.00080987  0.87691880  1
  La3+  La4  1  0.14130872  0.33277348  0.12446900  1
  La3+  La5  1  0.13647758  0.33336506  0.37423192  1
  La3+  La6  1  0.13734913  0.33197989  0.62433754  1
  La3+  La7  1  0.13974517  0.33296059  0.87693366  1
  La3+  La8  1  0.13831307  0.66675422  0.12588769  1
  La3+  La9  1  0.13866395  0.66817691  0.37120249  1
  La3+  La10  1  0.14063752  0.66892579  0.62712667  1
  La3+  La11  1  0.14099022  0.66994628  0.87309457  1
  La3+  La12  1  0.63812784  -0.00001276  0.12070002  1
  La3+  La13  1  0.63613844  0.00261094  0.37889212  1
  La3+  La14  1  0.64083004  0.00410199  0.62287802  1
  La3+  La15  1  0.64081692  -0.00001841  0.87496191  1
  La3+  La16  1  0.64149298  0.33294160  0.12590473  1
  La3+  La17  1  0.64285274  0.33293993  0.37385548  1
  La3+  La18  1  0.63733730  0.33429506  0.62188951  1
  La3+  La19  1  0.63969047  0.33380647  0.87717905  1
  La3+  La20  1  0.64116448  0.66704057  0.12370268  1
  La3+  La21  1  0.64245691  0.66538364  0.37864457  1
  La3+  La22  1  0.63946942  0.66457620  0.62191083  1
  La3+  La23  1  0.64150862  0.66665700  0.87724133  1
  La3+  La24  1  0.35707866  0.00048132  0.12150090  1
  La3+  La25  1  0.36229774  -0.00002316  0.37410407  1
  La3+  La26  1  0.36099918  -0.00024874  0.62946674  1
  La3+  La27  1  0.35606299  0.00130499  0.87388551  1
  La3+  La28  1  0.35974314  0.33296780  0.12471395  1
  La3+  La29  1  0.36081922  0.33332258  0.37375042  1
  La3+  La30  1  0.36181300  0.33234034  0.62559855  1
  La3+  La31  1  0.36135698  0.33363749  0.87637576  1
  La3+  La32  1  0.35985541  0.66779347  0.12623226  1
  La3+  La33  1  0.35876275  0.66769022  0.37274432  1
  La3+  La34  1  0.35878140  0.66738047  0.62706714  1
  La3+  La35  1  0.36069425  0.66808217  0.87240371  1
  La3+  La36  1  0.85979933  0.00051992  0.12281080  1
  La3+  La37  1  0.86297178  0.00242680  0.37957684  1
  La3+  La38  1  0.86288299  0.00284004  0.62294187  1
  La3+  La39  1  0.85883246  -0.00038361  0.87273917  1
  La3+  La40  1  0.85951739  0.33341303  0.12716985  1
  La3+  La41  1  0.85786377  0.33462809  0.37395925  1
  La3+  La42  1  0.86249555  0.33528590  0.62247319  1
  La3+  La43  1  0.86081019  0.33433307  0.87674105  1
  La3+  La44  1  0.85787341  0.66570898  0.12267415  1
  La3+  La45  1  0.85771245  0.66735757  0.37839973  1
  La3+  La46  1  0.86170398  0.66655394  0.62336750  1
  La3+  La47  1  0.85924218  0.66520202  0.87693286  1
  La3+  La48  1  -0.00009277  0.16609053  0.86612114  1
  La3+  La49  1  0.50037289  0.49918201  0.14069702  1
  La3+  La50  1  -0.00215661  0.50163981  0.87104399  1
  La3+  La51  1  -0.00258540  0.49827870  0.63245642  1
  La3+  La52  1  0.00216361  0.82677933  0.11413070  1
  La3+  La53  1  -0.00114915  0.49547737  0.13514691  1
  La3+  La54  1  0.50067650  0.83371994  0.63833182  1
  La3+  La55  1  0.50055767  0.49850791  0.11809674  1
  La3+  La56  1  -0.00321407  0.16638647  0.38846942  1
  La3+  La57  1  0.00056408  0.16676617  0.12669674  1
  La3+  La58  1  0.00282213  0.50317563  0.61205429  1
  La3+  La59  1  0.50118733  0.16301268  0.11591981  1
  La3+  La60  1  0.49886348  0.83354691  0.61586395  1
  La3+  La61  1  -0.00079119  0.16411582  0.61913919  1
  La3+  La62  1  0.50122355  0.16526303  0.86728565  1
  La3+  La63  1  0.50030488  0.15872549  0.36388379  1
  La3+  La64  1  0.50231135  0.16908327  0.38293568  1
  La3+  La65  1  0.00182204  0.83425812  0.38752616  1
  La3+  La66  1  0.49477315  0.50108630  0.86646681  1
  La3+  La67  1  0.50353050  0.50146125  0.88425363  1
  La3+  La68  1  0.50114925  0.49986472  0.62985695  1
  La3+  La69  1  -0.00219341  0.83514572  0.13365624  1
  La3+  La70  1  0.00179327  0.16371295  0.36756892  1
  La3+  La71  1  0.49648215  0.82861856  0.37792125  1
  La3+  La72  1  0.74999893  0.50190831  -0.00642057  1
  La3+  La73  1  0.75032664  0.89443918  0.74516658  1
  La3+  La74  1  0.74978337  0.50144581  0.49203949  1
  La3+  La75  1  0.74966696  0.45426467  0.24697933  1
  La3+  La76  1  0.74986115  0.80230622  0.25923285  1
  La3+  La77  1  0.25018498  0.53834137  0.20986662  1
  La3+  La78  1  0.25004600  0.53534823  0.54591994  1
  La3+  La79  1  0.74934566  0.83085072  0.04996706  1
  La3+  La80  1  0.24999686  0.82766184  0.53983775  1
  La3+  La81  1  0.25038359  0.53951989  0.75633498  1
  La3+  La82  1  0.25005616  0.87357105  -0.00339629  1
  La3+  La83  1  0.75004097  0.12855776  0.71363821  1
  Ru4+  Ru84  1  -0.00027230  0.00330511  -0.00223561  1
  Ru4+  Ru85  1  -0.00035963  -0.00130993  0.25148718  1
  Ru4+  Ru86  1  -0.00030571  -0.01258937  0.50033531  1
  Ru4+  Ru87  1  -0.00200354  -0.00216531  0.74917170  1
  Ru4+  Ru88  1  -0.00191956  0.33264008  -0.00041973  1
  Ru4+  Ru89  1  -0.00037826  0.33575815  0.24860521  1
  Ru4+  Ru90  1  0.00378920  0.33109230  0.49888541  1
  Ru4+  Ru91  1  -0.00093896  0.32990162  0.74974883  1
  Ru4+  Ru92  1  -0.00418032  0.67046221  0.00179315  1
  Ru4+  Ru93  1  0.00050089  0.66056913  0.25082692  1
  Ru4+  Ru94  1  0.00332769  0.66685427  0.49716398  1
  Ru4+  Ru95  1  -0.00104530  0.67150323  0.74731854  1
  Ru4+  Ru96  1  0.50232645  -0.00797943  -0.00115803  1
  Ru4+  Ru97  1  0.50066164  -0.00627123  0.25245722  1
  Ru4+  Ru98  1  0.49548246  -0.00516898  0.50049247  1
  Ru4+  Ru99  1  0.49929283  0.00058035  0.75148773  1
  Ru4+  Ru100  1  0.50152017  0.32947268  0.00116871  1
  Ru4+  Ru101  1  0.49848333  0.33351872  0.24849410  1
  Ru4+  Ru102  1  0.50126656  0.33697839  0.50544017  1
  Ru4+  Ru103  1  0.49968970  0.33019709  0.74989550  1
  Ru4+  Ru104  1  0.49945067  0.67494582  -0.00248622  1
  Ru4+  Ru105  1  0.50342096  0.66326739  0.25414614  1
  Ru4+  Ru106  1  0.50036117  0.66529584  0.49783801  1
  Ru4+  Ru107  1  0.49801068  0.66919152  0.75083239  1
  Ru4+  Ru108  1  0.11382626  0.16333364  0.00022554  1
  Ru4+  Ru109  1  0.11387878  0.17020541  0.24935286  1
  Ru4+  Ru110  1  0.11621381  0.17016105  0.50154524  1
  Ru4+  Ru111  1  0.11112263  0.16652916  0.75007041  1
  Ru4+  Ru112  1  0.11584972  0.49514168  -0.00169475  1
  Ru4+  Ru113  1  0.11059236  0.50075005  0.24997997  1
  Ru4+  Ru114  1  0.11053656  0.50055312  0.49753212  1
  Ru4+  Ru115  1  0.11246047  0.50211526  0.75147017  1
  Ru4+  Ru116  1  0.11285280  0.83356788  -0.00131756  1
  Ru4+  Ru117  1  0.11718351  0.83313044  0.25251196  1
  Ru4+  Ru118  1  0.11104544  0.83389444  0.49782716  1
  Ru4+  Ru119  1  0.11565309  0.83526515  0.75063694  1
  Ru4+  Ru120  1  0.61351352  0.16792655  -0.00068757  1
  Ru4+  Ru121  1  0.61567737  0.16836187  0.24849301  1
  Ru4+  Ru122  1  0.61758204  0.17007213  0.50109214  1
  Ru4+  Ru123  1  0.61140587  0.16500548  0.75147013  1
  Ru4+  Ru124  1  0.61223101  0.50088805  0.00073682  1
  Ru4+  Ru125  1  0.61088262  0.50182333  0.25107354  1
  Ru4+  Ru126  1  0.61205419  0.50000496  0.50204040  1
  Ru4+  Ru127  1  0.61531725  0.50161829  0.74928475  1
  Ru4+  Ru128  1  0.60793696  0.83280069  -0.00043086  1
  Ru4+  Ru129  1  0.61138239  0.83562471  0.25092481  1
  Ru4+  Ru130  1  0.61447849  0.83071189  0.50042257  1
  Ru4+  Ru131  1  0.61112215  0.83331961  0.74964873  1
  Ru4+  Ru132  1  0.38447110  0.16567810  -0.00016432  1
  Ru4+  Ru133  1  0.38495737  0.16755692  0.24920332  1
  Ru4+  Ru134  1  0.38655934  0.16644915  0.50115063  1
  Ru4+  Ru135  1  0.38858303  0.16519461  0.74903264  1
  Ru4+  Ru136  1  0.38422796  0.49993409  0.00030710  1
  Ru4+  Ru137  1  0.38883796  0.50114595  0.24906181  1
  Ru4+  Ru138  1  0.38981592  0.50027765  0.50088609  1
  Ru4+  Ru139  1  0.38896894  0.50115787  0.74950978  1
  Ru4+  Ru140  1  0.39296581  0.83507752  -0.00063538  1
  Ru4+  Ru141  1  0.38535952  0.83418235  0.24862258  1
  Ru4+  Ru142  1  0.38937968  0.83304000  0.49886381  1
  Ru4+  Ru143  1  0.38400453  0.83359331  0.75074609  1
  Ru4+  Ru144  1  0.88835912  0.16582639  0.00033711  1
  Ru4+  Ru145  1  0.88547390  0.16778127  0.24927281  1
  Ru4+  Ru146  1  0.88295168  0.16821609  0.50053553  1
  Ru4+  Ru147  1  0.88916995  0.16527984  0.74957128  1
  Ru4+  Ru148  1  0.88755468  0.50130496  -0.00107046  1
  Ru4+  Ru149  1  0.88922283  0.49854151  0.24962239  1
  Ru4+  Ru150  1  0.88524859  0.50395253  0.49988525  1
  Ru4+  Ru151  1  0.88780045  0.50227788  0.75014881  1
  Ru4+  Ru152  1  0.88699059  0.83187857  -0.00105417  1
  Ru4+  Ru153  1  0.88731599  0.83132617  0.25050646  1
  Ru4+  Ru154  1  0.88704504  0.83087597  0.50049291  1
  Ru4+  Ru155  1  0.89222577  0.83489331  0.74761095  1
  Ru4+  Ru156  1  0.74977785  0.94598214  0.25114145  1
  Ru4+  Ru157  1  0.24973257  0.09073315  0.75271171  1
  Ru4+  Ru158  1  0.24979913  0.57212763  -0.00133725  1
  Ru4+  Ru159  1  0.25022406  0.39278111  0.25280462  1
  Ru4+  Ru160  1  0.74995477  0.27708617  0.75540969  1
  Ru4+  Ru161  1  0.74993817  0.91765677  0.49387533  1
  Ru4+  Ru162  1  0.75012583  0.24678455  0.49633770  1
  Ru4+  Ru163  1  0.25029784  0.91488839  0.24370698  1
  Ru4+  Ru164  1  0.25022390  0.39823138  0.75080708  1
  Ru4+  Ru165  1  0.74997323  0.73247056  0.74135015  1
  Ru4+  Ru166  1  0.25013315  0.95147458  0.46988481  1
  Ru4+  Ru167  1  0.25027910  0.39212638  0.49594392  1
  Ru4+  Ru168  1  0.24973702  0.07756352  0.24681491  1
  Ru4+  Ru169  1  0.25004974  0.25058976  0.00327732  1
  Ru4+  Ru170  1  0.75026284  0.42019139  0.74452548  1
  Ru4+  Ru171  1  0.25005245  0.24870430  0.49949168  1
  Ru4+  Ru172  1  0.24998899  0.73577384  0.00297545  1
  Ru4+  Ru173  1  0.75025050  0.25285342  0.00399064  1
  Ru4+  Ru174  1  0.24997979  0.09061019  0.49762611  1
  Ru4+  Ru175  1  0.24966134  0.24166836  0.74971870  1
  Ru4+  Ru176  1  0.74989484  0.09072168  0.25291739  1
  Ru4+  Ru177  1  0.25018787  0.69529750  0.48800805  1
  Ru4+  Ru178  1  0.74996265  0.07772148  0.00301143  1
  Ru4+  Ru179  1  0.74997259  0.60936808  0.25194933  1
  O2-  O180  1  0.16685014  0.08475630  -0.00043586  1
  O2-  O181  1  0.16968560  0.08065234  0.25060138  1
  O2-  O182  1  0.16660235  0.08172935  0.50043498  1
  O2-  O183  1  0.16664116  0.08074620  0.74889710  1
  O2-  O184  1  0.16505178  0.41334555  -0.00149204  1
  O2-  O185  1  0.16856333  0.41334712  0.25083188  1
  O2-  O186  1  0.16850766  0.41233603  0.50144551  1
  O2-  O187  1  0.16535615  0.41230162  0.74967193  1
  O2-  O188  1  0.16698627  0.74730103  0.00112829  1
  O2-  O189  1  0.16828117  0.74974374  0.24929548  1
  O2-  O190  1  0.16586968  0.74571291  0.50016145  1
  O2-  O191  1  0.16258737  0.75052399  0.74914086  1
  O2-  O192  1  0.66833220  0.08036882  -0.00115217  1
  O2-  O193  1  0.66764835  0.07984189  0.24970281  1
  O2-  O194  1  0.66613878  0.08267675  0.49839716  1
  O2-  O195  1  0.66588931  0.08025473  0.75004354  1
  O2-  O196  1  0.66859220  0.41385291  -0.00069467  1
  O2-  O197  1  0.66119645  0.41226195  0.24931843  1
  O2-  O198  1  0.66752690  0.41345380  0.49938151  1
  O2-  O199  1  0.66871396  0.41449173  0.74926119  1
  O2-  O200  1  0.66569536  0.74933005  0.00030876  1
  O2-  O201  1  0.66742755  0.74718431  0.24802316  1
  O2-  O202  1  0.66459697  0.74885706  0.50242400  1
  O2-  O203  1  0.66600045  0.74729233  0.74932483  1
  O2-  O204  1  0.33205264  0.25155690  -0.00090890  1
  O2-  O205  1  0.33113132  0.25155018  0.24963040  1
  O2-  O206  1  0.33318941  0.25303595  0.50064723  1
  O2-  O207  1  0.33372543  0.25284807  0.74933838  1
  O2-  O208  1  0.33214002  0.58624467  0.00024272  1
  O2-  O209  1  0.33602733  0.58676536  0.25006833  1
  O2-  O210  1  0.33390700  0.58727436  0.49905797  1
  O2-  O211  1  0.33651875  0.58632999  0.74956203  1
  O2-  O212  1  0.33369982  0.91813428  0.00068903  1
  O2-  O213  1  0.33258161  0.91831763  0.25238441  1
  O2-  O214  1  0.33432643  0.92189125  0.49947892  1
  O2-  O215  1  0.33424880  0.91694441  0.74926816  1
  O2-  O216  1  0.83367651  0.25288923  -0.00051935  1
  O2-  O217  1  0.83528698  0.25085099  0.24979243  1
  O2-  O218  1  0.83221616  0.25363668  0.49908894  1
  O2-  O219  1  0.83322233  0.25422935  0.75009560  1
  O2-  O220  1  0.83283380  0.58404128  -0.00038042  1
  O2-  O221  1  0.83300780  0.58732802  0.25079265  1
  O2-  O222  1  0.83418837  0.58713742  0.50153516  1
  O2-  O223  1  0.83406987  0.58609152  0.74940720  1
  O2-  O224  1  0.83241658  0.91998343  0.00082831  1
  O2-  O225  1  0.83331042  0.92082583  0.25035571  1
  O2-  O226  1  0.83414481  0.91936455  0.49884345  1
  O2-  O227  1  0.83744993  0.92061722  0.75045253  1
  O2-  O228  1  0.16764224  0.25223327  -0.00190851  1
  O2-  O229  1  0.16659047  0.25192086  0.25029520  1
  O2-  O230  1  0.16703311  0.25360811  0.50042873  1
  O2-  O231  1  0.16698591  0.25353886  0.74982838  1
  O2-  O232  1  0.16770091  0.58619948  0.00019431  1
  O2-  O233  1  0.16438226  0.58656721  0.24995029  1
  O2-  O234  1  0.16758833  0.58659362  0.50066833  1
  O2-  O235  1  0.16568720  0.58585888  0.74912741  1
  O2-  O236  1  0.16470104  0.91995426  -0.00058526  1
  O2-  O237  1  0.16813578  0.92008602  0.25142125  1
  O2-  O238  1  0.16739612  0.92170175  0.50062997  1
  O2-  O239  1  0.16669622  0.91729861  0.74800120  1
  O2-  O240  1  0.66622676  0.25209454  -0.00083049  1
  O2-  O241  1  0.66506501  0.25040894  0.24969689  1
  O2-  O242  1  0.66897513  0.25301152  0.50057895  1
  O2-  O243  1  0.66684769  0.25413646  0.74893857  1
  O2-  O244  1  0.66559178  0.58558217  -0.00135577  1
  O2-  O245  1  0.66898129  0.58667032  0.24890991  1
  O2-  O246  1  0.66658597  0.58511503  0.50151031  1
  O2-  O247  1  0.66638660  0.58557211  0.74961926  1
  O2-  O248  1  0.66843633  0.91727410  0.00034910  1
  O2-  O249  1  0.66723774  0.91959144  0.24943480  1
  O2-  O250  1  0.66791717  0.91985935  0.49817093  1
  O2-  O251  1  0.66309828  0.92138970  0.75090352  1
  O2-  O252  1  0.33256557  0.08410721  0.00002112  1
  O2-  O253  1  0.33145119  0.08216206  0.25178609  1
  O2-  O254  1  0.33374937  0.08115104  0.49920617  1
  O2-  O255  1  0.33232271  0.08319296  0.74820831  1
  O2-  O256  1  0.33495880  0.41354606  -0.00030114  1
  O2-  O257  1  0.33058772  0.41216884  0.25020229  1
  O2-  O258  1  0.33278164  0.41206246  0.50150326  1
  O2-  O259  1  0.33251338  0.41188891  0.74874544  1
  O2-  O260  1  0.33486731  0.74686779  0.00020416  1
  O2-  O261  1  0.33391145  0.74961907  0.25007058  1
  O2-  O262  1  0.33197188  0.74447371  0.50015790  1
  O2-  O263  1  0.33455446  0.74933383  0.75144480  1
  O2-  O264  1  0.83369172  0.08073478  -0.00050497  1
  O2-  O265  1  0.83271224  0.07985423  0.24960321  1
  O2-  O266  1  0.83374386  0.08174575  0.49735218  1
  O2-  O267  1  0.83436338  0.07992134  0.75007406  1
  O2-  O268  1  0.83372286  0.41429699  0.00025472  1
  O2-  O269  1  0.83687157  0.41266643  0.25084987  1
  O2-  O270  1  0.83296803  0.41206863  0.50025360  1
  O2-  O271  1  0.83131511  0.41337812  0.74985530  1
  O2-  O272  1  0.83401228  0.74902615  0.00027347  1
  O2-  O273  1  0.83307256  0.74637917  0.24997320  1
  O2-  O274  1  0.83463910  0.74789541  0.50170742  1
  O2-  O275  1  0.83404860  0.74691300  0.74887479  1
  O2-  O276  1  0.45355415  0.43179078  0.99008737  1
  O2-  O277  1  0.04299074  0.89417368  0.97194022  1
  O2-  O278  1  0.45018773  0.23326333  0.01001676  1
  O2-  O279  1  0.95096727  0.23210407  0.01152544  1
  O2-  O280  1  0.44829483  0.75877668  0.98842857  1
  O2-  O281  1  0.95093295  0.42953691  0.51785413  1
  O2-  O282  1  0.54994050  0.23915698  0.26422058  1
  O2-  O283  1  0.45190763  0.24222479  0.49032136  1
  O2-  O284  1  0.45900777  0.22082796  0.21586687  1
  O2-  O285  1  0.45186496  0.09197744  0.48827853  1
  O2-  O286  1  0.54468072  0.43075184  0.26466119  1
  O2-  O287  1  0.04704479  0.23492583  0.98375760  1
  O2-  O288  1  0.95395040  0.90071853  0.26531341  1
  O2-  O289  1  0.46353305  0.78238615  0.78458441  1
  O2-  O290  1  0.95135390  0.09711340  0.51472281  1
  O2-  O291  1  0.53776653  0.88672252  0.78768294  1
  O2-  O292  1  0.54988549  0.76403231  0.98465303  1
  O2-  O293  1  0.95328292  0.76336352  0.49203126  1
  O2-  O294  1  0.53918630  0.77814459  0.24887971  1
  O2-  O295  1  0.54626730  0.43065846  0.75973733  1
  O2-  O296  1  0.04939462  0.09759191  0.48493396  1
  O2-  O297  1  0.45206053  0.76686957  0.27821129  1
  O2-  O298  1  0.95417639  0.76194409  0.73583522  1
  O2-  O299  1  0.95558142  0.43342508  0.98624223  1
  O2-  O300  1  0.04992468  0.75616767  0.97986565  1
  O2-  O301  1  0.04976960  0.57131919  0.23735476  1
  O2-  O302  1  0.45403103  0.23398995  0.76095272  1
  O2-  O303  1  0.95597946  0.43362674  0.47957267  1
  O2-  O304  1  0.03774446  0.44174856  0.28329766  1
  O2-  O305  1  0.47605923  0.87786731  0.98096352  1
  O2-  O306  1  0.44961608  0.90458992  0.26686447  1
  O2-  O307  1  0.55160017  0.90550016  0.26399653  1
  O2-  O308  1  0.04623126  0.23561368  0.51351382  1
  O2-  O309  1  0.55121901  0.09869546  0.48690010  1
  O2-  O310  1  0.95107474  0.90372892  0.01450773  1
  O2-  O311  1  0.95479921  0.76553878  0.50882508  1
  O2-  O312  1  0.04597269  0.09695868  0.23667841  1
  O2-  O313  1  0.94992289  0.56937837  0.23596479  1
  O2-  O314  1  0.03587191  0.88487231  0.75753584  1
  O2-  O315  1  0.54848140  0.23525728  0.01126137  1
  O2-  O316  1  0.03936970  0.77541176  0.26975097  1
  O2-  O317  1  0.54585986  0.57286921  0.75961459  1
  O2-  O318  1  0.53852857  0.88942078  0.47253501  1
  O2-  O319  1  0.05379907  0.57783596  0.03094013  1
  O2-  O320  1  0.04571500  0.43175757  0.76529688  1
  O2-  O321  1  0.95535257  0.23439401  0.23948522  1
  O2-  O322  1  0.55898856  0.08610593  0.01917959  1
  O2-  O323  1  0.04565229  0.76790670  0.24411652  1
  O2-  O324  1  0.05371076  0.57746016  0.03103068  1
  O2-  O325  1  0.93614150  0.73541933  0.21830896  1
  O2-  O326  1  0.06456679  0.93230976  0.18788530  1
  O2-  O327  1  0.43355610  0.40700745  0.77532719  1
  O2-  O328  1  0.93357417  0.40514139  0.22257718  1
  O2-  O329  1  0.56385862  0.59055384  0.27577930  1
  O2-  O330  1  0.93803816  0.07053008  0.53078071  1
  O2-  O331  1  0.43204165  0.72569943  0.20307552  1
  O2-  O332  1  0.07443096  0.73064650  0.18943832  1
  O2-  O333  1  0.07464521  0.94167657  0.78162088  1
  O2-  O334  1  0.06222772  0.59931725  0.81286234  1
  O2-  O335  1  0.06860788  0.59515884  0.94402405  1
  O2-  O336  1  0.05952020  0.74428839  0.97265614  1
  O2-  O337  1  0.06290555  0.92718198  0.46797595  1
  O2-  O338  1  0.06421303  0.93059042  0.31118949  1
  O2-  O339  1  0.55252524  0.08342467  0.01902928  1
  O2-  O340  1  0.06245856  0.07295349  0.03422410  1
  O2-  O341  1  0.42105532  0.94056430  0.93771447  1
  O2-  O342  1  0.06693523  0.40740357  0.47278218  1
  O2-  O343  1  0.06235390  0.07272926  0.46502406  1
  O2-  O344  1  0.43764298  0.07121782  0.71831793  1
  O2-  O345  1  0.57140420  0.94499294  0.55598832  1
  O2-  O346  1  0.06694809  0.59051176  0.69264945  1
  O2-  O347  1  0.43672481  0.92690339  0.71313180  1
  O2-  O348  1  0.06816320  0.93488182  0.04626510  1
  O2-  O349  1  0.93466624  0.92867519  0.71621348  1
  O2-  O350  1  0.43585892  0.73568848  0.46812927  1
  O2-  O351  1  0.43532393  0.07810160  0.95179368  1
  O2-  O352  1  0.56707346  0.92774337  0.02660608  1
  O2-  O353  1  0.42921694  0.27687366  0.30931269  1
  O2-  O354  1  0.06582065  0.74080028  0.29823081  1
  O2-  O355  1  0.56480864  0.40836627  0.02744223  1
  O2-  O356  1  0.93898198  0.07212266  0.71875355  1
  O2-  O357  1  0.56354483  0.41013594  0.52783760  1
  O2-  O358  1  0.42691861  0.72831175  0.70277402  1
  O2-  O359  1  0.93625158  0.59726295  0.96612784  1
  O2-  O360  1  0.56317091  0.59579152  0.53500086  1
  O2-  O361  1  0.43502195  0.59415504  0.97479549  1
  O2-  O362  1  0.57732326  0.72598682  0.28518275  1
  O2-  O363  1  0.07097452  0.39094668  0.19895349  1
  O2-  O364  1  0.56466110  0.07265497  0.46963303  1
  O2-  O365  1  0.43286123  0.07625076  0.04768760  1
  O2-  O366  1  0.56547619  0.26305618  0.46610060  1
  O2-  O367  1  0.56367841  0.07184743  0.78407295  1
  O2-  O368  1  0.43497642  0.41005347  0.22178972  1
  O2-  O369  1  0.56898998  0.94258191  0.69633139  1
  O2-  O370  1  0.06489305  0.59255560  0.47564468  1
  O2-  O371  1  0.42575890  0.92845424  0.06648456  1
  O2-  O372  1  0.75017071  0.33283326  0.35380516  1
  O2-  O373  1  0.75075742  0.66331027  0.39465639  1
  O2-  O374  1  0.75002811  0.66715061  0.92236798  1
  O2-  O375  1  0.74979984  0.33938288  0.07971975  1
  O2-  O376  1  0.74985962  0.65733731  0.83200053  1
  O2-  O377  1  0.24979187  0.32777770  0.85107871  1
  O2-  O378  1  0.25007320  0.66162967  0.64569246  1
  O2-  O379  1  0.75009685  -0.00386878  0.59448984  1
  O2-  O380  1  0.25009044  0.65952166  0.91423826  1
  O2-  O381  1  0.25002101  0.32807351  0.64709614  1
  O2-  O382  1  0.74991262  0.00213415  0.84860809  1
  O2-  O383  1  0.24989944  0.32812593  0.09166972  1
  O2-  O384  1  0.24997106  0.66463594  0.82321097  1
  O2-  O385  1  0.74993591  0.33167826  0.16989383  1
  O2-  O386  1  0.24984566  0.00758212  0.57965549  1
  O2-  O387  1  0.24992173  -0.00163156  0.10476264  1
  O2-  O388  1  0.24958629  0.00044451  0.91954806  1
  O2-  O389  1  0.25021696  0.66075461  0.10163458  1
  O2-  O390  1  0.75002594  0.33320221  0.90398314  1
  O2-  O391  1  0.24936670  -0.00264497  0.82810410  1
  O2-  O392  1  0.75016404  0.66977250  0.10327799  1
  O2-  O393  1  0.75039672  -0.00242094  0.09620184  1
  O2-  O394  1  0.25019313  0.66581310  0.35408553  1
  O2-  O395  1  0.24961805  -0.00185370  0.68376147  1
  O2-  O396  1  0.24998925  0.83399401  0.66149495  1
  O2-  O397  1  0.75008100  0.16568217  0.09067393  1
  O2-  O398  1  0.24998054  0.50207371  0.90739724  1
  O2-  O399  1  0.75003828  0.49493430  0.62629098  1
  O2-  O400  1  0.25007922  0.16830991  0.59398167  1
  O2-  O401  1  0.74981900  0.81515193  0.63998470  1
  O2-  O402  1  0.74972603  0.82563268  0.55211709  1
  O2-  O403  1  0.25008719  0.84189272  0.38755088  1
  O2-  O404  1  0.75010780  0.17374429  0.58214409  1
  O2-  O405  1  0.75004052  0.15998420  0.33756556  1
  O2-  O406  1  0.75008515  0.17517993  0.84300152  1
  O2-  O407  1  0.75021113  0.83895236  0.92522157  1
  O2-  O408  1  0.75004886  0.16533608  0.93028389  1
  O2-  O409  1  0.75005989  0.84010442  0.40671990  1
  O2-  O410  1  0.75004475  0.50947529  0.12480831  1
  O2-  O411  1  0.25013617  0.83776343  0.16333552  1
  O2-  O412  1  0.24977805  0.49027894  0.33332077  1
  O2-  O413  1  0.24999405  0.49790964  0.08272568  1
  O2-  O414  1  0.25003473  0.16858717  0.84435223  1
  O2-  O415  1  0.74993504  0.51222597  0.36298122  1
  O2-  O416  1  0.25008542  0.16803640  0.40579672  1
  O2-  O417  1  0.74992998  0.81106128  0.84193949  1
  O2-  O418  1  0.24994232  0.49180727  0.42034704  1
  O2-  O419  1  0.24995428  0.83182516  0.85010043  1
  O2-  O420  1  0.47581603  0.66460948  0.86946105  1
  O2-  O421  1  0.02542254  0.32396579  0.37203605  1
  O2-  O422  1  0.47611730  0.66111075  0.61858438  1
  O2-  O423  1  0.47231109  0.00391095  0.13922253  1
  O2-  O424  1  0.97630332  0.33146138  0.12012804  1
  O2-  O425  1  0.03393918  0.00990340  0.88048150  1
  O2-  O426  1  0.97321528  0.33165268  0.87199001  1
  O2-  O427  1  0.97016065  0.00260199  0.37611496  1
  O2-  O428  1  0.96179068  0.00097367  0.87487916  1
  O2-  O429  1  0.47902719  0.00292946  0.86215673  1
  O2-  O430  1  0.46114530  0.32924755  0.88167794  1
  O2-  O431  1  0.52484391  0.32816432  0.63149239  1
  O2-  O432  1  0.54245310  0.33170349  0.87603988  1
  O2-  O433  1  0.02008856  0.66657346  0.37749822  1
  O2-  O434  1  0.02355747  0.67184423  0.61738339  1
  O2-  O435  1  0.52170742  0.66684173  0.38392063  1
  O2-  O436  1  0.95720785  0.33023053  0.62647896  1
  O2-  O437  1  0.46149629  0.33401843  0.11647678  1
  O2-  O438  1  0.01909858  0.66954370  0.12386205  1
  O2-  O439  1  0.53884724  0.33166578  0.13161355  1
  O2-  O440  1  0.52484401  0.00014649  0.36993118  1
  O2-  O441  1  0.52689545  0.66348755  0.12499000  1
  O2-  O442  1  0.52989162  0.00112491  0.13167007  1
  O2-  O443  1  0.04227492  0.33538627  0.62817713  1
