# generated using pymatgen
data_La7(Ru4O11)2
_symmetry_space_group_name_H-M   'P 1'
_cell_length_a   23.99755834
_cell_length_b   16.83788136
_cell_length_c   15.43585286
_cell_angle_alpha   89.99235099
_cell_angle_beta   89.99555461
_cell_angle_gamma   90.00003659
_symmetry_Int_Tables_number   1
_chemical_formula_structural   La7(Ru4O11)2
_chemical_formula_sum   'La84 Ru96 O264'
_cell_volume   6237.13473818
_cell_formula_units_Z   12
loop_
 _symmetry_equiv_pos_site_id
 _symmetry_equiv_pos_as_xyz
  1  'x, y, z'
loop_
 _atom_type_symbol
 _atom_type_oxidation_number
  La3+  3.0
  Ru4+  4.0
  O2-  -2.0
loop_
 _atom_site_type_symbol
 _atom_site_label
 _atom_site_symmetry_multiplicity
 _atom_site_fract_x
 _atom_site_fract_y
 _atom_site_fract_z
 _atom_site_occupancy
  La3+  La0  1  0.14988201  -0.00046382  0.13467091  1
  La3+  La1  1  0.15937796  -0.00787681  0.37800060  1
  La3+  La2  1  0.15298956  0.00224731  0.62411839  1
  La3+  La3  1  0.13941675  0.00582093  0.87249423  1
  La3+  La4  1  0.14665807  0.32867570  0.12754001  1
  La3+  La5  1  0.14595597  0.32925514  0.37460180  1
  La3+  La6  1  0.14625158  0.32880656  0.62438044  1
  La3+  La7  1  0.13939397  0.32642844  0.87440654  1
  La3+  La8  1  0.13648217  0.67171045  0.12887955  1
  La3+  La9  1  0.15653572  0.66728528  0.37332209  1
  La3+  La10  1  0.15091127  0.66498967  0.61935794  1
  La3+  La11  1  0.13075622  0.66877836  0.87658536  1
  La3+  La12  1  0.63814797  0.00452559  0.13297120  1
  La3+  La13  1  0.64485476  -0.00401024  0.37785376  1
  La3+  La14  1  0.63666672  -0.00369495  0.61758456  1
  La3+  La15  1  0.64328078  -0.00306299  0.87144981  1
  La3+  La16  1  0.63354633  0.33076975  0.12948136  1
  La3+  La17  1  0.65523764  0.33785654  0.37179351  1
  La3+  La18  1  0.63778288  0.34267807  0.62496625  1
  La3+  La19  1  0.63470883  0.33693449  0.87747297  1
  La3+  La20  1  0.64214156  0.67607228  0.12252418  1
  La3+  La21  1  0.63209043  0.67353590  0.37699380  1
  La3+  La22  1  0.65111416  0.66384698  0.62751349  1
  La3+  La23  1  0.63271813  0.66804989  0.87146175  1
  La3+  La24  1  0.34093383  0.01492350  0.12666347  1
  La3+  La25  1  0.34379868  0.00042436  0.37329519  1
  La3+  La26  1  0.35328826  0.00172241  0.62212924  1
  La3+  La27  1  0.36067243  0.00704430  0.87134528  1
  La3+  La28  1  0.35670646  0.32511543  0.12349529  1
  La3+  La29  1  0.35539035  0.32915866  0.37903076  1
  La3+  La30  1  0.35824796  0.33107788  0.62533515  1
  La3+  La31  1  0.35294179  0.32368521  0.87022919  1
  La3+  La32  1  0.36450908  0.67419408  0.12866835  1
  La3+  La33  1  0.36184824  0.67204502  0.37553223  1
  La3+  La34  1  0.36078985  0.67571197  0.61968617  1
  La3+  La35  1  0.35575154  0.66962736  0.87922713  1
  La3+  La36  1  0.86374340  -0.00159235  0.13298795  1
  La3+  La37  1  0.84638742  -0.00160371  0.37799948  1
  La3+  La38  1  0.85560973  -0.00437527  0.62090431  1
  La3+  La39  1  0.85100300  -0.00529593  0.87183395  1
  La3+  La40  1  0.86491339  0.33333352  0.12909000  1
  La3+  La41  1  0.85797344  0.33129376  0.37428265  1
  La3+  La42  1  0.86261705  0.33368693  0.62123858  1
  La3+  La43  1  0.85359735  0.33186296  0.87490097  1
  La3+  La44  1  0.87343543  0.67337261  0.11856901  1
  La3+  La45  1  0.86260225  0.67196630  0.37257242  1
  La3+  La46  1  0.85667476  0.67570902  0.63051819  1
  La3+  La47  1  0.86949692  0.67278988  0.87211190  1
  La3+  La48  1  0.00092890  0.50323432  0.36265824  1
  La3+  La49  1  0.50781018  0.49049803  0.41148233  1
  La3+  La50  1  -0.01442636  0.17111348  0.11935808  1
  La3+  La51  1  -0.00564321  0.51453099  0.61556702  1
  La3+  La52  1  -0.00006836  0.16545358  0.36398693  1
  La3+  La53  1  0.48553712  0.83803096  0.38030561  1
  La3+  La54  1  0.00492762  0.16747211  0.60711107  1
  La3+  La55  1  -0.00365017  0.49725300  0.88943944  1
  La3+  La56  1  0.49591204  0.82793691  0.85351408  1
  La3+  La57  1  -0.00216551  0.15867028  0.87493823  1
  La3+  La58  1  0.49085619  0.15208752  0.12294629  1
  La3+  La59  1  0.49686443  0.82930204  0.11686650  1
  La3+  La60  1  -0.00701051  0.83439986  0.89079877  1
  La3+  La61  1  0.00687084  0.17139788  0.88489341  1
  La3+  La62  1  0.49817911  0.82244821  0.87487987  1
  La3+  La63  1  0.49799103  0.15393187  0.10357331  1
  La3+  La64  1  0.50200526  0.50952204  0.13590338  1
  La3+  La65  1  -0.01011616  0.82751226  0.87729396  1
  La3+  La66  1  0.00205171  0.17547161  0.62711115  1
  La3+  La67  1  -0.00405302  0.50339350  0.63439484  1
  La3+  La68  1  0.50833452  0.16877702  0.86703756  1
  La3+  La69  1  0.51094809  0.16844639  0.63947534  1
  La3+  La70  1  0.00066861  0.82327818  0.12103495  1
  La3+  La71  1  -0.00185493  0.82494405  0.62715668  1
  La3+  La72  1  0.74669860  0.24206495  0.74300536  1
  La3+  La73  1  0.25077008  0.80631568  -0.02625036  1
  La3+  La74  1  0.74749675  0.52123562  0.44920985  1
  La3+  La75  1  0.25577534  0.48749408  0.80915041  1
  La3+  La76  1  0.25553699  0.55444066  0.47235075  1
  La3+  La77  1  0.25135264  0.17093355  0.23394071  1
  La3+  La78  1  0.75107698  0.80271949  -0.02748008  1
  La3+  La79  1  0.75020005  0.57279160  0.23250784  1
  La3+  La80  1  0.74993105  0.53121482  0.02800102  1
  La3+  La81  1  0.25197106  0.51806366  0.00910682  1
  La3+  La82  1  0.75031586  0.50160950  0.77295085  1
  La3+  La83  1  0.74975834  0.84281220  0.50887026  1
  Ru4+  Ru84  1  0.00582643  -0.00669282  0.00516142  1
  Ru4+  Ru85  1  0.01888050  0.00237688  0.25089156  1
  Ru4+  Ru86  1  -0.00762097  0.00238503  0.49078763  1
  Ru4+  Ru87  1  0.00147935  -0.00423348  0.74635339  1
  Ru4+  Ru88  1  -0.00875680  0.35303342  0.01209190  1
  Ru4+  Ru89  1  -0.00085079  0.33320554  0.25244975  1
  Ru4+  Ru90  1  0.00057452  0.33594646  0.50564187  1
  Ru4+  Ru91  1  0.00301736  0.33451253  0.74449212  1
  Ru4+  Ru92  1  -0.00036721  0.65515912  0.00558034  1
  Ru4+  Ru93  1  0.00256390  0.66250078  0.24238747  1
  Ru4+  Ru94  1  0.01608633  0.69267538  0.47636243  1
  Ru4+  Ru95  1  0.00165196  0.66500545  0.76911536  1
  Ru4+  Ru96  1  0.49844316  0.00183473  -0.00416696  1
  Ru4+  Ru97  1  0.50521997  -0.00479660  0.28279233  1
  Ru4+  Ru98  1  0.49424731  0.00758788  0.49705983  1
  Ru4+  Ru99  1  0.50317835  -0.00010511  0.74623125  1
  Ru4+  Ru100  1  0.49836614  0.34728628  -0.00627338  1
  Ru4+  Ru101  1  0.51130346  0.32145366  0.24869822  1
  Ru4+  Ru102  1  0.50581461  0.31210218  0.49582179  1
  Ru4+  Ru103  1  0.48801034  0.31856194  0.75776270  1
  Ru4+  Ru104  1  0.50400516  0.65445178  -0.01012248  1
  Ru4+  Ru105  1  0.49762419  0.66424364  0.23384563  1
  Ru4+  Ru106  1  0.50279686  0.66885861  0.50220563  1
  Ru4+  Ru107  1  0.49403653  0.63388826  0.74578696  1
  Ru4+  Ru108  1  0.12209573  0.16541112  0.00281418  1
  Ru4+  Ru109  1  0.11020131  0.15347235  0.26109171  1
  Ru4+  Ru110  1  0.11207528  0.16272707  0.49639498  1
  Ru4+  Ru111  1  0.11675730  0.17083701  0.75030022  1
  Ru4+  Ru112  1  0.10894364  0.49735527  0.00192459  1
  Ru4+  Ru113  1  0.10842966  0.49806702  0.24444793  1
  Ru4+  Ru114  1  0.11338148  0.50130889  0.49410344  1
  Ru4+  Ru115  1  0.11461446  0.49978186  0.75720151  1
  Ru4+  Ru116  1  0.10813245  0.83497653  -0.00010360  1
  Ru4+  Ru117  1  0.10105205  0.84420024  0.25162577  1
  Ru4+  Ru118  1  0.10418228  0.81461754  0.48826312  1
  Ru4+  Ru119  1  0.11364701  0.83018036  0.75601957  1
  Ru4+  Ru120  1  0.61365922  0.16774608  -0.00485900  1
  Ru4+  Ru121  1  0.61156001  0.17488389  0.26164038  1
  Ru4+  Ru122  1  0.59999984  0.18529091  0.49563694  1
  Ru4+  Ru123  1  0.60703039  0.16180095  0.75529421  1
  Ru4+  Ru124  1  0.60886934  0.49677082  -0.00274981  1
  Ru4+  Ru125  1  0.60757372  0.50354109  0.24205013  1
  Ru4+  Ru126  1  0.60839797  0.50164164  0.50179698  1
  Ru4+  Ru127  1  0.60916025  0.50078088  0.74965237  1
  Ru4+  Ru128  1  0.61311527  0.83252183  0.00404549  1
  Ru4+  Ru129  1  0.61645416  0.84640115  0.24708909  1
  Ru4+  Ru130  1  0.60579209  0.82401891  0.51653762  1
  Ru4+  Ru131  1  0.61473467  0.82996878  0.74181534  1
  Ru4+  Ru132  1  0.38266755  0.16980729  -0.00195887  1
  Ru4+  Ru133  1  0.39038451  0.17277745  0.25143933  1
  Ru4+  Ru134  1  0.39281534  0.14953364  0.49565286  1
  Ru4+  Ru135  1  0.38903683  0.17505355  0.74915734  1
  Ru4+  Ru136  1  0.40184564  0.48694971  -0.01038734  1
  Ru4+  Ru137  1  0.38771566  0.50588510  0.24477434  1
  Ru4+  Ru138  1  0.39237198  0.49610887  0.49898064  1
  Ru4+  Ru139  1  0.40305451  0.51570646  0.75221517  1
  Ru4+  Ru140  1  0.38906904  0.83886939  0.00588696  1
  Ru4+  Ru141  1  0.38730080  0.84170739  0.24187816  1
  Ru4+  Ru142  1  0.39008001  0.83928092  0.50673734  1
  Ru4+  Ru143  1  0.38770620  0.83523234  0.74239468  1
  Ru4+  Ru144  1  0.88516294  0.16524115  0.00166134  1
  Ru4+  Ru145  1  0.88629785  0.16943591  0.25050123  1
  Ru4+  Ru146  1  0.88741726  0.15434952  0.49468351  1
  Ru4+  Ru147  1  0.88628943  0.16286535  0.75162123  1
  Ru4+  Ru148  1  0.89368590  0.48976675  -0.00282976  1
  Ru4+  Ru149  1  0.89185977  0.49978330  0.25080737  1
  Ru4+  Ru150  1  0.88823134  0.50588178  0.49376598  1
  Ru4+  Ru151  1  0.88508483  0.49583299  0.75136054  1
  Ru4+  Ru152  1  0.88174852  0.84211170  -0.00206685  1
  Ru4+  Ru153  1  0.88672385  0.83493291  0.25048842  1
  Ru4+  Ru154  1  0.89270967  0.83258105  0.49437736  1
  Ru4+  Ru155  1  0.87943638  0.83130256  0.75207472  1
  Ru4+  Ru156  1  0.75030091  0.38050679  -0.00466200  1
  Ru4+  Ru157  1  0.74884861  0.24413614  0.03438054  1
  Ru4+  Ru158  1  0.24810197  0.90153922  0.49869499  1
  Ru4+  Ru159  1  0.74713437  0.93854847  0.01904106  1
  Ru4+  Ru160  1  0.25008814  0.39207667  0.51659429  1
  Ru4+  Ru161  1  0.75000725  0.07900109  0.02794835  1
  Ru4+  Ru162  1  0.75088875  0.76492058  0.24863555  1
  Ru4+  Ru163  1  0.24652609  0.65820183  0.01169212  1
  Ru4+  Ru164  1  0.75017076  0.66526807  0.48781658  1
  Ru4+  Ru165  1  0.24932916  0.76624650  0.22821189  1
  Ru4+  Ru166  1  0.24695622  0.94508342  -0.00737839  1
  Ru4+  Ru167  1  0.75077939  0.23312380  0.48472075  1
  Ru4+  Ru168  1  0.25040624  0.42249896  0.24780894  1
  Ru4+  Ru169  1  0.74958385  0.09304408  0.24860749  1
  Ru4+  Ru170  1  0.24900993  0.62122400  0.72014296  1
  Ru4+  Ru171  1  0.24920245  0.57304287  0.23919016  1
  Ru4+  Ru172  1  0.75183335  0.66065057  -0.02028131  1
  Ru4+  Ru173  1  0.75134668  0.37234078  0.52172534  1
  Ru4+  Ru174  1  0.74810299  0.06343797  0.74842734  1
  Ru4+  Ru175  1  0.25000324  0.90493648  0.73530231  1
  Ru4+  Ru176  1  0.25239798  0.76669701  0.75223429  1
  Ru4+  Ru177  1  0.24983401  0.36987564  -0.01227813  1
  Ru4+  Ru178  1  0.75061821  0.38718316  0.23781621  1
  Ru4+  Ru179  1  0.24936017  0.34816807  0.74744185  1
  O2-  O180  1  0.16261786  0.07527328  -0.00381973  1
  O2-  O181  1  0.17384066  0.08594714  0.24829581  1
  O2-  O182  1  0.16684055  0.08630666  0.50758472  1
  O2-  O183  1  0.16614532  0.07923510  0.75345221  1
  O2-  O184  1  0.16873124  0.41311875  -0.00149332  1
  O2-  O185  1  0.16461226  0.41628338  0.24943069  1
  O2-  O186  1  0.16560549  0.41355320  0.49877959  1
  O2-  O187  1  0.17014866  0.41331116  0.75508611  1
  O2-  O188  1  0.16795833  0.74159975  0.00143840  1
  O2-  O189  1  0.16649838  0.75669639  0.24360671  1
  O2-  O190  1  0.16949154  0.75811979  0.50040007  1
  O2-  O191  1  0.17397943  0.74913333  0.76467886  1
  O2-  O192  1  0.66953275  0.07825270  0.00304931  1
  O2-  O193  1  0.66625733  0.08822893  0.25313366  1
  O2-  O194  1  0.64506433  0.09063952  0.50146710  1
  O2-  O195  1  0.66279186  0.07790564  0.74742968  1
  O2-  O196  1  0.67059418  0.40942073  0.00505330  1
  O2-  O197  1  0.66431830  0.41466207  0.23986407  1
  O2-  O198  1  0.66639572  0.41334101  0.50272032  1
  O2-  O199  1  0.66371614  0.41450504  0.75565489  1
  O2-  O200  1  0.66569290  0.74350718  -0.00456288  1
  O2-  O201  1  0.66650854  0.74928261  0.24936437  1
  O2-  O202  1  0.67250552  0.74573542  0.49273236  1
  O2-  O203  1  0.66294855  0.74600697  0.75410104  1
  O2-  O204  1  0.33343380  0.25180798  -0.00148988  1
  O2-  O205  1  0.33483979  0.25210135  0.25465174  1
  O2-  O206  1  0.34697392  0.24635572  0.49861318  1
  O2-  O207  1  0.32828740  0.25189872  0.74114670  1
  O2-  O208  1  0.33695104  0.58265385  0.00186169  1
  O2-  O209  1  0.33027358  0.58456936  0.25097994  1
  O2-  O210  1  0.34247347  0.58952575  0.50579733  1
  O2-  O211  1  0.32552030  0.58662682  0.75504495  1
  O2-  O212  1  0.32794138  0.92082939  -0.01033695  1
  O2-  O213  1  0.32656001  0.90890485  0.26185211  1
  O2-  O214  1  0.33057593  0.91696266  0.50403437  1
  O2-  O215  1  0.33032966  0.92009481  0.75229861  1
  O2-  O216  1  0.83381057  0.25283143  0.00992642  1
  O2-  O217  1  0.83747026  0.25521826  0.25002231  1
  O2-  O218  1  0.83520229  0.24661726  0.49743420  1
  O2-  O219  1  0.84118676  0.25870267  0.74709823  1
  O2-  O220  1  0.84266129  0.58745020  -0.00124595  1
  O2-  O221  1  0.84092771  0.58964707  0.25190342  1
  O2-  O222  1  0.83219963  0.59015874  0.49648948  1
  O2-  O223  1  0.83354665  0.58941663  0.75637437  1
  O2-  O224  1  0.82868082  0.92572234  0.00217277  1
  O2-  O225  1  0.83883098  0.92041245  0.24547115  1
  O2-  O226  1  0.83579099  0.91727037  0.50240670  1
  O2-  O227  1  0.83716747  0.92234958  0.74793016  1
  O2-  O228  1  0.15981302  0.25918200  -0.00252793  1
  O2-  O229  1  0.15827815  0.24707117  0.25171747  1
  O2-  O230  1  0.15938362  0.25212477  0.50081514  1
  O2-  O231  1  0.16890466  0.25586733  0.75255692  1
  O2-  O232  1  0.16402563  0.58662523  -0.00017653  1
  O2-  O233  1  0.16575812  0.58239322  0.24109412  1
  O2-  O234  1  0.16574458  0.58752532  0.49879111  1
  O2-  O235  1  0.17158570  0.58794734  0.75837223  1
  O2-  O236  1  0.16466110  0.91964276  -0.00091945  1
  O2-  O237  1  0.16730356  0.90642936  0.24304500  1
  O2-  O238  1  0.15776031  0.90996350  0.50572560  1
  O2-  O239  1  0.16678018  0.91579236  0.75119958  1
  O2-  O240  1  0.66444141  0.25367793  0.00783174  1
  O2-  O241  1  0.66805340  0.24864164  0.24275584  1
  O2-  O242  1  0.66851141  0.24935650  0.50469724  1
  O2-  O243  1  0.65196397  0.25886286  0.75171260  1
  O2-  O244  1  0.65920380  0.58771334  -0.00143995  1
  O2-  O245  1  0.65921999  0.59092511  0.25592740  1
  O2-  O246  1  0.66604987  0.58865894  0.49239980  1
  O2-  O247  1  0.66429444  0.58414792  0.75787087  1
  O2-  O248  1  0.66524825  0.92127066  -0.00039823  1
  O2-  O249  1  0.67427551  0.91872076  0.24823062  1
  O2-  O250  1  0.66504285  0.91563162  0.50560647  1
  O2-  O251  1  0.66089057  0.92029249  0.74633504  1
  O2-  O252  1  0.33849005  0.07941588  -0.01295577  1
  O2-  O253  1  0.33542708  0.08815815  0.25589003  1
  O2-  O254  1  0.33008023  0.08936673  0.51133453  1
  O2-  O255  1  0.34037871  0.08593994  0.75118889  1
  O2-  O256  1  0.32934209  0.41588231  0.00230017  1
  O2-  O257  1  0.33620941  0.41619613  0.24856025  1
  O2-  O258  1  0.33330906  0.41619128  0.50121463  1
  O2-  O259  1  0.33988256  0.42275136  0.75348577  1
  O2-  O260  1  0.33727626  0.74874638  0.00345463  1
  O2-  O261  1  0.33179639  0.75511731  0.24847552  1
  O2-  O262  1  0.34485689  0.75199585  0.49452151  1
  O2-  O263  1  0.33241793  0.75279823  0.75233131  1
  O2-  O264  1  0.83294965  0.07892744  0.00747299  1
  O2-  O265  1  0.83121935  0.08112960  0.24707332  1
  O2-  O266  1  0.83428158  0.07716201  0.50348527  1
  O2-  O267  1  0.83388591  0.07795365  0.74544817  1
  O2-  O268  1  0.83233299  0.41026181  0.00586562  1
  O2-  O269  1  0.83649371  0.41040683  0.24812857  1
  O2-  O270  1  0.83483987  0.40827272  0.49925303  1
  O2-  O271  1  0.83192230  0.41188135  0.74769205  1
  O2-  O272  1  0.83649365  0.74281009  -0.00049731  1
  O2-  O273  1  0.83397892  0.74659611  0.24458695  1
  O2-  O274  1  0.83554678  0.74769992  0.49498718  1
  O2-  O275  1  0.82942721  0.74520551  0.75671558  1
  O2-  O276  1  0.05509769  0.57382757  0.78283864  1
  O2-  O277  1  0.47148883  0.90317652  0.23456133  1
  O2-  O278  1  0.44234437  0.74982745  0.25645413  1
  O2-  O279  1  0.03518443  0.12603974  0.23111090  1
  O2-  O280  1  0.48135905  0.46089510  1.00547245  1
  O2-  O281  1  0.54090969  0.75619715  0.74802151  1
  O2-  O282  1  0.56451285  0.92132346  0.31150434  1
  O2-  O283  1  0.95040282  0.08842433  0.74478703  1
  O2-  O284  1  0.95362363  0.24435078  0.98341712  1
  O2-  O285  1  0.45286809  0.10241747  0.55790475  1
  O2-  O286  1  0.48489601  0.51637113  0.76073815  1
  O2-  O287  1  0.94599211  0.91024090  0.77087043  1
  O2-  O288  1  0.04751548  0.42640178  0.76929126  1
  O2-  O289  1  0.05892989  0.74467272  0.81619788  1
  O2-  O290  1  0.55516282  0.55243415  0.30397645  1
  O2-  O291  1  0.94788862  0.42891323  0.47507829  1
  O2-  O292  1  0.45546031  0.09908423  0.76237417  1
  O2-  O293  1  0.53829196  0.21252462  0.22123610  1
  O2-  O294  1  0.04117183  0.11843040  0.21990683  1
  O2-  O295  1  0.01486065  0.81084086  0.47788551  1
  O2-  O296  1  0.54784813  0.89670239  0.98429546  1
  O2-  O297  1  0.05287481  0.90850617  0.73074996  1
  O2-  O298  1  0.93625356  0.08003980  0.22466573  1
  O2-  O299  1  0.94532954  0.75538880  0.73782902  1
  O2-  O300  1  0.94888529  0.08899002  0.98421145  1
  O2-  O301  1  0.44862961  0.90632956  0.73493265  1
  O2-  O302  1  0.44952220  0.52475628  0.30714104  1
  O2-  O303  1  0.94679881  0.91380287  0.49519998  1
  O2-  O304  1  0.95928535  0.46643806  0.05413836  1
  O2-  O305  1  0.04754359  0.56459758  0.23027559  1
  O2-  O306  1  0.05074997  0.10173638  0.99872751  1
  O2-  O307  1  0.55468452  0.90874598  0.75756437  1
  O2-  O308  1  0.95301268  0.24078345  0.75998387  1
  O2-  O309  1  0.44292364  0.74989157  0.23554261  1
  O2-  O310  1  0.52239818  0.19207726  0.47849945  1
  O2-  O311  1  0.44296337  0.58216938  0.01196975  1
  O2-  O312  1  0.05075147  0.57478006  0.98582947  1
  O2-  O313  1  0.01199514  0.87334520  0.24801314  1
  O2-  O314  1  0.54036794  0.42416500  0.25506167  1
  O2-  O315  1  0.94954575  0.56822672  0.75752879  1
  O2-  O316  1  0.95789820  0.76288082  0.00425508  1
  O2-  O317  1  0.44913477  0.58685647  0.48545901  1
  O2-  O318  1  0.48467254  0.87405194  0.24173607  1
  O2-  O319  1  0.04923639  0.42865949  0.50839608  1
  O2-  O320  1  0.05087565  0.09512568  0.74740152  1
  O2-  O321  1  0.55608433  0.76242829  0.44922225  1
  O2-  O322  1  0.05593170  0.41493163  0.01282938  1
  O2-  O323  1  0.94992937  0.42412382  0.26116647  1
  O2-  O324  1  0.42424771  0.06647409  0.43033131  1
  O2-  O325  1  0.07973876  0.73257905  0.41003823  1
  O2-  O326  1  0.94034735  0.06951152  0.57810078  1
  O2-  O327  1  0.07695186  0.56790007  0.58354383  1
  O2-  O328  1  0.44244440  0.92165808  0.00583133  1
  O2-  O329  1  0.08825002  0.07229479  0.34057230  1
  O2-  O330  1  0.42464680  0.60894690  0.81500926  1
  O2-  O331  1  0.56883484  0.40318590  0.97546352  1
  O2-  O332  1  0.57616661  0.30540518  0.44901756  1
  O2-  O333  1  0.56140499  0.91858700  0.55423270  1
  O2-  O334  1  0.93499126  0.75422812  0.01739796  1
  O2-  O335  1  0.43286957  0.24970811  0.82738569  1
  O2-  O336  1  0.43944140  0.26520351  0.67101143  1
  O2-  O337  1  0.58359420  0.89011999  0.14469063  1
  O2-  O338  1  0.39633135  0.90809471  0.15076111  1
  O2-  O339  1  0.55139145  0.75628198  0.45096018  1
  O2-  O340  1  0.56190535  0.92315828  0.45599971  1
  O2-  O341  1  0.07033610  0.72794963  0.55559000  1
  O2-  O342  1  0.56094655  0.27728555  0.59442531  1
  O2-  O343  1  0.43351149  0.96483443  0.34121126  1
  O2-  O344  1  0.05867165  0.74248888  0.98360260  1
  O2-  O345  1  0.57852172  0.73341826  0.59118404  1
  O2-  O346  1  0.44633479  0.57858023  0.48349109  1
  O2-  O347  1  0.44371102  0.38823437  0.47218783  1
  O2-  O348  1  0.93424451  0.38887621  0.92524170  1
  O2-  O349  1  0.56147468  0.08589014  0.96445829  1
  O2-  O350  1  0.09033787  0.76705389  0.67052878  1
  O2-  O351  1  0.42525516  0.58387012  0.66527586  1
  O2-  O352  1  0.05307152  0.75546508  0.80644809  1
  O2-  O353  1  0.44037698  0.92570209  0.53856461  1
  O2-  O354  1  0.56655623  0.60963604  0.16738099  1
  O2-  O355  1  0.06506040  0.73842461  0.21011151  1
  O2-  O356  1  0.56165236  0.07408535  0.22995048  1
  O2-  O357  1  0.56026590  0.74137037  0.98226454  1
  O2-  O358  1  0.93902137  0.07227570  0.42009611  1
  O2-  O359  1  0.57906309  0.29557702  0.30203108  1
  O2-  O360  1  0.42230650  0.37522414  0.94876740  1
  O2-  O361  1  0.08077743  0.94074329  0.30321492  1
  O2-  O362  1  0.93549174  0.93240873  0.97052065  1
  O2-  O363  1  0.57001348  0.90796910  0.31779149  1
  O2-  O364  1  0.94227786  0.24790282  0.51509774  1
  O2-  O365  1  0.44291939  0.25339053  0.03206586  1
  O2-  O366  1  0.93691084  0.59556312  0.23979980  1
  O2-  O367  1  0.05151965  0.08042935  0.48479003  1
  O2-  O368  1  0.06956344  0.57382529  0.42405035  1
  O2-  O369  1  0.42948354  0.59480682  0.18484279  1
  O2-  O370  1  0.43805309  0.26774802  0.21598516  1
  O2-  O371  1  0.94130414  0.74771417  0.73179958  1
  O2-  O372  1  0.25184963  0.67061727  0.30127636  1
  O2-  O373  1  0.25165302  0.32649334  0.62668188  1
  O2-  O374  1  0.24903332  0.30082961  0.07348508  1
  O2-  O375  1  0.74894994  0.32548776  0.87948193  1
  O2-  O376  1  0.25266819  0.67562171  0.43387988  1
  O2-  O377  1  0.24570679  0.33163191  0.87082282  1
  O2-  O378  1  0.25101052  0.31131489  0.44086006  1
  O2-  O379  1  0.75288073  0.66950511  0.60885410  1
  O2-  O380  1  0.24705043  0.00300492  0.17256419  1
  O2-  O381  1  0.75054809  0.32433528  0.12493908  1
  O2-  O382  1  0.75586912  0.33126203  0.39176031  1
  O2-  O383  1  0.25439421  0.66352901  0.60779724  1
  O2-  O384  1  0.75118800  0.66828446  0.11707363  1
  O2-  O385  1  0.24963116  -0.00593674  0.41430080  1
  O2-  O386  1  0.24457730  0.02127075  0.08136232  1
  O2-  O387  1  0.24974116  0.00180815  0.67439480  1
  O2-  O388  1  0.24894487  0.33281650  0.32081400  1
  O2-  O389  1  0.74945165  -0.00341954  0.85445117  1
  O2-  O390  1  0.74958669  0.00311447  0.32470293  1
  O2-  O391  1  0.74914973  -0.00567783  0.41666963  1
  O2-  O392  1  0.75181881  0.66553368  0.35257972  1
  O2-  O393  1  0.24993063  0.00166291  0.57948494  1
  O2-  O394  1  0.24883235  0.32515744  0.18926323  1
  O2-  O395  1  0.24941549  0.66259414  0.14806292  1
  O2-  O396  1  0.24923023  0.16188874  0.90855709  1
  O2-  O397  1  0.25034673  0.84773347  0.60725563  1
  O2-  O398  1  0.75025317  0.14027023  0.82766360  1
  O2-  O399  1  0.24907014  0.83833730  0.41126125  1
  O2-  O400  1  0.75044773  0.16866229  0.39397170  1
  O2-  O401  1  0.24767358  0.47782134  0.59268304  1
  O2-  O402  1  0.75089413  0.16792412  0.95316751  1
  O2-  O403  1  0.75128941  0.84184369  0.63518655  1
  O2-  O404  1  0.24888615  0.49442941  0.34334784  1
  O2-  O405  1  0.75020903  0.46673242  0.32227546  1
  O2-  O406  1  0.75171857  0.82909366  0.33766606  1
  O2-  O407  1  0.25141311  0.16257155  0.10711658  1
  O2-  O408  1  0.75040507  0.15253064  0.14827452  1
  O2-  O409  1  0.24929534  0.49396349  0.14514649  1
  O2-  O410  1  0.24720771  0.51471112  0.67521180  1
  O2-  O411  1  0.25016784  0.82223160  0.12687716  1
  O2-  O412  1  0.75403854  0.46683972  0.58219082  1
  O2-  O413  1  0.74808652  0.52786401  0.64148460  1
  O2-  O414  1  0.75205399  0.46053646  0.14387081  1
  O2-  O415  1  0.74930197  0.14056183  0.55769471  1
  O2-  O416  1  0.74985593  0.13666124  0.64678728  1
  O2-  O417  1  0.75216792  0.47142589  0.90512428  1
  O2-  O418  1  0.75003789  0.85498510  0.11605781  1
  O2-  O419  1  0.75123883  0.84164079  0.85129252  1
  O2-  O420  1  0.02788999  -0.00597986  0.87764794  1
  O2-  O421  1  0.52370234  0.04234817  0.38809151  1
  O2-  O422  1  0.52658856  0.33827300  0.11361735  1
  O2-  O423  1  0.54459282  0.01442787  0.09102301  1
  O2-  O424  1  0.47124020  0.68300820  0.38883850  1
  O2-  O425  1  0.45039217  0.71181344  0.90990078  1
  O2-  O426  1  0.51465654  -0.00516807  0.87188719  1
  O2-  O427  1  0.44793617  0.03637775  0.12268915  1
  O2-  O428  1  0.52345285  0.01978730  0.63106505  1
  O2-  O429  1  0.97428804  0.31920833  0.13351365  1
  O2-  O430  1  0.52564069  0.32335952  0.86672503  1
  O2-  O431  1  0.96857144  0.66698249  0.89018562  1
  O2-  O432  1  -0.00371570  0.66610436  0.36243154  1
  O2-  O433  1  0.48764275  0.68691464  0.10728078  1
  O2-  O434  1  0.47767354  0.68618617  0.61369503  1
  O2-  O435  1  0.53922438  0.64161350  0.85837495  1
  O2-  O436  1  0.04978658  0.31110334  0.62970796  1
  O2-  O437  1  0.02058261  0.65314069  0.65638348  1
  O2-  O438  1  0.95596762  0.35681380  0.63296764  1
  O2-  O439  1  0.94875788  0.65311591  0.56268631  1
  O2-  O440  1  0.02648229  0.32676874  0.37381965  1
  O2-  O441  1  0.98320177  0.66679069  0.12177926  1
  O2-  O442  1  0.52235225  0.65370006  0.35840027  1
  O2-  O443  1  0.02687466  -0.01146564  0.12128412  1
