# generated using pymatgen
data_La7(Ru4O11)2
_symmetry_space_group_name_H-M   'P 1'
_cell_length_a   23.99494495
_cell_length_b   16.83364049
_cell_length_c   15.43200859
_cell_angle_alpha   89.99298823
_cell_angle_beta   89.99944569
_cell_angle_gamma   90.00081766
_symmetry_Int_Tables_number   1
_chemical_formula_structural   La7(Ru4O11)2
_chemical_formula_sum   'La84 Ru96 O264'
_cell_volume   6233.33199869
_cell_formula_units_Z   12
loop_
 _symmetry_equiv_pos_site_id
 _symmetry_equiv_pos_as_xyz
  1  'x, y, z'
loop_
 _atom_type_symbol
 _atom_type_oxidation_number
  La3+  3.0
  Ru4+  4.0
  O2-  -2.0
loop_
 _atom_site_type_symbol
 _atom_site_label
 _atom_site_symmetry_multiplicity
 _atom_site_fract_x
 _atom_site_fract_y
 _atom_site_fract_z
 _atom_site_occupancy
  La3+  La0  1  0.14363040  0.00105550  0.11767690  1
  La3+  La1  1  0.14107402  0.00105493  0.37332055  1
  La3+  La2  1  0.13989746  0.00301779  0.62026770  1
  La3+  La3  1  0.13646510  0.00381416  0.87890156  1
  La3+  La4  1  0.12907299  0.33318165  0.12640353  1
  La3+  La5  1  0.14654339  0.33378000  0.37455418  1
  La3+  La6  1  0.13976326  0.33258288  0.61967135  1
  La3+  La7  1  0.14055321  0.32481209  0.87270700  1
  La3+  La8  1  0.14502830  0.66807155  0.12510842  1
  La3+  La9  1  0.14968058  0.66725283  0.36877194  1
  La3+  La10  1  0.13988548  0.67068015  0.62578344  1
  La3+  La11  1  0.13289125  0.66391819  0.88170705  1
  La3+  La12  1  0.63973387  0.00230515  0.12128615  1
  La3+  La13  1  0.63478292  0.00333695  0.37761274  1
  La3+  La14  1  0.63688720  0.00060658  0.62037105  1
  La3+  La15  1  0.63911474  0.00245771  0.87733393  1
  La3+  La16  1  0.64988335  0.32514400  0.11673263  1
  La3+  La17  1  0.64217459  0.34217479  0.37193383  1
  La3+  La18  1  0.63368348  0.33259912  0.62631593  1
  La3+  La19  1  0.63934182  0.32815527  0.88167037  1
  La3+  La20  1  0.63630389  0.66864758  0.11545926  1
  La3+  La21  1  0.64087557  0.66845393  0.37577067  1
  La3+  La22  1  0.64326876  0.68002536  0.62901460  1
  La3+  La23  1  0.62607002  0.66727737  0.87626136  1
  La3+  La24  1  0.35113409  0.00343479  0.11806634  1
  La3+  La25  1  0.36531215  0.00312016  0.37494810  1
  La3+  La26  1  0.35258271  0.01317099  0.62051562  1
  La3+  La27  1  0.35914557  0.00515436  0.87529711  1
  La3+  La28  1  0.36083970  0.33168607  0.12383640  1
  La3+  La29  1  0.36034664  0.33251836  0.37725137  1
  La3+  La30  1  0.36244130  0.33348441  0.62909463  1
  La3+  La31  1  0.35523324  0.32258244  0.87507254  1
  La3+  La32  1  0.35363065  0.67020242  0.12902839  1
  La3+  La33  1  0.35630807  0.66969305  0.37334508  1
  La3+  La34  1  0.36140698  0.67971091  0.62312175  1
  La3+  La35  1  0.35487407  0.66963180  0.87542565  1
  La3+  La36  1  0.86475349  0.00057176  0.13082532  1
  La3+  La37  1  0.85919219  -0.00494038  0.37309864  1
  La3+  La38  1  0.86228334  -0.00194411  0.62594843  1
  La3+  La39  1  0.85954036  0.00140386  0.88015478  1
  La3+  La40  1  0.85188946  0.33764759  0.12348554  1
  La3+  La41  1  0.86152787  0.33408780  0.36183651  1
  La3+  La42  1  0.86382578  0.33450932  0.62224714  1
  La3+  La43  1  0.85425319  0.33575009  0.88057920  1
  La3+  La44  1  0.85596142  0.66172248  0.11884389  1
  La3+  La45  1  0.86237030  0.66815916  0.37106467  1
  La3+  La46  1  0.85347983  0.66582746  0.62417039  1
  La3+  La47  1  0.86186339  0.67005406  0.86847569  1
  La3+  La48  1  0.49655301  0.49398222  0.87983767  1
  La3+  La49  1  0.49782114  0.49508180  0.89670077  1
  La3+  La50  1  0.00313558  0.15223823  0.37615639  1
  La3+  La51  1  0.01069453  0.51102348  0.63090702  1
  La3+  La52  1  0.49715194  0.17615526  0.38032688  1
  La3+  La53  1  0.49773231  0.15283713  0.11132090  1
  La3+  La54  1  0.00221947  0.50728368  0.87791744  1
  La3+  La55  1  0.00600726  0.50987763  0.65000001  1
  La3+  La56  1  0.50446556  0.50966999  0.13560202  1
  La3+  La57  1  -0.00167062  0.16348672  0.86884377  1
  La3+  La58  1  0.50846523  0.84200285  0.13257010  1
  La3+  La59  1  0.00047931  0.49439246  0.36100349  1
  La3+  La60  1  0.50818028  0.51685472  0.61666316  1
  La3+  La61  1  0.50471866  0.49738195  0.38705025  1
  La3+  La62  1  0.00363927  0.84894144  0.89736263  1
  La3+  La63  1  -0.00008057  0.83434209  0.13267760  1
  La3+  La64  1  0.00131568  0.50695311  0.11925673  1
  La3+  La65  1  0.51060413  0.49673365  0.12062559  1
  La3+  La66  1  -0.00438004  0.49012534  0.38180809  1
  La3+  La67  1  0.50658692  0.81737309  0.86677036  1
  La3+  La68  1  0.50055059  0.83241823  0.37603753  1
  La3+  La69  1  0.00182131  0.84050348  0.38286057  1
  La3+  La70  1  -0.00216320  0.83530997  0.62401643  1
  La3+  La71  1  0.49735253  0.16607551  0.87576042  1
  La3+  La72  1  0.75067102  0.21755466  0.46083974  1
  La3+  La73  1  0.25027336  0.16447708  0.72839624  1
  La3+  La74  1  0.24792177  0.56711358  0.51780523  1
  La3+  La75  1  0.25074938  0.22735270  0.25277203  1
  La3+  La76  1  0.24995937  0.16628998  0.50211115  1
  La3+  La77  1  0.24860074  0.16601693  -0.00281610  1
  La3+  La78  1  0.75372256  0.83711537  0.02634097  1
  La3+  La79  1  0.25139847  0.48330772  0.25438102  1
  La3+  La80  1  0.25024934  0.57734360  -0.01397132  1
  La3+  La81  1  0.25000190  0.79917716  0.50347986  1
  La3+  La82  1  0.24774572  0.43376062  0.76164276  1
  La3+  La83  1  0.25123444  0.83259996  0.01159402  1
  Ru4+  Ru84  1  0.00472898  0.00475739  0.00418797  1
  Ru4+  Ru85  1  0.00079395  0.01074733  0.24985246  1
  Ru4+  Ru86  1  0.00214753  0.00097129  0.49643189  1
  Ru4+  Ru87  1  -0.00070362  0.00098590  0.74186480  1
  Ru4+  Ru88  1  -0.00162163  0.33105794  0.00523546  1
  Ru4+  Ru89  1  -0.00381275  0.31748297  0.24422702  1
  Ru4+  Ru90  1  0.00193603  0.32777005  0.48507666  1
  Ru4+  Ru91  1  -0.00767647  0.32336998  0.75082661  1
  Ru4+  Ru92  1  -0.00076269  0.67974378  -0.00953255  1
  Ru4+  Ru93  1  -0.00013013  0.67493674  0.25131433  1
  Ru4+  Ru94  1  0.00072650  0.66689539  0.49556144  1
  Ru4+  Ru95  1  -0.00811601  0.68138838  0.74545317  1
  Ru4+  Ru96  1  0.49482388  -0.00873040  0.01132881  1
  Ru4+  Ru97  1  0.50601452  0.00695173  0.25458850  1
  Ru4+  Ru98  1  0.49223799  -0.00191692  0.49632641  1
  Ru4+  Ru99  1  0.48833815  -0.01812471  0.74248301  1
  Ru4+  Ru100  1  0.49454889  0.33428968  0.01035927  1
  Ru4+  Ru101  1  0.51117475  0.32659897  0.24508442  1
  Ru4+  Ru102  1  0.50196501  0.33123356  0.49528885  1
  Ru4+  Ru103  1  0.49689468  0.33420526  0.74519858  1
  Ru4+  Ru104  1  0.48859274  0.67591824  0.00274169  1
  Ru4+  Ru105  1  0.49673690  0.66543934  0.25572041  1
  Ru4+  Ru106  1  0.49872926  0.66312412  0.48976371  1
  Ru4+  Ru107  1  0.50053237  0.65460878  0.75030374  1
  Ru4+  Ru108  1  0.10985331  0.16671630  -0.00172007  1
  Ru4+  Ru109  1  0.10748825  0.16630570  0.24756957  1
  Ru4+  Ru110  1  0.11042603  0.17162061  0.50599190  1
  Ru4+  Ru111  1  0.11149881  0.15938000  0.74642128  1
  Ru4+  Ru112  1  0.11213749  0.48849257  -0.00306012  1
  Ru4+  Ru113  1  0.11339152  0.49921119  0.24714479  1
  Ru4+  Ru114  1  0.10617001  0.49726749  0.50264788  1
  Ru4+  Ru115  1  0.11052788  0.50226129  0.74820993  1
  Ru4+  Ru116  1  0.11173007  0.83049655  -0.00192881  1
  Ru4+  Ru117  1  0.11574462  0.83143529  0.25110714  1
  Ru4+  Ru118  1  0.11069971  0.83053105  0.50509926  1
  Ru4+  Ru119  1  0.11038154  0.83567255  0.74691798  1
  Ru4+  Ru120  1  0.61796202  0.15886947  -0.00117144  1
  Ru4+  Ru121  1  0.60546852  0.16744933  0.25507688  1
  Ru4+  Ru122  1  0.61185249  0.17596813  0.50496368  1
  Ru4+  Ru123  1  0.61185424  0.17086927  0.74864644  1
  Ru4+  Ru124  1  0.61827630  0.49018862  -0.00469964  1
  Ru4+  Ru125  1  0.61558198  0.49208666  0.25163595  1
  Ru4+  Ru126  1  0.61225353  0.49647334  0.50037077  1
  Ru4+  Ru127  1  0.61215742  0.50324029  0.74304897  1
  Ru4+  Ru128  1  0.61633876  0.83970130  0.00433845  1
  Ru4+  Ru129  1  0.60984225  0.83495080  0.25511586  1
  Ru4+  Ru130  1  0.60886336  0.83259394  0.49858960  1
  Ru4+  Ru131  1  0.61607424  0.83997165  0.74739666  1
  Ru4+  Ru132  1  0.38799995  0.16455580  0.00216714  1
  Ru4+  Ru133  1  0.39358428  0.16345121  0.25127878  1
  Ru4+  Ru134  1  0.38811863  0.16155061  0.50186069  1
  Ru4+  Ru135  1  0.39235430  0.16566223  0.74740102  1
  Ru4+  Ru136  1  0.38786520  0.49046793  -0.00189808  1
  Ru4+  Ru137  1  0.38777245  0.49916477  0.25139432  1
  Ru4+  Ru138  1  0.39215089  0.50000635  0.50639012  1
  Ru4+  Ru139  1  0.39190235  0.50041375  0.75427119  1
  Ru4+  Ru140  1  0.39642052  0.84290234  0.00264239  1
  Ru4+  Ru141  1  0.38952205  0.83734759  0.24849558  1
  Ru4+  Ru142  1  0.38598006  0.84404611  0.49979592  1
  Ru4+  Ru143  1  0.39420403  0.85123357  0.74777609  1
  Ru4+  Ru144  1  0.88896458  0.16351127  0.00397179  1
  Ru4+  Ru145  1  0.89062021  0.17001874  0.23700102  1
  Ru4+  Ru146  1  0.89096829  0.16495220  0.49892686  1
  Ru4+  Ru147  1  0.89200143  0.17508387  0.75160967  1
  Ru4+  Ru148  1  0.89011639  0.49503714  -0.00210787  1
  Ru4+  Ru149  1  0.87893660  0.50236121  0.24893444  1
  Ru4+  Ru150  1  0.88366212  0.49169410  0.50301849  1
  Ru4+  Ru151  1  0.88955230  0.50275371  0.75177780  1
  Ru4+  Ru152  1  0.89480884  0.83128091  -0.00446507  1
  Ru4+  Ru153  1  0.88616200  0.82328937  0.24305922  1
  Ru4+  Ru154  1  0.88598581  0.83576499  0.49965400  1
  Ru4+  Ru155  1  0.88955956  0.82581688  0.75126503  1
  Ru4+  Ru156  1  0.75075044  0.90469060  0.77476151  1
  Ru4+  Ru157  1  0.24969976  0.75617905  0.75352144  1
  Ru4+  Ru158  1  0.74714253  0.59715386  0.24796284  1
  Ru4+  Ru159  1  0.74968619  0.58433860  0.76112702  1
  Ru4+  Ru160  1  0.74984001  0.08747849  0.77061278  1
  Ru4+  Ru161  1  0.74980192  0.98787682  0.00496308  1
  Ru4+  Ru162  1  0.74909812  0.08521424  0.23849781  1
  Ru4+  Ru163  1  0.74769702  0.73747086  0.25866805  1
  Ru4+  Ru164  1  0.25096577  0.38068850  0.50996868  1
  Ru4+  Ru165  1  0.74989783  0.06966261  0.50802896  1
  Ru4+  Ru166  1  0.74986024  0.25821670  0.75448032  1
  Ru4+  Ru167  1  0.74910882  0.58121837  0.49911635  1
  Ru4+  Ru168  1  0.75024740  0.75590249  0.49822034  1
  Ru4+  Ru169  1  0.25022510  0.95505083  0.49095634  1
  Ru4+  Ru170  1  0.25079273  0.07638022  0.25727374  1
  Ru4+  Ru171  1  0.74915414  0.25943048  0.23120540  1
  Ru4+  Ru172  1  0.25034288  0.90030832  0.25216677  1
  Ru4+  Ru173  1  0.75020448  0.57207531  0.00193968  1
  Ru4+  Ru174  1  0.74997119  0.41019841  0.75550340  1
  Ru4+  Ru175  1  0.74891504  0.70273330  -0.03859486  1
  Ru4+  Ru176  1  0.74857101  0.91226273  0.24387802  1
  Ru4+  Ru177  1  0.24742137  0.91064093  0.74686884  1
  Ru4+  Ru178  1  0.24913679  0.39214400  -0.01077418  1
  Ru4+  Ru179  1  0.25049344  0.61676713  0.75653493  1
  O2-  O180  1  0.16761138  0.08092181  -0.00381754  1
  O2-  O181  1  0.16728185  0.08151192  0.24794422  1
  O2-  O182  1  0.17072309  0.08380492  0.50290711  1
  O2-  O183  1  0.16739971  0.07689970  0.74808088  1
  O2-  O184  1  0.16486826  0.40821859  -0.00053883  1
  O2-  O185  1  0.16520200  0.41160716  0.24460696  1
  O2-  O186  1  0.16383658  0.41031143  0.50105899  1
  O2-  O187  1  0.15449147  0.40719104  0.75072124  1
  O2-  O188  1  0.16993318  0.74785467  -0.00512388  1
  O2-  O189  1  0.16713526  0.75165401  0.24993428  1
  O2-  O190  1  0.16346720  0.74553599  0.49929749  1
  O2-  O191  1  0.16735763  0.74867842  0.75294759  1
  O2-  O192  1  0.67227288  0.07687582  -0.00551526  1
  O2-  O193  1  0.66367058  0.08428712  0.24848166  1
  O2-  O194  1  0.66503809  0.08329534  0.49917421  1
  O2-  O195  1  0.66282655  0.08174669  0.75493892  1
  O2-  O196  1  0.66975511  0.40977402  -0.00370122  1
  O2-  O197  1  0.67460586  0.41896620  0.25875982  1
  O2-  O198  1  0.66252127  0.41370609  0.50266919  1
  O2-  O199  1  0.66463670  0.41559105  0.74953049  1
  O2-  O200  1  0.66726061  0.74467186  -0.00687798  1
  O2-  O201  1  0.66383894  0.74439857  0.24888089  1
  O2-  O202  1  0.66731140  0.75048820  0.49797881  1
  O2-  O203  1  0.66598306  0.75264879  0.75080364  1
  O2-  O204  1  0.33340326  0.25152674  0.00364113  1
  O2-  O205  1  0.34591384  0.25759662  0.25024263  1
  O2-  O206  1  0.33266684  0.24988525  0.50160841  1
  O2-  O207  1  0.33268665  0.25172485  0.74418987  1
  O2-  O208  1  0.34555238  0.58971773  0.00333976  1
  O2-  O209  1  0.33295028  0.58253202  0.25126923  1
  O2-  O210  1  0.34221961  0.58663489  0.49604461  1
  O2-  O211  1  0.33716201  0.58727481  0.75095178  1
  O2-  O212  1  0.33313769  0.91577350  -0.00772547  1
  O2-  O213  1  0.33221564  0.91807184  0.25410639  1
  O2-  O214  1  0.33003737  0.91987860  0.49645751  1
  O2-  O215  1  0.32503796  0.91962002  0.75798795  1
  O2-  O216  1  0.83869672  0.24848804  -0.00363605  1
  O2-  O217  1  0.83126287  0.25014771  0.24870521  1
  O2-  O218  1  0.83812543  0.25827101  0.50291427  1
  O2-  O219  1  0.83283874  0.25416005  0.74559797  1
  O2-  O220  1  0.83242469  0.58117847  -0.00668188  1
  O2-  O221  1  0.82673934  0.58529718  0.24851095  1
  O2-  O222  1  0.83565905  0.58464412  0.49446481  1
  O2-  O223  1  0.83437946  0.58593742  0.75058691  1
  O2-  O224  1  0.83328452  0.92214849  0.00093280  1
  O2-  O225  1  0.83365757  0.91401835  0.24872492  1
  O2-  O226  1  0.83721816  0.91714067  0.50306685  1
  O2-  O227  1  0.83335986  0.91209734  0.75471988  1
  O2-  O228  1  0.16277204  0.25405919  0.00503651  1
  O2-  O229  1  0.15789552  0.25915863  0.24398867  1
  O2-  O230  1  0.16971506  0.25006796  0.50224487  1
  O2-  O231  1  0.16893178  0.24997989  0.74967736  1
  O2-  O232  1  0.15648065  0.58574734  0.00359938  1
  O2-  O233  1  0.16453474  0.58387491  0.25054769  1
  O2-  O234  1  0.15203388  0.59210977  0.49962775  1
  O2-  O235  1  0.16807661  0.59048097  0.75560319  1
  O2-  O236  1  0.16644508  0.91495790  -0.00825929  1
  O2-  O237  1  0.16605071  0.92016739  0.24753322  1
  O2-  O238  1  0.17026064  0.91955996  0.49964239  1
  O2-  O239  1  0.16688114  0.92120592  0.75117091  1
  O2-  O240  1  0.66500917  0.24807046  -0.01005057  1
  O2-  O241  1  0.66605916  0.25093574  0.24837734  1
  O2-  O242  1  0.66525174  0.25840859  0.50334546  1
  O2-  O243  1  0.66778070  0.25456080  0.75078255  1
  O2-  O244  1  0.66877941  0.58147931  -0.00102266  1
  O2-  O245  1  0.66567606  0.58362928  0.24792826  1
  O2-  O246  1  0.66453957  0.58716297  0.49946945  1
  O2-  O247  1  0.66644481  0.58794797  0.75454747  1
  O2-  O248  1  0.67323178  0.92167109  -0.00477406  1
  O2-  O249  1  0.66349793  0.91910555  0.25110546  1
  O2-  O250  1  0.65867254  0.91540568  0.50171025  1
  O2-  O251  1  0.66955950  0.91920662  0.75253802  1
  O2-  O252  1  0.33144627  0.08377791  -0.00495019  1
  O2-  O253  1  0.33571149  0.07945015  0.25353800  1
  O2-  O254  1  0.32706397  0.08200874  0.48980731  1
  O2-  O255  1  0.33132601  0.08346825  0.74848732  1
  O2-  O256  1  0.33380958  0.40854278  -0.00346673  1
  O2-  O257  1  0.33805954  0.41017297  0.24915327  1
  O2-  O258  1  0.33896761  0.41169705  0.50273835  1
  O2-  O259  1  0.33984894  0.41150281  0.74695270  1
  O2-  O260  1  0.33394614  0.75573443  0.00337946  1
  O2-  O261  1  0.34055753  0.75278760  0.25196681  1
  O2-  O262  1  0.33706506  0.74756819  0.49870453  1
  O2-  O263  1  0.33782559  0.75707946  0.75270995  1
  O2-  O264  1  0.83197073  0.08282332  -0.00351727  1
  O2-  O265  1  0.83448348  0.08292963  0.24995807  1
  O2-  O266  1  0.83256236  0.08143783  0.50280173  1
  O2-  O267  1  0.83752511  0.08163306  0.75342842  1
  O2-  O268  1  0.83575926  0.41681012  -0.00128381  1
  O2-  O269  1  0.82840781  0.41709209  0.24976342  1
  O2-  O270  1  0.82834917  0.41379371  0.50589018  1
  O2-  O271  1  0.83437267  0.41144094  0.74624155  1
  O2-  O272  1  0.83391300  0.74401826  -0.00543252  1
  O2-  O273  1  0.82698266  0.74927929  0.25854951  1
  O2-  O274  1  0.83329465  0.74666016  0.49905768  1
  O2-  O275  1  0.83099844  0.74995767  0.75501742  1
  O2-  O276  1  0.44619285  0.77085388  0.52010667  1
  O2-  O277  1  0.03698335  0.11756286  0.51712621  1
  O2-  O278  1  0.95182510  0.42058603  0.25394430  1
  O2-  O279  1  0.95061687  0.21075953  0.68981514  1
  O2-  O280  1  0.54929235  0.09252503  0.51388269  1
  O2-  O281  1  0.53232483  0.44304512  0.27473022  1
  O2-  O282  1  0.05697387  0.75775995  0.27039077  1
  O2-  O283  1  0.55483978  0.76644700  0.00537346  1
  O2-  O284  1  0.97108477  0.11869506  0.00295327  1
  O2-  O285  1  0.45098500  0.75809134  0.48420061  1
  O2-  O286  1  0.55180462  0.24960272  0.97473952  1
  O2-  O287  1  0.45480393  0.91158860  0.95055560  1
  O2-  O288  1  0.95576021  0.42962962  0.76751661  1
  O2-  O289  1  0.53266823  0.22108758  0.21300853  1
  O2-  O290  1  0.55301709  0.22808017  0.00636560  1
  O2-  O291  1  0.04694458  0.56441913  0.99130727  1
  O2-  O292  1  0.95165535  0.76551213  0.51239262  1
  O2-  O293  1  0.94858617  0.12944701  0.55565980  1
  O2-  O294  1  0.95469654  0.90839958  0.49569456  1
  O2-  O295  1  0.54415353  0.90998342  0.47574298  1
  O2-  O296  1  0.45941344  0.55747556  0.47588234  1
  O2-  O297  1  0.53868632  0.55611005  0.78263740  1
  O2-  O298  1  0.95393921  0.21234200  0.28213266  1
  O2-  O299  1  0.95337836  0.91566667  0.23703912  1
  O2-  O300  1  0.45297703  0.44437969  0.69920824  1
  O2-  O301  1  0.55141481  0.08883007  0.30729620  1
  O2-  O302  1  0.95343738  0.24599614  0.98129693  1
  O2-  O303  1  0.04831222  0.08573552  0.73542382  1
  O2-  O304  1  0.55425327  0.76043830  0.75640712  1
  O2-  O305  1  0.96286650  0.43727854  0.54245250  1
  O2-  O306  1  0.96700893  0.78583664  0.79266096  1
  O2-  O307  1  0.55332478  0.09130154  0.47548489  1
  O2-  O308  1  0.55279096  0.42121137  0.73763581  1
  O2-  O309  1  0.55531899  0.25001640  0.51422261  1
  O2-  O310  1  0.54442827  0.56628053  0.99807166  1
  O2-  O311  1  0.04940341  0.23770515  0.23450157  1
  O2-  O312  1  0.46726274  0.82809277  0.72451887  1
  O2-  O313  1  0.04511781  0.22738014  0.74848308  1
  O2-  O314  1  0.96776673  0.78845372  0.26610397  1
  O2-  O315  1  0.45027538  0.23820588  -0.00172251  1
  O2-  O316  1  0.45254112  0.23859859  0.74349471  1
  O2-  O317  1  0.45956321  0.78156290  0.04032353  1
  O2-  O318  1  0.45054285  0.56778577  0.00177462  1
  O2-  O319  1  0.55304870  0.75134174  0.51596852  1
  O2-  O320  1  0.04370819  0.56791277  0.24944938  1
  O2-  O321  1  0.04862329  0.42170234  0.23516148  1
  O2-  O322  1  0.55714022  0.91558419  0.74707513  1
  O2-  O323  1  0.45934056  0.21012183  0.50965368  1
  O2-  O324  1  0.07118349  0.76311972  0.07509693  1
  O2-  O325  1  0.56136056  0.57806903  0.97217729  1
  O2-  O326  1  0.55719640  0.07818586  0.00847061  1
  O2-  O327  1  0.43220006  0.92896964  0.09101951  1
  O2-  O328  1  0.44964934  0.90819123  0.94597425  1
  O2-  O329  1  0.06062807  0.26778594  0.53392100  1
  O2-  O330  1  0.56835331  0.61330695  0.66678025  1
  O2-  O331  1  0.93299295  0.91903860  0.21439346  1
  O2-  O332  1  0.06136983  0.73869817  0.53917925  1
  O2-  O333  1  0.56979629  0.27705385  0.32671414  1
  O2-  O334  1  0.06378035  0.07585640  0.27548459  1
  O2-  O335  1  0.43959306  0.58277245  0.22909822  1
  O2-  O336  1  0.56403505  0.74075290  0.78552792  1
  O2-  O337  1  0.92427824  0.03799811  0.03413787  1
  O2-  O338  1  0.42944574  0.71962418  0.92479152  1
  O2-  O339  1  0.55646461  0.04449356  0.16306432  1
  O2-  O340  1  0.93591804  0.92394544  0.73152364  1
  O2-  O341  1  0.91187701  0.71692397  0.20904336  1
  O2-  O342  1  0.43063267  0.06701953  0.51912622  1
  O2-  O343  1  0.08042514  0.06257828  0.46635297  1
  O2-  O344  1  0.58935146  0.40859901  0.17863615  1
  O2-  O345  1  0.43121712  0.30500113  0.54172033  1
  O2-  O346  1  0.56193670  0.92152791  0.03324292  1
  O2-  O347  1  0.41573094  0.93685265  0.67481590  1
  O2-  O348  1  0.06379616  0.91839394  0.49076248  1
  O2-  O349  1  0.43669789  0.07231490  0.02264070  1
  O2-  O350  1  0.92794224  0.28624896  0.17920749  1
  O2-  O351  1  0.43326517  0.93696817  0.81410669  1
  O2-  O352  1  0.92637183  0.06700955  0.44501112  1
  O2-  O353  1  0.43905505  0.38322886  0.83189285  1
  O2-  O354  1  0.44325039  0.07809533  0.78742444  1
  O2-  O355  1  0.93227513  0.28111102  0.81990763  1
  O2-  O356  1  0.44492706  0.92748697  0.23728764  1
  O2-  O357  1  0.92263734  0.72798655  0.68985806  1
  O2-  O358  1  0.93739082  0.58323757  0.27564009  1
  O2-  O359  1  0.06603496  0.29825475  0.70931272  1
  O2-  O360  1  0.06616288  0.75236146  0.92725423  1
  O2-  O361  1  0.43878557  0.62033386  0.58778201  1
  O2-  O362  1  0.56136740  0.73362644  0.01792793  1
  O2-  O363  1  0.93172825  0.41555813  0.27709557  1
  O2-  O364  1  0.93551685  0.07214147  0.21255390  1
  O2-  O365  1  0.06416117  0.60377198  0.72232463  1
  O2-  O366  1  0.05993871  0.59212399  0.97609763  1
  O2-  O367  1  0.91783662  0.40594866  0.43629370  1
  O2-  O368  1  0.55985679  0.08402107  0.32074199  1
  O2-  O369  1  0.56169300  0.26582839  0.72159830  1
  O2-  O370  1  0.06056565  0.92032305  0.02105276  1
  O2-  O371  1  0.06594448  0.07900688  0.96820279  1
  O2-  O372  1  0.75066435  0.32492929  0.12899919  1
  O2-  O373  1  0.75148926  0.66555461  0.40292911  1
  O2-  O374  1  0.24778484  0.00308682  0.60716077  1
  O2-  O375  1  0.24934615  0.68411342  0.42084956  1
  O2-  O376  1  0.74957375  0.65703426  0.10244298  1
  O2-  O377  1  0.24890604  0.66922212  0.32930707  1
  O2-  O378  1  0.74980760  0.00003677  0.31586592  1
  O2-  O379  1  0.24904314  -0.00538516  0.05747760  1
  O2-  O380  1  0.24983003  0.68599085  0.08259539  1
  O2-  O381  1  0.75025795  -0.01394664  0.43568204  1
  O2-  O382  1  0.24911906  0.68300691  0.61217744  1
  O2-  O383  1  0.24963731  -0.00905239  0.17986910  1
  O2-  O384  1  0.75101464  0.66999870  0.84626384  1
  O2-  O385  1  0.24924066  0.67913899  0.87176282  1
  O2-  O386  1  0.74994769  -0.00333058  0.70071136  1
  O2-  O387  1  0.74883443  0.33297063  0.85591505  1
  O2-  O388  1  0.74973431  0.66699502  0.59567013  1
  O2-  O389  1  0.24976561  0.66442989  0.17158719  1
  O2-  O390  1  0.25137303  0.30649219  0.40961679  1
  O2-  O391  1  0.75037999  0.00684615  0.87457085  1
  O2-  O392  1  0.74897061  -0.02021357  0.57533071  1
  O2-  O393  1  0.24951672  -0.01678416  0.35554035  1
  O2-  O394  1  0.24804505  0.32551647  0.88563684  1
  O2-  O395  1  0.25145767  0.34566326  0.32598372  1
  O2-  O396  1  0.25065190  0.45542617  0.08712950  1
  O2-  O397  1  0.24919907  0.14501452  0.36520171  1
  O2-  O398  1  0.74890428  0.82932697  0.32942996  1
  O2-  O399  1  0.75028441  0.16823369  0.69612163  1
  O2-  O400  1  0.75023427  0.84260009  0.86841477  1
  O2-  O401  1  0.75074309  0.16914270  0.16512112  1
  O2-  O402  1  0.75046098  0.50202613  0.84679287  1
  O2-  O403  1  0.74960947  0.49317403  0.55312149  1
  O2-  O404  1  0.24986722  0.15604629  0.85911546  1
  O2-  O405  1  0.74905075  0.81979085  0.16857752  1
  O2-  O406  1  0.25081127  0.54495289  0.67220225  1
  O2-  O407  1  0.24943722  0.83272052  0.65504427  1
  O2-  O408  1  0.74968129  0.49969569  0.68558482  1
  O2-  O409  1  0.24988148  0.83618174  0.15650434  1
  O2-  O410  1  0.25009494  0.44086038  0.60620713  1
  O2-  O411  1  0.24785088  0.55058326  0.37325852  1
  O2-  O412  1  0.74972608  0.15695098  0.58063109  1
  O2-  O413  1  0.25114354  0.45278200  0.42407343  1
  O2-  O414  1  0.74994739  0.83734676  0.41812081  1
  O2-  O415  1  0.74987387  0.16953621  0.32805738  1
  O2-  O416  1  0.75003855  0.16107537  0.07789166  1
  O2-  O417  1  0.25109065  0.14448191  0.14347397  1
  O2-  O418  1  0.24962414  0.54019648  0.12344808  1
  O2-  O419  1  0.25080436  0.47848002  0.89330622  1
  O2-  O420  1  0.03521054  -0.01862816  0.37307931  1
  O2-  O421  1  0.98203610  0.64518496  0.61819539  1
  O2-  O422  1  0.46816374  -0.00888555  0.37705515  1
  O2-  O423  1  0.02653583  0.33903696  0.11708418  1
  O2-  O424  1  0.51721330  0.66785092  0.88288116  1
  O2-  O425  1  0.46906466  0.33310644  0.37160326  1
  O2-  O426  1  0.01272319  0.65275867  0.86224620  1
  O2-  O427  1  0.55058745  0.64631912  0.15933107  1
  O2-  O428  1  0.54064460  0.33273923  0.10146521  1
  O2-  O429  1  0.98034556  -0.00177921  0.62046326  1
  O2-  O430  1  0.03807062  0.65850170  0.14528798  1
  O2-  O431  1  0.97717066  0.67084919  0.38005667  1
  O2-  O432  1  0.54683297  0.66303268  0.36732880  1
  O2-  O433  1  0.02756081  0.00514863  0.12970713  1
  O2-  O434  1  0.45738608  0.67202812  0.12324867  1
  O2-  O435  1  0.45049710  0.34892032  0.14330706  1
  O2-  O436  1  0.01853376  -0.01164165  0.87074550  1
  O2-  O437  1  0.48029312  0.01165016  0.61955566  1
  O2-  O438  1  0.95201109  0.64932758  0.07987519  1
  O2-  O439  1  0.45170294  0.67378921  0.35938848  1
  O2-  O440  1  0.53741231  0.00421883  0.63275863  1
  O2-  O441  1  0.95463262  -0.00367888  0.34728464  1
  O2-  O442  1  0.96552089  0.31087403  0.37242954  1
  O2-  O443  1  0.05503166  0.34521721  0.38514124  1
