# generated using pymatgen
data_La7(Ru4O11)2
_symmetry_space_group_name_H-M   'P 1'
_cell_length_a   23.99036100
_cell_length_b   16.83025140
_cell_length_c   15.42685560
_cell_angle_alpha   89.99836142
_cell_angle_beta   89.99984395
_cell_angle_gamma   90.00023067
_symmetry_Int_Tables_number   1
_chemical_formula_structural   La7(Ru4O11)2
_chemical_formula_sum   'La84 Ru96 O264'
_cell_volume   6228.80594180
_cell_formula_units_Z   12
loop_
 _symmetry_equiv_pos_site_id
 _symmetry_equiv_pos_as_xyz
  1  'x, y, z'
loop_
 _atom_type_symbol
 _atom_type_oxidation_number
  La3+  3.0
  Ru4+  4.0
  O2-  -2.0
loop_
 _atom_site_type_symbol
 _atom_site_label
 _atom_site_symmetry_multiplicity
 _atom_site_fract_x
 _atom_site_fract_y
 _atom_site_fract_z
 _atom_site_occupancy
  La3+  La0  1  0.14423857  -0.00060757  0.12241302  1
  La3+  La1  1  0.13783650  0.00025216  0.37526134  1
  La3+  La2  1  0.13677323  0.00206473  0.62604093  1
  La3+  La3  1  0.14199797  0.00012472  0.87455790  1
  La3+  La4  1  0.13948481  0.33340375  0.12595906  1
  La3+  La5  1  0.13842312  0.33217462  0.37612578  1
  La3+  La6  1  0.13904925  0.33175426  0.62830435  1
  La3+  La7  1  0.13925068  0.33103331  0.87408817  1
  La3+  La8  1  0.14183734  0.66541522  0.12878862  1
  La3+  La9  1  0.14164644  0.66716976  0.37423621  1
  La3+  La10  1  0.13741788  0.66591313  0.62449710  1
  La3+  La11  1  0.14173807  0.66264679  0.87265083  1
  La3+  La12  1  0.64085409  -0.00015005  0.11923795  1
  La3+  La13  1  0.63793472  0.00008092  0.37577961  1
  La3+  La14  1  0.63807656  0.00131350  0.62619279  1
  La3+  La15  1  0.63962591  0.00124906  0.87802007  1
  La3+  La16  1  0.64041964  0.33411832  0.12213769  1
  La3+  La17  1  0.63874223  0.33495182  0.37543529  1
  La3+  La18  1  0.64041035  0.33188317  0.62578784  1
  La3+  La19  1  0.64243665  0.33153464  0.87720949  1
  La3+  La20  1  0.64103654  0.66574611  0.12674387  1
  La3+  La21  1  0.63834295  0.66625730  0.37313141  1
  La3+  La22  1  0.63780943  0.66521259  0.62255503  1
  La3+  La23  1  0.63818673  0.66629593  0.87701557  1
  La3+  La24  1  0.35790292  -0.00033584  0.12255720  1
  La3+  La25  1  0.36340965  0.00088033  0.37314525  1
  La3+  La26  1  0.36108555  0.00265640  0.62612110  1
  La3+  La27  1  0.36077017  0.00146265  0.87651924  1
  La3+  La28  1  0.36298956  0.33313230  0.12307589  1
  La3+  La29  1  0.36278540  0.33341627  0.37633131  1
  La3+  La30  1  0.36238706  0.32991859  0.62638229  1
  La3+  La31  1  0.36009205  0.33081471  0.87554909  1
  La3+  La32  1  0.36030625  0.66595804  0.13080186  1
  La3+  La33  1  0.36019657  0.66632559  0.37408227  1
  La3+  La34  1  0.36142908  0.66624763  0.62173152  1
  La3+  La35  1  0.36124916  0.66715645  0.87633250  1
  La3+  La36  1  0.85959224  -0.00066016  0.11906002  1
  La3+  La37  1  0.86381624  -0.00000507  0.37597747  1
  La3+  La38  1  0.86106349  0.00181809  0.62592314  1
  La3+  La39  1  0.86191823  -0.00056324  0.87854201  1
  La3+  La40  1  0.86023606  0.33487667  0.12392307  1
  La3+  La41  1  0.86245812  0.33712186  0.37441055  1
  La3+  La42  1  0.85898362  0.33270277  0.62494868  1
  La3+  La43  1  0.85869532  0.33125604  0.87810662  1
  La3+  La44  1  0.86050896  0.66431935  0.12656578  1
  La3+  La45  1  0.85815619  0.66636018  0.37402907  1
  La3+  La46  1  0.86231686  0.66384845  0.62308471  1
  La3+  La47  1  0.86261927  0.66513326  0.87756757  1
  La3+  La48  1  0.00103251  0.50128773  0.86616627  1
  La3+  La49  1  0.49871194  0.50197059  0.13612821  1
  La3+  La50  1  -0.00234118  0.16604613  0.12006145  1
  La3+  La51  1  -0.00362869  0.83813186  0.88117942  1
  La3+  La52  1  0.49849676  0.83425622  0.37277724  1
  La3+  La53  1  -0.00056863  0.50072175  0.63265857  1
  La3+  La54  1  -0.00153177  0.83524914  0.86491853  1
  La3+  La55  1  -0.00657799  0.83686042  0.61859200  1
  La3+  La56  1  -0.00527168  0.83621352  0.11449290  1
  La3+  La57  1  0.50336767  0.50142164  0.86770711  1
  La3+  La58  1  0.49841975  0.50253645  0.61058829  1
  La3+  La59  1  -0.00328076  0.83098177  0.12972032  1
  La3+  La60  1  0.00105441  0.83238211  0.36751656  1
  La3+  La61  1  -0.00074330  0.49913009  0.36662803  1
  La3+  La62  1  0.50489827  0.84043469  0.87345570  1
  La3+  La63  1  0.49848465  0.16703228  0.38491191  1
  La3+  La64  1  0.50381750  0.83737009  0.61925383  1
  La3+  La65  1  -0.00047896  0.50003684  0.12405837  1
  La3+  La66  1  0.00093003  0.83603227  0.63742943  1
  La3+  La67  1  0.50224441  0.49666290  0.63099685  1
  La3+  La68  1  0.49787218  0.49714112  0.88764017  1
  La3+  La69  1  0.49953267  0.16841085  0.86680688  1
  La3+  La70  1  0.50275343  0.16177202  0.12860170  1
  La3+  La71  1  0.00177192  0.15979465  0.36944652  1
  La3+  La72  1  0.75017796  0.16858266  0.53198902  1
  La3+  La73  1  0.24986457  0.46698256  0.00124925  1
  La3+  La74  1  0.75014162  0.83248793  0.52870022  1
  La3+  La75  1  0.24969892  0.83406110  0.75455736  1
  La3+  La76  1  0.74972487  0.16921871  0.21296528  1
  La3+  La77  1  0.24950221  0.12150514  0.24653442  1
  La3+  La78  1  0.24976369  0.53392056  0.46984220  1
  La3+  La79  1  0.25021745  0.79908287  0.47083867  1
  La3+  La80  1  0.24955038  0.53097037  0.73193133  1
  La3+  La81  1  0.24998194  0.53472680  0.24951871  1
  La3+  La82  1  0.74966378  0.49695378  -0.03158149  1
  La3+  La83  1  0.75005728  0.87337214  0.78448112  1
  Ru4+  Ru84  1  0.00494529  0.00856833  -0.00391567  1
  Ru4+  Ru85  1  -0.00028592  0.00230094  0.25139568  1
  Ru4+  Ru86  1  -0.00400519  0.00670500  0.50187980  1
  Ru4+  Ru87  1  -0.00012684  0.00623728  0.75185276  1
  Ru4+  Ru88  1  -0.00164387  0.33413992  0.00276491  1
  Ru4+  Ru89  1  0.00308125  0.33023885  0.24929171  1
  Ru4+  Ru90  1  -0.00111527  0.33811950  0.49444801  1
  Ru4+  Ru91  1  0.00202521  0.33064511  0.75082316  1
  Ru4+  Ru92  1  0.00000268  0.66801672  -0.00018833  1
  Ru4+  Ru93  1  0.00105150  0.66322550  0.25216947  1
  Ru4+  Ru94  1  -0.00035545  0.66264641  0.49949059  1
  Ru4+  Ru95  1  -0.00053417  0.66551761  0.74854252  1
  Ru4+  Ru96  1  0.50253453  -0.00056133  0.00056152  1
  Ru4+  Ru97  1  0.49705306  0.00051518  0.25101861  1
  Ru4+  Ru98  1  0.49968187  -0.00035570  0.49975880  1
  Ru4+  Ru99  1  0.50168799  0.00163882  0.74941036  1
  Ru4+  Ru100  1  0.49904413  0.33320116  0.00096667  1
  Ru4+  Ru101  1  0.49925522  0.33514169  0.25017471  1
  Ru4+  Ru102  1  0.49704979  0.33217789  0.49733020  1
  Ru4+  Ru103  1  0.50049069  0.32793677  0.74941865  1
  Ru4+  Ru104  1  0.49997212  0.67280998  0.00129650  1
  Ru4+  Ru105  1  0.49524784  0.66330731  0.25167397  1
  Ru4+  Ru106  1  0.49779042  0.65777571  0.49372593  1
  Ru4+  Ru107  1  0.50049113  0.66982315  0.75109648  1
  Ru4+  Ru108  1  0.11569303  0.16030916  -0.00059711  1
  Ru4+  Ru109  1  0.11100401  0.16593632  0.24985156  1
  Ru4+  Ru110  1  0.11375621  0.16392237  0.50049148  1
  Ru4+  Ru111  1  0.11160589  0.16699359  0.75004673  1
  Ru4+  Ru112  1  0.11139029  0.49872838  0.00007732  1
  Ru4+  Ru113  1  0.11200299  0.50218491  0.25109819  1
  Ru4+  Ru114  1  0.10977603  0.50109521  0.50027630  1
  Ru4+  Ru115  1  0.10949636  0.50052221  0.74964588  1
  Ru4+  Ru116  1  0.11495671  0.83426276  -0.00001032  1
  Ru4+  Ru117  1  0.11515513  0.83065552  0.25187631  1
  Ru4+  Ru118  1  0.11601681  0.82939688  0.49788000  1
  Ru4+  Ru119  1  0.11142110  0.83293074  0.75076240  1
  Ru4+  Ru120  1  0.61471859  0.16504363  0.00024096  1
  Ru4+  Ru121  1  0.60967361  0.16630152  0.24946824  1
  Ru4+  Ru122  1  0.61112277  0.16648913  0.50019075  1
  Ru4+  Ru123  1  0.61335317  0.16865604  0.75022956  1
  Ru4+  Ru124  1  0.61354699  0.49841034  0.00032831  1
  Ru4+  Ru125  1  0.61460812  0.50110167  0.25030187  1
  Ru4+  Ru126  1  0.61397777  0.50231601  0.49999278  1
  Ru4+  Ru127  1  0.61256687  0.50066209  0.74940278  1
  Ru4+  Ru128  1  0.61065432  0.83406172  0.00136834  1
  Ru4+  Ru129  1  0.61815967  0.83518905  0.24822039  1
  Ru4+  Ru130  1  0.61317959  0.83843229  0.50001175  1
  Ru4+  Ru131  1  0.61054372  0.83324799  0.74963630  1
  Ru4+  Ru132  1  0.38675144  0.16560921  -0.00051623  1
  Ru4+  Ru133  1  0.38803968  0.16384836  0.25156061  1
  Ru4+  Ru134  1  0.38768751  0.16657207  0.49970542  1
  Ru4+  Ru135  1  0.38491732  0.16783397  0.75043904  1
  Ru4+  Ru136  1  0.38950904  0.49925217  0.00094771  1
  Ru4+  Ru137  1  0.38982854  0.50195873  0.25027075  1
  Ru4+  Ru138  1  0.38952024  0.50201299  0.49808891  1
  Ru4+  Ru139  1  0.38679063  0.50063088  0.75038621  1
  Ru4+  Ru140  1  0.38640466  0.83431270  0.00030631  1
  Ru4+  Ru141  1  0.38775098  0.83087986  0.24972318  1
  Ru4+  Ru142  1  0.38711834  0.83404839  0.49953288  1
  Ru4+  Ru143  1  0.38931350  0.83461293  0.75037809  1
  Ru4+  Ru144  1  0.88516450  0.16967625  -0.00085453  1
  Ru4+  Ru145  1  0.88720195  0.16374554  0.24833438  1
  Ru4+  Ru146  1  0.88758383  0.16419705  0.50219972  1
  Ru4+  Ru147  1  0.88541847  0.16875043  0.75008353  1
  Ru4+  Ru148  1  0.88330626  0.49886335  0.00057497  1
  Ru4+  Ru149  1  0.88368036  0.50440836  0.24925644  1
  Ru4+  Ru150  1  0.88646036  0.50196715  0.50197524  1
  Ru4+  Ru151  1  0.88856280  0.49970598  0.74980586  1
  Ru4+  Ru152  1  0.88227909  0.83091605  0.00002678  1
  Ru4+  Ru153  1  0.88508210  0.83159733  0.25001292  1
  Ru4+  Ru154  1  0.88915505  0.83312540  0.50045329  1
  Ru4+  Ru155  1  0.88859230  0.83366160  0.75113083  1
  Ru4+  Ru156  1  0.25003601  0.93901753  0.49589943  1
  Ru4+  Ru157  1  0.75003395  0.41959775  0.49726656  1
  Ru4+  Ru158  1  0.24999873  0.60761851  0.00701775  1
  Ru4+  Ru159  1  0.25014937  0.26353920  0.25395719  1
  Ru4+  Ru160  1  0.75005853  0.70168329  0.51183789  1
  Ru4+  Ru161  1  0.75026750  0.73759878  0.74308291  1
  Ru4+  Ru162  1  0.75012558  0.41731227  0.75609197  1
  Ru4+  Ru163  1  0.75024573  0.57478778  0.75142346  1
  Ru4+  Ru164  1  0.24980405  0.39592031  0.51021000  1
  Ru4+  Ru165  1  0.74971295  0.03957081  0.22418557  1
  Ru4+  Ru166  1  0.24956027  0.39112665  0.75386359  1
  Ru4+  Ru167  1  0.25022349  0.09180376  0.50315144  1
  Ru4+  Ru168  1  0.74988529  0.96279794  0.51908586  1
  Ru4+  Ru169  1  0.24997828  0.69999699  0.74859661  1
  Ru4+  Ru170  1  0.74988547  0.29106748  0.26039767  1
  Ru4+  Ru171  1  0.74981856  0.75040530  0.00514849  1
  Ru4+  Ru172  1  0.75017518  0.90820513  0.23878752  1
  Ru4+  Ru173  1  0.25005590  0.24150762  0.50447804  1
  Ru4+  Ru174  1  0.25004442  0.91707716  0.24280939  1
  Ru4+  Ru175  1  0.25048255  0.24588015  -0.00083671  1
  Ru4+  Ru176  1  0.25000869  0.96858576  0.75080014  1
  Ru4+  Ru177  1  0.25007241  0.40091542  0.25495205  1
  Ru4+  Ru178  1  0.24999959  0.75771756  0.00505199  1
  Ru4+  Ru179  1  0.74984792  0.08545926  0.75010330  1
  O2-  O180  1  0.16840188  0.08279654  -0.00056734  1
  O2-  O181  1  0.16268553  0.07795346  0.25197375  1
  O2-  O182  1  0.16694592  0.08256529  0.49967170  1
  O2-  O183  1  0.16549254  0.08104799  0.74933804  1
  O2-  O184  1  0.16533241  0.41299031  0.00060724  1
  O2-  O185  1  0.16786195  0.41331695  0.25033809  1
  O2-  O186  1  0.16703413  0.41209159  0.50007997  1
  O2-  O187  1  0.16808316  0.41241087  0.74986349  1
  O2-  O188  1  0.16963115  0.74794330  -0.00049227  1
  O2-  O189  1  0.16781747  0.74919318  0.24932351  1
  O2-  O190  1  0.16717554  0.74608874  0.50333636  1
  O2-  O191  1  0.16719674  0.74531764  0.74898753  1
  O2-  O192  1  0.66651684  0.08229253  0.00016865  1
  O2-  O193  1  0.66538401  0.07764084  0.25024535  1
  O2-  O194  1  0.66757809  0.08083643  0.50081018  1
  O2-  O195  1  0.66694086  0.08057241  0.74951308  1
  O2-  O196  1  0.66768213  0.41571104  0.00109140  1
  O2-  O197  1  0.66498971  0.41414705  0.24999020  1
  O2-  O198  1  0.66658986  0.41316780  0.49913576  1
  O2-  O199  1  0.66820167  0.41357431  0.75072855  1
  O2-  O200  1  0.66741081  0.74911435  -0.00140694  1
  O2-  O201  1  0.66823538  0.74897350  0.25052473  1
  O2-  O202  1  0.66630098  0.74411427  0.50063922  1
  O2-  O203  1  0.66590603  0.74615113  0.75033349  1
  O2-  O204  1  0.33134003  0.25260652  0.00135651  1
  O2-  O205  1  0.33274664  0.25319554  0.24968475  1
  O2-  O206  1  0.33250161  0.25257022  0.50046024  1
  O2-  O207  1  0.33287360  0.25240330  0.74916442  1
  O2-  O208  1  0.33356575  0.58724991  -0.00048084  1
  O2-  O209  1  0.33130092  0.58628989  0.24964494  1
  O2-  O210  1  0.33316795  0.58615704  0.50263421  1
  O2-  O211  1  0.33462390  0.58892502  0.75048741  1
  O2-  O212  1  0.33566527  0.91708408  -0.00222995  1
  O2-  O213  1  0.33123675  0.91911944  0.25039395  1
  O2-  O214  1  0.33381592  0.92043046  0.49990837  1
  O2-  O215  1  0.33275561  0.92079848  0.74956402  1
  O2-  O216  1  0.83313394  0.24970744  0.00072277  1
  O2-  O217  1  0.83342965  0.25420906  0.25152380  1
  O2-  O218  1  0.83194200  0.25265520  0.49885478  1
  O2-  O219  1  0.83442279  0.25098475  0.74988810  1
  O2-  O220  1  0.83229491  0.58532225  -0.00092483  1
  O2-  O221  1  0.83263645  0.58462564  0.24834080  1
  O2-  O222  1  0.83277239  0.58477219  0.50055833  1
  O2-  O223  1  0.83333539  0.58645361  0.75036660  1
  O2-  O224  1  0.83322027  0.91713210  -0.00022643  1
  O2-  O225  1  0.83295220  0.91969283  0.24985187  1
  O2-  O226  1  0.83417643  0.92183728  0.49978510  1
  O2-  O227  1  0.83411010  0.92051007  0.74870011  1
  O2-  O228  1  0.16819453  0.25160675  0.00037155  1
  O2-  O229  1  0.16770629  0.25391868  0.25106504  1
  O2-  O230  1  0.16933743  0.25228052  0.50006214  1
  O2-  O231  1  0.16699787  0.25193917  0.74949932  1
  O2-  O232  1  0.16726410  0.58692359  0.00057394  1
  O2-  O233  1  0.16656530  0.58580968  0.25029712  1
  O2-  O234  1  0.16513045  0.58732792  0.50249371  1
  O2-  O235  1  0.16527099  0.58869663  0.74843145  1
  O2-  O236  1  0.16582327  0.91777266  -0.00186671  1
  O2-  O237  1  0.16991762  0.91826105  0.25016718  1
  O2-  O238  1  0.16653717  0.92015927  0.49993911  1
  O2-  O239  1  0.16752834  0.92095643  0.74885279  1
  O2-  O240  1  0.66455592  0.25120946  0.00075584  1
  O2-  O241  1  0.66495082  0.25545187  0.25048384  1
  O2-  O242  1  0.66661582  0.25273793  0.49874987  1
  O2-  O243  1  0.66549152  0.25116497  0.74950963  1
  O2-  O244  1  0.66663503  0.58591201  -0.00093774  1
  O2-  O245  1  0.66661364  0.58507738  0.25027739  1
  O2-  O246  1  0.66622835  0.58617170  0.50063360  1
  O2-  O247  1  0.66608024  0.58702586  0.75057590  1
  O2-  O248  1  0.66551011  0.91727957  -0.00094128  1
  O2-  O249  1  0.66717258  0.92007022  0.24949233  1
  O2-  O250  1  0.66588749  0.92089728  0.50125260  1
  O2-  O251  1  0.66458439  0.92046918  0.74903961  1
  O2-  O252  1  0.33531185  0.08217699  -0.00089329  1
  O2-  O253  1  0.33577333  0.07856651  0.25014822  1
  O2-  O254  1  0.33234143  0.08060855  0.49958520  1
  O2-  O255  1  0.33486895  0.08020276  0.74997402  1
  O2-  O256  1  0.33312810  0.41186105  0.00105371  1
  O2-  O257  1  0.33437470  0.41368292  0.25004989  1
  O2-  O258  1  0.33341411  0.41289545  0.50099136  1
  O2-  O259  1  0.33228723  0.41307423  0.74944307  1
  O2-  O260  1  0.33048735  0.74781409  -0.00237004  1
  O2-  O261  1  0.33275227  0.74900981  0.24959459  1
  O2-  O262  1  0.33340195  0.74690330  0.50335664  1
  O2-  O263  1  0.33273075  0.74531582  0.75045534  1
  O2-  O264  1  0.83566573  0.08202232  -0.00026877  1
  O2-  O265  1  0.83389839  0.07872037  0.25091381  1
  O2-  O266  1  0.83302984  0.08101288  0.49926990  1
  O2-  O267  1  0.83365134  0.08103466  0.74955998  1
  O2-  O268  1  0.83143775  0.41651708  -0.00118183  1
  O2-  O269  1  0.83427012  0.41646273  0.24989447  1
  O2-  O270  1  0.83282735  0.41431314  0.49942893  1
  O2-  O271  1  0.83271238  0.41413525  0.75098490  1
  O2-  O272  1  0.83132822  0.74880207  -0.00004340  1
  O2-  O273  1  0.83382650  0.74910638  0.24878032  1
  O2-  O274  1  0.83246597  0.74504597  0.50109846  1
  O2-  O275  1  0.83417276  0.74575543  0.74984798  1
  O2-  O276  1  0.45761067  0.76938941  0.52745003  1
  O2-  O277  1  0.05049140  0.56614228  0.01298546  1
  O2-  O278  1  0.54434949  0.56951724  0.99044116  1
  O2-  O279  1  0.95388358  0.76375642  0.23795342  1
  O2-  O280  1  0.55495996  0.76164245  0.01686253  1
  O2-  O281  1  0.54884565  0.43017810  0.51379613  1
  O2-  O282  1  0.04619589  0.09837493  0.73676554  1
  O2-  O283  1  0.96439188  0.44049510  0.99597926  1
  O2-  O284  1  0.54339498  0.77379358  0.25499668  1
  O2-  O285  1  0.95991123  0.22480198  0.27483712  1
  O2-  O286  1  0.04105834  0.23271359  -0.00560198  1
  O2-  O287  1  0.04477695  0.90239575  0.47793512  1
  O2-  O288  1  0.44642816  0.76167864  0.26497329  1
  O2-  O289  1  0.46244884  0.78187307  -0.00900591  1
  O2-  O290  1  0.94767747  0.43456712  0.26481009  1
  O2-  O291  1  0.02961782  0.78961613  0.98916107  1
  O2-  O292  1  0.54346157  0.77386238  0.25511102  1
  O2-  O293  1  0.94998014  0.57150973  0.21259535  1
  O2-  O294  1  0.04249219  0.89008621  0.21682584  1
  O2-  O295  1  0.95089841  0.57260699  0.01905954  1
  O2-  O296  1  0.54406476  0.42914225  0.23657691  1
  O2-  O297  1  0.95160767  0.90331055  0.26385255  1
  O2-  O298  1  0.45206336  0.43369985  0.48724515  1
  O2-  O299  1  0.54572349  0.23927303  0.49060223  1
  O2-  O300  1  0.95483353  0.90098512  0.98789714  1
  O2-  O301  1  0.04706247  0.90484001  0.51681903  1
  O2-  O302  1  0.03959551  0.76964522  0.53193122  1
  O2-  O303  1  0.45410219  0.57059513  0.73655613  1
  O2-  O304  1  0.54515332  0.90465127  0.01523488  1
  O2-  O305  1  0.04109173  0.44049002  0.22107517  1
  O2-  O306  1  0.54483781  0.23346165  0.01528647  1
  O2-  O307  1  0.54546391  0.10016525  0.76234809  1
  O2-  O308  1  0.04072330  0.22570600  0.47334994  1
  O2-  O309  1  0.02125043  0.11407446  0.97758565  1
  O2-  O310  1  0.54998730  0.76510602  0.48345937  1
  O2-  O311  1  0.04112251  0.22697295  0.98390607  1
  O2-  O312  1  0.54469734  0.23842747  0.50789157  1
  O2-  O313  1  0.54629370  0.89901160  0.73597504  1
  O2-  O314  1  0.45965587  0.77793990  0.97877777  1
  O2-  O315  1  0.45365699  0.42982966  0.76478444  1
  O2-  O316  1  0.45370739  0.90397027  0.26184321  1
  O2-  O317  1  0.46306906  0.77711161  0.78286804  1
  O2-  O318  1  0.95219010  0.57219490  0.98013109  1
  O2-  O319  1  0.46222565  0.22160007  0.22186020  1
  O2-  O320  1  0.03102416  0.78718090  0.00774054  1
  O2-  O321  1  0.96137625  0.43664213  -0.02023795  1
  O2-  O322  1  0.45513996  0.90440728  0.48991407  1
  O2-  O323  1  0.53901564  0.10295839  0.52726418  1
  O2-  O324  1  0.93721775  0.06933154  0.21665913  1
  O2-  O325  1  0.08318249  0.72302554  0.07097292  1
  O2-  O326  1  0.57392897  0.72154406  0.20091445  1
  O2-  O327  1  0.06806088  0.05794742  0.07612480  1
  O2-  O328  1  0.93305167  0.74069338  0.97037960  1
  O2-  O329  1  0.06655346  0.26086287  0.77752098  1
  O2-  O330  1  0.43578276  0.59298602  0.47635842  1
  O2-  O331  1  0.06360499  0.92915514  0.78368304  1
  O2-  O332  1  0.42507546  0.27225867  0.29660169  1
  O2-  O333  1  0.07079973  0.72052218  0.44495208  1
  O2-  O334  1  0.94396515  0.57847558  0.20617554  1
  O2-  O335  1  0.56159192  0.59183128  0.21684825  1
  O2-  O336  1  0.07108141  0.39119757  0.30472823  1
  O2-  O337  1  0.43570051  0.93174929  0.78227085  1
  O2-  O338  1  0.07189787  0.94654881  0.30699796  1
  O2-  O339  1  0.93341172  0.25776634  0.54561087  1
  O2-  O340  1  0.56177100  0.73594700  0.46929540  1
  O2-  O341  1  0.56409620  0.40591491  0.97284200  1
  O2-  O342  1  0.93502597  0.73854509  0.53267775  1
  O2-  O343  1  0.42754991  0.73420519  0.45728677  1
  O2-  O344  1  0.41470362  0.71080585  0.04969531  1
  O2-  O345  1  0.43576605  0.26209634  0.96745048  1
  O2-  O346  1  0.93065605  0.60953034  0.33075775  1
  O2-  O347  1  0.93725535  0.06896765  0.53110579  1
  O2-  O348  1  0.93784057  0.92296592  0.97229382  1
  O2-  O349  1  0.07159481  0.26855999  0.53979017  1
  O2-  O350  1  0.06477336  0.73553329  0.71634171  1
  O2-  O351  1  0.06362961  0.26124511  0.21614963  1
  O2-  O352  1  0.56432049  0.40212000  0.71632827  1
  O2-  O353  1  0.43469492  0.07339686  0.27718188  1
  O2-  O354  1  0.06269030  0.73610599  0.28330762  1
  O2-  O355  1  0.93610956  0.92708370  0.77624057  1
  O2-  O356  1  0.07408952  0.05078339  0.93246487  1
  O2-  O357  1  0.08324092  0.72398247  0.92883329  1
  O2-  O358  1  0.93731230  0.40392189  0.27698457  1
  O2-  O359  1  0.93268992  0.25607242  0.45311477  1
  O2-  O360  1  0.43638048  0.26315094  0.78256286  1
  O2-  O361  1  0.91766364  0.38661729  0.04892225  1
  O2-  O362  1  0.42718125  0.72032075  0.69082296  1
  O2-  O363  1  0.93890499  0.59446149  0.53333643  1
  O2-  O364  1  0.93276710  0.25844666  0.97099340  1
  O2-  O365  1  0.43443959  0.59195350  0.27594802  1
  O2-  O366  1  0.43632938  0.40853188  0.02687709  1
  O2-  O367  1  0.93634493  0.40794181  0.47327559  1
  O2-  O368  1  0.56886787  0.05930523  0.45292060  1
  O2-  O369  1  0.07655425  0.28541622  0.05193770  1
  O2-  O370  1  0.56447502  0.07269104  0.97325257  1
  O2-  O371  1  0.92750028  0.26842017  0.20647629  1
  O2-  O372  1  0.25013621  0.00482471  0.59925880  1
  O2-  O373  1  0.75009811  0.66052650  0.83133788  1
  O2-  O374  1  0.74972068  0.66147608  0.64702306  1
  O2-  O375  1  0.74998738  0.00197200  0.84153624  1
  O2-  O376  1  0.25014243  -0.00240037  0.10473711  1
  O2-  O377  1  0.74991380  -0.00092450  0.10566279  1
  O2-  O378  1  0.74989809  0.34842633  0.16047475  1
  O2-  O379  1  0.24975935  0.66494837  0.40474504  1
  O2-  O380  1  0.74950415  0.34148471  0.36236957  1
  O2-  O381  1  0.25042782  0.67221094  0.90044187  1
  O2-  O382  1  0.24984118  0.33339955  0.14461646  1
  O2-  O383  1  0.75008087  0.66465506  0.93102495  1
  O2-  O384  1  0.75017167  0.33155892  0.67186945  1
  O2-  O385  1  0.74979571  -0.01409212  0.33288737  1
  O2-  O386  1  0.75005615  0.67013730  0.09211958  1
  O2-  O387  1  0.75007858  0.33142737  0.57951513  1
  O2-  O388  1  0.24995766  0.33205687  0.90888534  1
  O2-  O389  1  0.75006941  0.33211493  0.07471990  1
  O2-  O390  1  0.74998507  -0.00034913  0.65576027  1
  O2-  O391  1  0.74964696  0.65087040  0.40820729  1
  O2-  O392  1  0.74993145  0.66865856  0.32304670  1
  O2-  O393  1  0.24993465  0.33009499  0.40394219  1
  O2-  O394  1  0.75009712  0.34101071  0.89851843  1
  O2-  O395  1  0.75001392  0.02026394  0.41852788  1
  O2-  O396  1  0.25004003  0.83492073  0.60979998  1
  O2-  O397  1  0.75020681  0.16765424  0.83153393  1
  O2-  O398  1  0.25003068  0.16873622  0.83450570  1
  O2-  O399  1  0.75005151  0.49996192  0.09951984  1
  O2-  O400  1  0.74998314  0.16399382  0.65068752  1
  O2-  O401  1  0.74999481  0.82685382  0.65870427  1
  O2-  O402  1  0.25015124  0.16799261  0.64568691  1
  O2-  O403  1  0.75012004  0.16534626  0.09630571  1
  O2-  O404  1  0.74996604  0.50201249  0.41700524  1
  O2-  O405  1  0.75011037  0.16746009  0.41435362  1
  O2-  O406  1  0.25009762  0.17806232  0.12147033  1
  O2-  O407  1  0.75009477  0.82726362  0.31361571  1
  O2-  O408  1  0.25013334  0.49568769  0.86515097  1
  O2-  O409  1  0.25002329  0.82784419  0.08777369  1
  O2-  O410  1  0.25005489  0.17494162  0.37838476  1
  O2-  O411  1  0.74998310  0.50235625  0.57725680  1
  O2-  O412  1  0.25009431  0.16395941  0.91899074  1
  O2-  O413  1  0.75037057  0.16660675  0.33672070  1
  O2-  O414  1  0.25009652  0.49118499  0.60114850  1
  O2-  O415  1  0.74999834  0.83534358  0.39892289  1
  O2-  O416  1  0.74995903  0.49912841  0.33429657  1
  O2-  O417  1  0.74985999  0.50005779  0.18114839  1
  O2-  O418  1  0.75015552  0.16547219  0.91552065  1
  O2-  O419  1  0.74998718  0.49767949  0.66862645  1
  O2-  O420  1  0.47187325  0.33457221  0.62449680  1
  O2-  O421  1  0.03481764  0.65535443  0.86355111  1
  O2-  O422  1  0.52630647  -0.00283984  0.62541377  1
  O2-  O423  1  0.52606768  0.33010755  0.87082318  1
  O2-  O424  1  0.47484842  0.33172840  0.12846046  1
  O2-  O425  1  0.02964341  0.34085149  0.63161164  1
  O2-  O426  1  0.03235705  0.65795111  0.14009473  1
  O2-  O427  1  0.96480967  0.67812210  0.11475145  1
  O2-  O428  1  0.48040148  0.66767186  0.37018975  1
  O2-  O429  1  0.96913162  0.33518243  0.86475115  1
  O2-  O430  1  0.52426740  -0.00495107  0.87141797  1
  O2-  O431  1  0.97156561  0.00241073  0.37768979  1
  O2-  O432  1  0.96918002  0.33979616  0.63314978  1
  O2-  O433  1  0.47299261  0.00224701  0.12274015  1
  O2-  O434  1  0.02951822  0.34266992  0.87755814  1
  O2-  O435  1  0.96032110  0.66476579  0.86632871  1
  O2-  O436  1  0.02724178  -0.00083612  0.62489807  1
  O2-  O437  1  0.97562393  0.00725531  0.87444955  1
  O2-  O438  1  0.97895732  0.33307258  0.12364664  1
  O2-  O439  1  0.98067377  0.33258229  0.37324054  1
  O2-  O440  1  0.47751477  0.33601773  0.37930266  1
  O2-  O441  1  0.47619970  0.65920762  0.12969096  1
  O2-  O442  1  0.52875930  0.66632102  0.87438879  1
  O2-  O443  1  0.47547271  -0.00025522  0.37960826  1
