# generated using pymatgen
data_La7(Ru4O11)2
_symmetry_space_group_name_H-M   'P 1'
_cell_length_a   23.99538459
_cell_length_b   16.83486244
_cell_length_c   15.43182133
_cell_angle_alpha   89.99976521
_cell_angle_beta   89.99688892
_cell_angle_gamma   90.00330942
_symmetry_Int_Tables_number   1
_chemical_formula_structural   La7(Ru4O11)2
_chemical_formula_sum   'La84 Ru96 O264'
_cell_volume   6233.82307284
_cell_formula_units_Z   12
loop_
 _symmetry_equiv_pos_site_id
 _symmetry_equiv_pos_as_xyz
  1  'x, y, z'
loop_
 _atom_type_symbol
 _atom_type_oxidation_number
  La3+  3.0
  Ru4+  4.0
  O2-  -2.0
loop_
 _atom_site_type_symbol
 _atom_site_label
 _atom_site_symmetry_multiplicity
 _atom_site_fract_x
 _atom_site_fract_y
 _atom_site_fract_z
 _atom_site_occupancy
  La3+  La0  1  0.15351293  -0.00489339  0.12416329  1
  La3+  La1  1  0.13878473  0.00327353  0.37424526  1
  La3+  La2  1  0.12992930  0.00438444  0.62826130  1
  La3+  La3  1  0.13517749  0.00097181  0.88196416  1
  La3+  La4  1  0.14319319  0.32450507  0.12819762  1
  La3+  La5  1  0.14721204  0.33433550  0.37798250  1
  La3+  La6  1  0.13462719  0.33630190  0.61875497  1
  La3+  La7  1  0.13706816  0.33250341  0.88112990  1
  La3+  La8  1  0.14499346  0.67044109  0.11768857  1
  La3+  La9  1  0.13441452  0.67635244  0.38014707  1
  La3+  La10  1  0.12913807  0.67155744  0.62395180  1
  La3+  La11  1  0.14692823  0.66948139  0.86747420  1
  La3+  La12  1  0.63814526  -0.00016233  0.12459587  1
  La3+  La13  1  0.64058092  -0.00257526  0.37587781  1
  La3+  La14  1  0.63594805  0.00106142  0.62785339  1
  La3+  La15  1  0.64745251  0.00467842  0.87180162  1
  La3+  La16  1  0.64273141  0.33860833  0.11929743  1
  La3+  La17  1  0.63946739  0.33696108  0.38023796  1
  La3+  La18  1  0.64676620  0.33775578  0.62873721  1
  La3+  La19  1  0.64554488  0.33103646  0.87285643  1
  La3+  La20  1  0.65446001  0.67098849  0.12732958  1
  La3+  La21  1  0.63649472  0.67194082  0.37520920  1
  La3+  La22  1  0.64508097  0.66072387  0.63184665  1
  La3+  La23  1  0.63376719  0.66253129  0.87040914  1
  La3+  La24  1  0.36324564  0.00022239  0.12002617  1
  La3+  La25  1  0.36384425  0.00741988  0.37387077  1
  La3+  La26  1  0.36895047  0.00225581  0.62509377  1
  La3+  La27  1  0.35994583  -0.00066253  0.87667656  1
  La3+  La28  1  0.36074821  0.32569134  0.13060318  1
  La3+  La29  1  0.35772295  0.34014496  0.37430987  1
  La3+  La30  1  0.37044989  0.33615730  0.61997031  1
  La3+  La31  1  0.36233638  0.33510703  0.87130666  1
  La3+  La32  1  0.36863927  0.67009921  0.12009171  1
  La3+  La33  1  0.36638168  0.66490431  0.38077972  1
  La3+  La34  1  0.36330065  0.66322657  0.62950090  1
  La3+  La35  1  0.36275735  0.66407533  0.87715601  1
  La3+  La36  1  0.86178646  0.00337239  0.11886726  1
  La3+  La37  1  0.85861759  0.00102363  0.37734586  1
  La3+  La38  1  0.85450865  -0.00170433  0.62635080  1
  La3+  La39  1  0.85436768  0.00471593  0.87173687  1
  La3+  La40  1  0.85256274  0.33567834  0.11990513  1
  La3+  La41  1  0.86233825  0.33534385  0.37905364  1
  La3+  La42  1  0.85213873  0.33700765  0.62992026  1
  La3+  La43  1  0.84638383  0.33465099  0.86724775  1
  La3+  La44  1  0.84539942  0.67198200  0.12595993  1
  La3+  La45  1  0.86690974  0.67020579  0.37023477  1
  La3+  La46  1  0.85762395  0.66526324  0.63080896  1
  La3+  La47  1  0.86081400  0.66520035  0.87228546  1
  La3+  La48  1  -0.01124696  0.16993981  0.87673849  1
  La3+  La49  1  0.00112719  0.14553498  0.12884371  1
  La3+  La50  1  0.49638622  0.83602599  0.37346291  1
  La3+  La51  1  0.49816787  0.49289076  0.38186932  1
  La3+  La52  1  0.00379490  0.15008811  0.12268253  1
  La3+  La53  1  -0.00846505  0.48985489  0.11857763  1
  La3+  La54  1  0.00522900  0.83452768  0.39113849  1
  La3+  La55  1  0.01378328  0.15640981  0.36701328  1
  La3+  La56  1  0.49229004  0.15811649  0.87907397  1
  La3+  La57  1  0.49403246  0.49455590  0.12965652  1
  La3+  La58  1  0.50035626  0.16733139  0.13178619  1
  La3+  La59  1  -0.00133368  0.49485353  0.62522039  1
  La3+  La60  1  -0.00414485  0.51527497  0.87605372  1
  La3+  La61  1  -0.00548761  0.48215283  0.10481906  1
  La3+  La62  1  0.49634797  0.83845481  0.35693505  1
  La3+  La63  1  0.49967337  0.84087686  0.88149892  1
  La3+  La64  1  0.49370148  0.50245441  0.87510669  1
  La3+  La65  1  -0.00180312  0.17580150  0.86072284  1
  La3+  La66  1  0.49748263  0.49405335  0.63022878  1
  La3+  La67  1  0.50169538  0.15192262  0.63888285  1
  La3+  La68  1  0.49598180  0.49591529  0.11301516  1
  La3+  La69  1  0.01028254  0.48839833  0.38130737  1
  La3+  La70  1  -0.00679846  0.51231749  0.86020858  1
  La3+  La71  1  -0.00466837  0.82284679  0.38062601  1
  La3+  La72  1  0.75011633  0.79551424  -0.03517418  1
  La3+  La73  1  0.25055579  0.55540262  0.26898523  1
  La3+  La74  1  0.74727060  0.55027545  0.25080242  1
  La3+  La75  1  0.25073570  0.47493049  0.02588775  1
  La3+  La76  1  0.25201353  0.13587955  0.75777824  1
  La3+  La77  1  0.25037303  0.84307868  -0.05970197  1
  La3+  La78  1  0.75140367  0.49228659  -0.02035177  1
  La3+  La79  1  0.75021185  0.84282271  0.73926464  1
  La3+  La80  1  0.75052726  0.12475042  0.46701450  1
  La3+  La81  1  0.24912309  0.81695385  0.55810482  1
  La3+  La82  1  0.25759870  0.86063294  0.24286517  1
  La3+  La83  1  0.25035923  0.49779649  0.50160449  1
  Ru4+  Ru84  1  0.00621138  -0.01283405  -0.01445835  1
  Ru4+  Ru85  1  -0.00606963  0.00016980  0.27097885  1
  Ru4+  Ru86  1  0.00476537  0.00212866  0.49940566  1
  Ru4+  Ru87  1  -0.00214534  -0.00090437  0.74301789  1
  Ru4+  Ru88  1  -0.00756364  0.32863861  0.01163519  1
  Ru4+  Ru89  1  -0.00212649  0.33036575  0.24068517  1
  Ru4+  Ru90  1  -0.00299684  0.32495418  0.50768039  1
  Ru4+  Ru91  1  -0.00275418  0.33304375  0.74139924  1
  Ru4+  Ru92  1  0.00451387  0.67640321  -0.00850176  1
  Ru4+  Ru93  1  -0.00834232  0.65670180  0.23479522  1
  Ru4+  Ru94  1  -0.00472860  0.65478004  0.49944658  1
  Ru4+  Ru95  1  0.00057891  0.67921927  0.76581983  1
  Ru4+  Ru96  1  0.50198818  -0.00039697  0.00273016  1
  Ru4+  Ru97  1  0.49840824  0.00136120  0.24376061  1
  Ru4+  Ru98  1  0.49942852  0.00217241  0.50674478  1
  Ru4+  Ru99  1  0.49939215  -0.00687371  0.76158881  1
  Ru4+  Ru100  1  0.50535764  0.32174181  0.00775825  1
  Ru4+  Ru101  1  0.49699358  0.31788860  0.24994773  1
  Ru4+  Ru102  1  0.49881876  0.31701967  0.48703953  1
  Ru4+  Ru103  1  0.50071116  0.32703240  0.74984105  1
  Ru4+  Ru104  1  0.50732611  0.67799004  -0.00351830  1
  Ru4+  Ru105  1  0.49615209  0.66960208  0.24049001  1
  Ru4+  Ru106  1  0.50690363  0.67783063  0.51440874  1
  Ru4+  Ru107  1  0.50249641  0.67285410  0.74781402  1
  Ru4+  Ru108  1  0.11655516  0.16865129  -0.00025334  1
  Ru4+  Ru109  1  0.11815389  0.17061009  0.25263538  1
  Ru4+  Ru110  1  0.11000357  0.17498800  0.49774952  1
  Ru4+  Ru111  1  0.11307047  0.16256132  0.74437046  1
  Ru4+  Ru112  1  0.10921413  0.49903434  -0.00273194  1
  Ru4+  Ru113  1  0.10947704  0.50218027  0.25629368  1
  Ru4+  Ru114  1  0.11270880  0.50332203  0.50135963  1
  Ru4+  Ru115  1  0.11609765  0.50015890  0.74846686  1
  Ru4+  Ru116  1  0.10720247  0.82797908  0.00453124  1
  Ru4+  Ru117  1  0.11313067  0.83102846  0.23699881  1
  Ru4+  Ru118  1  0.11496146  0.84019830  0.50569667  1
  Ru4+  Ru119  1  0.11091491  0.82879525  0.74791388  1
  Ru4+  Ru120  1  0.60820140  0.17250752  -0.00042136  1
  Ru4+  Ru121  1  0.60926540  0.16583606  0.25381510  1
  Ru4+  Ru122  1  0.60827736  0.16577484  0.49832165  1
  Ru4+  Ru123  1  0.61460235  0.16886375  0.74931353  1
  Ru4+  Ru124  1  0.61122052  0.50486829  0.00064692  1
  Ru4+  Ru125  1  0.60735531  0.49474540  0.25032451  1
  Ru4+  Ru126  1  0.61274803  0.49702251  0.49793842  1
  Ru4+  Ru127  1  0.61380056  0.50199417  0.74753656  1
  Ru4+  Ru128  1  0.60660958  0.82923373  0.00026195  1
  Ru4+  Ru129  1  0.61228923  0.83420531  0.24685452  1
  Ru4+  Ru130  1  0.60840278  0.82693055  0.50402940  1
  Ru4+  Ru131  1  0.61041504  0.83131820  0.75321098  1
  Ru4+  Ru132  1  0.38623417  0.16604809  0.00319576  1
  Ru4+  Ru133  1  0.38919287  0.16837473  0.25487657  1
  Ru4+  Ru134  1  0.39431331  0.17420001  0.49906840  1
  Ru4+  Ru135  1  0.39252190  0.16704764  0.74682349  1
  Ru4+  Ru136  1  0.38490663  0.49512492  0.00016050  1
  Ru4+  Ru137  1  0.38339433  0.50387360  0.24696144  1
  Ru4+  Ru138  1  0.38615093  0.50688758  0.49820448  1
  Ru4+  Ru139  1  0.38371834  0.50633860  0.75128898  1
  Ru4+  Ru140  1  0.39094677  0.83146277  -0.00451208  1
  Ru4+  Ru141  1  0.39052638  0.83596970  0.24603619  1
  Ru4+  Ru142  1  0.38741952  0.83167408  0.49673678  1
  Ru4+  Ru143  1  0.38719949  0.83314048  0.75217098  1
  Ru4+  Ru144  1  0.88044788  0.17079963  0.00198935  1
  Ru4+  Ru145  1  0.88630362  0.17248204  0.25203669  1
  Ru4+  Ru146  1  0.89318038  0.17617798  0.50338928  1
  Ru4+  Ru147  1  0.88716396  0.15979905  0.73535842  1
  Ru4+  Ru148  1  0.89393983  0.50038115  -0.00356566  1
  Ru4+  Ru149  1  0.89204909  0.50734690  0.25085976  1
  Ru4+  Ru150  1  0.88929154  0.50201832  0.50141387  1
  Ru4+  Ru151  1  0.88551137  0.49912660  0.74953831  1
  Ru4+  Ru152  1  0.89719184  0.84422321  -0.00710932  1
  Ru4+  Ru153  1  0.88784613  0.83742175  0.24556226  1
  Ru4+  Ru154  1  0.88619227  0.83085243  0.50392785  1
  Ru4+  Ru155  1  0.89392625  0.83694377  0.75426348  1
  Ru4+  Ru156  1  0.74913743  0.90405858  0.49664554  1
  Ru4+  Ru157  1  0.74838189  0.93501418  0.01299326  1
  Ru4+  Ru158  1  0.75043832  0.57678635  0.50905505  1
  Ru4+  Ru159  1  0.25275714  0.99678942  0.22843188  1
  Ru4+  Ru160  1  0.25132307  0.24515561  0.50427060  1
  Ru4+  Ru161  1  0.25009744  0.60983185  -0.02263031  1
  Ru4+  Ru162  1  0.74851689  0.26835061  0.52334214  1
  Ru4+  Ru163  1  0.75025290  0.91592901  0.26063503  1
  Ru4+  Ru164  1  0.25057554  0.68799053  0.49516509  1
  Ru4+  Ru165  1  0.75040284  0.75951117  0.50272873  1
  Ru4+  Ru166  1  0.74884522  0.23330103  0.24370244  1
  Ru4+  Ru167  1  0.75009886  0.08769450  0.24892580  1
  Ru4+  Ru168  1  0.25130491  0.08571499  -0.00428511  1
  Ru4+  Ru169  1  0.25093434  0.96014840  0.49079199  1
  Ru4+  Ru170  1  0.24923709  0.39860917  0.25020455  1
  Ru4+  Ru171  1  0.75059877  0.40062868  0.21839861  1
  Ru4+  Ru172  1  0.25041450  0.71725489  0.26320232  1
  Ru4+  Ru173  1  0.25056087  0.32273994  0.00733851  1
  Ru4+  Ru174  1  0.25027072  0.10325492  0.48705452  1
  Ru4+  Ru175  1  0.24899238  0.28312437  0.75380027  1
  Ru4+  Ru176  1  0.74878776  0.24476063  0.00267575  1
  Ru4+  Ru177  1  0.25059546  0.42308172  0.73949482  1
  Ru4+  Ru178  1  0.25225634  0.12767722  0.24997792  1
  Ru4+  Ru179  1  0.24853314  0.92128167  0.75342797  1
  O2-  O180  1  0.17167178  0.08693477  -0.00394178  1
  O2-  O181  1  0.17237101  0.08427651  0.25536262  1
  O2-  O182  1  0.16650895  0.08635810  0.50258119  1
  O2-  O183  1  0.16890460  0.07613110  0.75071217  1
  O2-  O184  1  0.16929026  0.40602533  -0.00361424  1
  O2-  O185  1  0.16299039  0.41505110  0.25047487  1
  O2-  O186  1  0.16922330  0.41453792  0.50279602  1
  O2-  O187  1  0.16585404  0.41219469  0.74896447  1
  O2-  O188  1  0.16729793  0.75313237  -0.00751411  1
  O2-  O189  1  0.16867401  0.74538607  0.25238994  1
  O2-  O190  1  0.16920095  0.74397310  0.50805673  1
  O2-  O191  1  0.16311863  0.74887323  0.74158344  1
  O2-  O192  1  0.65842872  0.08461429  0.00277960  1
  O2-  O193  1  0.66446407  0.08063794  0.25428262  1
  O2-  O194  1  0.66275597  0.07611576  0.50244566  1
  O2-  O195  1  0.66190082  0.07817941  0.74306037  1
  O2-  O196  1  0.66825197  0.41702795  -0.00615821  1
  O2-  O197  1  0.66709121  0.41573474  0.25103346  1
  O2-  O198  1  0.66440133  0.41792144  0.50072502  1
  O2-  O199  1  0.66372305  0.41690303  0.74833407  1
  O2-  O200  1  0.66415047  0.74625179  -0.00532679  1
  O2-  O201  1  0.66251163  0.74950306  0.25715724  1
  O2-  O202  1  0.66869395  0.74833223  0.49933951  1
  O2-  O203  1  0.66842356  0.74877552  0.75343972  1
  O2-  O204  1  0.33323621  0.25523091  -0.00158901  1
  O2-  O205  1  0.33243972  0.24844460  0.24883823  1
  O2-  O206  1  0.33160939  0.25245280  0.50803504  1
  O2-  O207  1  0.32968427  0.25554571  0.74946261  1
  O2-  O208  1  0.33461900  0.58835112  -0.00025361  1
  O2-  O209  1  0.34095736  0.59661302  0.24786185  1
  O2-  O210  1  0.32931548  0.59090701  0.50400856  1
  O2-  O211  1  0.33617014  0.58891887  0.74302467  1
  O2-  O212  1  0.34016352  0.91893129  -0.00095726  1
  O2-  O213  1  0.33928780  0.92899512  0.25461215  1
  O2-  O214  1  0.33522506  0.92664013  0.50563962  1
  O2-  O215  1  0.33129396  0.92466812  0.74625678  1
  O2-  O216  1  0.83092374  0.25423496  -0.00046688  1
  O2-  O217  1  0.83294612  0.25215900  0.25050924  1
  O2-  O218  1  0.82727632  0.24867482  0.49174809  1
  O2-  O219  1  0.83702616  0.24701217  0.74693928  1
  O2-  O220  1  0.83172255  0.58712509  -0.00660699  1
  O2-  O221  1  0.83484577  0.58914612  0.26619692  1
  O2-  O222  1  0.83384060  0.58804051  0.49731944  1
  O2-  O223  1  0.83251122  0.58857450  0.74887283  1
  O2-  O224  1  0.83093943  0.92137384  -0.00261500  1
  O2-  O225  1  0.83155995  0.92060288  0.24995409  1
  O2-  O226  1  0.82992878  0.91879060  0.50219571  1
  O2-  O227  1  0.83034986  0.91366168  0.74356975  1
  O2-  O228  1  0.17024626  0.25398256  0.00031365  1
  O2-  O229  1  0.16852865  0.25200146  0.25512448  1
  O2-  O230  1  0.16974660  0.25342787  0.50215356  1
  O2-  O231  1  0.16840515  0.25432832  0.75122219  1
  O2-  O232  1  0.16393054  0.58618785  -0.00370710  1
  O2-  O233  1  0.16040997  0.59156118  0.24075457  1
  O2-  O234  1  0.16543664  0.58931883  0.50318490  1
  O2-  O235  1  0.16212776  0.58782120  0.74044186  1
  O2-  O236  1  0.16225718  0.91211661  -0.01053516  1
  O2-  O237  1  0.17090381  0.91634190  0.26273142  1
  O2-  O238  1  0.16678183  0.92728033  0.50358607  1
  O2-  O239  1  0.16233749  0.92126411  0.75043248  1
  O2-  O240  1  0.66779167  0.25198597  -0.00205927  1
  O2-  O241  1  0.66577758  0.24936406  0.25136383  1
  O2-  O242  1  0.66572890  0.25144018  0.49851785  1
  O2-  O243  1  0.66354928  0.25147588  0.74587119  1
  O2-  O244  1  0.66658902  0.58702356  -0.00717319  1
  O2-  O245  1  0.65674787  0.59076272  0.25677719  1
  O2-  O246  1  0.66533009  0.58610350  0.49659707  1
  O2-  O247  1  0.66993851  0.58472590  0.75919550  1
  O2-  O248  1  0.66496633  0.91914290  0.00036889  1
  O2-  O249  1  0.66802271  0.91997672  0.25543325  1
  O2-  O250  1  0.66500761  0.91499361  0.50583910  1
  O2-  O251  1  0.67116014  0.91764407  0.73917855  1
  O2-  O252  1  0.33301324  0.08192430  -0.00014530  1
  O2-  O253  1  0.33187876  0.08580376  0.24752568  1
  O2-  O254  1  0.33539005  0.08607803  0.49867508  1
  O2-  O255  1  0.33999492  0.07762278  0.74828151  1
  O2-  O256  1  0.33416246  0.40664493  0.00057008  1
  O2-  O257  1  0.33374617  0.41387976  0.24826439  1
  O2-  O258  1  0.33367846  0.41693119  0.50782212  1
  O2-  O259  1  0.33548398  0.41550227  0.74481722  1
  O2-  O260  1  0.33498150  0.75004330  -0.00194570  1
  O2-  O261  1  0.33366501  0.74389648  0.25218785  1
  O2-  O262  1  0.33099215  0.74398999  0.50398361  1
  O2-  O263  1  0.34170840  0.74706529  0.74411250  1
  O2-  O264  1  0.83233184  0.08625535  0.00124209  1
  O2-  O265  1  0.83234326  0.08091594  0.25330806  1
  O2-  O266  1  0.84117331  0.08282111  0.50418954  1
  O2-  O267  1  0.82992305  0.08449988  0.74786471  1
  O2-  O268  1  0.83481622  0.41716059  -0.00182085  1
  O2-  O269  1  0.83554841  0.41821609  0.24997789  1
  O2-  O270  1  0.84153335  0.41738901  0.49643419  1
  O2-  O271  1  0.83352594  0.41892644  0.74843645  1
  O2-  O272  1  0.83995570  0.75182897  -0.00484469  1
  O2-  O273  1  0.83476009  0.74931016  0.25802249  1
  O2-  O274  1  0.83312020  0.74685618  0.50041927  1
  O2-  O275  1  0.83147286  0.75098095  0.74731479  1
  O2-  O276  1  0.54221212  0.89683223  0.00450028  1
  O2-  O277  1  0.05153025  0.75804194  0.73124946  1
  O2-  O278  1  0.45160478  0.23234878  0.00827385  1
  O2-  O279  1  0.96395714  0.20424061  0.46387410  1
  O2-  O280  1  0.94816981  0.57859852  0.75036031  1
  O2-  O281  1  0.04619848  0.42757160  0.51078155  1
  O2-  O282  1  0.04067372  0.12036773  0.98942723  1
  O2-  O283  1  0.94761222  0.86745594  0.19064938  1
  O2-  O284  1  0.04705930  0.56943781  0.75231828  1
  O2-  O285  1  0.54254354  0.10276754  0.99646127  1
  O2-  O286  1  0.54836650  0.24099140  0.74000643  1
  O2-  O287  1  0.95022986  0.10390505  0.26135232  1
  O2-  O288  1  0.94479296  0.25066271  0.74054876  1
  O2-  O289  1  0.45377036  0.42518995  0.00303280  1
  O2-  O290  1  0.03908716  0.11105089  -0.01336917  1
  O2-  O291  1  0.45849352  0.23825255  0.56192628  1
  O2-  O292  1  0.94628745  0.09205216  0.00623445  1
  O2-  O293  1  0.45385442  0.56763856  0.99559719  1
  O2-  O294  1  0.54493640  0.76380980  0.24563977  1
  O2-  O295  1  0.55444412  0.24324657  0.48392460  1
  O2-  O296  1  0.45475299  0.57278995  0.75664614  1
  O2-  O297  1  0.44340754  0.08450237  0.50419585  1
  O2-  O298  1  0.95266657  0.57048762  0.31138207  1
  O2-  O299  1  0.05406875  0.23478668  0.74627474  1
  O2-  O300  1  0.45753514  0.42434568  0.49845989  1
  O2-  O301  1  0.54608292  0.23045139  0.26426810  1
  O2-  O302  1  0.05513581  0.75366520  0.48522775  1
  O2-  O303  1  0.95896531  0.43429483  0.24286488  1
  O2-  O304  1  0.55126048  0.75005083  0.44345821  1
  O2-  O305  1  0.55044963  0.90860223  0.50979472  1
  O2-  O306  1  0.94184903  0.74467755  0.25631619  1
  O2-  O307  1  0.04359289  0.56135622  0.19974046  1
  O2-  O308  1  0.97454768  0.11727672  0.74266611  1
  O2-  O309  1  0.94948623  0.90519683  0.50512033  1
  O2-  O310  1  0.54642715  0.42738717  0.75860480  1
  O2-  O311  1  0.03613940  0.89979972  0.24381285  1
  O2-  O312  1  0.04273151  0.76807541  0.51560064  1
  O2-  O313  1  0.55368478  0.08402603  0.52165612  1
  O2-  O314  1  0.94683999  0.75830947  0.75881278  1
  O2-  O315  1  0.54349258  0.57008112  0.26447217  1
  O2-  O316  1  0.55182055  0.24876065  0.93462629  1
  O2-  O317  1  0.44549211  0.42800048  0.75799245  1
  O2-  O318  1  0.45300492  0.43882175  0.25365564  1
  O2-  O319  1  0.05931760  0.25919502  0.97120872  1
  O2-  O320  1  0.03545322  0.76828526  0.23496466  1
  O2-  O321  1  0.95122938  0.22776398  0.04324586  1
  O2-  O322  1  0.44790240  0.90786615  0.47971870  1
  O2-  O323  1  0.04986683  0.42256768  0.94699475  1
  O2-  O324  1  0.91666061  0.27017974  0.55548417  1
  O2-  O325  1  0.56080577  0.26293513  0.93357291  1
  O2-  O326  1  0.06210428  0.08208228  0.22395075  1
  O2-  O327  1  0.44020273  0.74465851  0.45783038  1
  O2-  O328  1  0.43765663  0.91499002  0.77410344  1
  O2-  O329  1  0.43714476  0.26005251  0.72074048  1
  O2-  O330  1  0.08018215  0.57894188  0.33553301  1
  O2-  O331  1  0.93217697  0.29013353  0.92022522  1
  O2-  O332  1  0.08831613  0.01016081  0.03516514  1
  O2-  O333  1  0.06243051  0.08246333  0.48117695  1
  O2-  O334  1  0.44231026  0.40787314  0.26505320  1
  O2-  O335  1  0.05586783  0.41498526  0.51530621  1
  O2-  O336  1  0.44174097  0.59126482  0.97260041  1
  O2-  O337  1  0.56369166  0.92838608  0.23621383  1
  O2-  O338  1  0.57829086  0.23667727  0.09632988  1
  O2-  O339  1  0.44079803  0.92206583  0.21612193  1
  O2-  O340  1  0.43862474  0.40251866  0.78383878  1
  O2-  O341  1  0.56183500  0.71765382  0.59519140  1
  O2-  O342  1  0.06800185  0.06763396  0.72578709  1
  O2-  O343  1  0.55909222  0.40636437  0.46950546  1
  O2-  O344  1  0.93930338  0.92986708  0.92851973  1
  O2-  O345  1  0.92175948  0.04071628  0.69229729  1
  O2-  O346  1  0.43540412  0.41488211  0.48219930  1
  O2-  O347  1  0.44518064  0.59165472  0.46716374  1
  O2-  O348  1  0.44143214  0.74324739  0.95895904  1
  O2-  O349  1  0.06350863  0.74026759  0.03212328  1
  O2-  O350  1  0.43639232  0.07140933  0.03788046  1
  O2-  O351  1  0.05259523  0.41607136  0.93875937  1
  O2-  O352  1  0.08474634  0.43920991  0.09967448  1
  O2-  O353  1  0.44178485  0.58161507  0.22235069  1
  O2-  O354  1  0.06896111  0.26051017  0.41978445  1
  O2-  O355  1  0.43475729  0.25474807  0.27494682  1
  O2-  O356  1  0.55788604  0.41727866  0.02093619  1
  O2-  O357  1  0.07641022  0.71368849  0.21106198  1
  O2-  O358  1  0.92975196  0.90751453  0.06823403  1
  O2-  O359  1  0.93563740  0.07346871  0.03508339  1
  O2-  O360  1  0.93974198  0.92396248  0.77525316  1
  O2-  O361  1  0.56214804  0.91623924  0.76357518  1
  O2-  O362  1  0.56066877  0.59084220  0.71152641  1
  O2-  O363  1  0.92199892  0.59613756  0.17957424  1
  O2-  O364  1  0.08569642  0.93813492  0.21581899  1
  O2-  O365  1  0.07016091  0.23494692  0.57126808  1
  O2-  O366  1  0.55640958  0.74766822  0.43724694  1
  O2-  O367  1  0.92795202  0.93384099  0.31021640  1
  O2-  O368  1  0.43732603  0.74628459  0.23018142  1
  O2-  O369  1  0.42050406  0.26441025  0.43850452  1
  O2-  O370  1  0.05459747  0.24557026  0.24118052  1
  O2-  O371  1  0.43998727  0.07402894  0.28177217  1
  O2-  O372  1  0.25274323  0.00264317  0.36351298  1
  O2-  O373  1  0.25115058  0.64975168  0.15650386  1
  O2-  O374  1  0.25040181  -0.00084169  0.89792199  1
  O2-  O375  1  0.74734149  0.34247733  0.61532209  1
  O2-  O376  1  0.25065091  0.33359537  0.42806097  1
  O2-  O377  1  0.74936986  -0.00270767  0.15898934  1
  O2-  O378  1  0.25426532  0.00076385  0.09731593  1
  O2-  O379  1  0.74771783  0.33082017  0.83614137  1
  O2-  O380  1  0.74945585  0.34302081  0.92648788  1
  O2-  O381  1  0.25156975  0.70199296  0.90023327  1
  O2-  O382  1  0.25074423  0.31673770  0.33676939  1
  O2-  O383  1  0.74938917  0.34836239  0.44453161  1
  O2-  O384  1  0.25074629  0.66456978  0.81870662  1
  O2-  O385  1  0.25019613  0.64695968  0.37828352  1
  O2-  O386  1  0.75198954  0.67447589  0.59358471  1
  O2-  O387  1  0.74889287  0.32807927  0.10056901  1
  O2-  O388  1  0.75002543  0.32540082  0.31233729  1
  O2-  O389  1  0.25107046  0.33377855  0.87766726  1
  O2-  O390  1  0.24938383  0.33016984  0.13682866  1
  O2-  O391  1  0.74743000  0.65657418  0.14733266  1
  O2-  O392  1  0.74988854  0.01051014  0.92063128  1
  O2-  O393  1  0.74806993  -0.00235171  0.39113513  1
  O2-  O394  1  0.74992556  -0.01736407  0.83291792  1
  O2-  O395  1  0.24889719  0.68107922  0.07122006  1
  O2-  O396  1  0.75000759  0.83188176  0.39830219  1
  O2-  O397  1  0.25021701  0.16038983  0.36553185  1
  O2-  O398  1  0.25279040  0.86956894  0.42946743  1
  O2-  O399  1  0.25032312  0.83476320  0.68552230  1
  O2-  O400  1  0.24965456  0.51501290  0.88971039  1
  O2-  O401  1  0.25188479  0.85535594  0.07031404  1
  O2-  O402  1  0.24992436  0.82745084  0.81126536  1
  O2-  O403  1  0.24942543  0.48769330  0.64239882  1
  O2-  O404  1  0.74947091  0.83188430  0.18523992  1
  O2-  O405  1  0.74918072  0.17477234  0.59954103  1
  O2-  O406  1  0.74974800  0.16357491  0.14851042  1
  O2-  O407  1  0.75030207  0.84579198  0.09741309  1
  O2-  O408  1  0.24875236  0.47638399  0.16079316  1
  O2-  O409  1  0.24659944  0.78240024  0.35747110  1
  O2-  O410  1  0.24996734  0.51283780  0.80074658  1
  O2-  O411  1  0.75053294  0.16374700  0.92183093  1
  O2-  O412  1  0.75025304  0.50484465  0.58565450  1
  O2-  O413  1  0.25017132  0.16241968  0.60008770  1
  O2-  O414  1  0.74961659  0.48587114  0.12299537  1
  O2-  O415  1  0.24953506  0.16118080  0.14088981  1
  O2-  O416  1  0.24220200  0.79499031  0.12884186  1
  O2-  O417  1  0.24904889  0.45963417  0.36306840  1
  O2-  O418  1  0.75011194  0.17131998  0.83775430  1
  O2-  O419  1  0.25150284  0.15968972  0.90823659  1
  O2-  O420  1  0.01434117  0.67863997  0.37646909  1
  O2-  O421  1  0.97282963  0.34411662  0.37674221  1
  O2-  O422  1  0.02976344  -0.00117626  0.86466687  1
  O2-  O423  1  0.01970894  -0.01136675  0.61746213  1
  O2-  O424  1  0.04790664  0.66095339  0.87880075  1
  O2-  O425  1  0.01479249  -0.00479518  0.11032342  1
  O2-  O426  1  0.45416034  0.00875068  0.89130992  1
  O2-  O427  1  0.03658139  0.32165185  0.12270186  1
  O2-  O428  1  0.53232313  0.66880171  0.87424291  1
  O2-  O429  1  0.95443871  0.37460524  0.62480090  1
  O2-  O430  1  0.95494649  0.03300179  0.40884602  1
  O2-  O431  1  0.49185358  0.34691006  0.37000833  1
  O2-  O432  1  0.54853577  0.36745842  0.16980950  1
  O2-  O433  1  0.94498141  0.34392550  0.12865853  1
  O2-  O434  1  0.96340469  0.01566235  0.15642009  1
  O2-  O435  1  0.54530179  0.00600788  0.87295023  1
  O2-  O436  1  0.45672743  0.33762387  0.13220632  1
  O2-  O437  1  0.48121865  0.65976730  0.10904076  1
  O2-  O438  1  0.47304991  0.00032127  0.63768899  1
  O2-  O439  1  0.95189942  0.65514623  0.89279090  1
  O2-  O440  1  0.04439084  -0.02096513  0.37413175  1
  O2-  O441  1  0.98197051  0.66781255  0.10526216  1
  O2-  O442  1  0.04445480  0.34267839  0.65583244  1
  O2-  O443  1  0.52568540  0.01433241  0.12283906  1
