# generated using pymatgen
data_La7(Ru4O11)2
_symmetry_space_group_name_H-M   'P 1'
_cell_length_a   23.98855639
_cell_length_b   16.82789167
_cell_length_c   15.42481992
_cell_angle_alpha   89.99981682
_cell_angle_beta   90.00010879
_cell_angle_gamma   90.00021539
_symmetry_Int_Tables_number   1
_chemical_formula_structural   La7(Ru4O11)2
_chemical_formula_sum   'La84 Ru96 O264'
_cell_volume   6226.64238127
_cell_formula_units_Z   12
loop_
 _symmetry_equiv_pos_site_id
 _symmetry_equiv_pos_as_xyz
  1  'x, y, z'
loop_
 _atom_type_symbol
 _atom_type_oxidation_number
  La3+  3.0
  Ru4+  4.0
  O2-  -2.0
loop_
 _atom_site_type_symbol
 _atom_site_label
 _atom_site_symmetry_multiplicity
 _atom_site_fract_x
 _atom_site_fract_y
 _atom_site_fract_z
 _atom_site_occupancy
  La3+  La0  1  0.13856996  -0.00007840  0.12529098  1
  La3+  La1  1  0.13822282  0.00021551  0.37448045  1
  La3+  La2  1  0.13772320  0.00014204  0.62462908  1
  La3+  La3  1  0.13776054  -0.00009810  0.87565259  1
  La3+  La4  1  0.13858165  0.33274603  0.12524413  1
  La3+  La5  1  0.13894404  0.33299747  0.37532136  1
  La3+  La6  1  0.13857596  0.33345459  0.62512068  1
  La3+  La7  1  0.13845806  0.33312810  0.87425844  1
  La3+  La8  1  0.13839859  0.66667497  0.12395094  1
  La3+  La9  1  0.13820591  0.66668315  0.37601305  1
  La3+  La10  1  0.13798263  0.66679717  0.62389115  1
  La3+  La11  1  0.13829296  0.66648380  0.87572470  1
  La3+  La12  1  0.63765415  0.00041178  0.12543451  1
  La3+  La13  1  0.63788293  0.00065581  0.37469666  1
  La3+  La14  1  0.63856830  0.00029165  0.62494684  1
  La3+  La15  1  0.63863860  0.00028309  0.87495282  1
  La3+  La16  1  0.63809980  0.33370702  0.12578745  1
  La3+  La17  1  0.63860067  0.33363834  0.37496557  1
  La3+  La18  1  0.63825898  0.33380942  0.62536289  1
  La3+  La19  1  0.63746800  0.33360840  0.87408465  1
  La3+  La20  1  0.63855578  0.66628709  0.12502941  1
  La3+  La21  1  0.63846321  0.66617634  0.37546098  1
  La3+  La22  1  0.63866847  0.66669574  0.62450106  1
  La3+  La23  1  0.63849768  0.66679542  0.87491608  1
  La3+  La24  1  0.36114942  -0.00008418  0.12485727  1
  La3+  La25  1  0.36163714  0.00003705  0.37498348  1
  La3+  La26  1  0.36254153  -0.00042097  0.62541428  1
  La3+  La27  1  0.36275935  -0.00024404  0.87480739  1
  La3+  La28  1  0.36174570  0.33269635  0.12570959  1
  La3+  La29  1  0.36117991  0.33289264  0.37506166  1
  La3+  La30  1  0.36127634  0.33324253  0.62499040  1
  La3+  La31  1  0.36159399  0.33317370  0.87439674  1
  La3+  La32  1  0.36156396  0.66666874  0.12451184  1
  La3+  La33  1  0.36177257  0.66672036  0.37533226  1
  La3+  La34  1  0.36158141  0.66674229  0.62465599  1
  La3+  La35  1  0.36178597  0.66670517  0.87528325  1
  La3+  La36  1  0.86189567  0.00021596  0.12465980  1
  La3+  La37  1  0.86206455  0.00057612  0.37576204  1
  La3+  La38  1  0.86178571  0.00070092  0.62501257  1
  La3+  La39  1  0.86176363  0.00065540  0.87435758  1
  La3+  La40  1  0.86191821  0.33336966  0.12581732  1
  La3+  La41  1  0.86131001  0.33345459  0.37457336  1
  La3+  La42  1  0.86117078  0.33330240  0.62520271  1
  La3+  La43  1  0.86184736  0.33288224  0.87397477  1
  La3+  La44  1  0.86120354  0.66645326  0.12473906  1
  La3+  La45  1  0.86138434  0.66639117  0.37546004  1
  La3+  La46  1  0.86149547  0.66677504  0.62485041  1
  La3+  La47  1  0.86161482  0.66672614  0.87495918  1
  La3+  La48  1  0.49995620  0.16643138  0.63709623  1
  La3+  La49  1  0.00013903  0.83385747  0.88505210  1
  La3+  La50  1  0.50088716  0.83352200  0.88567747  1
  La3+  La51  1  0.00000398  0.16680292  0.86447948  1
  La3+  La52  1  0.50031058  0.49968819  0.63632377  1
  La3+  La53  1  0.00005929  0.49994270  0.86391988  1
  La3+  La54  1  0.49937145  0.16594434  0.61472508  1
  La3+  La55  1  0.49974925  0.16697763  0.36423481  1
  La3+  La56  1  -0.00008722  0.16540556  0.61542101  1
  La3+  La57  1  0.50000711  0.16677956  0.11531515  1
  La3+  La58  1  0.50002410  0.50024645  0.13498123  1
  La3+  La59  1  0.00134237  0.16515853  0.38489701  1
  La3+  La60  1  0.50004116  0.83348385  0.38552746  1
  La3+  La61  1  -0.00002518  0.50055915  0.88674793  1
  La3+  La62  1  0.00026813  0.83299870  0.38608230  1
  La3+  La63  1  -0.00069182  0.16644336  0.36278866  1
  La3+  La64  1  0.49957633  0.16606797  0.88453857  1
  La3+  La65  1  -0.00011944  0.16670167  0.11520512  1
  La3+  La66  1  -0.00000742  0.83345631  0.13556294  1
  La3+  La67  1  -0.00126570  0.16548419  0.88144282  1
  La3+  La68  1  0.50066495  0.83249117  0.86244316  1
  La3+  La69  1  0.50016611  0.83348705  0.11515275  1
  La3+  La70  1  0.50024351  0.49968651  0.38509009  1
  La3+  La71  1  0.50031989  0.49881521  0.88283645  1
  La3+  La72  1  0.74997769  0.83139818  0.25010089  1
  La3+  La73  1  0.24998575  0.85640872  0.23430774  1
  La3+  La74  1  0.25003447  0.49986047  0.50046138  1
  La3+  La75  1  0.75004455  0.16648953  0.48239265  1
  La3+  La76  1  0.24997933  0.83168027  0.73836695  1
  La3+  La77  1  0.24993851  0.83330863  0.48733535  1
  La3+  La78  1  0.25000567  0.19233752  0.77022565  1
  La3+  La79  1  0.75007329  0.14073938  -0.00065859  1
  La3+  La80  1  0.24994124  0.52422559  -0.00023132  1
  La3+  La81  1  0.24999194  0.16710961  0.26827007  1
  La3+  La82  1  0.75003706  0.52488827  0.02182416  1
  La3+  La83  1  0.74999098  0.81094656  0.75028624  1
  Ru4+  Ru84  1  -0.00070577  -0.00122850  0.00110748  1
  Ru4+  Ru85  1  -0.00033768  -0.00075876  0.24990387  1
  Ru4+  Ru86  1  0.00041708  -0.00086003  0.50075559  1
  Ru4+  Ru87  1  0.00010738  -0.00170790  0.74840251  1
  Ru4+  Ru88  1  0.00057462  0.33034115  0.00124364  1
  Ru4+  Ru89  1  -0.00060627  0.33283828  0.24925462  1
  Ru4+  Ru90  1  0.00111197  0.33417795  0.49993179  1
  Ru4+  Ru91  1  0.00027816  0.33308576  0.74952310  1
  Ru4+  Ru92  1  0.00014818  0.66691052  0.00133922  1
  Ru4+  Ru93  1  -0.00043450  0.66716421  0.24957120  1
  Ru4+  Ru94  1  0.00021080  0.66686417  0.50029679  1
  Ru4+  Ru95  1  -0.00066387  0.66639108  0.74902355  1
  Ru4+  Ru96  1  0.49970213  -0.00033406  0.00028607  1
  Ru4+  Ru97  1  0.49994513  -0.00095655  0.24905532  1
  Ru4+  Ru98  1  0.49991516  -0.00031083  0.49911395  1
  Ru4+  Ru99  1  0.50102284  0.00050825  0.75108120  1
  Ru4+  Ru100  1  0.50011566  0.33098549  0.00099262  1
  Ru4+  Ru101  1  0.49949184  0.33348605  0.24979037  1
  Ru4+  Ru102  1  0.50010658  0.33249702  0.49874261  1
  Ru4+  Ru103  1  0.49947929  0.33265006  0.75065984  1
  Ru4+  Ru104  1  0.50049365  0.66821792  -0.00031631  1
  Ru4+  Ru105  1  0.50002358  0.66666320  0.25002311  1
  Ru4+  Ru106  1  0.50074654  0.66785659  0.49915391  1
  Ru4+  Ru107  1  0.49929197  0.66705695  0.75127553  1
  Ru4+  Ru108  1  0.11365508  0.16730362  0.00017473  1
  Ru4+  Ru109  1  0.11280541  0.16696029  0.24983073  1
  Ru4+  Ru110  1  0.11309923  0.16704210  0.50008035  1
  Ru4+  Ru111  1  0.11265501  0.16749725  0.74990930  1
  Ru4+  Ru112  1  0.11302110  0.50132406  -0.00002448  1
  Ru4+  Ru113  1  0.11351296  0.50037437  0.24985848  1
  Ru4+  Ru114  1  0.11270117  0.49991081  0.49999826  1
  Ru4+  Ru115  1  0.11321793  0.49917776  0.74969163  1
  Ru4+  Ru116  1  0.11308064  0.83357529  -0.00005544  1
  Ru4+  Ru117  1  0.11285217  0.83454529  0.24977380  1
  Ru4+  Ru118  1  0.11270683  0.83358570  0.49997312  1
  Ru4+  Ru119  1  0.11281611  0.83383082  0.75001504  1
  Ru4+  Ru120  1  0.61275352  0.16649885  0.00007292  1
  Ru4+  Ru121  1  0.61352317  0.16716882  0.24950703  1
  Ru4+  Ru122  1  0.61273872  0.16651186  0.49980718  1
  Ru4+  Ru123  1  0.61285276  0.16621815  0.75003739  1
  Ru4+  Ru124  1  0.61354163  0.50041397  -0.00002809  1
  Ru4+  Ru125  1  0.61323035  0.50012379  0.24995332  1
  Ru4+  Ru126  1  0.61292421  0.50036723  0.49990071  1
  Ru4+  Ru127  1  0.61372069  0.49997136  0.75002545  1
  Ru4+  Ru128  1  0.61276788  0.83340237  -0.00001212  1
  Ru4+  Ru129  1  0.61219653  0.83354727  0.24987710  1
  Ru4+  Ru130  1  0.61265736  0.83297056  0.50015083  1
  Ru4+  Ru131  1  0.61247460  0.83321533  0.74990511  1
  Ru4+  Ru132  1  0.38717828  0.16691286  -0.00005093  1
  Ru4+  Ru133  1  0.38747182  0.16709787  0.24982278  1
  Ru4+  Ru134  1  0.38708760  0.16728832  0.49994877  1
  Ru4+  Ru135  1  0.38704405  0.16782397  0.75002702  1
  Ru4+  Ru136  1  0.38648381  0.50075215  0.00001963  1
  Ru4+  Ru137  1  0.38738269  0.50003316  0.24999395  1
  Ru4+  Ru138  1  0.38659435  0.50008459  0.49997468  1
  Ru4+  Ru139  1  0.38698631  0.49952932  0.74990226  1
  Ru4+  Ru140  1  0.38640226  0.83343764  0.00015643  1
  Ru4+  Ru141  1  0.38765253  0.83334043  0.24992655  1
  Ru4+  Ru142  1  0.38770504  0.83324457  0.49996089  1
  Ru4+  Ru143  1  0.38670752  0.83272311  0.75007314  1
  Ru4+  Ru144  1  0.88777228  0.16641687  0.00018978  1
  Ru4+  Ru145  1  0.88714551  0.16653440  0.24999584  1
  Ru4+  Ru146  1  0.88602522  0.16669752  0.50047943  1
  Ru4+  Ru147  1  0.88644575  0.16677365  0.75011949  1
  Ru4+  Ru148  1  0.88657075  0.50189787  0.00012697  1
  Ru4+  Ru149  1  0.88625710  0.49937981  0.25006149  1
  Ru4+  Ru150  1  0.88624995  0.50024580  0.49996546  1
  Ru4+  Ru151  1  0.88720048  0.50024670  0.74992190  1
  Ru4+  Ru152  1  0.88737845  0.83367773  -0.00006471  1
  Ru4+  Ru153  1  0.88791155  0.83332857  0.24996731  1
  Ru4+  Ru154  1  0.88714196  0.83289544  0.49991562  1
  Ru4+  Ru155  1  0.88776769  0.83321922  0.75003458  1
  Ru4+  Ru156  1  0.24998594  0.73322111  0.25324366  1
  Ru4+  Ru157  1  0.74992983  0.24660423  0.75071080  1
  Ru4+  Ru158  1  0.75005860  0.08730723  0.25043710  1
  Ru4+  Ru159  1  0.25003530  0.08487405  0.00095136  1
  Ru4+  Ru160  1  0.75012530  0.24686695  0.25027423  1
  Ru4+  Ru161  1  0.25000302  0.57995410  0.75190393  1
  Ru4+  Ru162  1  0.24995556  0.73212045  0.75361983  1
  Ru4+  Ru163  1  0.75004086  0.91504786  0.50063581  1
  Ru4+  Ru164  1  0.75009438  0.26542313  0.00184422  1
  Ru4+  Ru165  1  0.75004174  0.75196229  0.00012993  1
  Ru4+  Ru166  1  0.24998799  0.40022157  -0.00033332  1
  Ru4+  Ru167  1  0.75004020  0.93553727  0.74891388  1
  Ru4+  Ru168  1  0.74992371  0.41905411  0.49975744  1
  Ru4+  Ru169  1  0.75004164  0.58193063  0.74913020  1
  Ru4+  Ru170  1  0.25002776  0.58139619  0.24982033  1
  Ru4+  Ru171  1  0.74990743  0.91414267  -0.00062004  1
  Ru4+  Ru172  1  0.25006776  0.41749245  0.25045272  1
  Ru4+  Ru173  1  0.74999888  0.41854321  0.74849909  1
  Ru4+  Ru174  1  0.75005651  0.40296377  0.00146765  1
  Ru4+  Ru175  1  0.74998514  0.93806684  0.25423827  1
  Ru4+  Ru176  1  0.24994894  0.93185384  0.74828250  1
  Ru4+  Ru177  1  0.25001920  0.08604283  0.49876137  1
  Ru4+  Ru178  1  0.25007042  0.06940796  0.74778785  1
  Ru4+  Ru179  1  0.75005949  0.72626722  0.25031861  1
  O2-  O180  1  0.16815590  0.08091391  -0.00023362  1
  O2-  O181  1  0.16834300  0.08044016  0.25011987  1
  O2-  O182  1  0.16811553  0.08040692  0.50023890  1
  O2-  O183  1  0.16739391  0.08011194  0.74991298  1
  O2-  O184  1  0.16742003  0.41347870  0.00018875  1
  O2-  O185  1  0.16798410  0.41444287  0.25005727  1
  O2-  O186  1  0.16794748  0.41401916  0.49993782  1
  O2-  O187  1  0.16798601  0.41452844  0.74994617  1
  O2-  O188  1  0.16784855  0.74766190  -0.00021152  1
  O2-  O189  1  0.16741028  0.74676428  0.25022245  1
  O2-  O190  1  0.16827385  0.74725560  0.49963787  1
  O2-  O191  1  0.16768199  0.74719246  0.75017390  1
  O2-  O192  1  0.66822825  0.08074619  -0.00002860  1
  O2-  O193  1  0.66845879  0.08082131  0.25040122  1
  O2-  O194  1  0.66808338  0.08056938  0.49971383  1
  O2-  O195  1  0.66773652  0.08089175  0.74970684  1
  O2-  O196  1  0.66730742  0.41367862  -0.00015514  1
  O2-  O197  1  0.66786022  0.41399517  0.24997480  1
  O2-  O198  1  0.66846618  0.41394781  0.50001886  1
  O2-  O199  1  0.66806826  0.41438749  0.75027524  1
  O2-  O200  1  0.66803172  0.74740794  -0.00013834  1
  O2-  O201  1  0.66699987  0.74698866  0.25020783  1
  O2-  O202  1  0.66815929  0.74748999  0.49985237  1
  O2-  O203  1  0.66844981  0.74709225  0.75000267  1
  O2-  O204  1  0.33196924  0.25247203  -0.00004599  1
  O2-  O205  1  0.33179526  0.25234570  0.24988009  1
  O2-  O206  1  0.33187887  0.25231738  0.50022762  1
  O2-  O207  1  0.33227547  0.25254389  0.74990317  1
  O2-  O208  1  0.33196679  0.58597067  -0.00008933  1
  O2-  O209  1  0.33188486  0.58593878  0.25014039  1
  O2-  O210  1  0.33185027  0.58593948  0.49989640  1
  O2-  O211  1  0.33189635  0.58611461  0.74991987  1
  O2-  O212  1  0.33221261  0.91895641  -0.00004839  1
  O2-  O213  1  0.33209936  0.91977763  0.25012251  1
  O2-  O214  1  0.33189201  0.91965670  0.50005198  1
  O2-  O215  1  0.33245487  0.91961354  0.74978738  1
  O2-  O216  1  0.83248182  0.25326824  -0.00011965  1
  O2-  O217  1  0.83135697  0.25270184  0.24986024  1
  O2-  O218  1  0.83167987  0.25273260  0.49998830  1
  O2-  O219  1  0.83203064  0.25240580  0.74995371  1
  O2-  O220  1  0.83227403  0.58620235  -0.00031101  1
  O2-  O221  1  0.83193178  0.58603782  0.25014759  1
  O2-  O222  1  0.83190317  0.58574116  0.49998304  1
  O2-  O223  1  0.83184177  0.58604181  0.75014809  1
  O2-  O224  1  0.83186632  0.91916701  0.00008859  1
  O2-  O225  1  0.83300519  0.91992062  0.24999005  1
  O2-  O226  1  0.83165046  0.91921592  0.49984821  1
  O2-  O227  1  0.83253757  0.91960781  0.74981420  1
  O2-  O228  1  0.16802677  0.25245727  -0.00002713  1
  O2-  O229  1  0.16788007  0.25247292  0.24976061  1
  O2-  O230  1  0.16803736  0.25237856  0.50011410  1
  O2-  O231  1  0.16769314  0.25239092  0.74987685  1
  O2-  O232  1  0.16813671  0.58581571  -0.00020694  1
  O2-  O233  1  0.16809296  0.58571178  0.25032564  1
  O2-  O234  1  0.16797543  0.58601303  0.49977339  1
  O2-  O235  1  0.16805515  0.58604832  0.75008164  1
  O2-  O236  1  0.16808812  0.91889501  -0.00009183  1
  O2-  O237  1  0.16797944  0.91957696  0.25029240  1
  O2-  O238  1  0.16798913  0.91952714  0.49989660  1
  O2-  O239  1  0.16719293  0.91962207  0.75013641  1
  O2-  O240  1  0.66714736  0.25329313  -0.00007206  1
  O2-  O241  1  0.66832872  0.25239220  0.25001134  1
  O2-  O242  1  0.66826696  0.25277020  0.50004411  1
  O2-  O243  1  0.66811266  0.25276286  0.75007601  1
  O2-  O244  1  0.66779649  0.58595377  -0.00033557  1
  O2-  O245  1  0.66777421  0.58603141  0.25019799  1
  O2-  O246  1  0.66789589  0.58593259  0.49987463  1
  O2-  O247  1  0.66805485  0.58584934  0.75028890  1
  O2-  O248  1  0.66845123  0.91928362  -0.00008757  1
  O2-  O249  1  0.66725376  0.91978811  0.25023109  1
  O2-  O250  1  0.66825961  0.91907020  0.49965508  1
  O2-  O251  1  0.66727195  0.91977194  0.74975518  1
  O2-  O252  1  0.33195934  0.08078936  -0.00008752  1
  O2-  O253  1  0.33186290  0.08043864  0.25006698  1
  O2-  O254  1  0.33188188  0.08042144  0.50023707  1
  O2-  O255  1  0.33246147  0.08007477  0.74992188  1
  O2-  O256  1  0.33259811  0.41358946  -0.00010825  1
  O2-  O257  1  0.33191465  0.41425502  0.24992471  1
  O2-  O258  1  0.33189548  0.41415041  0.50008559  1
  O2-  O259  1  0.33221865  0.41442461  0.74989549  1
  O2-  O260  1  0.33202386  0.74755454  -0.00010184  1
  O2-  O261  1  0.33273241  0.74688789  0.25007144  1
  O2-  O262  1  0.33193110  0.74715858  0.49985527  1
  O2-  O263  1  0.33261119  0.74711118  0.74996118  1
  O2-  O264  1  0.83206128  0.08053775  0.00012711  1
  O2-  O265  1  0.83176093  0.08066419  0.24990663  1
  O2-  O266  1  0.83180102  0.08076709  0.49985745  1
  O2-  O267  1  0.83216003  0.08104606  0.74951389  1
  O2-  O268  1  0.83247245  0.41362463  -0.00018928  1
  O2-  O269  1  0.83233507  0.41426881  0.25006394  1
  O2-  O270  1  0.83180599  0.41415668  0.50003024  1
  O2-  O271  1  0.83191101  0.41399928  0.75023542  1
  O2-  O272  1  0.83181840  0.74729650  -0.00017542  1
  O2-  O273  1  0.83277719  0.74686589  0.24999857  1
  O2-  O274  1  0.83194851  0.74770748  0.50001543  1
  O2-  O275  1  0.83167043  0.74730258  0.75001386  1
  O2-  O276  1  0.95469392  0.43166512  0.76442997  1
  O2-  O277  1  0.04481322  0.09921054  0.73058005  1
  O2-  O278  1  0.04153488  0.43656233  0.27326270  1
  O2-  O279  1  0.54241426  0.56371884  0.97746367  1
  O2-  O280  1  0.04462465  0.09921856  0.24490988  1
  O2-  O281  1  0.54097391  0.10587604  0.23968650  1
  O2-  O282  1  0.95849901  0.43675941  0.47699757  1
  O2-  O283  1  0.95875353  0.56358393  0.52297912  1
  O2-  O284  1  0.54554199  0.43201515  0.23539911  1
  O2-  O285  1  0.04498808  0.23499425  0.98553362  1
  O2-  O286  1  0.45495117  0.76442572  0.98624305  1
  O2-  O287  1  0.54197856  0.56295222  0.77334469  1
  O2-  O288  1  0.04660910  0.76279707  0.51646600  1
  O2-  O289  1  0.04522140  0.09886024  0.76976965  1
  O2-  O290  1  0.04211066  0.43708191  0.02350582  1
  O2-  O291  1  0.54470111  0.09856137  0.48427105  1
  O2-  O292  1  0.54502886  0.23510343  0.51438641  1
  O2-  O293  1  0.54525259  0.43161876  0.98060939  1
  O2-  O294  1  0.45863328  0.43766037  0.52355446  1
  O2-  O295  1  0.45896605  0.89525422  0.76056493  1
  O2-  O296  1  0.95278158  0.09759895  0.76642495  1
  O2-  O297  1  0.95521300  0.76548185  0.98540402  1
  O2-  O298  1  0.94627422  0.41925296  0.03075050  1
  O2-  O299  1  0.95757003  0.56296483  0.27337465  1
  O2-  O300  1  0.45750836  0.56284146  0.97765311  1
  O2-  O301  1  0.95506863  0.90133427  0.48494600  1
  O2-  O302  1  0.54489430  0.23463556  0.98552412  1
  O2-  O303  1  0.54667381  0.42971917  0.73388414  1
  O2-  O304  1  0.04512131  0.56842066  0.76445018  1
  O2-  O305  1  0.45436354  0.43237830  0.23561796  1
  O2-  O306  1  0.95511050  0.56791189  0.01535096  1
  O2-  O307  1  0.03509391  0.78110111  0.74317316  1
  O2-  O308  1  0.54429348  0.43236538  0.01988512  1
  O2-  O309  1  0.04167356  0.10362383  0.97696544  1
  O2-  O310  1  0.45432303  0.09867316  0.23465222  1
  O2-  O311  1  0.45457539  0.56752076  0.76448588  1
  O2-  O312  1  0.95810587  0.23009050  0.47746403  1
  O2-  O313  1  0.95351768  0.09569487  0.48406703  1
  O2-  O314  1  0.45516757  0.90093437  0.23464649  1
  O2-  O315  1  0.45489702  0.90159328  0.73530478  1
  O2-  O316  1  0.45472782  0.90252391  0.98602415  1
  O2-  O317  1  0.45435064  0.76592432  0.48499449  1
  O2-  O318  1  0.45367464  0.09653840  0.76643577  1
  O2-  O319  1  0.03584467  0.55297253  0.24299456  1
  O2-  O320  1  0.04501857  0.09855264  0.25498965  1
  O2-  O321  1  0.54537073  0.76552942  0.51472959  1
  O2-  O322  1  0.44489933  0.41696028  0.96639710  1
  O2-  O323  1  0.54547025  0.09861910  0.26430148  1
  O2-  O324  1  0.43509127  0.59703812  0.54330378  1
  O2-  O325  1  0.56431928  0.73522833  0.78244876  1
  O2-  O326  1  0.56899640  0.06333523  0.21560167  1
  O2-  O327  1  0.43523835  0.59721319  0.45649790  1
  O2-  O328  1  0.93575307  0.73497134  0.71777391  1
  O2-  O329  1  0.93777830  0.07127121  0.46837785  1
  O2-  O330  1  0.06410197  0.93115991  0.21755284  1
  O2-  O331  1  0.06195344  0.73681183  0.53019915  1
  O2-  O332  1  0.06786910  0.39732462  0.96082024  1
  O2-  O333  1  0.07356672  0.71976809  0.70915748  1
  O2-  O334  1  0.43239078  0.60341276  0.04074357  1
  O2-  O335  1  0.56429794  0.40201365  0.46740914  1
  O2-  O336  1  0.43158094  0.93709416  0.78557645  1
  O2-  O337  1  0.93571685  0.26499328  0.78250828  1
  O2-  O338  1  0.43758968  0.07193924  0.78069008  1
  O2-  O339  1  0.06451949  0.73644241  0.20694987  1
  O2-  O340  1  0.56782104  0.60276128  0.03949832  1
  O2-  O341  1  0.94637021  0.41939928  0.03129986  1
  O2-  O342  1  0.93275215  0.60325798  0.20994660  1
  O2-  O343  1  0.43546231  0.26356557  0.46885109  1
  O2-  O344  1  0.93776944  0.07234929  0.78096225  1
  O2-  O345  1  0.56283321  0.40514138  0.71956759  1
  O2-  O346  1  0.06446535  0.93048843  0.96843543  1
  O2-  O347  1  0.56479715  0.93019852  0.96883643  1
  O2-  O348  1  0.93558313  0.93026846  0.78135910  1
  O2-  O349  1  0.93233694  0.26993596  0.54082035  1
  O2-  O350  1  0.06724422  0.39659592  0.20992458  1
  O2-  O351  1  0.93297078  0.39800304  0.95311866  1
  O2-  O352  1  0.56459402  0.06980341  0.95658137  1
  O2-  O353  1  0.07458439  0.61182782  0.21053241  1
  O2-  O354  1  0.06765142  0.06317691  0.04096003  1
  O2-  O355  1  0.93285760  0.39706820  0.54003413  1
  O2-  O356  1  0.93592085  0.26530605  0.28233277  1
  O2-  O357  1  0.93316033  0.60376331  0.45979180  1
  O2-  O358  1  0.06397044  0.26530640  0.46784849  1
  O2-  O359  1  0.56421436  0.26464990  0.21753896  1
  O2-  O360  1  0.56484672  0.06965314  0.04322644  1
  O2-  O361  1  0.93544972  0.26388099  0.03118229  1
  O2-  O362  1  0.44894897  0.42213224  0.96797823  1
  O2-  O363  1  0.43221614  0.39798917  0.05030131  1
  O2-  O364  1  0.43523405  0.73595705  0.78129379  1
  O2-  O365  1  0.43552053  0.26381965  0.21884119  1
  O2-  O366  1  0.56464326  0.92977972  0.21895590  1
  O2-  O367  1  0.06413976  0.73505055  0.29451041  1
  O2-  O368  1  0.43200372  0.39774690  0.46036092  1
  O2-  O369  1  0.06406895  0.40149498  0.71761388  1
  O2-  O370  1  0.56813769  0.60234725  0.71064114  1
  O2-  O371  1  0.06469838  0.59757964  0.96835554  1
  O2-  O372  1  0.25002520  0.00061219  0.09186004  1
  O2-  O373  1  0.74996487  0.33352443  0.09546095  1
  O2-  O374  1  0.25003255  0.66506808  0.16575331  1
  O2-  O375  1  0.24998183  -0.00034955  0.91984702  1
  O2-  O376  1  0.25002475  0.33087236  0.91535264  1
  O2-  O377  1  0.75000166  0.33359157  0.83086454  1
  O2-  O378  1  0.24995781  0.33110278  0.08407992  1
  O2-  O379  1  0.25003190  0.66643763  0.58114546  1
  O2-  O380  1  0.25004100  0.66474113  0.66576373  1
  O2-  O381  1  0.75003332  -0.00056357  0.59172011  1
  O2-  O382  1  0.25005595  -0.00022419  0.65439506  1
  O2-  O383  1  0.24998658  0.66643576  0.08115404  1
  O2-  O384  1  0.24997228  0.33284180  0.16831873  1
  O2-  O385  1  0.25003686  0.33321402  0.66653362  1
  O2-  O386  1  0.74996388  0.33345172  0.91301859  1
  O2-  O387  1  0.75001658  0.33325160  0.65751936  1
  O2-  O388  1  0.24998037  0.00016692  0.83657939  1
  O2-  O389  1  0.25003671  0.33338947  0.58359675  1
  O2-  O390  1  0.74999958  -0.00001451  0.84355395  1
  O2-  O391  1  0.75005614  0.66680889  0.09172846  1
  O2-  O392  1  0.74998882  0.00067332  0.08013814  1
  O2-  O393  1  0.74998392  0.00294736  0.16587197  1
  O2-  O394  1  0.24996018  0.33395681  0.34164823  1
  O2-  O395  1  0.25002454  0.33320639  0.83219005  1
  O2-  O396  1  0.24999007  0.50003732  0.15955637  1
  O2-  O397  1  0.24999007  0.50091765  0.83975591  1
  O2-  O398  1  0.24999643  0.49896854  0.67528528  1
  O2-  O399  1  0.25000780  0.16565195  0.41093909  1
  O2-  O400  1  0.75001853  0.83342030  0.08981551  1
  O2-  O401  1  0.24999326  0.16724654  0.57678951  1
  O2-  O402  1  0.25002688  0.83269650  0.35327758  1
  O2-  O403  1  0.24997743  0.49997634  0.32532517  1
  O2-  O404  1  0.75001759  0.16605337  0.67223530  1
  O2-  O405  1  0.24997668  0.16742466  0.07752512  1
  O2-  O406  1  0.25000024  0.16553842  0.65428427  1
  O2-  O407  1  0.74997087  0.16700353  0.59462609  1
  O2-  O408  1  0.75002400  0.49966547  0.33475168  1
  O2-  O409  1  0.74999433  0.49994041  0.82774469  1
  O2-  O410  1  0.75003457  0.49876479  0.90419394  1
  O2-  O411  1  0.25002492  0.50023544  0.60272906  1
  O2-  O412  1  0.74999476  0.50008716  0.65995202  1
  O2-  O413  1  0.74997932  0.49988596  0.15923837  1
  O2-  O414  1  0.74999552  0.16744327  0.83980392  1
  O2-  O415  1  0.25000224  0.83328741  0.85026895  1
  O2-  O416  1  0.25001580  0.83341662  0.60389707  1
  O2-  O417  1  0.75002740  0.50031327  0.41570821  1
  O2-  O418  1  0.25000051  0.16649280  0.15453877  1
  O2-  O419  1  0.25008047  0.49980975  0.39759864  1
  O2-  O420  1  0.47114036  0.66763048  0.62615820  1
  O2-  O421  1  0.02673703  0.66715940  0.12242863  1
  O2-  O422  1  0.97079010  -0.00022421  0.87715784  1
  O2-  O423  1  0.52740909  0.66760836  0.12629504  1
  O2-  O424  1  0.02755208  0.33280167  0.87393575  1
  O2-  O425  1  0.46936121  0.33321990  0.62565019  1
  O2-  O426  1  0.47204273  -0.00006173  0.37513481  1
  O2-  O427  1  0.02965743  0.66771517  0.87458047  1
  O2-  O428  1  0.52694375  0.00000648  0.87265686  1
  O2-  O429  1  0.02970191  0.00049753  0.87395755  1
  O2-  O430  1  0.52601837  -0.00136507  0.12414037  1
  O2-  O431  1  0.47263401  0.66617787  0.87586404  1
  O2-  O432  1  0.53006199  0.33266545  0.62396127  1
  O2-  O433  1  0.47039730  0.33238259  0.87351443  1
  O2-  O434  1  0.52887310  0.66732619  0.62416603  1
  O2-  O435  1  0.02802511  -0.00001218  0.62500481  1
  O2-  O436  1  0.47340277  0.33271882  0.12467500  1
  O2-  O437  1  0.96983357  0.66663515  0.87488136  1
  O2-  O438  1  0.47279766  0.66727649  0.37351266  1
  O2-  O439  1  0.52976726  0.33339671  0.87462971  1
  O2-  O440  1  0.97280296  0.33307600  0.12697472  1
  O2-  O441  1  0.47335267  0.33324385  0.37278401  1
  O2-  O442  1  0.53042271  -0.00011483  0.62466289  1
  O2-  O443  1  0.46959660  0.00009371  0.62468541  1
