# generated using pymatgen
data_La7(Ru4O11)2
_symmetry_space_group_name_H-M   'P 1'
_cell_length_a   23.99135662
_cell_length_b   16.83194289
_cell_length_c   15.42792244
_cell_angle_alpha   89.99935706
_cell_angle_beta   89.99970996
_cell_angle_gamma   90.00152059
_symmetry_Int_Tables_number   1
_chemical_formula_structural   La7(Ru4O11)2
_chemical_formula_sum   'La84 Ru96 O264'
_cell_volume   6230.12129220
_cell_formula_units_Z   12
loop_
 _symmetry_equiv_pos_site_id
 _symmetry_equiv_pos_as_xyz
  1  'x, y, z'
loop_
 _atom_type_symbol
 _atom_type_oxidation_number
  La3+  3.0
  Ru4+  4.0
  O2-  -2.0
loop_
 _atom_site_type_symbol
 _atom_site_label
 _atom_site_symmetry_multiplicity
 _atom_site_fract_x
 _atom_site_fract_y
 _atom_site_fract_z
 _atom_site_occupancy
  La3+  La0  1  0.13696831  -0.00408125  0.12552899  1
  La3+  La1  1  0.14228177  -0.00848808  0.37689151  1
  La3+  La2  1  0.13966210  -0.00395749  0.62235802  1
  La3+  La3  1  0.13492460  -0.00120567  0.87715886  1
  La3+  La4  1  0.13759053  0.33005152  0.12551449  1
  La3+  La5  1  0.13015266  0.32670932  0.36888036  1
  La3+  La6  1  0.14477503  0.33582913  0.62556614  1
  La3+  La7  1  0.14819050  0.33472031  0.87465162  1
  La3+  La8  1  0.13440595  0.66736581  0.13279402  1
  La3+  La9  1  0.14092812  0.66493015  0.37000744  1
  La3+  La10  1  0.13994318  0.66575495  0.62136748  1
  La3+  La11  1  0.13776492  0.66353306  0.87469919  1
  La3+  La12  1  0.64120723  -0.00406165  0.12909322  1
  La3+  La13  1  0.63902050  -0.00359618  0.37168450  1
  La3+  La14  1  0.63671243  0.00258671  0.62366389  1
  La3+  La15  1  0.63916620  -0.00045507  0.87562270  1
  La3+  La16  1  0.63541568  0.33417629  0.12868185  1
  La3+  La17  1  0.64614485  0.33116144  0.38135635  1
  La3+  La18  1  0.63816753  0.33444233  0.62129993  1
  La3+  La19  1  0.63738820  0.33348085  0.87420652  1
  La3+  La20  1  0.63450773  0.66651664  0.12175346  1
  La3+  La21  1  0.63625473  0.66620963  0.37555961  1
  La3+  La22  1  0.63915767  0.66316095  0.61960432  1
  La3+  La23  1  0.63482936  0.66689518  0.87874267  1
  La3+  La24  1  0.36487439  -0.00014403  0.12636980  1
  La3+  La25  1  0.35971401  -0.00497356  0.37790698  1
  La3+  La26  1  0.35614280  0.00343085  0.61989400  1
  La3+  La27  1  0.36434063  -0.00138670  0.87063925  1
  La3+  La28  1  0.35876751  0.33361865  0.12034458  1
  La3+  La29  1  0.36343841  0.33520156  0.37927888  1
  La3+  La30  1  0.35991920  0.33663769  0.62268525  1
  La3+  La31  1  0.35242553  0.33484402  0.87301769  1
  La3+  La32  1  0.35841239  0.66789972  0.12996532  1
  La3+  La33  1  0.35712085  0.66647138  0.36988750  1
  La3+  La34  1  0.35930984  0.66391174  0.62150970  1
  La3+  La35  1  0.36378038  0.66319916  0.87779779  1
  La3+  La36  1  0.85708413  -0.00422159  0.12568903  1
  La3+  La37  1  0.85534183  -0.00208369  0.37451727  1
  La3+  La38  1  0.86376435  -0.00144552  0.62667367  1
  La3+  La39  1  0.86372501  -0.00265078  0.87211978  1
  La3+  La40  1  0.86079634  0.33228107  0.12641621  1
  La3+  La41  1  0.85977444  0.33520624  0.37503171  1
  La3+  La42  1  0.86223476  0.33296762  0.62220352  1
  La3+  La43  1  0.86376523  0.33057820  0.87468863  1
  La3+  La44  1  0.86369524  0.66799337  0.12904371  1
  La3+  La45  1  0.86441523  0.66773959  0.37963295  1
  La3+  La46  1  0.86042714  0.66605525  0.61808055  1
  La3+  La47  1  0.86341674  0.66520164  0.87795657  1
  La3+  La48  1  -0.00442208  0.17401057  0.62811524  1
  La3+  La49  1  0.49815369  0.16850457  0.86966981  1
  La3+  La50  1  0.00428333  0.17672643  0.11741336  1
  La3+  La51  1  -0.00334675  0.50130770  0.61413038  1
  La3+  La52  1  -0.00029979  0.49973122  0.13605377  1
  La3+  La53  1  0.49822136  0.83360265  0.12797201  1
  La3+  La54  1  0.00272746  0.83987582  0.86467387  1
  La3+  La55  1  -0.00317843  0.17009156  0.87936017  1
  La3+  La56  1  0.49982546  0.16864493  0.89204111  1
  La3+  La57  1  -0.00451264  0.16317132  0.64715460  1
  La3+  La58  1  0.50011163  0.16808395  0.63255113  1
  La3+  La59  1  0.49784826  0.83591325  0.61322343  1
  La3+  La60  1  0.49962456  0.49932887  0.63251257  1
  La3+  La61  1  -0.00224328  0.83971915  0.88291951  1
  La3+  La62  1  0.49967393  0.49554646  0.38177062  1
  La3+  La63  1  0.50206865  0.49784836  0.86716530  1
  La3+  La64  1  0.00173030  0.82929255  0.37015154  1
  La3+  La65  1  0.00125825  0.83488307  0.12981874  1
  La3+  La66  1  0.00033555  0.16744783  0.13659142  1
  La3+  La67  1  0.50025492  0.16495409  0.36227262  1
  La3+  La68  1  0.00133757  0.15849113  0.37799739  1
  La3+  La69  1  0.00405714  0.49854616  0.63339183  1
  La3+  La70  1  0.50714903  0.83300158  0.63063538  1
  La3+  La71  1  -0.00619404  0.16180306  0.35905243  1
  La3+  La72  1  0.74974985  0.55570051  0.27716828  1
  La3+  La73  1  0.24831131  0.88191487  0.77771109  1
  La3+  La74  1  0.25069912  0.20993491  0.71058215  1
  La3+  La75  1  0.74981046  0.85912590  0.75746557  1
  La3+  La76  1  0.25077270  0.17506498  0.29959447  1
  La3+  La77  1  0.75039878  0.43825711  0.70459219  1
  La3+  La78  1  0.24986116  0.83314743  0.22914690  1
  La3+  La79  1  0.25074340  0.83073542  -0.04331903  1
  La3+  La80  1  0.74933893  0.19551234  0.02374665  1
  La3+  La81  1  0.74902972  0.16685854  0.49136059  1
  La3+  La82  1  0.75004920  0.82901544  0.49848059  1
  La3+  La83  1  0.74982579  0.49772169  -0.04575540  1
  Ru4+  Ru84  1  -0.00510155  0.00271934  0.00226598  1
  Ru4+  Ru85  1  -0.00440035  -0.00599359  0.25049466  1
  Ru4+  Ru86  1  -0.00161323  -0.00543501  0.50862162  1
  Ru4+  Ru87  1  0.00440597  0.00293344  0.73952201  1
  Ru4+  Ru88  1  -0.00087510  0.33793468  0.00426941  1
  Ru4+  Ru89  1  0.00156685  0.33764176  0.25101510  1
  Ru4+  Ru90  1  0.00481790  0.33795565  0.48829539  1
  Ru4+  Ru91  1  -0.00162903  0.33505787  0.75112528  1
  Ru4+  Ru92  1  -0.00032972  0.66393736  -0.00075845  1
  Ru4+  Ru93  1  -0.00214237  0.65895766  0.25273679  1
  Ru4+  Ru94  1  0.00417909  0.66871031  0.49503048  1
  Ru4+  Ru95  1  -0.00294473  0.67182476  0.74630832  1
  Ru4+  Ru96  1  0.49885356  0.00233840  0.00183734  1
  Ru4+  Ru97  1  0.49629039  0.00338676  0.24989596  1
  Ru4+  Ru98  1  0.50310186  -0.00441476  0.49535261  1
  Ru4+  Ru99  1  0.50229253  0.00325339  0.75327780  1
  Ru4+  Ru100  1  0.50139190  0.33363406  -0.00073809  1
  Ru4+  Ru101  1  0.49556894  0.33586678  0.25245640  1
  Ru4+  Ru102  1  0.50236843  0.32894718  0.49424720  1
  Ru4+  Ru103  1  0.50142515  0.33223805  0.75455140  1
  Ru4+  Ru104  1  0.50209346  0.66370498  0.00397260  1
  Ru4+  Ru105  1  0.49877900  0.66333094  0.24711099  1
  Ru4+  Ru106  1  0.49898701  0.66581698  0.49724528  1
  Ru4+  Ru107  1  0.50236067  0.66376496  0.74411995  1
  Ru4+  Ru108  1  0.11537323  0.16960899  0.00079978  1
  Ru4+  Ru109  1  0.11343529  0.16916493  0.24982768  1
  Ru4+  Ru110  1  0.11577598  0.16749712  0.49724754  1
  Ru4+  Ru111  1  0.11217285  0.16346550  0.75246293  1
  Ru4+  Ru112  1  0.11249316  0.49729568  0.00041446  1
  Ru4+  Ru113  1  0.11267593  0.50362684  0.25009697  1
  Ru4+  Ru114  1  0.11415808  0.50071841  0.49293759  1
  Ru4+  Ru115  1  0.11388195  0.49823488  0.75280659  1
  Ru4+  Ru116  1  0.11479176  0.82636392  0.00241760  1
  Ru4+  Ru117  1  0.11460919  0.83781242  0.24793591  1
  Ru4+  Ru118  1  0.11521806  0.83726959  0.50172471  1
  Ru4+  Ru119  1  0.10995517  0.83375922  0.74980257  1
  Ru4+  Ru120  1  0.61029927  0.16674648  0.00221580  1
  Ru4+  Ru121  1  0.61233091  0.16870235  0.24932916  1
  Ru4+  Ru122  1  0.60995084  0.16629316  0.49951970  1
  Ru4+  Ru123  1  0.61264994  0.16646227  0.74777027  1
  Ru4+  Ru124  1  0.60919356  0.49786978  0.00078767  1
  Ru4+  Ru125  1  0.60822742  0.49955873  0.25047403  1
  Ru4+  Ru126  1  0.61622215  0.49806661  0.50114157  1
  Ru4+  Ru127  1  0.61083050  0.49908800  0.74968538  1
  Ru4+  Ru128  1  0.61468839  0.83810778  -0.00185837  1
  Ru4+  Ru129  1  0.61733439  0.83043912  0.25081418  1
  Ru4+  Ru130  1  0.61216494  0.83226342  0.49833378  1
  Ru4+  Ru131  1  0.60982522  0.83124594  0.75264286  1
  Ru4+  Ru132  1  0.38633044  0.16935571  0.00155665  1
  Ru4+  Ru133  1  0.39169930  0.16689145  0.24914676  1
  Ru4+  Ru134  1  0.38506786  0.17005779  0.50103250  1
  Ru4+  Ru135  1  0.39207672  0.16724529  0.75074919  1
  Ru4+  Ru136  1  0.38773365  0.50227914  0.00589890  1
  Ru4+  Ru137  1  0.38706786  0.49704746  0.24726123  1
  Ru4+  Ru138  1  0.38489843  0.50530452  0.50235342  1
  Ru4+  Ru139  1  0.38589226  0.49676411  0.75066587  1
  Ru4+  Ru140  1  0.39040303  0.83322150  -0.00130980  1
  Ru4+  Ru141  1  0.39089783  0.83316527  0.25249680  1
  Ru4+  Ru142  1  0.38726191  0.83775693  0.49892437  1
  Ru4+  Ru143  1  0.38676670  0.83199163  0.75028693  1
  Ru4+  Ru144  1  0.88648695  0.16949625  -0.00309866  1
  Ru4+  Ru145  1  0.88246312  0.16635496  0.24985827  1
  Ru4+  Ru146  1  0.88281322  0.16177163  0.49943063  1
  Ru4+  Ru147  1  0.88545128  0.16501224  0.75304286  1
  Ru4+  Ru148  1  0.89045789  0.50237805  -0.00242035  1
  Ru4+  Ru149  1  0.88996353  0.49898561  0.24950714  1
  Ru4+  Ru150  1  0.88358232  0.49850218  0.49840754  1
  Ru4+  Ru151  1  0.88808456  0.49998859  0.75273337  1
  Ru4+  Ru152  1  0.88725442  0.83631173  0.00230246  1
  Ru4+  Ru153  1  0.88700148  0.83423566  0.24854345  1
  Ru4+  Ru154  1  0.89014336  0.83512582  0.49984395  1
  Ru4+  Ru155  1  0.88890221  0.82433096  0.74639153  1
  Ru4+  Ru156  1  0.24953177  0.43544909  0.24887446  1
  Ru4+  Ru157  1  0.25009002  0.08511965  0.50163533  1
  Ru4+  Ru158  1  0.74968860  0.99334122  0.74917609  1
  Ru4+  Ru159  1  0.74964414  0.72818556  0.74257714  1
  Ru4+  Ru160  1  0.75014561  0.62145777  0.04195865  1
  Ru4+  Ru161  1  0.75007193  0.39712668  0.25426041  1
  Ru4+  Ru162  1  0.25053154  0.96556254  0.00593417  1
  Ru4+  Ru163  1  0.25031960  0.09826174  0.01426515  1
  Ru4+  Ru164  1  0.25050729  0.06881511  0.75397535  1
  Ru4+  Ru165  1  0.74983961  0.24108068  0.76017394  1
  Ru4+  Ru166  1  0.25055346  0.05407368  0.23327739  1
  Ru4+  Ru167  1  0.24993546  0.56579918  0.74395783  1
  Ru4+  Ru168  1  0.74984622  0.58010347  0.73615079  1
  Ru4+  Ru169  1  0.74983525  0.75351981  0.24636181  1
  Ru4+  Ru170  1  0.74993086  0.36660433  -0.00419979  1
  Ru4+  Ru171  1  0.24985743  0.74974585  0.49652334  1
  Ru4+  Ru172  1  0.25002546  0.71504541  0.03927079  1
  Ru4+  Ru173  1  0.24953829  0.74442883  0.74182966  1
  Ru4+  Ru174  1  0.24978481  0.43227674  0.50144135  1
  Ru4+  Ru175  1  0.24968713  0.56869541  0.00738415  1
  Ru4+  Ru176  1  0.75005201  0.05583561  -0.00053957  1
  Ru4+  Ru177  1  0.74959459  0.08744203  0.25306121  1
  Ru4+  Ru178  1  0.75055568  0.76538945  0.00451655  1
  Ru4+  Ru179  1  0.25130204  0.29925156  0.22636475  1
  O2-  O180  1  0.16696809  0.07968615  0.00137404  1
  O2-  O181  1  0.16507058  0.07783244  0.24983855  1
  O2-  O182  1  0.16865631  0.08346152  0.50282763  1
  O2-  O183  1  0.16590224  0.07880150  0.75085998  1
  O2-  O184  1  0.16372567  0.41715482  0.00038105  1
  O2-  O185  1  0.16569841  0.41354961  0.25128943  1
  O2-  O186  1  0.16770293  0.41338599  0.49619756  1
  O2-  O187  1  0.16382516  0.41751396  0.75064157  1
  O2-  O188  1  0.16841287  0.74332362  0.00074338  1
  O2-  O189  1  0.16619453  0.74828355  0.24694297  1
  O2-  O190  1  0.16461249  0.74625231  0.50067247  1
  O2-  O191  1  0.16497016  0.74493040  0.75204688  1
  O2-  O192  1  0.66780326  0.07918832  -0.00054629  1
  O2-  O193  1  0.66519811  0.08017765  0.25048897  1
  O2-  O194  1  0.66843228  0.07903883  0.50146853  1
  O2-  O195  1  0.66611159  0.07933727  0.74917541  1
  O2-  O196  1  0.66752286  0.41207757  0.00003175  1
  O2-  O197  1  0.67036299  0.41615898  0.24544189  1
  O2-  O198  1  0.66718675  0.41501998  0.50332141  1
  O2-  O199  1  0.66433121  0.41017366  0.75127770  1
  O2-  O200  1  0.66750854  0.74688804  -0.00049521  1
  O2-  O201  1  0.66899472  0.74883095  0.25389425  1
  O2-  O202  1  0.66745706  0.74899448  0.49751938  1
  O2-  O203  1  0.66549873  0.74414057  0.74846683  1
  O2-  O204  1  0.33515859  0.25018125  -0.00034966  1
  O2-  O205  1  0.33338354  0.25611863  0.25168559  1
  O2-  O206  1  0.33271579  0.25046172  0.49791451  1
  O2-  O207  1  0.33810248  0.25336494  0.74868496  1
  O2-  O208  1  0.33091438  0.58542820  0.00054896  1
  O2-  O209  1  0.33384446  0.58059100  0.24996426  1
  O2-  O210  1  0.33567647  0.58481053  0.49972321  1
  O2-  O211  1  0.33472498  0.58627737  0.74777033  1
  O2-  O212  1  0.33549661  0.92209427  -0.00124253  1
  O2-  O213  1  0.33475487  0.91973920  0.24851486  1
  O2-  O214  1  0.33395462  0.91792913  0.49788364  1
  O2-  O215  1  0.33451905  0.92017441  0.75326268  1
  O2-  O216  1  0.83309202  0.25585674  -0.00104792  1
  O2-  O217  1  0.83550944  0.25342842  0.24938796  1
  O2-  O218  1  0.82939392  0.25431396  0.50093304  1
  O2-  O219  1  0.82780863  0.25305605  0.74931819  1
  O2-  O220  1  0.83260716  0.58835054  0.00257442  1
  O2-  O221  1  0.83867322  0.58981122  0.25030930  1
  O2-  O222  1  0.83759364  0.58580863  0.49578347  1
  O2-  O223  1  0.83466184  0.58609392  0.74968086  1
  O2-  O224  1  0.83602983  0.92029581  -0.00121156  1
  O2-  O225  1  0.83699881  0.91760006  0.25146044  1
  O2-  O226  1  0.83095751  0.91771763  0.50125305  1
  O2-  O227  1  0.83539370  0.92064109  0.74984294  1
  O2-  O228  1  0.16514604  0.25157588  0.00079332  1
  O2-  O229  1  0.16941427  0.25471424  0.25046714  1
  O2-  O230  1  0.16979912  0.24907174  0.49455296  1
  O2-  O231  1  0.16328649  0.25330829  0.75145986  1
  O2-  O232  1  0.16599386  0.58574300  0.00177863  1
  O2-  O233  1  0.16738611  0.58345898  0.24703253  1
  O2-  O234  1  0.16602998  0.58343821  0.50040790  1
  O2-  O235  1  0.16616123  0.58647647  0.74980733  1
  O2-  O236  1  0.16578687  0.92114370  -0.00176576  1
  O2-  O237  1  0.16772569  0.91821715  0.24803025  1
  O2-  O238  1  0.16739950  0.91731076  0.50245373  1
  O2-  O239  1  0.16101307  0.92293022  0.75033266  1
  O2-  O240  1  0.66360329  0.25528370  -0.00012275  1
  O2-  O241  1  0.66219952  0.24996035  0.24779379  1
  O2-  O242  1  0.66950072  0.25161848  0.50487386  1
  O2-  O243  1  0.67142790  0.25276771  0.74885003  1
  O2-  O244  1  0.66761761  0.58797708  -0.00033369  1
  O2-  O245  1  0.66010520  0.58915250  0.24976786  1
  O2-  O246  1  0.66188192  0.58619725  0.49699775  1
  O2-  O247  1  0.66580878  0.58645849  0.74972823  1
  O2-  O248  1  0.66392708  0.92003555  -0.00193517  1
  O2-  O249  1  0.66519060  0.91679088  0.25128904  1
  O2-  O250  1  0.67055889  0.92068451  0.50167248  1
  O2-  O251  1  0.66609274  0.92474191  0.74942971  1
  O2-  O252  1  0.33343382  0.07957890  -0.00006442  1
  O2-  O253  1  0.33467709  0.07936218  0.25099464  1
  O2-  O254  1  0.33123458  0.08336887  0.49735544  1
  O2-  O255  1  0.33430982  0.07886549  0.75218845  1
  O2-  O256  1  0.33704554  0.41732534  -0.00000994  1
  O2-  O257  1  0.33168234  0.41560936  0.25259681  1
  O2-  O258  1  0.33393658  0.41502214  0.49840327  1
  O2-  O259  1  0.33356256  0.41766972  0.74723869  1
  O2-  O260  1  0.33099541  0.74446046  -0.00045455  1
  O2-  O261  1  0.33087016  0.74970221  0.24796486  1
  O2-  O262  1  0.33574778  0.74723478  0.50049100  1
  O2-  O263  1  0.33447451  0.74485047  0.75047834  1
  O2-  O264  1  0.83264060  0.07883383  0.00021858  1
  O2-  O265  1  0.83375869  0.07877812  0.25005373  1
  O2-  O266  1  0.83051128  0.07907690  0.50148334  1
  O2-  O267  1  0.83305596  0.07818679  0.74886303  1
  O2-  O268  1  0.83502056  0.41249245  -0.00016149  1
  O2-  O269  1  0.83222442  0.41332596  0.24967089  1
  O2-  O270  1  0.83545916  0.41234378  0.50065340  1
  O2-  O271  1  0.83761906  0.40974532  0.75250352  1
  O2-  O272  1  0.83500030  0.74692126  0.00081650  1
  O2-  O273  1  0.83223577  0.74665318  0.25357814  1
  O2-  O274  1  0.83056511  0.75071816  0.49659412  1
  O2-  O275  1  0.83267777  0.74384418  0.74875068  1
  O2-  O276  1  0.45189039  0.75635189  0.73369241  1
  O2-  O277  1  0.95063901  0.90601274  0.76589620  1
  O2-  O278  1  0.04663398  0.23666180  0.98529218  1
  O2-  O279  1  0.04792684  0.23477209  0.45818384  1
  O2-  O280  1  0.54985272  0.23794489  0.01700948  1
  O2-  O281  1  0.45384897  0.76210439  0.49049599  1
  O2-  O282  1  0.95064680  0.90574239  0.50968433  1
  O2-  O283  1  0.03825815  0.10644759  0.53269773  1
  O2-  O284  1  0.55457395  0.90519479  0.76834099  1
  O2-  O285  1  0.04821830  0.57191760  0.76931558  1
  O2-  O286  1  0.04971643  0.09387151  0.98293491  1
  O2-  O287  1  0.53382177  0.77267195  0.25352697  1
  O2-  O288  1  0.94559160  0.24057774  0.25701221  1
  O2-  O289  1  0.55002957  0.91048494  0.22821640  1
  O2-  O290  1  0.55278208  0.90424851  0.26647620  1
  O2-  O291  1  0.54409563  0.10026891  0.23645915  1
  O2-  O292  1  0.45637718  0.23514040  0.23857246  1
  O2-  O293  1  0.04430648  0.23085424  0.24731959  1
  O2-  O294  1  0.44925531  0.09448596  0.00941017  1
  O2-  O295  1  0.45023674  0.90493900  0.26563240  1
  O2-  O296  1  0.04977040  0.08726914  0.26243781  1
  O2-  O297  1  0.52865387  0.44659188  0.25135868  1
  O2-  O298  1  0.95310276  0.43114912  0.74254959  1
  O2-  O299  1  0.55649933  0.75479575  0.02229712  1
  O2-  O300  1  0.45100933  0.24112539  0.01550364  1
  O2-  O301  1  0.44495103  0.56902403  0.95479614  1
  O2-  O302  1  0.53464317  0.44315371  0.21384720  1
  O2-  O303  1  0.94869786  0.75312516  0.47801412  1
  O2-  O304  1  0.46092623  0.89357828  0.77663263  1
  O2-  O305  1  0.04752046  0.90403223  0.98856496  1
  O2-  O306  1  0.45611513  0.56788708  0.51891453  1
  O2-  O307  1  0.94865881  0.23839114  0.49245167  1
  O2-  O308  1  0.45105571  0.43125870  0.51604536  1
  O2-  O309  1  0.94964100  0.09747264  0.00985407  1
  O2-  O310  1  0.55066461  0.09116185  0.01420509  1
  O2-  O311  1  0.45658962  0.89568272  0.76666764  1
  O2-  O312  1  0.44422502  0.08656942  0.52048087  1
  O2-  O313  1  0.04560213  0.56587450  0.01847466  1
  O2-  O314  1  0.04616684  0.23278934  0.74776075  1
  O2-  O315  1  0.95010870  0.23734701  0.50439293  1
  O2-  O316  1  0.05234760  0.24290008  0.26933660  1
  O2-  O317  1  0.05502360  0.91435255  0.47014998  1
  O2-  O318  1  0.95364424  0.43342856  0.48712905  1
  O2-  O319  1  0.55092519  0.90073672  0.48749022  1
  O2-  O320  1  0.45764537  0.89292352  0.45527725  1
  O2-  O321  1  0.54917388  0.57602921  0.24218126  1
  O2-  O322  1  0.94895573  0.57345799  0.73619795  1
  O2-  O323  1  0.04913333  0.76485921  0.23809868  1
  O2-  O324  1  0.43626929  0.74419891  0.06082692  1
  O2-  O325  1  0.06237952  0.59068357  0.27268968  1
  O2-  O326  1  0.94006153  0.58992746  0.21639783  1
  O2-  O327  1  0.44073805  0.26083103  0.53417179  1
  O2-  O328  1  0.43082941  0.94159784  0.55510645  1
  O2-  O329  1  0.93468953  0.40884543  0.27244480  1
  O2-  O330  1  0.43528151  0.59292716  0.19298309  1
  O2-  O331  1  0.93293725  0.25697279  0.77828269  1
  O2-  O332  1  0.57755424  0.72367176  0.22156402  1
  O2-  O333  1  0.06114297  0.73651143  0.22227323  1
  O2-  O334  1  0.93689550  0.59862816  0.96944814  1
  O2-  O335  1  0.05307594  0.91195152  0.46937490  1
  O2-  O336  1  0.43816945  0.40971565  0.77015701  1
  O2-  O337  1  0.93916333  0.92688352  0.79257393  1
  O2-  O338  1  0.56159157  0.26614883  0.67377460  1
  O2-  O339  1  0.06163338  0.73702778  0.03337865  1
  O2-  O340  1  0.55493469  0.75691909  0.02202323  1
  O2-  O341  1  0.93481121  0.25906650  0.97160449  1
  O2-  O342  1  0.43453985  0.40768325  0.31987266  1
  O2-  O343  1  0.93881794  0.74179966  0.21594286  1
  O2-  O344  1  0.44545991  0.08635982  0.52039567  1
  O2-  O345  1  0.43490022  0.58281221  0.30604555  1
  O2-  O346  1  0.07025302  0.26720962  0.22050437  1
  O2-  O347  1  0.56358306  0.58912169  0.72263990  1
  O2-  O348  1  0.56350884  0.41095219  0.77237204  1
  O2-  O349  1  0.56613924  0.59031119  0.97170408  1
  O2-  O350  1  0.08074736  0.26671396  0.55877036  1
  O2-  O351  1  0.43733825  0.40457261  0.53197000  1
  O2-  O352  1  0.93946030  0.74106562  0.47156635  1
  O2-  O353  1  0.42672278  0.59510881  0.08120155  1
  O2-  O354  1  0.07533310  0.05836125  0.43259092  1
  O2-  O355  1  0.06319326  0.92826522  0.21393386  1
  O2-  O356  1  0.06799224  0.59103081  0.55887681  1
  O2-  O357  1  0.56388301  0.40411490  0.03279167  1
  O2-  O358  1  0.42213044  0.95877895  0.69032158  1
  O2-  O359  1  0.56818454  0.24649866  0.81297227  1
  O2-  O360  1  0.06387605  0.40464649  0.42743821  1
  O2-  O361  1  0.56341158  0.40718540  0.47626430  1
  O2-  O362  1  0.43403391  0.74131605  0.27230230  1
  O2-  O363  1  0.58811688  0.37391327  0.29950878  1
  O2-  O364  1  0.43420792  0.40294085  0.18339461  1
  O2-  O365  1  0.06990243  0.41952197  0.55925272  1
  O2-  O366  1  0.43302936  0.74572354  0.94828282  1
  O2-  O367  1  0.93844909  0.73371095  0.82333314  1
  O2-  O368  1  0.06033742  0.92224840  0.96106455  1
  O2-  O369  1  0.93539457  0.73966509  0.68064364  1
  O2-  O370  1  0.06673281  0.58550335  0.43805041  1
  O2-  O371  1  0.44926204  0.57202219  0.94861256  1
  O2-  O372  1  0.25013282  0.65458528  0.66670872  1
  O2-  O373  1  0.25034823  0.33345010  0.10987744  1
  O2-  O374  1  0.74974629  0.67577611  0.55879746  1
  O2-  O375  1  0.75063702  0.33018191  0.34769044  1
  O2-  O376  1  0.25043690  0.65906261  0.56850854  1
  O2-  O377  1  0.24960209  -0.01632195  0.13525620  1
  O2-  O378  1  0.25020785  0.66081427  0.41852852  1
  O2-  O379  1  0.74943538  0.00656272  0.14895422  1
  O2-  O380  1  0.24981829  -0.00118664  0.65208327  1
  O2-  O381  1  0.74942779  0.64974352  0.82955569  1
  O2-  O382  1  0.24916442  0.32734449  0.84394016  1
  O2-  O383  1  0.24970760  0.65967580  0.93386252  1
  O2-  O384  1  0.25032107  0.33692896  0.66872549  1
  O2-  O385  1  0.24990281  0.00218412  0.43783455  1
  O2-  O386  1  0.75008053  0.67547798  0.93887431  1
  O2-  O387  1  0.25002699  -0.00654593  0.85894409  1
  O2-  O388  1  0.25041525  0.67046377  0.32949001  1
  O2-  O389  1  0.74996206  0.65616366  0.64810185  1
  O2-  O390  1  0.75030155  0.00403341  0.34513044  1
  O2-  O391  1  0.25015973  0.32955020  0.57732608  1
  O2-  O392  1  0.25021298  0.65715212  0.81462725  1
  O2-  O393  1  0.74930953  0.32698814  0.11195663  1
  O2-  O394  1  0.74999912  0.66538561  0.15591517  1
  O2-  O395  1  0.25087491  -0.01591455  0.32675659  1
  O2-  O396  1  0.75007860  0.84020997  0.08622190  1
  O2-  O397  1  0.75005571  0.51068252  0.08489648  1
  O2-  O398  1  0.75019723  0.83665961  0.17576246  1
  O2-  O399  1  0.75017366  0.50590187  0.59854748  1
  O2-  O400  1  0.25010180  0.49165685  0.40756686  1
  O2-  O401  1  0.75013398  0.48268891  0.38208813  1
  O2-  O402  1  0.24991464  0.49643167  0.83148273  1
  O2-  O403  1  0.74988140  0.83280154  0.90433636  1
  O2-  O404  1  0.25042557  0.82632387  0.65446820  1
  O2-  O405  1  0.75013794  0.16044977  0.34477640  1
  O2-  O406  1  0.24976491  0.15629229  0.84377650  1
  O2-  O407  1  0.24998957  0.15581335  0.13955564  1
  O2-  O408  1  0.25008956  0.49577415  0.59061838  1
  O2-  O409  1  0.75020596  0.47591395  0.16614710  1
  O2-  O410  1  0.25018339  0.82714550  0.09447872  1
  O2-  O411  1  0.75011063  0.16092259  0.16576205  1
  O2-  O412  1  0.24977733  0.17304955  0.93182054  1
  O2-  O413  1  0.24980405  0.49695435  0.15885774  1
  O2-  O414  1  0.25023599  0.84157271  0.56800420  1
  O2-  O415  1  0.25016756  0.84545747  0.43615227  1
  O2-  O416  1  0.75004157  0.16588848  0.87824144  1
  O2-  O417  1  0.24976651  0.49404012  0.92161007  1
  O2-  O418  1  0.25016842  0.82993541  0.35362154  1
  O2-  O419  1  0.75022816  0.50427025  0.82604798  1
  O2-  O420  1  0.95432529  0.33327250  0.12189005  1
  O2-  O421  1  0.53940684  0.34250581  0.89562809  1
  O2-  O422  1  0.51975079  0.31255706  0.37797272  1
  O2-  O423  1  0.04639193  -0.00066370  0.63457688  1
  O2-  O424  1  0.47184821  0.66897246  0.85743342  1
  O2-  O425  1  0.03907742  0.33886570  0.65060485  1
  O2-  O426  1  0.52962808  0.00173825  0.62482051  1
  O2-  O427  1  0.45491753  0.32281982  0.87988171  1
  O2-  O428  1  0.95237453  0.33133460  0.62968454  1
  O2-  O429  1  0.02468639  0.67270439  0.63246714  1
  O2-  O430  1  0.04338802  0.34828787  0.11301325  1
  O2-  O431  1  0.52587152  0.01020034  0.37514657  1
  O2-  O432  1  0.53134898  0.67134306  0.86663384  1
  O2-  O433  1  0.95380339  0.00702881  0.62783403  1
  O2-  O434  1  0.52557385  0.67161926  0.61959289  1
  O2-  O435  1  0.97515566  0.32795475  0.37336889  1
  O2-  O436  1  0.47144952  -0.00282109  0.12906448  1
  O2-  O437  1  0.46905558  0.66797886  0.38413634  1
  O2-  O438  1  0.03350862  0.33713066  0.87452826  1
  O2-  O439  1  0.52114831  0.65778869  0.12468516  1
  O2-  O440  1  0.02175618  0.68449572  0.37030790  1
  O2-  O441  1  0.97055312  -0.00384397  0.12703607  1
  O2-  O442  1  0.54217450  0.66519349  0.37830424  1
  O2-  O443  1  0.97365471  0.34213856  0.87726483  1
