# generated using pymatgen
data_La7(Ru4O11)2
_symmetry_space_group_name_H-M   'P 1'
_cell_length_a   23.98947090
_cell_length_b   16.82953385
_cell_length_c   15.42596029
_cell_angle_alpha   90.00016570
_cell_angle_beta   90.00008884
_cell_angle_gamma   90.00006485
_symmetry_Int_Tables_number   1
_chemical_formula_structural   La7(Ru4O11)2
_chemical_formula_sum   'La84 Ru96 O264'
_cell_volume   6227.94782164
_cell_formula_units_Z   12
loop_
 _symmetry_equiv_pos_site_id
 _symmetry_equiv_pos_as_xyz
  1  'x, y, z'
loop_
 _atom_type_symbol
 _atom_type_oxidation_number
  La3+  3.0
  Ru4+  4.0
  O2-  -2.0
loop_
 _atom_site_type_symbol
 _atom_site_label
 _atom_site_symmetry_multiplicity
 _atom_site_fract_x
 _atom_site_fract_y
 _atom_site_fract_z
 _atom_site_occupancy
  La3+  La0  1  0.13919996  0.00121258  0.12416094  1
  La3+  La1  1  0.13705273  -0.00112359  0.37352333  1
  La3+  La2  1  0.13634766  -0.00198774  0.62647003  1
  La3+  La3  1  0.13806740  0.00031065  0.87703458  1
  La3+  La4  1  0.13949555  0.33204314  0.12258404  1
  La3+  La5  1  0.13866147  0.33406484  0.37413200  1
  La3+  La6  1  0.13715048  0.33469747  0.62600645  1
  La3+  La7  1  0.13836838  0.33355190  0.87667005  1
  La3+  La8  1  0.13899720  0.66558325  0.12454015  1
  La3+  La9  1  0.13876689  0.66421894  0.37532797  1
  La3+  La10  1  0.13940562  0.66549470  0.62709881  1
  La3+  La11  1  0.14063768  0.66688603  0.87429542  1
  La3+  La12  1  0.63903594  -0.00000420  0.12493792  1
  La3+  La13  1  0.63798430  0.00085954  0.37500480  1
  La3+  La14  1  0.63753747  -0.00029278  0.62721697  1
  La3+  La15  1  0.63903361  -0.00100986  0.87285930  1
  La3+  La16  1  0.63802794  0.33473559  0.12553703  1
  La3+  La17  1  0.63814094  0.33476399  0.37587374  1
  La3+  La18  1  0.63733242  0.33304730  0.62289023  1
  La3+  La19  1  0.63842415  0.33381333  0.87478349  1
  La3+  La20  1  0.63851372  0.66524046  0.12392285  1
  La3+  La21  1  0.63778277  0.66585087  0.37391212  1
  La3+  La22  1  0.63896327  0.66771449  0.62748261  1
  La3+  La23  1  0.64048161  0.66665081  0.87347108  1
  La3+  La24  1  0.36068087  0.00010675  0.12498762  1
  La3+  La25  1  0.36334965  0.00008305  0.37412895  1
  La3+  La26  1  0.36497912  -0.00018520  0.62514202  1
  La3+  La27  1  0.36226939  -0.00025873  0.87637272  1
  La3+  La28  1  0.36092725  0.33331436  0.12325425  1
  La3+  La29  1  0.36192465  0.33438607  0.37438126  1
  La3+  La30  1  0.36242002  0.33515875  0.62582354  1
  La3+  La31  1  0.36158299  0.33429905  0.87658175  1
  La3+  La32  1  0.36122926  0.66606803  0.12512005  1
  La3+  La33  1  0.36194966  0.66468979  0.37442326  1
  La3+  La34  1  0.36040846  0.66467262  0.62595516  1
  La3+  La35  1  0.35885345  0.66672159  0.87419454  1
  La3+  La36  1  0.86178042  0.00023593  0.12545313  1
  La3+  La37  1  0.86158753  0.00052371  0.37520877  1
  La3+  La38  1  0.86264159  -0.00018747  0.62528605  1
  La3+  La39  1  0.86108962  -0.00016682  0.87468862  1
  La3+  La40  1  0.86206571  0.33422379  0.12663372  1
  La3+  La41  1  0.86150535  0.33436281  0.37527146  1
  La3+  La42  1  0.86123230  0.33301051  0.62391461  1
  La3+  La43  1  0.86138695  0.33321255  0.87465385  1
  La3+  La44  1  0.86194316  0.66561797  0.12456953  1
  La3+  La45  1  0.86221332  0.66534044  0.37338821  1
  La3+  La46  1  0.86169001  0.66621018  0.62592127  1
  La3+  La47  1  0.85926725  0.66651540  0.87404378  1
  La3+  La48  1  0.50059583  0.82762152  0.63729829  1
  La3+  La49  1  -0.00223213  0.16236009  0.36429481  1
  La3+  La50  1  0.00143565  0.49867351  0.86642255  1
  La3+  La51  1  0.50113661  0.83647314  0.61734431  1
  La3+  La52  1  -0.00100440  0.16803823  0.13557882  1
  La3+  La53  1  0.49952432  0.50164535  0.88310523  1
  La3+  La54  1  0.49860915  0.83262922  0.13485983  1
  La3+  La55  1  0.00004409  0.83228782  0.88456976  1
  La3+  La56  1  0.00103942  0.17223036  0.38300337  1
  La3+  La57  1  -0.00091046  0.83390254  0.11457172  1
  La3+  La58  1  -0.00337613  0.16772205  0.87887695  1
  La3+  La59  1  0.50066130  0.49853067  0.63450625  1
  La3+  La60  1  -0.00044945  0.49997071  0.38440650  1
  La3+  La61  1  0.50041628  0.16837706  0.38722226  1
  La3+  La62  1  0.49946863  0.83471305  0.11846128  1
  La3+  La63  1  0.50070248  0.16687446  0.88361994  1
  La3+  La64  1  0.50110569  0.49843874  0.14263626  1
  La3+  La65  1  0.50125190  0.49804985  0.12019032  1
  La3+  La66  1  0.49804910  0.16137573  0.36841506  1
  La3+  La67  1  -0.00042903  0.83516295  0.37896672  1
  La3+  La68  1  -0.00160353  0.50145627  0.36659362  1
  La3+  La69  1  0.00030303  0.16703430  0.61617051  1
  La3+  La70  1  0.50127874  0.16387674  0.13023900  1
  La3+  La71  1  0.50103714  0.49994306  0.38478063  1
  La3+  La72  1  0.24987139  0.17306828  0.46647084  1
  La3+  La73  1  0.24985779  0.50055803  -0.02141516  1
  La3+  La74  1  0.75007224  0.86875564  0.28439118  1
  La3+  La75  1  0.25004087  0.16957321  0.71415536  1
  La3+  La76  1  0.74990539  0.50175684  0.77345515  1
  La3+  La77  1  0.74980403  0.83686848  0.50433072  1
  La3+  La78  1  0.75019870  0.46604820  0.50259178  1
  La3+  La79  1  0.24970284  0.82454767  0.50129167  1
  La3+  La80  1  0.75003431  0.12061638  0.24288745  1
  La3+  La81  1  0.24996420  0.80284689  0.02435131  1
  La3+  La82  1  0.75009950  0.50016321  0.25989501  1
  La3+  La83  1  0.24969685  0.83055566  0.75245488  1
  Ru4+  Ru84  1  -0.00482938  -0.00629414  -0.00022190  1
  Ru4+  Ru85  1  -0.00007385  -0.00090351  0.24891748  1
  Ru4+  Ru86  1  0.00229703  0.00121008  0.50020179  1
  Ru4+  Ru87  1  -0.00134764  -0.00173391  0.75025474  1
  Ru4+  Ru88  1  -0.00453598  0.33741765  0.00437282  1
  Ru4+  Ru89  1  0.00087326  0.32935697  0.24554170  1
  Ru4+  Ru90  1  0.00030039  0.33433256  0.49880221  1
  Ru4+  Ru91  1  0.00047056  0.33280581  0.75025997  1
  Ru4+  Ru92  1  0.00051966  0.66595244  -0.00086620  1
  Ru4+  Ru93  1  -0.00108221  0.66606704  0.24946758  1
  Ru4+  Ru94  1  0.00253751  0.66835457  0.49721715  1
  Ru4+  Ru95  1  0.00470772  0.67007582  0.75231952  1
  Ru4+  Ru96  1  0.49779152  0.00362537  -0.00117221  1
  Ru4+  Ru97  1  0.50007897  0.00001349  0.24984850  1
  Ru4+  Ru98  1  0.50255108  -0.00402488  0.50084704  1
  Ru4+  Ru99  1  0.49702096  0.00534925  0.75080220  1
  Ru4+  Ru100  1  0.49689345  0.32732847  0.00078598  1
  Ru4+  Ru101  1  0.49732296  0.33172177  0.25135874  1
  Ru4+  Ru102  1  0.50153142  0.33330066  0.50267082  1
  Ru4+  Ru103  1  0.50051771  0.33122249  0.74687771  1
  Ru4+  Ru104  1  0.50044002  0.67003456  -0.00422245  1
  Ru4+  Ru105  1  0.49974601  0.66681598  0.24982734  1
  Ru4+  Ru106  1  0.50015144  0.66498560  0.50087510  1
  Ru4+  Ru107  1  0.49936592  0.66802829  0.75052992  1
  Ru4+  Ru108  1  0.11996417  0.16665520  -0.00085180  1
  Ru4+  Ru109  1  0.11293801  0.16525752  0.24966200  1
  Ru4+  Ru110  1  0.11171906  0.16827263  0.50093230  1
  Ru4+  Ru111  1  0.11179387  0.16858745  0.74949056  1
  Ru4+  Ru112  1  0.11269810  0.50111854  0.00026126  1
  Ru4+  Ru113  1  0.11457650  0.50245396  0.24997046  1
  Ru4+  Ru114  1  0.11384314  0.50111307  0.49982321  1
  Ru4+  Ru115  1  0.11574678  0.49908840  0.74973632  1
  Ru4+  Ru116  1  0.11219665  0.83094659  -0.00016331  1
  Ru4+  Ru117  1  0.11410093  0.83623559  0.24997696  1
  Ru4+  Ru118  1  0.11197189  0.83527268  0.50030155  1
  Ru4+  Ru119  1  0.11138032  0.83298930  0.74915513  1
  Ru4+  Ru120  1  0.61244574  0.16582792  0.00022176  1
  Ru4+  Ru121  1  0.61182166  0.16479723  0.24984167  1
  Ru4+  Ru122  1  0.61392550  0.16804567  0.50061286  1
  Ru4+  Ru123  1  0.61118804  0.16701199  0.74996122  1
  Ru4+  Ru124  1  0.61647316  0.50482707  -0.00114647  1
  Ru4+  Ru125  1  0.61448814  0.50243824  0.25017867  1
  Ru4+  Ru126  1  0.61170000  0.50008107  0.50026480  1
  Ru4+  Ru127  1  0.61404872  0.49776453  0.75002181  1
  Ru4+  Ru128  1  0.61470533  0.83131001  -0.00014091  1
  Ru4+  Ru129  1  0.61069509  0.83309337  0.25015525  1
  Ru4+  Ru130  1  0.61186432  0.83241479  0.49940042  1
  Ru4+  Ru131  1  0.61646812  0.82978851  0.75183226  1
  Ru4+  Ru132  1  0.38588327  0.16708863  0.00017103  1
  Ru4+  Ru133  1  0.38637354  0.16479670  0.24965419  1
  Ru4+  Ru134  1  0.38664321  0.16985068  0.50029500  1
  Ru4+  Ru135  1  0.38940381  0.16717033  0.75041844  1
  Ru4+  Ru136  1  0.38575941  0.49826574  -0.00080475  1
  Ru4+  Ru137  1  0.38600092  0.50265679  0.25088418  1
  Ru4+  Ru138  1  0.38673519  0.50239410  0.49975643  1
  Ru4+  Ru139  1  0.38572648  0.50039591  0.74974723  1
  Ru4+  Ru140  1  0.38836413  0.83219542  -0.00012292  1
  Ru4+  Ru141  1  0.38681386  0.83467253  0.24963941  1
  Ru4+  Ru142  1  0.38895930  0.83357277  0.49900254  1
  Ru4+  Ru143  1  0.38722186  0.83228110  0.75042854  1
  Ru4+  Ru144  1  0.88727814  0.16646779  -0.00041748  1
  Ru4+  Ru145  1  0.88774827  0.16539167  0.24900685  1
  Ru4+  Ru146  1  0.88491298  0.16789766  0.50035815  1
  Ru4+  Ru147  1  0.88779390  0.16690769  0.74977089  1
  Ru4+  Ru148  1  0.88695822  0.50094401  -0.00028141  1
  Ru4+  Ru149  1  0.88544984  0.50316201  0.24958277  1
  Ru4+  Ru150  1  0.88611289  0.49554343  0.50000106  1
  Ru4+  Ru151  1  0.88600671  0.49771814  0.74995091  1
  Ru4+  Ru152  1  0.88731463  0.83345146  -0.00031820  1
  Ru4+  Ru153  1  0.88897980  0.83369805  0.24992363  1
  Ru4+  Ru154  1  0.88560720  0.83180305  0.50043672  1
  Ru4+  Ru155  1  0.88432423  0.83464867  0.74965056  1
  Ru4+  Ru156  1  0.24999803  0.29693089  0.48243577  1
  Ru4+  Ru157  1  0.25001026  0.05357807  0.49309004  1
  Ru4+  Ru158  1  0.75007923  0.91624586  -0.00374773  1
  Ru4+  Ru159  1  0.74989432  0.24481603  0.00213430  1
  Ru4+  Ru160  1  0.74973924  0.96888376  0.50709069  1
  Ru4+  Ru161  1  0.25013223  0.75497896  0.24724714  1
  Ru4+  Ru162  1  0.24978097  0.04890836  0.76547571  1
  Ru4+  Ru163  1  0.75033864  0.24720786  0.74822240  1
  Ru4+  Ru164  1  0.25004739  0.94186320  -0.00202994  1
  Ru4+  Ru165  1  0.75032194  0.74860891  -0.00591547  1
  Ru4+  Ru166  1  0.75004782  0.73360691  0.25207827  1
  Ru4+  Ru167  1  0.25008432  0.24557914  0.24942771  1
  Ru4+  Ru168  1  0.25001504  0.71293263  0.48949350  1
  Ru4+  Ru169  1  0.75027342  0.08576494  0.74991620  1
  Ru4+  Ru170  1  0.75003550  0.59461872  0.50076480  1
  Ru4+  Ru171  1  0.24997774  0.29186444  0.77380452  1
  Ru4+  Ru172  1  0.74998617  0.27054896  0.24597737  1
  Ru4+  Ru173  1  0.24992976  0.93567194  0.49177444  1
  Ru4+  Ru174  1  0.74987625  0.70838847  0.50137278  1
  Ru4+  Ru175  1  0.24987276  0.08533527  0.24608470  1
  Ru4+  Ru176  1  0.24982337  0.42062580  0.24814142  1
  Ru4+  Ru177  1  0.75011161  0.08833032  0.00042391  1
  Ru4+  Ru178  1  0.24993539  0.42983947  0.49661769  1
  Ru4+  Ru179  1  0.75014857  0.41676579  -0.00166556  1
  O2-  O180  1  0.16814083  0.08153719  0.00067389  1
  O2-  O181  1  0.16770670  0.08069220  0.25061265  1
  O2-  O182  1  0.16503604  0.07888912  0.49990134  1
  O2-  O183  1  0.16615834  0.07913628  0.74988953  1
  O2-  O184  1  0.16820486  0.41354588  -0.00061008  1
  O2-  O185  1  0.16845386  0.41442690  0.25044155  1
  O2-  O186  1  0.16717333  0.41370812  0.50004950  1
  O2-  O187  1  0.16595129  0.41506792  0.75028580  1
  O2-  O188  1  0.16727331  0.74653989  0.00120987  1
  O2-  O189  1  0.16849856  0.74704982  0.24992500  1
  O2-  O190  1  0.16629792  0.74575183  0.49971146  1
  O2-  O191  1  0.16793415  0.74885981  0.74996088  1
  O2-  O192  1  0.66771019  0.08123080  0.00007197  1
  O2-  O193  1  0.66582741  0.07851538  0.25005372  1
  O2-  O194  1  0.66635568  0.08082388  0.50045187  1
  O2-  O195  1  0.66750760  0.08051907  0.74951250  1
  O2-  O196  1  0.66725586  0.41371358  0.00031807  1
  O2-  O197  1  0.66716168  0.41349997  0.24966281  1
  O2-  O198  1  0.66752854  0.41274995  0.50013581  1
  O2-  O199  1  0.66688094  0.41396555  0.74982834  1
  O2-  O200  1  0.66729534  0.74849946  -0.00054117  1
  O2-  O201  1  0.66664945  0.74663292  0.25010438  1
  O2-  O202  1  0.66542898  0.74657621  0.49931011  1
  O2-  O203  1  0.66683486  0.74869388  0.74887461  1
  O2-  O204  1  0.33308627  0.25241879  -0.00045269  1
  O2-  O205  1  0.33173567  0.25294670  0.25022915  1
  O2-  O206  1  0.33497771  0.25433934  0.50084295  1
  O2-  O207  1  0.33374227  0.25443777  0.75020229  1
  O2-  O208  1  0.33220065  0.58662282  0.00039059  1
  O2-  O209  1  0.33193723  0.58559075  0.24955009  1
  O2-  O210  1  0.33241916  0.58529741  0.50051805  1
  O2-  O211  1  0.33446718  0.58484575  0.74930648  1
  O2-  O212  1  0.33227238  0.92013315  -0.00008896  1
  O2-  O213  1  0.33376797  0.91889411  0.25126290  1
  O2-  O214  1  0.33488692  0.92139357  0.50025362  1
  O2-  O215  1  0.33234727  0.92004141  0.74943845  1
  O2-  O216  1  0.83236385  0.25235403  0.00044396  1
  O2-  O217  1  0.83289618  0.25341095  0.25038368  1
  O2-  O218  1  0.83257297  0.25192988  0.50124071  1
  O2-  O219  1  0.83255213  0.25309852  0.74981829  1
  O2-  O220  1  0.83328326  0.58475173  0.00011637  1
  O2-  O221  1  0.83251494  0.58577353  0.24910495  1
  O2-  O222  1  0.83270823  0.58702738  0.50002208  1
  O2-  O223  1  0.83183563  0.58599090  0.74958007  1
  O2-  O224  1  0.83299885  0.91934464  0.00022397  1
  O2-  O225  1  0.83303544  0.92084119  0.24984252  1
  O2-  O226  1  0.83426759  0.92016947  0.50000778  1
  O2-  O227  1  0.83381193  0.91860650  0.75005366  1
  O2-  O228  1  0.16701195  0.25227750  -0.00022909  1
  O2-  O229  1  0.16780999  0.25299501  0.25097660  1
  O2-  O230  1  0.16607770  0.25433126  0.49976636  1
  O2-  O231  1  0.16666735  0.25355337  0.75020177  1
  O2-  O232  1  0.16675103  0.58621909  0.00081378  1
  O2-  O233  1  0.16771595  0.58531878  0.24966791  1
  O2-  O234  1  0.16762495  0.58515734  0.49988062  1
  O2-  O235  1  0.16678735  0.58413387  0.74940039  1
  O2-  O236  1  0.16714314  0.92065636  0.00068644  1
  O2-  O237  1  0.16626470  0.91835424  0.25078366  1
  O2-  O238  1  0.16560527  0.92070394  0.50041180  1
  O2-  O239  1  0.16812543  0.91874713  0.74967720  1
  O2-  O240  1  0.66820810  0.25293394  0.00018118  1
  O2-  O241  1  0.66685974  0.25410184  0.24996977  1
  O2-  O242  1  0.66766847  0.25183383  0.50012608  1
  O2-  O243  1  0.66710833  0.25255615  0.75021018  1
  O2-  O244  1  0.66763311  0.58480211  0.00050436  1
  O2-  O245  1  0.66673518  0.58655422  0.24974953  1
  O2-  O246  1  0.66636129  0.58674858  0.49959858  1
  O2-  O247  1  0.66784960  0.58568945  0.74946455  1
  O2-  O248  1  0.66770569  0.91908440  0.00028023  1
  O2-  O249  1  0.66738794  0.92130819  0.24971214  1
  O2-  O250  1  0.66600940  0.92106274  0.50022765  1
  O2-  O251  1  0.66696834  0.91902665  0.74996028  1
  O2-  O252  1  0.33314204  0.08094191  -0.00027612  1
  O2-  O253  1  0.33259406  0.08091236  0.25134901  1
  O2-  O254  1  0.33448693  0.07870159  0.50062139  1
  O2-  O255  1  0.33420100  0.07934122  0.74942591  1
  O2-  O256  1  0.33205897  0.41365986  -0.00097347  1
  O2-  O257  1  0.33239900  0.41417886  0.24980769  1
  O2-  O258  1  0.33286535  0.41364872  0.50101335  1
  O2-  O259  1  0.33387245  0.41340602  0.75014821  1
  O2-  O260  1  0.33292367  0.74661821  0.00041851  1
  O2-  O261  1  0.33175576  0.74683252  0.25027250  1
  O2-  O262  1  0.33439104  0.74594648  0.50022904  1
  O2-  O263  1  0.33303334  0.74849320  0.74940285  1
  O2-  O264  1  0.83134373  0.08086190  0.00032029  1
  O2-  O265  1  0.83358756  0.07859870  0.25122161  1
  O2-  O266  1  0.83325807  0.08040654  0.50071252  1
  O2-  O267  1  0.83224192  0.07973181  0.74977232  1
  O2-  O268  1  0.83245575  0.41389074  -0.00013286  1
  O2-  O269  1  0.83314330  0.41407610  0.24925626  1
  O2-  O270  1  0.83396644  0.41381854  0.50043938  1
  O2-  O271  1  0.83319438  0.41426831  0.74934008  1
  O2-  O272  1  0.83161101  0.74741061  -0.00010651  1
  O2-  O273  1  0.83280842  0.74685077  0.24994662  1
  O2-  O274  1  0.83419271  0.74744886  0.50004851  1
  O2-  O275  1  0.83268817  0.74841704  0.75014800  1
  O2-  O276  1  0.95243323  0.89963945  0.23637467  1
  O2-  O277  1  0.95969777  0.77321638  0.77672802  1
  O2-  O278  1  0.04500458  0.23656947  0.01990025  1
  O2-  O279  1  0.45194360  0.23530424  0.76550892  1
  O2-  O280  1  0.55008309  0.90293920  0.73473968  1
  O2-  O281  1  0.95325307  0.56901602  0.51593571  1
  O2-  O282  1  0.54571084  0.43062730  0.97947999  1
  O2-  O283  1  0.54724229  0.42990906  0.01866427  1
  O2-  O284  1  0.45272647  0.90189486  0.48331184  1
  O2-  O285  1  0.45219209  0.90262321  0.73899598  1
  O2-  O286  1  0.45914003  0.22540429  0.22119281  1
  O2-  O287  1  0.04200700  0.10120864  1.00743550  1
  O2-  O288  1  0.04209679  0.10109578  0.00719677  1
  O2-  O289  1  0.04520299  0.56746741  0.98641050  1
  O2-  O290  1  0.45358012  0.43284605  0.26468851  1
  O2-  O291  1  0.04225171  0.77150248  0.47281550  1
  O2-  O292  1  0.04741148  0.09780544  0.48870647  1
  O2-  O293  1  0.45241735  0.43236886  0.48694343  1
  O2-  O294  1  0.95253813  0.09721758  0.48728142  1
  O2-  O295  1  0.95510365  0.43159840  0.98625795  1
  O2-  O296  1  0.04515419  0.90210148  0.98704765  1
  O2-  O297  1  0.45938041  0.56042758  0.02608994  1
  O2-  O298  1  0.54701634  0.23530720  0.26349326  1
  O2-  O299  1  0.45215118  0.09649746  0.48433307  1
  O2-  O300  1  0.04609461  0.23604987  0.26243730  1
  O2-  O301  1  0.45343479  0.76221715  0.51303407  1
  O2-  O302  1  0.94911754  0.43224903  0.26752370  1
  O2-  O303  1  0.55325305  0.42240257  0.51972199  1
  O2-  O304  1  0.03959163  0.77180166  0.22226914  1
  O2-  O305  1  0.54865344  0.43156400  0.26659408  1
  O2-  O306  1  0.95839730  0.77150222  0.52799197  1
  O2-  O307  1  0.95316015  0.90314867  0.48035389  1
  O2-  O308  1  0.45275826  0.23553312  0.01391874  1
  O2-  O309  1  0.54494949  0.89972137  0.26315771  1
  O2-  O310  1  0.04650126  0.23693867  0.98087375  1
  O2-  O311  1  0.54640710  0.57223115  0.78965522  1
  O2-  O312  1  0.94974833  0.57274524  0.78902662  1
  O2-  O313  1  0.54752013  0.23499711  0.01475825  1
  O2-  O314  1  0.54843980  0.90446641  0.51224483  1
  O2-  O315  1  0.54514051  0.76477892  0.01471811  1
  O2-  O316  1  0.04138033  0.55899348  0.72143047  1
  O2-  O317  1  0.95557544  0.90297682  0.51925012  1
  O2-  O318  1  0.54474692  0.09662588  0.73581114  1
  O2-  O319  1  0.54746140  0.90666144  0.03982329  1
  O2-  O320  1  0.45438468  0.09681232  0.98697636  1
  O2-  O321  1  0.54827307  0.23697499  0.76608816  1
  O2-  O322  1  0.04699583  0.90335318  0.23447618  1
  O2-  O323  1  0.03635935  0.45044530  0.24335270  1
  O2-  O324  1  0.93584909  0.26478729  0.46702402  1
  O2-  O325  1  0.06569389  0.92878100  0.47081587  1
  O2-  O326  1  0.55381111  0.58262109  0.79732754  1
  O2-  O327  1  0.06411350  0.06961872  0.80316491  1
  O2-  O328  1  0.42964035  0.60606566  0.95027890  1
  O2-  O329  1  0.93664415  0.59553776  0.28335365  1
  O2-  O330  1  0.06334873  0.59675104  0.46627583  1
  O2-  O331  1  0.06543412  0.26133824  0.52924679  1
  O2-  O332  1  0.06484642  0.73840926  0.97164964  1
  O2-  O333  1  0.43478077  0.40401077  0.02811615  1
  O2-  O334  1  0.92935202  0.73254645  0.70877673  1
  O2-  O335  1  0.94257269  0.58481690  0.79409697  1
  O2-  O336  1  0.43445196  0.92688762  0.03056271  1
  O2-  O337  1  0.06622724  0.40607486  0.04695779  1
  O2-  O338  1  0.06971691  0.60120723  0.79142701  1
  O2-  O339  1  0.06913823  0.72886775  0.29660346  1
  O2-  O340  1  0.06425780  0.92951506  0.71782561  1
  O2-  O341  1  0.56413815  0.59772970  0.96726885  1
  O2-  O342  1  0.93542643  0.07182828  0.22157721  1
  O2-  O343  1  0.56247690  0.92888598  0.71545513  1
  O2-  O344  1  0.93850717  0.40386691  0.28534991  1
  O2-  O345  1  0.43443779  0.59513495  0.27954066  1
  O2-  O346  1  0.07739546  0.38804604  0.21351970  1
  O2-  O347  1  0.06372209  0.59581789  0.28287618  1
  O2-  O348  1  0.07272136  0.05640690  0.95725569  1
  O2-  O349  1  0.43463107  0.59517844  0.47128082  1
  O2-  O350  1  0.06404905  0.07170200  0.69632379  1
  O2-  O351  1  0.06534695  0.73878538  0.72011015  1
  O2-  O352  1  0.93618519  0.59305771  0.52776148  1
  O2-  O353  1  0.43554956  0.73772559  0.96826202  1
  O2-  O354  1  0.55549208  0.91730279  0.04722643  1
  O2-  O355  1  0.93479421  0.07210078  0.97070046  1
  O2-  O356  1  0.93593798  0.26348743  0.21775856  1
  O2-  O357  1  0.57131829  0.94181535  0.92792651  1
  O2-  O358  1  0.42755064  0.27250949  0.29400682  1
  O2-  O359  1  0.93069206  0.72766666  0.45438155  1
  O2-  O360  1  0.56460514  0.26046626  0.52816686  1
  O2-  O361  1  0.93583007  0.73710556  0.28270777  1
  O2-  O362  1  0.06697404  0.40626359  0.95283183  1
  O2-  O363  1  0.06552354  0.26079377  0.72051936  1
  O2-  O364  1  0.07173925  0.73097784  0.54161616  1
  O2-  O365  1  0.57058380  0.60755000  0.67742619  1
  O2-  O366  1  0.92752394  0.60015906  0.68616408  1
  O2-  O367  1  0.56364241  0.73627739  0.78225760  1
  O2-  O368  1  0.93641194  0.73588415  0.96761692  1
  O2-  O369  1  0.55735212  0.41711713  0.52457927  1
  O2-  O370  1  0.56238367  0.40444214  0.28135285  1
  O2-  O371  1  0.43753641  0.07324960  0.46477278  1
  O2-  O372  1  0.74989774  0.66416068  0.34607745  1
  O2-  O373  1  0.24998011  0.34487626  0.58462633  1
  O2-  O374  1  0.24999604  0.66818362  0.67364118  1
  O2-  O375  1  0.25015540  -0.00240300  0.39095977  1
  O2-  O376  1  0.74992296  0.34107169  0.33291247  1
  O2-  O377  1  0.75019831  0.00285261  0.39936970  1
  O2-  O378  1  0.75004013  0.33506083  0.82418874  1
  O2-  O379  1  0.74987474  0.33625863  0.15306176  1
  O2-  O380  1  0.24998045  -0.00350544  0.59249094  1
  O2-  O381  1  0.75017073  0.66669710  0.84702289  1
  O2-  O382  1  0.25012200  -0.01372751  0.67357759  1
  O2-  O383  1  0.25006165  0.33380966  0.15806051  1
  O2-  O384  1  0.24993538  0.65838360  0.58362931  1
  O2-  O385  1  0.74987375  0.00116020  0.90589968  1
  O2-  O386  1  0.74988883  0.00047451  0.09335602  1
  O2-  O387  1  0.75004871  0.33198466  0.92429946  1
  O2-  O388  1  0.24979506  0.00172796  0.15839210  1
  O2-  O389  1  0.24990731  0.33349138  0.34219514  1
  O2-  O390  1  0.74989563  0.66558828  0.07363105  1
  O2-  O391  1  0.74985174  0.65845059  0.16734727  1
  O2-  O392  1  0.74997130  0.33356368  0.42436339  1
  O2-  O393  1  0.25002747  0.66752964  0.84444458  1
  O2-  O394  1  0.25006765  0.34349405  0.67364596  1
  O2-  O395  1  0.25000114  -0.00726834  0.85373209  1
  O2-  O396  1  0.74995979  0.16607890  0.84163983  1
  O2-  O397  1  0.24995380  0.16694968  0.84825843  1
  O2-  O398  1  0.25005503  0.83738316  0.88779890  1
  O2-  O399  1  0.25004077  0.49895609  0.11399180  1
  O2-  O400  1  0.25007278  0.16661054  0.16036841  1
  O2-  O401  1  0.24996402  0.49639817  0.41109841  1
  O2-  O402  1  0.75001098  0.17408108  0.35690888  1
  O2-  O403  1  0.75000107  0.50044274  0.63911615  1
  O2-  O404  1  0.24999627  0.83494037  0.62083910  1
  O2-  O405  1  0.25002607  0.16688320  0.93210218  1
  O2-  O406  1  0.24988501  0.16521565  0.60288009  1
  O2-  O407  1  0.24998521  0.49963576  0.84052805  1
  O2-  O408  1  0.74998283  0.50455023  0.05896540  1
  O2-  O409  1  0.24995995  0.49908699  0.65715825  1
  O2-  O410  1  0.75009712  0.50027647  0.13972007  1
  O2-  O411  1  0.75001991  0.17359787  0.11761709  1
  O2-  O412  1  0.74999513  0.16659642  0.43941519  1
  O2-  O413  1  0.74995177  0.16606474  0.65966101  1
  O2-  O414  1  0.75009531  0.83354488  0.65517165  1
  O2-  O415  1  0.24999153  0.83059769  0.16402262  1
  O2-  O416  1  0.75005694  0.82804350  0.15820543  1
  O2-  O417  1  0.75000583  0.50095449  0.38028595  1
  O2-  O418  1  0.74989816  0.83291456  0.06753330  1
  O2-  O419  1  0.25000233  0.83252533  0.37812052  1
  O2-  O420  1  0.02629740  0.00234725  0.37115601  1
  O2-  O421  1  0.97185099  0.00152948  0.62587549  1
  O2-  O422  1  0.97413240  -0.00222509  0.12009961  1
  O2-  O423  1  0.97346167  0.66884824  0.62183231  1
  O2-  O424  1  0.47488702  0.33372643  0.38017999  1
  O2-  O425  1  0.46259880  0.66790254  0.12721377  1
  O2-  O426  1  0.47369334  0.33220075  0.12920998  1
  O2-  O427  1  0.02491361  0.66829378  0.87566192  1
  O2-  O428  1  0.47189601  0.67187972  0.37417641  1
  O2-  O429  1  0.02996209  0.33037840  0.86793642  1
  O2-  O430  1  0.53756385  0.66651043  0.12770267  1
  O2-  O431  1  0.02867293  0.33846972  0.62612488  1
  O2-  O432  1  0.97190771  0.66725424  0.12414167  1
  O2-  O433  1  0.47262508  0.00056192  0.87359561  1
  O2-  O434  1  0.02335830  0.32675688  0.12409115  1
  O2-  O435  1  0.96798651  0.33330525  0.62659875  1
  O2-  O436  1  0.53199618  0.66689561  0.37419798  1
  O2-  O437  1  0.96745717  0.33192278  0.87377975  1
  O2-  O438  1  0.02889827  0.66225041  0.62549289  1
  O2-  O439  1  0.47384023  0.00255642  0.12881497  1
  O2-  O440  1  0.47184635  0.00066502  0.62389036  1
  O2-  O441  1  0.52443697  0.33393812  0.63287309  1
  O2-  O442  1  0.52826290  0.00168673  0.37563758  1
  O2-  O443  1  0.97374636  -0.00275109  0.87099496  1
