# generated using pymatgen
data_La7(Ru4O11)2
_symmetry_space_group_name_H-M   'P 1'
_cell_length_a   23.98959321
_cell_length_b   16.82952660
_cell_length_c   15.42673915
_cell_angle_alpha   90.00103627
_cell_angle_beta   90.00026848
_cell_angle_gamma   89.99973551
_symmetry_Int_Tables_number   1
_chemical_formula_structural   La7(Ru4O11)2
_chemical_formula_sum   'La84 Ru96 O264'
_cell_volume   6228.29134584
_cell_formula_units_Z   12
loop_
 _symmetry_equiv_pos_site_id
 _symmetry_equiv_pos_as_xyz
  1  'x, y, z'
loop_
 _atom_type_symbol
 _atom_type_oxidation_number
  La3+  3.0
  Ru4+  4.0
  O2-  -2.0
loop_
 _atom_site_type_symbol
 _atom_site_label
 _atom_site_symmetry_multiplicity
 _atom_site_fract_x
 _atom_site_fract_y
 _atom_site_fract_z
 _atom_site_occupancy
  La3+  La0  1  0.13953738  -0.00045087  0.12357933  1
  La3+  La1  1  0.13745612  -0.00235348  0.37645818  1
  La3+  La2  1  0.13749602  -0.00046153  0.62331484  1
  La3+  La3  1  0.13939355  0.00085980  0.87705392  1
  La3+  La4  1  0.13950224  0.33412784  0.12183688  1
  La3+  La5  1  0.13907687  0.33331137  0.37814597  1
  La3+  La6  1  0.13802225  0.33148312  0.62223668  1
  La3+  La7  1  0.14117034  0.33317765  0.87801858  1
  La3+  La8  1  0.13887778  0.66642226  0.12338806  1
  La3+  La9  1  0.13998101  0.66839045  0.37508611  1
  La3+  La10  1  0.13895165  0.66703874  0.62235439  1
  La3+  La11  1  0.13882819  0.66554011  0.87872807  1
  La3+  La12  1  0.63747448  0.00116188  0.12626131  1
  La3+  La13  1  0.63840108  0.00207072  0.37261252  1
  La3+  La14  1  0.63958091  0.00056721  0.62851986  1
  La3+  La15  1  0.64017573  0.00010011  0.87490019  1
  La3+  La16  1  0.63950259  0.33225639  0.12324331  1
  La3+  La17  1  0.63866846  0.33282068  0.37583704  1
  La3+  La18  1  0.64027446  0.33442925  0.62583446  1
  La3+  La19  1  0.63908211  0.33341059  0.87467028  1
  La3+  La20  1  0.63862451  0.66763240  0.12336992  1
  La3+  La21  1  0.63561584  0.66736263  0.37508998  1
  La3+  La22  1  0.63749701  0.66641923  0.62600470  1
  La3+  La23  1  0.63896165  0.66701052  0.87444344  1
  La3+  La24  1  0.36140481  -0.00039159  0.12334211  1
  La3+  La25  1  0.36231132  -0.00237151  0.37652159  1
  La3+  La26  1  0.36239720  -0.00149458  0.62311142  1
  La3+  La27  1  0.36074498  0.00126398  0.87866278  1
  La3+  La28  1  0.36173525  0.33283189  0.12110138  1
  La3+  La29  1  0.36061757  0.33268751  0.37836554  1
  La3+  La30  1  0.36177490  0.33198036  0.62211587  1
  La3+  La31  1  0.35941689  0.33290627  0.87877004  1
  La3+  La32  1  0.36024250  0.66607789  0.12507408  1
  La3+  La33  1  0.35960131  0.66647694  0.37680023  1
  La3+  La34  1  0.36254302  0.66779119  0.62161504  1
  La3+  La35  1  0.36080614  0.66553373  0.87730103  1
  La3+  La36  1  0.86112806  0.00104909  0.12516308  1
  La3+  La37  1  0.86180571  0.00065855  0.37395156  1
  La3+  La38  1  0.86166659  0.00027221  0.62694867  1
  La3+  La39  1  0.86101932  0.00004300  0.87503952  1
  La3+  La40  1  0.86175186  0.33308835  0.12259525  1
  La3+  La41  1  0.86300101  0.33322997  0.37780290  1
  La3+  La42  1  0.86171344  0.33287666  0.62452759  1
  La3+  La43  1  0.85959253  0.33368674  0.87717282  1
  La3+  La44  1  0.86111808  0.66708765  0.12426430  1
  La3+  La45  1  0.86346320  0.66784016  0.37332222  1
  La3+  La46  1  0.86146656  0.66760429  0.62613210  1
  La3+  La47  1  0.85976627  0.66708544  0.87427497  1
  La3+  La48  1  0.00159604  0.16884505  0.13213709  1
  La3+  La49  1  0.49807820  0.17057306  0.62953043  1
  La3+  La50  1  0.00001687  0.83320630  0.61318983  1
  La3+  La51  1  -0.00004642  0.50009159  0.13259688  1
  La3+  La52  1  0.00105661  0.49702890  0.61418323  1
  La3+  La53  1  0.49909574  0.16711580  0.61326656  1
  La3+  La54  1  0.00045957  0.16633613  0.36847074  1
  La3+  La55  1  0.50152469  0.49932893  0.88137577  1
  La3+  La56  1  0.49837572  0.83308210  0.88391017  1
  La3+  La57  1  0.00131764  0.49673241  0.87269241  1
  La3+  La58  1  0.50054611  0.49859563  0.13429973  1
  La3+  La59  1  0.50037571  0.16599058  0.37857872  1
  La3+  La60  1  -0.00089009  0.49683239  0.36294829  1
  La3+  La61  1  0.49889913  0.16363578  0.87840033  1
  La3+  La62  1  0.00038057  0.17063436  0.11535325  1
  La3+  La63  1  0.49798454  0.16245497  0.87394031  1
  La3+  La64  1  0.00232354  0.16838375  0.88183401  1
  La3+  La65  1  0.00066609  0.83447747  0.86767904  1
  La3+  La66  1  0.00151137  0.50164101  0.38434699  1
  La3+  La67  1  0.50080592  0.49855563  0.63452145  1
  La3+  La68  1  -0.00088904  0.49865407  0.63618140  1
  La3+  La69  1  0.50046490  0.49882222  0.11359886  1
  La3+  La70  1  0.49901108  0.49932702  0.38489930  1
  La3+  La71  1  0.50077181  0.83160623  0.38598852  1
  La3+  La72  1  0.75007067  0.49955266  0.24281437  1
  La3+  La73  1  0.75033710  0.83503911  0.55090989  1
  La3+  La74  1  0.24998284  0.83233515  0.27105998  1
  La3+  La75  1  0.75000589  0.16694410  0.73143531  1
  La3+  La76  1  0.25004348  0.16398475  0.23324724  1
  La3+  La77  1  0.24977586  0.83365558  -0.04316927  1
  La3+  La78  1  0.74998119  0.16847761  0.04408889  1
  La3+  La79  1  0.74961838  0.45337967  0.49139318  1
  La3+  La80  1  0.24994433  0.49896104  0.50797448  1
  La3+  La81  1  0.24996957  0.53146782  0.74061133  1
  La3+  La82  1  0.25026837  0.83591209  0.74549518  1
  La3+  La83  1  0.75006660  0.79895326  -0.00032902  1
  Ru4+  Ru84  1  0.00107924  -0.00464652  -0.00156235  1
  Ru4+  Ru85  1  0.00189277  -0.00451650  0.25245684  1
  Ru4+  Ru86  1  0.00045329  -0.00037147  0.49849777  1
  Ru4+  Ru87  1  0.00262028  -0.00078140  0.75101192  1
  Ru4+  Ru88  1  -0.00019075  0.33383521  0.00135175  1
  Ru4+  Ru89  1  0.00036315  0.33440668  0.24883208  1
  Ru4+  Ru90  1  0.00416124  0.32643062  0.50033675  1
  Ru4+  Ru91  1  0.00168335  0.33350190  0.74952528  1
  Ru4+  Ru92  1  0.00249562  0.66645238  0.00013097  1
  Ru4+  Ru93  1  0.00192479  0.66935277  0.24874197  1
  Ru4+  Ru94  1  0.00060318  0.66966433  0.50107845  1
  Ru4+  Ru95  1  0.00058340  0.66469377  0.75031276  1
  Ru4+  Ru96  1  0.50100585  -0.00178173  0.00390556  1
  Ru4+  Ru97  1  0.50075909  -0.00020819  0.24910563  1
  Ru4+  Ru98  1  0.50150096  0.00463518  0.49753219  1
  Ru4+  Ru99  1  0.49825761  -0.00371852  0.74629815  1
  Ru4+  Ru100  1  0.50131133  0.34103646  0.00212665  1
  Ru4+  Ru101  1  0.49834968  0.32986450  0.25067601  1
  Ru4+  Ru102  1  0.50172188  0.34259339  0.49889202  1
  Ru4+  Ru103  1  0.49946214  0.33768264  0.74947277  1
  Ru4+  Ru104  1  0.49816122  0.66246714  0.00192282  1
  Ru4+  Ru105  1  0.50354438  0.66925594  0.24771874  1
  Ru4+  Ru106  1  0.49646078  0.67078607  0.50229013  1
  Ru4+  Ru107  1  0.50000680  0.66874311  0.74800744  1
  Ru4+  Ru108  1  0.11478093  0.16728679  -0.00000998  1
  Ru4+  Ru109  1  0.11044455  0.16642053  0.24972020  1
  Ru4+  Ru110  1  0.11276863  0.16901504  0.50070582  1
  Ru4+  Ru111  1  0.11054451  0.16717863  0.74976176  1
  Ru4+  Ru112  1  0.11440406  0.50091147  0.00046064  1
  Ru4+  Ru113  1  0.11168420  0.50019200  0.24955841  1
  Ru4+  Ru114  1  0.11223772  0.49978688  0.49977123  1
  Ru4+  Ru115  1  0.11194694  0.49903524  0.75032638  1
  Ru4+  Ru116  1  0.11096205  0.83247116  0.00004739  1
  Ru4+  Ru117  1  0.10909915  0.83258958  0.25093439  1
  Ru4+  Ru118  1  0.11444733  0.83451620  0.49978383  1
  Ru4+  Ru119  1  0.11201713  0.83539353  0.75006282  1
  Ru4+  Ru120  1  0.61367767  0.16591974  0.00099143  1
  Ru4+  Ru121  1  0.61213623  0.16471362  0.25001509  1
  Ru4+  Ru122  1  0.61455064  0.16629147  0.49987392  1
  Ru4+  Ru123  1  0.61556670  0.16612354  0.75089248  1
  Ru4+  Ru124  1  0.61160570  0.49978129  -0.00008259  1
  Ru4+  Ru125  1  0.61207475  0.50184132  0.25014722  1
  Ru4+  Ru126  1  0.61345781  0.49605184  0.49995589  1
  Ru4+  Ru127  1  0.61263293  0.50005965  0.75107522  1
  Ru4+  Ru128  1  0.61295957  0.83789827  -0.00033238  1
  Ru4+  Ru129  1  0.61472456  0.83434161  0.24984027  1
  Ru4+  Ru130  1  0.61210088  0.83232257  0.49947592  1
  Ru4+  Ru131  1  0.61487282  0.83264681  0.75020664  1
  Ru4+  Ru132  1  0.38396614  0.16154430  0.00061506  1
  Ru4+  Ru133  1  0.38835008  0.16631056  0.25061263  1
  Ru4+  Ru134  1  0.38329429  0.16447986  0.50006302  1
  Ru4+  Ru135  1  0.38578670  0.16671583  0.74974554  1
  Ru4+  Ru136  1  0.38493853  0.49909207  -0.00020601  1
  Ru4+  Ru137  1  0.38468395  0.49638980  0.25024951  1
  Ru4+  Ru138  1  0.38784263  0.50056664  0.49975394  1
  Ru4+  Ru139  1  0.38840183  0.49912860  0.74987558  1
  Ru4+  Ru140  1  0.38862196  0.83389881  0.00046231  1
  Ru4+  Ru141  1  0.38762103  0.83470891  0.24926643  1
  Ru4+  Ru142  1  0.38311089  0.82911987  0.50128951  1
  Ru4+  Ru143  1  0.38966846  0.83383767  0.74891416  1
  Ru4+  Ru144  1  0.88556849  0.17024068  -0.00117075  1
  Ru4+  Ru145  1  0.88559524  0.16607162  0.25016551  1
  Ru4+  Ru146  1  0.88756440  0.16705419  0.49923605  1
  Ru4+  Ru147  1  0.88686143  0.16634956  0.75018628  1
  Ru4+  Ru148  1  0.88796051  0.49943450  0.00072165  1
  Ru4+  Ru149  1  0.88917665  0.49974533  0.25008057  1
  Ru4+  Ru150  1  0.88449201  0.50212745  0.50065993  1
  Ru4+  Ru151  1  0.88617108  0.49775162  0.75022282  1
  Ru4+  Ru152  1  0.88872881  0.83338868  -0.00044308  1
  Ru4+  Ru153  1  0.88645569  0.83249923  0.24934946  1
  Ru4+  Ru154  1  0.88921188  0.83332169  0.50037255  1
  Ru4+  Ru155  1  0.88565269  0.83461129  0.74986006  1
  Ru4+  Ru156  1  0.24991413  0.28518466  0.26892224  1
  Ru4+  Ru157  1  0.74991809  0.36638242  0.23845748  1
  Ru4+  Ru158  1  0.75010172  0.24387321  0.49996407  1
  Ru4+  Ru159  1  0.74989163  0.41939949  -0.00138147  1
  Ru4+  Ru160  1  0.24989944  0.96874179  0.75157563  1
  Ru4+  Ru161  1  0.74989861  0.23890462  0.25219636  1
  Ru4+  Ru162  1  0.24972293  0.58992773  0.24843906  1
  Ru4+  Ru163  1  0.75010267  0.63170785  0.26856380  1
  Ru4+  Ru164  1  0.24992748  0.24985912  0.75342233  1
  Ru4+  Ru165  1  0.75003886  0.09262922  0.50109119  1
  Ru4+  Ru166  1  0.74975138  0.57667209  -0.00202523  1
  Ru4+  Ru167  1  0.24994730  0.39106493  0.75751710  1
  Ru4+  Ru168  1  0.24978471  0.41459775  0.24992812  1
  Ru4+  Ru169  1  0.75031819  0.71447247  0.48131982  1
  Ru4+  Ru170  1  0.74993584  0.92922965  -0.00178442  1
  Ru4+  Ru171  1  0.75010469  0.96203491  0.50310906  1
  Ru4+  Ru172  1  0.74979546  0.59290483  0.49576084  1
  Ru4+  Ru173  1  0.24990598  0.08262118  0.50311879  1
  Ru4+  Ru174  1  0.74994113  0.91488363  0.24802915  1
  Ru4+  Ru175  1  0.25002287  0.08875696  0.75280674  1
  Ru4+  Ru176  1  0.75013173  0.58613713  0.75736079  1
  Ru4+  Ru177  1  0.24999992  0.04111169  0.25672034  1
  Ru4+  Ru178  1  0.74994750  0.41238914  0.75446704  1
  Ru4+  Ru179  1  0.24990071  0.70354182  0.73265282  1
  O2-  O180  1  0.16638476  0.08147786  0.00098902  1
  O2-  O181  1  0.16601589  0.07843402  0.25045285  1
  O2-  O182  1  0.16756989  0.08041011  0.49995716  1
  O2-  O183  1  0.16706108  0.08055270  0.74977968  1
  O2-  O184  1  0.16490874  0.41559087  -0.00008142  1
  O2-  O185  1  0.16746153  0.41345684  0.24991010  1
  O2-  O186  1  0.16770962  0.41354085  0.50126910  1
  O2-  O187  1  0.16711884  0.41300616  0.74939258  1
  O2-  O188  1  0.16819371  0.74901544  0.00000694  1
  O2-  O189  1  0.16658026  0.74782297  0.24950626  1
  O2-  O190  1  0.16583262  0.74764763  0.50039436  1
  O2-  O191  1  0.16621115  0.74556107  0.74928330  1
  O2-  O192  1  0.66758730  0.08138068  0.00048987  1
  O2-  O193  1  0.66741838  0.08217959  0.24905021  1
  O2-  O194  1  0.66754744  0.08122172  0.50065711  1
  O2-  O195  1  0.66817784  0.08093646  0.74863673  1
  O2-  O196  1  0.66843986  0.41398815  0.00018929  1
  O2-  O197  1  0.66626689  0.41186012  0.24982852  1
  O2-  O198  1  0.66556186  0.41271479  0.49966313  1
  O2-  O199  1  0.66827004  0.41495209  0.75024834  1
  O2-  O200  1  0.66705086  0.74653590  -0.00001788  1
  O2-  O201  1  0.66831990  0.74746907  0.25034343  1
  O2-  O202  1  0.66621315  0.74598390  0.50028961  1
  O2-  O203  1  0.66612424  0.74872528  0.74875102  1
  O2-  O204  1  0.33420008  0.25089796  0.00042520  1
  O2-  O205  1  0.33433618  0.25487081  0.25047522  1
  O2-  O206  1  0.33356622  0.25209030  0.50069345  1
  O2-  O207  1  0.33258673  0.25286828  0.74945714  1
  O2-  O208  1  0.33381473  0.58542465  -0.00019834  1
  O2-  O209  1  0.33289872  0.58576830  0.24949240  1
  O2-  O210  1  0.33152548  0.58634289  0.50138413  1
  O2-  O211  1  0.33410046  0.58801165  0.74974064  1
  O2-  O212  1  0.33195184  0.91905638  0.00071457  1
  O2-  O213  1  0.33260428  0.91928180  0.25087687  1
  O2-  O214  1  0.33350641  0.91959119  0.49873053  1
  O2-  O215  1  0.33334277  0.92032201  0.75044253  1
  O2-  O216  1  0.83183801  0.25173869  0.00070987  1
  O2-  O217  1  0.83306701  0.25231734  0.24946749  1
  O2-  O218  1  0.83069991  0.25284822  0.50016944  1
  O2-  O219  1  0.83257645  0.25202759  0.74982665  1
  O2-  O220  1  0.83227636  0.58518801  -0.00055616  1
  O2-  O221  1  0.83293923  0.58822191  0.25011709  1
  O2-  O222  1  0.83334006  0.58670632  0.49960111  1
  O2-  O223  1  0.83141159  0.58610598  0.74993982  1
  O2-  O224  1  0.83277837  0.92023771  0.00057201  1
  O2-  O225  1  0.83343301  0.91814283  0.25039846  1
  O2-  O226  1  0.83408835  0.92088222  0.50060833  1
  O2-  O227  1  0.83364156  0.91797448  0.74877035  1
  O2-  O228  1  0.16557604  0.25107558  0.00012330  1
  O2-  O229  1  0.16592931  0.25496049  0.24992435  1
  O2-  O230  1  0.16702015  0.25081570  0.50077386  1
  O2-  O231  1  0.16719761  0.25251482  0.74965904  1
  O2-  O232  1  0.16689446  0.58412366  -0.00045017  1
  O2-  O233  1  0.16716516  0.58587614  0.25007026  1
  O2-  O234  1  0.16716071  0.58708796  0.50063762  1
  O2-  O235  1  0.16625612  0.58798500  0.74912502  1
  O2-  O236  1  0.16710877  0.91866080  0.00108534  1
  O2-  O237  1  0.16651829  0.91946069  0.25023314  1
  O2-  O238  1  0.16725654  0.91904829  0.49999574  1
  O2-  O239  1  0.16625399  0.92053542  0.74969696  1
  O2-  O240  1  0.66806875  0.25140240  -0.00022431  1
  O2-  O241  1  0.66714330  0.25260503  0.24920705  1
  O2-  O242  1  0.66897627  0.25233574  0.50015509  1
  O2-  O243  1  0.66780081  0.25235918  0.75105162  1
  O2-  O244  1  0.66860476  0.58608882  -0.00040879  1
  O2-  O245  1  0.66585473  0.58744905  0.25012389  1
  O2-  O246  1  0.66687298  0.58737833  0.49999088  1
  O2-  O247  1  0.66803370  0.58559355  0.74864399  1
  O2-  O248  1  0.66628569  0.91885038  0.00049521  1
  O2-  O249  1  0.66686381  0.91840283  0.24967769  1
  O2-  O250  1  0.66691650  0.92011681  0.50095728  1
  O2-  O251  1  0.66852825  0.91787322  0.74847970  1
  O2-  O252  1  0.33297418  0.08250414  0.00103287  1
  O2-  O253  1  0.33422804  0.07856238  0.25094765  1
  O2-  O254  1  0.33135831  0.08051700  0.49954166  1
  O2-  O255  1  0.33266885  0.08063372  0.74963421  1
  O2-  O256  1  0.33451361  0.41549829  0.00007306  1
  O2-  O257  1  0.33290407  0.41418111  0.25039724  1
  O2-  O258  1  0.33393921  0.41357417  0.50131158  1
  O2-  O259  1  0.33293657  0.41308959  0.74927119  1
  O2-  O260  1  0.33314675  0.74869943  -0.00006880  1
  O2-  O261  1  0.33243049  0.74797001  0.24856661  1
  O2-  O262  1  0.33296748  0.74844689  0.50011353  1
  O2-  O263  1  0.33445415  0.74596034  0.75019183  1
  O2-  O264  1  0.83105955  0.08138405  0.00090780  1
  O2-  O265  1  0.83213483  0.08142863  0.24913512  1
  O2-  O266  1  0.83264963  0.08127091  0.50084163  1
  O2-  O267  1  0.83228721  0.08099493  0.74887070  1
  O2-  O268  1  0.83117060  0.41460505  0.00047710  1
  O2-  O269  1  0.83469275  0.41215735  0.24942596  1
  O2-  O270  1  0.83406124  0.41240946  0.50009532  1
  O2-  O271  1  0.83249868  0.41480272  0.75003513  1
  O2-  O272  1  0.83342624  0.74651482  -0.00016513  1
  O2-  O273  1  0.83180137  0.74807498  0.25074496  1
  O2-  O274  1  0.83417266  0.74598638  0.49960455  1
  O2-  O275  1  0.83192124  0.74781339  0.74963142  1
  O2-  O276  1  0.45480236  0.76413234  0.73518521  1
  O2-  O277  1  0.45469066  0.56786584  0.73567451  1
  O2-  O278  1  0.45296767  0.90102326  0.51852414  1
  O2-  O279  1  0.45396081  0.57059304  0.23076976  1
  O2-  O280  1  0.04930696  0.23718715  0.73439542  1
  O2-  O281  1  0.53499093  0.88475865  0.75416468  1
  O2-  O282  1  0.96131691  0.78198776  0.24239049  1
  O2-  O283  1  0.54809537  0.09651105  0.98700462  1
  O2-  O284  1  0.04556583  0.09902172  0.48462264  1
  O2-  O285  1  0.55071485  0.76107954  0.28647870  1
  O2-  O286  1  0.54508563  0.09871353  0.48780012  1
  O2-  O287  1  0.04541808  0.90166398  0.01515866  1
  O2-  O288  1  0.45272887  0.09619352  0.73558487  1
  O2-  O289  1  0.04846908  0.09662922  0.01559467  1
  O2-  O290  1  0.04972197  0.76334620  0.26505600  1
  O2-  O291  1  0.44912214  0.90481851  0.48032331  1
  O2-  O292  1  0.04622754  0.09914192  0.76452765  1
  O2-  O293  1  0.45126602  0.23485864  0.97994235  1
  O2-  O294  1  0.55041295  0.23802923  0.78892466  1
  O2-  O295  1  0.54520460  0.56683992  0.52101074  1
  O2-  O296  1  0.96103762  0.10528008  0.22113443  1
  O2-  O297  1  0.45527322  0.56866544  0.98652229  1
  O2-  O298  1  0.54691294  0.56812945  0.48175731  1
  O2-  O299  1  0.04459648  0.90629874  0.26406703  1
  O2-  O300  1  0.95320665  0.56872177  0.51329717  1
  O2-  O301  1  0.45280997  0.23725310  0.76062303  1
  O2-  O302  1  0.45495705  0.23393036  0.48216795  1
  O2-  O303  1  0.55026379  0.90294667  0.98571116  1
  O2-  O304  1  0.45138057  0.90160845  0.99286467  1
  O2-  O305  1  0.54551152  0.22789126  0.97376881  1
  O2-  O306  1  0.45410599  0.23495199  0.52131454  1
  O2-  O307  1  0.45361764  0.23238943  0.01876006  1
  O2-  O308  1  0.54756100  0.76306247  0.98255578  1
  O2-  O309  1  0.54214600  0.10646237  0.72147317  1
  O2-  O310  1  0.45524082  0.56621659  0.26959886  1
  O2-  O311  1  0.95313488  0.42974308  0.48490674  1
  O2-  O312  1  0.95773996  0.55911384  0.78021716  1
  O2-  O313  1  0.96166938  0.21837697  0.75557477  1
  O2-  O314  1  0.45319250  0.89986079  0.00900347  1
  O2-  O315  1  0.46185070  0.78241665  0.25369823  1
  O2-  O316  1  0.54533836  0.23417557  0.23509754  1
  O2-  O317  1  0.96039089  0.11004168  0.99878621  1
  O2-  O318  1  0.95426873  0.23598713  0.26443559  1
  O2-  O319  1  0.44115631  0.08301476  0.97774614  1
  O2-  O320  1  0.54409318  0.76385986  0.02133997  1
  O2-  O321  1  0.53482516  0.87020181  0.52323080  1
  O2-  O322  1  0.04837658  0.56775863  0.76233688  1
  O2-  O323  1  0.96045408  0.11007821  -0.00088317  1
  O2-  O324  1  0.57174525  0.06743834  0.79431450  1
  O2-  O325  1  0.06435191  0.73715969  0.69484429  1
  O2-  O326  1  0.92847472  0.05511971  0.06713201  1
  O2-  O327  1  0.92740128  0.60386359  0.70512066  1
  O2-  O328  1  0.93618009  0.26225998  0.46744211  1
  O2-  O329  1  0.06364902  0.26386705  0.53235486  1
  O2-  O330  1  0.92641901  0.72197800  0.20871809  1
  O2-  O331  1  0.43640713  0.93287716  0.21915773  1
  O2-  O332  1  0.43530163  0.59381043  0.47170873  1
  O2-  O333  1  0.56485899  0.40179304  0.19426138  1
  O2-  O334  1  0.56517913  0.73785883  0.47209652  1
  O2-  O335  1  0.43712901  0.73548705  0.53251765  1
  O2-  O336  1  0.93752277  0.40687639  0.46692394  1
  O2-  O337  1  0.56526112  0.59417908  0.77857634  1
  O2-  O338  1  0.92769576  0.06183743  0.29427921  1
  O2-  O339  1  0.06523290  0.74033300  0.97044579  1
  O2-  O340  1  0.56673167  0.25971289  0.45135680  1
  O2-  O341  1  0.06406855  0.93088477  0.46803792  1
  O2-  O342  1  0.93505196  0.74174488  0.69962832  1
  O2-  O343  1  0.43577161  0.06876737  0.53354277  1
  O2-  O344  1  0.93558455  0.06870499  0.79934337  1
  O2-  O345  1  0.55649496  0.75153789  0.29098202  1
  O2-  O346  1  0.92922777  0.05961333  0.93892275  1
  O2-  O347  1  0.93585887  0.26315731  0.96679859  1
  O2-  O348  1  0.06558946  0.73935990  0.79998946  1
  O2-  O349  1  0.06472518  0.40564220  0.47130998  1
  O2-  O350  1  0.44597648  0.08859795  0.97625846  1
  O2-  O351  1  0.93593245  0.06851243  0.70056267  1
  O2-  O352  1  0.42374882  0.72417135  0.28530246  1
  O2-  O353  1  0.55617396  0.24716256  0.79272705  1
  O2-  O354  1  0.93509181  0.40726265  0.02877375  1
  O2-  O355  1  0.56651077  0.40719974  0.30106493  1
  O2-  O356  1  0.92709868  0.28067069  0.79086695  1
  O2-  O357  1  0.57185257  0.93599431  0.43511039  1
  O2-  O358  1  0.56928773  0.27409264  0.04729849  1
  O2-  O359  1  0.56441512  0.40676373  0.77851566  1
  O2-  O360  1  0.93549092  0.73693719  0.80449726  1
  O2-  O361  1  0.93523600  0.59386527  0.27861007  1
  O2-  O362  1  0.06472528  0.92765007  0.77851543  1
  O2-  O363  1  0.56503866  0.07217334  0.27836146  1
  O2-  O364  1  0.56904627  0.72645170  0.18238837  1
  O2-  O365  1  0.56688503  0.26033042  0.54927204  1
  O2-  O366  1  0.06428707  0.59294337  0.02915410  1
  O2-  O367  1  0.57311867  0.26817421  0.68490412  1
  O2-  O368  1  0.93638617  0.92758039  0.96666520  1
  O2-  O369  1  0.57376484  0.94967750  0.56656992  1
  O2-  O370  1  0.43535112  0.93199765  0.71765632  1
  O2-  O371  1  0.57539072  0.93937281  0.78556574  1
  O2-  O372  1  0.25010700  -0.00223334  0.90017914  1
  O2-  O373  1  0.24989800  0.66429609  0.34156743  1
  O2-  O374  1  0.25021180  0.33486051  0.40059394  1
  O2-  O375  1  0.75003296  0.32892686  0.35385941  1
  O2-  O376  1  0.74994591  0.67978827  0.16288713  1
  O2-  O377  1  0.75006699  0.33484326  0.65758327  1
  O2-  O378  1  0.74987424  0.33597628  0.90631147  1
  O2-  O379  1  0.75002354  0.00632407  0.39723759  1
  O2-  O380  1  0.75004914  0.66569500  0.84437016  1
  O2-  O381  1  0.25017558  0.66914517  0.92563196  1
  O2-  O382  1  0.25002600  0.33845876  0.16241675  1
  O2-  O383  1  0.75013804  0.00955674  0.08379952  1
  O2-  O384  1  0.74996157  -0.00058897  0.82636682  1
  O2-  O385  1  0.74988355  0.33407815  0.09414779  1
  O2-  O386  1  0.75013866  0.00202066  0.17544706  1
  O2-  O387  1  0.74978101  0.66630970  0.60459468  1
  O2-  O388  1  0.25014736  0.65524210  0.83747962  1
  O2-  O389  1  0.75001221  0.00921243  0.91533280  1
  O2-  O390  1  0.25028065  0.66655673  0.07985694  1
  O2-  O391  1  0.24997824  0.33335899  0.07485551  1
  O2-  O392  1  0.75004760  0.66836198  0.07085413  1
  O2-  O393  1  0.24997512  0.33295593  0.89750687  1
  O2-  O394  1  0.24997327  -0.00234971  0.15343722  1
  O2-  O395  1  0.25016370  0.66972038  0.16924164  1
  O2-  O396  1  0.24999559  0.83299690  0.15335508  1
  O2-  O397  1  0.24989204  0.83280401  0.59674770  1
  O2-  O398  1  0.24993952  0.16719393  0.11531071  1
  O2-  O399  1  0.74975524  0.83183861  0.40430327  1
  O2-  O400  1  0.25001463  0.49983940  0.08251970  1
  O2-  O401  1  0.75003545  0.49937690  0.68815828  1
  O2-  O402  1  0.25009362  0.50129453  0.31314477  1
  O2-  O403  1  0.24999897  0.16668455  0.65842451  1
  O2-  O404  1  0.24986216  0.16629279  0.35888509  1
  O2-  O405  1  0.75006805  0.50902649  0.37389295  1
  O2-  O406  1  0.24999830  0.83408903  0.38625160  1
  O2-  O407  1  0.75003828  0.16605654  0.92530838  1
  O2-  O408  1  0.24998245  0.49735241  0.62530398  1
  O2-  O409  1  0.25008567  0.17036538  0.44004388  1
  O2-  O410  1  0.75007633  0.16947484  0.33969735  1
  O2-  O411  1  0.74981858  0.16702908  0.84718413  1
  O2-  O412  1  0.75011355  0.50845324  0.60355437  1
  O2-  O413  1  0.25000864  0.50071421  0.16624255  1
  O2-  O414  1  0.25000947  0.49577247  0.86097890  1
  O2-  O415  1  0.24991903  0.50035671  0.39155478  1
  O2-  O416  1  0.24995477  0.83288576  0.07515611  1
  O2-  O417  1  0.75006953  0.82957564  0.31567186  1
  O2-  O418  1  0.74997752  0.16611380  0.60859774  1
  O2-  O419  1  0.24995760  0.16702857  0.84022774  1
  O2-  O420  1  0.46488054  0.33588666  0.87412954  1
  O2-  O421  1  0.52972048  0.65996879  0.37604787  1
  O2-  O422  1  0.46809559  -0.00191284  0.87051132  1
  O2-  O423  1  0.52754987  0.00040586  0.12673176  1
  O2-  O424  1  0.02528916  0.66813937  0.12844968  1
  O2-  O425  1  0.03531753  0.66503836  0.37827460  1
  O2-  O426  1  0.52153491  0.34358188  0.62298962  1
  O2-  O427  1  0.52776826  0.00013788  0.88326952  1
  O2-  O428  1  0.96649683  0.66969293  0.37803226  1
  O2-  O429  1  0.97166733  0.33453386  0.62407356  1
  O2-  O430  1  0.02752998  -0.00168512  0.62473883  1
  O2-  O431  1  0.52218611  0.33444764  0.37558666  1
  O2-  O432  1  0.97652851  0.66742274  0.61607403  1
  O2-  O433  1  0.53006594  0.66838283  0.87776534  1
  O2-  O434  1  0.46766108  0.66739305  0.87445111  1
  O2-  O435  1  0.52237532  0.00011135  0.37068573  1
  O2-  O436  1  0.47207828  0.33526065  0.12570242  1
  O2-  O437  1  0.02650668  0.00113421  0.87778910  1
  O2-  O438  1  0.97421901  -0.00299520  0.38137457  1
  O2-  O439  1  0.02339453  0.66015645  0.87752607  1
  O2-  O440  1  0.02675526  0.33047040  0.37196562  1
  O2-  O441  1  0.97411277  0.33004835  0.12917722  1
  O2-  O442  1  0.53124629  0.33706416  0.88468749  1
  O2-  O443  1  0.47133540  0.66635839  0.37765874  1
