# generated using pymatgen
data_La7(Ru4O11)2
_symmetry_space_group_name_H-M   'P 1'
_cell_length_a   23.98963792
_cell_length_b   16.82917586
_cell_length_c   15.42649768
_cell_angle_alpha   89.99963667
_cell_angle_beta   90.00073667
_cell_angle_gamma   90.00062755
_symmetry_Int_Tables_number   1
_chemical_formula_structural   La7(Ru4O11)2
_chemical_formula_sum   'La84 Ru96 O264'
_cell_volume   6228.07565958
_cell_formula_units_Z   12
loop_
 _symmetry_equiv_pos_site_id
 _symmetry_equiv_pos_as_xyz
  1  'x, y, z'
loop_
 _atom_type_symbol
 _atom_type_oxidation_number
  La3+  3.0
  Ru4+  4.0
  O2-  -2.0
loop_
 _atom_site_type_symbol
 _atom_site_label
 _atom_site_symmetry_multiplicity
 _atom_site_fract_x
 _atom_site_fract_y
 _atom_site_fract_z
 _atom_site_occupancy
  La3+  La0  1  0.13617589  -0.00109544  0.12738011  1
  La3+  La1  1  0.13602020  0.00044403  0.37252393  1
  La3+  La2  1  0.13807707  -0.00121271  0.62592747  1
  La3+  La3  1  0.13946758  -0.00003999  0.87390442  1
  La3+  La4  1  0.14072436  0.33427053  0.12881376  1
  La3+  La5  1  0.14088913  0.33324295  0.37052000  1
  La3+  La6  1  0.13942027  0.33523599  0.62635015  1
  La3+  La7  1  0.13816935  0.33343793  0.87262454  1
  La3+  La8  1  0.13700561  0.66583646  0.12567161  1
  La3+  La9  1  0.13722996  0.66766279  0.37495145  1
  La3+  La10  1  0.13968170  0.66735065  0.62674342  1
  La3+  La11  1  0.14105775  0.66525471  0.87408751  1
  La3+  La12  1  0.63986017  0.00270508  0.12509456  1
  La3+  La13  1  0.63870199  0.00157639  0.37563365  1
  La3+  La14  1  0.63508384  -0.00511035  0.62834103  1
  La3+  La15  1  0.63679560  -0.00288297  0.87053006  1
  La3+  La16  1  0.64115795  0.33115478  0.12355125  1
  La3+  La17  1  0.64181976  0.33301993  0.37431885  1
  La3+  La18  1  0.63708162  0.33347636  0.62226719  1
  La3+  La19  1  0.63656487  0.33304004  0.87727402  1
  La3+  La20  1  0.63819100  0.66643036  0.12358485  1
  La3+  La21  1  0.63759473  0.66803783  0.37676805  1
  La3+  La22  1  0.63895515  0.66717521  0.62494146  1
  La3+  La23  1  0.63980544  0.66692395  0.87472424  1
  La3+  La24  1  0.36454827  0.00269286  0.12170008  1
  La3+  La25  1  0.36269313  0.00033961  0.37534218  1
  La3+  La26  1  0.36405296  0.00053130  0.62555456  1
  La3+  La27  1  0.36228419  0.00234547  0.87623186  1
  La3+  La28  1  0.35900542  0.33410906  0.12851991  1
  La3+  La29  1  0.36032315  0.33408732  0.37079640  1
  La3+  La30  1  0.36203451  0.33430225  0.62659216  1
  La3+  La31  1  0.36073926  0.33460220  0.87386611  1
  La3+  La32  1  0.36031499  0.66409998  0.12409627  1
  La3+  La33  1  0.36170400  0.66623667  0.37612923  1
  La3+  La34  1  0.36061045  0.66679669  0.62599256  1
  La3+  La35  1  0.35985116  0.66527470  0.87467559  1
  La3+  La36  1  0.85922510  0.00259716  0.12617329  1
  La3+  La37  1  0.86064218  0.00208607  0.37474311  1
  La3+  La38  1  0.86098583  0.00034922  0.62602205  1
  La3+  La39  1  0.86013097  0.00161753  0.87371056  1
  La3+  La40  1  0.86171826  0.33201445  0.12191507  1
  La3+  La41  1  0.85812311  0.33229321  0.37311758  1
  La3+  La42  1  0.86128878  0.33299118  0.62439024  1
  La3+  La43  1  0.86563318  0.33408220  0.87923534  1
  La3+  La44  1  0.86032193  0.66802688  0.12333834  1
  La3+  La45  1  0.86096979  0.66906570  0.37509283  1
  La3+  La46  1  0.86047520  0.66672473  0.62556458  1
  La3+  La47  1  0.86067415  0.66589737  0.87497148  1
  La3+  La48  1  0.49791060  0.50273488  0.13262122  1
  La3+  La49  1  0.49998554  0.49945589  0.86214294  1
  La3+  La50  1  0.00290188  0.83504174  0.88662317  1
  La3+  La51  1  0.00134486  0.16504635  0.63596015  1
  La3+  La52  1  0.00017418  0.16666396  0.13174832  1
  La3+  La53  1  0.50285051  0.83526371  0.63506169  1
  La3+  La54  1  0.50010743  0.49843406  0.88424823  1
  La3+  La55  1  -0.00184541  0.82987413  0.86628058  1
  La3+  La56  1  0.50031753  0.16913929  0.87982088  1
  La3+  La57  1  0.50114640  0.83374776  0.10985637  1
  La3+  La58  1  0.49996318  0.16625897  0.63129897  1
  La3+  La59  1  0.00096885  0.16575595  0.61869124  1
  La3+  La60  1  -0.00047592  0.83290326  0.36476676  1
  La3+  La61  1  -0.00120389  0.16840632  0.11467486  1
  La3+  La62  1  0.00268398  0.83354753  0.63447126  1
  La3+  La63  1  -0.00020123  0.50611244  0.37608243  1
  La3+  La64  1  0.49828408  0.16372525  0.12536142  1
  La3+  La65  1  0.00085975  0.16565291  0.36826255  1
  La3+  La66  1  0.50046718  0.83382696  0.36974897  1
  La3+  La67  1  -0.00099004  0.49726972  0.86391932  1
  La3+  La68  1  0.49927808  0.16617997  0.36527792  1
  La3+  La69  1  0.50003232  0.83236866  0.13220091  1
  La3+  La70  1  0.50130406  0.83483642  0.86142981  1
  La3+  La71  1  0.00017608  0.50142823  0.88600917  1
  La3+  La72  1  0.74976989  0.45827657  0.52952377  1
  La3+  La73  1  0.24998999  0.83225036  0.51240426  1
  La3+  La74  1  0.24999995  0.16226312  0.50288346  1
  La3+  La75  1  0.75004748  0.78990237  0.01065921  1
  La3+  La76  1  0.25001745  0.83332458  0.75710802  1
  La3+  La77  1  0.74993827  0.54294926  0.76476750  1
  La3+  La78  1  0.74992135  0.49911372  -0.00141937  1
  La3+  La79  1  0.74989115  0.11922674  0.73732689  1
  La3+  La80  1  0.75024314  0.44898697  0.22481820  1
  La3+  La81  1  0.24960385  0.13446125  0.03737306  1
  La3+  La82  1  0.24984388  0.86483779  0.02241565  1
  La3+  La83  1  0.24988909  0.50132761  0.73150624  1
  Ru4+  Ru84  1  0.00098045  0.00272764  -0.00348707  1
  Ru4+  Ru85  1  -0.00549923  0.00040110  0.25236304  1
  Ru4+  Ru86  1  -0.00032586  0.00048346  0.50012216  1
  Ru4+  Ru87  1  0.00071151  0.00218726  0.75004310  1
  Ru4+  Ru88  1  0.00585149  0.33236262  -0.00203698  1
  Ru4+  Ru89  1  -0.00012171  0.33502819  0.25158623  1
  Ru4+  Ru90  1  -0.00333049  0.32546542  0.50089406  1
  Ru4+  Ru91  1  0.00152295  0.33265199  0.75222968  1
  Ru4+  Ru92  1  0.00076059  0.66526104  0.00293845  1
  Ru4+  Ru93  1  -0.00327417  0.66280712  0.24473497  1
  Ru4+  Ru94  1  0.00312280  0.65998964  0.50315986  1
  Ru4+  Ru95  1  -0.00010651  0.66595911  0.74579815  1
  Ru4+  Ru96  1  0.50323964  -0.00260760  -0.00052620  1
  Ru4+  Ru97  1  0.49906772  -0.00026384  0.25174311  1
  Ru4+  Ru98  1  0.50246633  -0.00416858  0.50284119  1
  Ru4+  Ru99  1  0.50094078  -0.00617571  0.74888096  1
  Ru4+  Ru100  1  0.49992823  0.33441447  0.00130266  1
  Ru4+  Ru101  1  0.49635521  0.33533114  0.25084587  1
  Ru4+  Ru102  1  0.50224154  0.33518247  0.50016358  1
  Ru4+  Ru103  1  0.49890955  0.33390332  0.75033611  1
  Ru4+  Ru104  1  0.50054186  0.66378377  -0.00092422  1
  Ru4+  Ru105  1  0.50096261  0.66364305  0.25164544  1
  Ru4+  Ru106  1  0.49972871  0.66075453  0.50235718  1
  Ru4+  Ru107  1  0.49898021  0.66700676  0.74651188  1
  Ru4+  Ru108  1  0.11216165  0.16677205  -0.00161444  1
  Ru4+  Ru109  1  0.11631271  0.17121771  0.24886669  1
  Ru4+  Ru110  1  0.11021413  0.16646748  0.50065521  1
  Ru4+  Ru111  1  0.11095364  0.16524405  0.75203504  1
  Ru4+  Ru112  1  0.11354696  0.50197230  0.00069157  1
  Ru4+  Ru113  1  0.11420980  0.49743562  0.25048477  1
  Ru4+  Ru114  1  0.11647810  0.50499476  0.49887621  1
  Ru4+  Ru115  1  0.11190033  0.49888142  0.74916475  1
  Ru4+  Ru116  1  0.11203429  0.83394461  -0.00008962  1
  Ru4+  Ru117  1  0.11725376  0.83364723  0.25117761  1
  Ru4+  Ru118  1  0.11166296  0.83328989  0.50037881  1
  Ru4+  Ru119  1  0.11364966  0.83120857  0.74866743  1
  Ru4+  Ru120  1  0.61485570  0.16353684  0.00084410  1
  Ru4+  Ru121  1  0.61627327  0.16586083  0.25086812  1
  Ru4+  Ru122  1  0.61369972  0.16620605  0.50009299  1
  Ru4+  Ru123  1  0.61240677  0.16626629  0.74950464  1
  Ru4+  Ru124  1  0.61008855  0.49952823  -0.00062147  1
  Ru4+  Ru125  1  0.61197474  0.50083564  0.24998665  1
  Ru4+  Ru126  1  0.60639738  0.49937156  0.50105142  1
  Ru4+  Ru127  1  0.61073964  0.50069903  0.75127554  1
  Ru4+  Ru128  1  0.61192710  0.83482035  -0.00203467  1
  Ru4+  Ru129  1  0.61311381  0.83112985  0.25067250  1
  Ru4+  Ru130  1  0.61280231  0.83306291  0.50090425  1
  Ru4+  Ru131  1  0.61285297  0.83533993  0.75160931  1
  Ru4+  Ru132  1  0.38505814  0.16917248  -0.00127964  1
  Ru4+  Ru133  1  0.38593203  0.16849222  0.24971020  1
  Ru4+  Ru134  1  0.38632260  0.17186257  0.49939586  1
  Ru4+  Ru135  1  0.38493812  0.17091792  0.75119728  1
  Ru4+  Ru136  1  0.38676929  0.50158512  0.00035992  1
  Ru4+  Ru137  1  0.38691320  0.49703646  0.25043930  1
  Ru4+  Ru138  1  0.38944921  0.50193621  0.50063459  1
  Ru4+  Ru139  1  0.38809099  0.50016010  0.75104992  1
  Ru4+  Ru140  1  0.38684651  0.83370769  -0.00043879  1
  Ru4+  Ru141  1  0.38741464  0.83575193  0.25058019  1
  Ru4+  Ru142  1  0.38867066  0.83290513  0.49965803  1
  Ru4+  Ru143  1  0.38736908  0.83187237  0.75013057  1
  Ru4+  Ru144  1  0.88469119  0.16248104  -0.00072600  1
  Ru4+  Ru145  1  0.88473466  0.16614225  0.25066543  1
  Ru4+  Ru146  1  0.88758341  0.16570785  0.50000721  1
  Ru4+  Ru147  1  0.88774656  0.16554702  0.74961361  1
  Ru4+  Ru148  1  0.88521009  0.50382674  0.00090190  1
  Ru4+  Ru149  1  0.88982476  0.50168441  0.24994211  1
  Ru4+  Ru150  1  0.88813934  0.49970486  0.50041448  1
  Ru4+  Ru151  1  0.88819233  0.50153306  0.74870838  1
  Ru4+  Ru152  1  0.88687812  0.83200256  0.00122848  1
  Ru4+  Ru153  1  0.88735259  0.83271354  0.25147148  1
  Ru4+  Ru154  1  0.88208275  0.83606670  0.49987857  1
  Ru4+  Ru155  1  0.88594318  0.83298868  0.74901365  1
  Ru4+  Ru156  1  0.24998458  0.72564721  -0.00088372  1
  Ru4+  Ru157  1  0.25018333  0.42925149  0.49682402  1
  Ru4+  Ru158  1  0.74946060  0.91432991  0.49920557  1
  Ru4+  Ru159  1  0.25003856  0.03035424  0.48974560  1
  Ru4+  Ru160  1  0.75010006  0.26234813  0.76209170  1
  Ru4+  Ru161  1  0.75012101  0.76139644  0.24700000  1
  Ru4+  Ru162  1  0.75006159  0.24471149  0.49451100  1
  Ru4+  Ru163  1  0.25034097  0.74182923  0.24563749  1
  Ru4+  Ru164  1  0.74982037  0.93678898  0.00872628  1
  Ru4+  Ru165  1  0.24995982  0.24796877  0.74734581  1
  Ru4+  Ru166  1  0.24987281  0.58169624  0.24932842  1
  Ru4+  Ru167  1  0.25003875  0.42126207  -0.00030569  1
  Ru4+  Ru168  1  0.25002684  0.27461711  0.00769146  1
  Ru4+  Ru169  1  0.74988476  0.59455451  0.49971025  1
  Ru4+  Ru170  1  0.74983504  0.40276699  0.76129204  1
  Ru4+  Ru171  1  0.24996914  0.08143683  0.25041779  1
  Ru4+  Ru172  1  0.74963618  0.91272366  0.24637099  1
  Ru4+  Ru173  1  0.74993977  0.24927380  0.00985768  1
  Ru4+  Ru174  1  0.75021495  0.59506858  0.24490597  1
  Ru4+  Ru175  1  0.25016409  0.07960536  0.74779018  1
  Ru4+  Ru176  1  0.24989910  0.29346441  0.47379740  1
  Ru4+  Ru177  1  0.25032711  0.92736810  0.24505336  1
  Ru4+  Ru178  1  0.75019721  0.75007724  0.74991227  1
  Ru4+  Ru179  1  0.25044100  0.57882923  0.50148403  1
  O2-  O180  1  0.16812720  0.07895674  0.00063436  1
  O2-  O181  1  0.16835802  0.08123453  0.25063385  1
  O2-  O182  1  0.16575023  0.07890924  0.49921950  1
  O2-  O183  1  0.16809669  0.08099755  0.74789856  1
  O2-  O184  1  0.16727205  0.41373058  -0.00036764  1
  O2-  O185  1  0.16511547  0.41650482  0.25031868  1
  O2-  O186  1  0.16872287  0.41603065  0.49970619  1
  O2-  O187  1  0.16798102  0.41406085  0.75129270  1
  O2-  O188  1  0.16620733  0.74632468  0.00120546  1
  O2-  O189  1  0.16695074  0.74701976  0.24993215  1
  O2-  O190  1  0.16642700  0.74637734  0.49910397  1
  O2-  O191  1  0.16814422  0.74758386  0.75104093  1
  O2-  O192  1  0.66722890  0.08208987  0.00020762  1
  O2-  O193  1  0.66568901  0.08115064  0.25117763  1
  O2-  O194  1  0.66605146  0.08093971  0.49983879  1
  O2-  O195  1  0.66469838  0.07855500  0.75038792  1
  O2-  O196  1  0.66679917  0.41280909  -0.00083826  1
  O2-  O197  1  0.66596915  0.41378117  0.25032412  1
  O2-  O198  1  0.66614244  0.41330995  0.49901716  1
  O2-  O199  1  0.66795435  0.41258017  0.75044266  1
  O2-  O200  1  0.66472724  0.74388775  0.00009704  1
  O2-  O201  1  0.66734582  0.74746939  0.25041448  1
  O2-  O202  1  0.66608932  0.74848454  0.49935798  1
  O2-  O203  1  0.66608284  0.74840524  0.74883234  1
  O2-  O204  1  0.33468550  0.25272815  0.00111107  1
  O2-  O205  1  0.33322234  0.25000681  0.24947955  1
  O2-  O206  1  0.33454918  0.25434856  0.49955009  1
  O2-  O207  1  0.33330641  0.25191265  0.75031819  1
  O2-  O208  1  0.33269256  0.58542106  -0.00013707  1
  O2-  O209  1  0.33293616  0.58596098  0.25139889  1
  O2-  O210  1  0.33188034  0.58574119  0.49893632  1
  O2-  O211  1  0.33400142  0.58624606  0.74992638  1
  O2-  O212  1  0.33452030  0.92182441  -0.00028663  1
  O2-  O213  1  0.33258171  0.91967586  0.25042634  1
  O2-  O214  1  0.33341585  0.92039295  0.49890271  1
  O2-  O215  1  0.33292051  0.91990182  0.74926749  1
  O2-  O216  1  0.83293802  0.25187966  0.00018309  1
  O2-  O217  1  0.83455876  0.25192060  0.24929208  1
  O2-  O218  1  0.83275977  0.25308393  0.49994542  1
  O2-  O219  1  0.83366121  0.25348968  0.75104901  1
  O2-  O220  1  0.83280524  0.58716175  -0.00017464  1
  O2-  O221  1  0.83181343  0.58605906  0.24977300  1
  O2-  O222  1  0.83387084  0.58585814  0.50051350  1
  O2-  O223  1  0.83514850  0.58705067  0.75001606  1
  O2-  O224  1  0.83225302  0.91988373  0.00062857  1
  O2-  O225  1  0.83257512  0.91819669  0.25079699  1
  O2-  O226  1  0.83136908  0.91985116  0.49967423  1
  O2-  O227  1  0.83326300  0.91907116  0.74865326  1
  O2-  O228  1  0.16600503  0.25349233  0.00060492  1
  O2-  O229  1  0.16682580  0.25036484  0.24997488  1
  O2-  O230  1  0.16692977  0.25457208  0.49906947  1
  O2-  O231  1  0.16765314  0.25204856  0.75087292  1
  O2-  O232  1  0.16551812  0.58525455  0.00052937  1
  O2-  O233  1  0.16701448  0.58653079  0.25061592  1
  O2-  O234  1  0.16896141  0.58604732  0.49930846  1
  O2-  O235  1  0.16598463  0.58620083  0.75085585  1
  O2-  O236  1  0.16698172  0.92160309  0.00071180  1
  O2-  O237  1  0.16847196  0.91869167  0.24943092  1
  O2-  O238  1  0.16660884  0.92089533  0.49945115  1
  O2-  O239  1  0.16691804  0.91970227  0.74888460  1
  O2-  O240  1  0.66805196  0.25228741  -0.00059591  1
  O2-  O241  1  0.66710627  0.25123159  0.24885118  1
  O2-  O242  1  0.66831695  0.25216184  0.49998739  1
  O2-  O243  1  0.66642608  0.25299324  0.75084712  1
  O2-  O244  1  0.66722152  0.58862304  0.00038587  1
  O2-  O245  1  0.66613952  0.58667145  0.25045834  1
  O2-  O246  1  0.66631249  0.58719773  0.49973113  1
  O2-  O247  1  0.66363214  0.58767718  0.74877818  1
  O2-  O248  1  0.66692116  0.91979192  0.00061632  1
  O2-  O249  1  0.66863607  0.91939177  0.25095574  1
  O2-  O250  1  0.66993112  0.91909943  0.49972066  1
  O2-  O251  1  0.66783135  0.91773240  0.74799873  1
  O2-  O252  1  0.33110354  0.07823736  0.00049085  1
  O2-  O253  1  0.33100917  0.08060307  0.24946391  1
  O2-  O254  1  0.33340141  0.07828174  0.49920024  1
  O2-  O255  1  0.33229464  0.08038601  0.74926309  1
  O2-  O256  1  0.33319392  0.41393676  -0.00042300  1
  O2-  O257  1  0.33414865  0.41641216  0.25015701  1
  O2-  O258  1  0.33295102  0.41541213  0.50022145  1
  O2-  O259  1  0.33197799  0.41297696  0.74926487  1
  O2-  O260  1  0.33236096  0.74715357  0.00038081  1
  O2-  O261  1  0.33252358  0.74614239  0.25130052  1
  O2-  O262  1  0.33317995  0.74593399  0.49867791  1
  O2-  O263  1  0.33322246  0.74739523  0.75080085  1
  O2-  O264  1  0.83385597  0.08190080  0.00013776  1
  O2-  O265  1  0.83429731  0.08079224  0.25184772  1
  O2-  O266  1  0.83337693  0.07970042  0.49983906  1
  O2-  O267  1  0.83529521  0.07891827  0.74964609  1
  O2-  O268  1  0.83279101  0.41352280  -0.00036063  1
  O2-  O269  1  0.83681202  0.41360914  0.25004802  1
  O2-  O270  1  0.83412017  0.41256488  0.49821225  1
  O2-  O271  1  0.83285972  0.41306712  0.75082057  1
  O2-  O272  1  0.83555086  0.74515895  -0.00132025  1
  O2-  O273  1  0.83119537  0.74837270  0.24940682  1
  O2-  O274  1  0.83111304  0.74978269  0.50055525  1
  O2-  O275  1  0.83349459  0.74752511  0.74996260  1
  O2-  O276  1  0.53998655  0.10831142  0.78210862  1
  O2-  O277  1  0.45873146  0.77580888  0.96472208  1
  O2-  O278  1  0.54528976  0.09823409  0.23700630  1
  O2-  O279  1  0.03899473  0.44768197  0.50778736  1
  O2-  O280  1  0.45350270  0.76228313  0.24009127  1
  O2-  O281  1  0.04627409  0.09696399  0.26198904  1
  O2-  O282  1  0.54698670  0.57134513  0.50085533  1
  O2-  O283  1  0.45785620  0.10596847  0.99309125  1
  O2-  O284  1  0.45278186  0.09818851  0.51446643  1
  O2-  O285  1  0.55937613  0.24901515  0.97152598  1
  O2-  O286  1  0.03974972  0.89353613  0.22128872  1
  O2-  O287  1  0.04616933  0.23536024  0.98805886  1
  O2-  O288  1  0.95285281  0.23501069  0.73261630  1
  O2-  O289  1  0.54373846  0.89516802  0.75943057  1
  O2-  O290  1  0.96693846  0.78386713  0.50532068  1
  O2-  O291  1  0.54833261  0.76342457  0.98321721  1
  O2-  O292  1  0.54675933  0.76246202  0.48268292  1
  O2-  O293  1  0.45013314  0.09867484  0.73629830  1
  O2-  O294  1  0.97571629  0.53708136  0.23160893  1
  O2-  O295  1  0.54509065  0.57297976  0.26545632  1
  O2-  O296  1  0.45089444  0.90032966  0.73902184  1
  O2-  O297  1  0.05035215  0.24101037  0.79319416  1
  O2-  O298  1  0.95461604  0.44181846  0.46540089  1
  O2-  O299  1  0.04796349  0.75835333  0.26540087  1
  O2-  O300  1  0.95445780  0.09989124  0.98884610  1
  O2-  O301  1  0.45257308  0.76665218  0.51369050  1
  O2-  O302  1  0.53959449  0.22811300  0.22321721  1
  O2-  O303  1  0.03894539  0.44767254  0.50763325  1
  O2-  O304  1  0.54713495  0.90226198  0.24020358  1
  O2-  O305  1  0.55003413  0.56865894  0.49769202  1
  O2-  O306  1  0.05324825  0.08671722  0.76927034  1
  O2-  O307  1  0.95085003  0.23628481  0.01926838  1
  O2-  O308  1  0.54583053  0.23605289  0.73737617  1
  O2-  O309  1  0.03364921  0.88773630  0.25805306  1
  O2-  O310  1  0.55324228  0.91304130  0.52155352  1
  O2-  O311  1  0.53831622  0.44377937  0.24818221  1
  O2-  O312  1  0.04827111  0.90300322  0.76426217  1
  O2-  O313  1  0.95363378  0.76492496  0.98854198  1
  O2-  O314  1  0.45514003  0.90524526  0.98303722  1
  O2-  O315  1  0.54926150  0.90301972  0.73364003  1
  O2-  O316  1  0.96481831  0.78033820  0.49013895  1
  O2-  O317  1  0.45064330  0.43410765  0.26408533  1
  O2-  O318  1  0.04647282  0.43121422  0.01405350  1
  O2-  O319  1  0.45433856  0.09804661  0.01753031  1
  O2-  O320  1  0.44839421  0.56752955  0.51382807  1
  O2-  O321  1  0.95286804  0.90132853  0.73326982  1
  O2-  O322  1  0.95094840  0.43040978  0.98578221  1
  O2-  O323  1  0.95471914  0.23447859  0.26356275  1
  O2-  O324  1  0.93566768  0.74101874  0.28284684  1
  O2-  O325  1  0.57696137  0.39116191  0.21381731  1
  O2-  O326  1  0.92659506  0.71738021  0.56534752  1
  O2-  O327  1  0.93509676  0.40629018  0.77746455  1
  O2-  O328  1  0.93096201  0.60300759  0.32064498  1
  O2-  O329  1  0.06220278  0.25883950  0.53070698  1
  O2-  O330  1  0.56833233  0.93327482  0.78132317  1
  O2-  O331  1  0.43581224  0.07000041  0.28396556  1
  O2-  O332  1  0.56498193  0.25781896  0.52936260  1
  O2-  O333  1  0.43547637  0.40788398  0.77913464  1
  O2-  O334  1  0.93287844  0.92769249  0.95025962  1
  O2-  O335  1  0.93617957  0.07024443  0.71466217  1
  O2-  O336  1  0.07522241  0.38295845  0.43241749  1
  O2-  O337  1  0.43788826  0.06935133  0.72401036  1
  O2-  O338  1  0.43656634  0.07270827  0.52619522  1
  O2-  O339  1  0.43527881  0.25994746  0.27933132  1
  O2-  O340  1  0.06652943  0.07427723  0.04700260  1
  O2-  O341  1  0.56423774  0.07358206  0.02805394  1
  O2-  O342  1  0.93379072  0.92444264  0.04832581  1
  O2-  O343  1  0.06380255  0.92767904  0.96736114  1
  O2-  O344  1  0.55717255  0.91887555  0.52664637  1
  O2-  O345  1  0.56409038  0.73539408  0.78321064  1
  O2-  O346  1  0.93658250  0.59797058  0.71895286  1
  O2-  O347  1  0.92790466  0.71991744  0.43672694  1
  O2-  O348  1  0.07035320  0.39369982  0.55849224  1
  O2-  O349  1  0.56578588  0.40813009  0.77928992  1
  O2-  O350  1  0.05494317  0.25035772  0.79732865  1
  O2-  O351  1  0.43775547  0.59371589  0.03227495  1
  O2-  O352  1  0.06244761  0.40631366  0.72059490  1
  O2-  O353  1  0.06354704  0.26323721  0.21674220  1
  O2-  O354  1  0.92929268  0.38870330  0.55213713  1
  O2-  O355  1  0.06410362  0.07182448  0.94609427  1
  O2-  O356  1  0.55117954  0.24382156  0.98664978  1
  O2-  O357  1  0.43046954  0.06289558  0.96074746  1
  O2-  O358  1  0.06308309  0.07680721  0.28108274  1
  O2-  O359  1  0.05719129  0.08132339  0.77432378  1
  O2-  O360  1  0.57051030  0.06180486  0.69749453  1
  O2-  O361  1  0.06859069  0.26917492  0.67435435  1
  O2-  O362  1  0.56606723  0.40601436  0.52892467  1
  O2-  O363  1  0.93771041  0.26269634  0.03607369  1
  O2-  O364  1  0.06439082  0.73863823  0.72310823  1
  O2-  O365  1  0.42858351  0.72700829  0.05293674  1
  O2-  O366  1  0.57209973  0.26708166  0.29352914  1
  O2-  O367  1  0.93514320  0.40551500  0.97137585  1
  O2-  O368  1  0.07861483  0.94891396  0.30203742  1
  O2-  O369  1  0.06410985  0.59849365  0.46593302  1
  O2-  O370  1  0.92551066  0.61687459  0.18552854  1
  O2-  O371  1  0.06346534  0.73600048  0.28416330  1
  O2-  O372  1  0.75022085  0.33328075  0.34992155  1
  O2-  O373  1  0.25014810  0.33837499  0.68019637  1
  O2-  O374  1  0.75005198  -0.00312333  0.15715122  1
  O2-  O375  1  0.24989411  0.33655533  0.90118928  1
  O2-  O376  1  0.25038523  0.00170317  0.84186225  1
  O2-  O377  1  0.74985741  0.66235247  0.67350738  1
  O2-  O378  1  0.24996718  0.66755335  0.57819588  1
  O2-  O379  1  0.74992481  0.66800717  0.84414864  1
  O2-  O380  1  0.74988813  0.00779248  0.91746475  1
  O2-  O381  1  0.74984577  0.67487934  0.32920195  1
  O2-  O382  1  0.75001485  0.67709099  0.58304590  1
  O2-  O383  1  0.75012581  0.33376650  0.56937116  1
  O2-  O384  1  0.25005391  0.66599136  0.15383665  1
  O2-  O385  1  0.74989875  0.67109740  0.15057627  1
  O2-  O386  1  0.75009260  0.33341148  0.09259623  1
  O2-  O387  1  0.25001838  0.33139364  0.14449156  1
  O2-  O388  1  0.74990057  0.67825987  0.42246924  1
  O2-  O389  1  0.24987413  0.66575376  0.90341542  1
  O2-  O390  1  0.24993606  0.66446999  0.66904024  1
  O2-  O391  1  0.25006703  0.33284390  0.35256143  1
  O2-  O392  1  0.74998669  -0.00098361  0.82742662  1
  O2-  O393  1  0.75008246  0.33271816  0.66494184  1
  O2-  O394  1  0.25021649  0.34556451  0.58486270  1
  O2-  O395  1  0.24996427  -0.00411223  0.60381475  1
  O2-  O396  1  0.75016580  0.84199661  0.89476427  1
  O2-  O397  1  0.74996453  0.50794646  0.41562474  1
  O2-  O398  1  0.75006508  0.49975501  0.64563970  1
  O2-  O399  1  0.75003049  0.17611441  0.61787654  1
  O2-  O400  1  0.24997858  0.83340078  0.16229564  1
  O2-  O401  1  0.24994683  0.50271175  0.08158240  1
  O2-  O402  1  0.74986863  0.50898650  0.11787924  1
  O2-  O403  1  0.74987687  0.50972612  0.33386718  1
  O2-  O404  1  0.25000622  0.49674845  0.16929731  1
  O2-  O405  1  0.75001673  0.84211039  0.13310768  1
  O2-  O406  1  0.74996166  0.84010266  0.80857368  1
  O2-  O407  1  0.25000374  0.83429103  0.39168774  1
  O2-  O408  1  0.25002045  0.83343423  0.62996406  1
  O2-  O409  1  0.75002994  0.16713296  0.33338782  1
  O2-  O410  1  0.74992962  0.17763250  0.85463449  1
  O2-  O411  1  0.25007809  0.16506753  0.81905124  1
  O2-  O412  1  0.25000724  0.82896954  0.89073761  1
  O2-  O413  1  0.75004719  0.16475902  0.41762304  1
  O2-  O414  1  0.24999818  0.83372506  0.30924618  1
  O2-  O415  1  0.75007809  0.16275317  0.94062724  1
  O2-  O416  1  0.25002527  0.49736976  0.86317742  1
  O2-  O417  1  0.74997560  0.49284545  0.87907848  1
  O2-  O418  1  0.24986588  0.17078745  0.90968787  1
  O2-  O419  1  0.74997825  0.16926917  0.15376672  1
  O2-  O420  1  0.53186824  0.33113676  0.11714592  1
  O2-  O421  1  0.53785290  -0.00482663  0.12750202  1
  O2-  O422  1  0.47245087  0.66352617  0.87371935  1
  O2-  O423  1  0.03535455  -0.00283983  0.12846866  1
  O2-  O424  1  0.46721556  0.33228767  0.62417996  1
  O2-  O425  1  0.97241128  0.66524414  0.87374037  1
  O2-  O426  1  0.52789949  0.33405057  0.63123360  1
  O2-  O427  1  0.46953918  0.33452619  0.38120173  1
  O2-  O428  1  0.52923337  0.33801389  0.38092041  1
  O2-  O429  1  0.02660623  0.66405419  0.62108174  1
  O2-  O430  1  0.53213760  0.33643453  0.87440149  1
  O2-  O431  1  0.47548161  -0.00620756  0.62409056  1
  O2-  O432  1  0.46432442  0.33351431  0.12436009  1
  O2-  O433  1  0.45918308  -0.00080510  0.12719813  1
  O2-  O434  1  0.97499873  0.32956735  0.87424768  1
  O2-  O435  1  0.52636459  0.00156249  0.88122488  1
  O2-  O436  1  0.97390459  0.00079393  0.86901756  1
  O2-  O437  1  0.96381019  0.00748669  0.13466715  1
  O2-  O438  1  0.52873705  0.66677252  0.12382221  1
  O2-  O439  1  0.02837811  0.00015419  0.62407185  1
  O2-  O440  1  0.52826078  0.00069663  0.37493857  1
  O2-  O441  1  0.02840811  0.66634421  0.12293781  1
  O2-  O442  1  0.46521036  0.32894258  0.88039418  1
  O2-  O443  1  0.47327045  0.66749108  0.63010136  1
