# generated using pymatgen
data_La7(Ru4O11)2
_symmetry_space_group_name_H-M   'P 1'
_cell_length_a   23.99513035
_cell_length_b   16.83771049
_cell_length_c   15.43483526
_cell_angle_alpha   89.99976657
_cell_angle_beta   90.00061417
_cell_angle_gamma   90.00876010
_symmetry_Int_Tables_number   1
_chemical_formula_structural   La7(Ru4O11)2
_chemical_formula_sum   'La84 Ru96 O264'
_cell_volume   6236.02926806
_cell_formula_units_Z   12
loop_
 _symmetry_equiv_pos_site_id
 _symmetry_equiv_pos_as_xyz
  1  'x, y, z'
loop_
 _atom_type_symbol
 _atom_type_oxidation_number
  La3+  3.0
  Ru4+  4.0
  O2-  -2.0
loop_
 _atom_site_type_symbol
 _atom_site_label
 _atom_site_symmetry_multiplicity
 _atom_site_fract_x
 _atom_site_fract_y
 _atom_site_fract_z
 _atom_site_occupancy
  La3+  La0  1  0.14712160  -0.00865666  0.12120000  1
  La3+  La1  1  0.13670254  -0.00172306  0.38423833  1
  La3+  La2  1  0.13140921  0.00047066  0.62174369  1
  La3+  La3  1  0.14307507  -0.00616974  0.87145232  1
  La3+  La4  1  0.13333671  0.33459327  0.12927531  1
  La3+  La5  1  0.13464309  0.33764774  0.37051232  1
  La3+  La6  1  0.14226837  0.33391650  0.62879328  1
  La3+  La7  1  0.14481300  0.32424147  0.87244764  1
  La3+  La8  1  0.13093438  0.66551047  0.12249842  1
  La3+  La9  1  0.15109410  0.67213917  0.37894973  1
  La3+  La10  1  0.14864193  0.66180607  0.62933834  1
  La3+  La11  1  0.13195542  0.65989626  0.87064300  1
  La3+  La12  1  0.63962099  0.00153275  0.12435499  1
  La3+  La13  1  0.63333622  0.00051295  0.36896065  1
  La3+  La14  1  0.63654122  -0.00432455  0.62477233  1
  La3+  La15  1  0.64290076  0.00085669  0.88077183  1
  La3+  La16  1  0.62945058  0.32637333  0.12451194  1
  La3+  La17  1  0.64060367  0.33179388  0.37105541  1
  La3+  La18  1  0.62955796  0.33300831  0.62357045  1
  La3+  La19  1  0.64482272  0.32739014  0.88230580  1
  La3+  La20  1  0.64188735  0.66737793  0.12672380  1
  La3+  La21  1  0.64519880  0.66187209  0.36703325  1
  La3+  La22  1  0.63485882  0.66649380  0.62710912  1
  La3+  La23  1  0.63155932  0.66843906  0.87940093  1
  La3+  La24  1  0.35679122  -0.00169118  0.12906269  1
  La3+  La25  1  0.36241699  -0.00689807  0.37774361  1
  La3+  La26  1  0.35796218  -0.00490397  0.62378552  1
  La3+  La27  1  0.35295552  -0.00092879  0.87266062  1
  La3+  La28  1  0.36025938  0.33554273  0.12820376  1
  La3+  La29  1  0.35783284  0.33583541  0.37644133  1
  La3+  La30  1  0.35648087  0.33547052  0.62669375  1
  La3+  La31  1  0.36708317  0.33280924  0.87361476  1
  La3+  La32  1  0.36453761  0.66800873  0.12547007  1
  La3+  La33  1  0.35341301  0.66652175  0.38316001  1
  La3+  La34  1  0.34714344  0.66825248  0.62559526  1
  La3+  La35  1  0.35684602  0.67252517  0.86985384  1
  La3+  La36  1  0.85957693  -0.00065629  0.12374612  1
  La3+  La37  1  0.86814520  0.00165023  0.36932109  1
  La3+  La38  1  0.86659727  0.01180055  0.61701153  1
  La3+  La39  1  0.86175520  0.00149686  0.87874485  1
  La3+  La40  1  0.86442225  0.33094124  0.12482703  1
  La3+  La41  1  0.86440039  0.33164316  0.36939256  1
  La3+  La42  1  0.85806976  0.34161102  0.62802143  1
  La3+  La43  1  0.86524801  0.33412734  0.88284870  1
  La3+  La44  1  0.85938346  0.67008193  0.12855975  1
  La3+  La45  1  0.85528736  0.66406884  0.37213015  1
  La3+  La46  1  0.86856886  0.67165351  0.61879110  1
  La3+  La47  1  0.87077951  0.67284759  0.87614750  1
  La3+  La48  1  0.49963726  0.83381202  0.13569622  1
  La3+  La49  1  -0.00569741  0.17458136  0.62139825  1
  La3+  La50  1  0.00459741  0.49731773  0.87189839  1
  La3+  La51  1  0.50180911  0.16924335  0.37589158  1
  La3+  La52  1  0.51277462  0.16510548  0.86496177  1
  La3+  La53  1  0.00074233  0.16269745  0.38567601  1
  La3+  La54  1  0.50573285  0.15026510  0.87610378  1
  La3+  La55  1  0.49379184  0.50937154  0.60772612  1
  La3+  La56  1  -0.00208114  0.51366196  0.61253162  1
  La3+  La57  1  -0.00306195  0.50905968  0.88618160  1
  La3+  La58  1  0.49947574  0.83435712  0.87635035  1
  La3+  La59  1  0.49380618  0.16979303  0.35692889  1
  La3+  La60  1  0.50359070  0.50343996  0.36357790  1
  La3+  La61  1  0.00347288  0.83410022  0.36514241  1
  La3+  La62  1  0.00112480  0.15448151  0.88583710  1
  La3+  La63  1  0.00331648  0.50620350  0.36369999  1
  La3+  La64  1  -0.00609480  0.16411616  0.36576429  1
  La3+  La65  1  -0.00374697  0.82687014  0.62782270  1
  La3+  La66  1  0.50026195  0.16956296  0.62113495  1
  La3+  La67  1  -0.00192298  0.82731146  0.38493170  1
  La3+  La68  1  0.50221459  0.82753917  0.38560421  1
  La3+  La69  1  -0.00095416  0.48384973  0.11023738  1
  La3+  La70  1  0.50083182  0.49738588  0.88801124  1
  La3+  La71  1  0.49472060  0.50867456  0.62434765  1
  La3+  La72  1  0.74810681  0.50954721  0.05550441  1
  La3+  La73  1  0.74597382  0.76060766  0.47988414  1
  La3+  La74  1  0.75234847  0.86952960  0.02095452  1
  La3+  La75  1  0.75176221  0.55157298  0.51646671  1
  La3+  La76  1  0.76054034  0.79992590  0.67523825  1
  La3+  La77  1  0.74859478  0.17967905  0.74432779  1
  La3+  La78  1  0.25030981  0.46032642  0.03625713  1
  La3+  La79  1  0.25064451  0.50922810  0.73199206  1
  La3+  La80  1  0.75082750  0.86153174  0.24807783  1
  La3+  La81  1  0.75082496  0.14678944  0.06070816  1
  La3+  La82  1  0.74790933  0.55295475  0.78661295  1
  La3+  La83  1  0.25108459  0.19945937  0.24606640  1
  Ru4+  Ru84  1  -0.00077293  0.00602635  -0.01133468  1
  Ru4+  Ru85  1  0.00966289  -0.00122347  0.24809833  1
  Ru4+  Ru86  1  0.00233339  -0.00094146  0.51146298  1
  Ru4+  Ru87  1  0.00050834  0.00191490  0.75735504  1
  Ru4+  Ru88  1  0.00330537  0.32264141  0.00449308  1
  Ru4+  Ru89  1  -0.00098637  0.32243159  0.22756766  1
  Ru4+  Ru90  1  -0.00711201  0.33858938  0.50595345  1
  Ru4+  Ru91  1  0.01364077  0.32651254  0.76014375  1
  Ru4+  Ru92  1  -0.00082794  0.68050847  0.00209266  1
  Ru4+  Ru93  1  0.00994775  0.65958438  0.24767216  1
  Ru4+  Ru94  1  0.00602420  0.65718712  0.50630049  1
  Ru4+  Ru95  1  -0.00272696  0.67775063  0.74576860  1
  Ru4+  Ru96  1  0.49716527  -0.00938743  0.01383035  1
  Ru4+  Ru97  1  0.49694942  -0.00301208  0.25158663  1
  Ru4+  Ru98  1  0.49935796  -0.00806232  0.51597075  1
  Ru4+  Ru99  1  0.50671515  -0.01490868  0.72490380  1
  Ru4+  Ru100  1  0.49502323  0.34263658  0.01133435  1
  Ru4+  Ru101  1  0.50349177  0.33839531  0.25189333  1
  Ru4+  Ru102  1  0.49847436  0.32738470  0.48666030  1
  Ru4+  Ru103  1  0.50307307  0.33971976  0.75157990  1
  Ru4+  Ru104  1  0.49236833  0.65290778  0.00595496  1
  Ru4+  Ru105  1  0.49785285  0.66827074  0.25414252  1
  Ru4+  Ru106  1  0.49541388  0.67371355  0.48865038  1
  Ru4+  Ru107  1  0.50046205  0.67137596  0.74487417  1
  Ru4+  Ru108  1  0.11046416  0.16389820  0.00270309  1
  Ru4+  Ru109  1  0.11279598  0.16397090  0.24189699  1
  Ru4+  Ru110  1  0.11762609  0.16399779  0.50298782  1
  Ru4+  Ru111  1  0.10874460  0.16485207  0.75356122  1
  Ru4+  Ru112  1  0.11764787  0.49760018  0.00126747  1
  Ru4+  Ru113  1  0.11385805  0.50751539  0.25036358  1
  Ru4+  Ru114  1  0.11459934  0.49699413  0.49979067  1
  Ru4+  Ru115  1  0.11317937  0.48666279  0.74792078  1
  Ru4+  Ru116  1  0.11194416  0.83084353  0.00043840  1
  Ru4+  Ru117  1  0.11102196  0.84166278  0.23704725  1
  Ru4+  Ru118  1  0.12437878  0.83136806  0.50627006  1
  Ru4+  Ru119  1  0.11228707  0.82972343  0.75209037  1
  Ru4+  Ru120  1  0.61139915  0.16133666  0.00255355  1
  Ru4+  Ru121  1  0.61571201  0.17575049  0.24536917  1
  Ru4+  Ru122  1  0.61163457  0.16471779  0.50047917  1
  Ru4+  Ru123  1  0.61372483  0.16908880  0.74282630  1
  Ru4+  Ru124  1  0.60982086  0.50266627  0.00599365  1
  Ru4+  Ru125  1  0.61537424  0.50329282  0.24939658  1
  Ru4+  Ru126  1  0.61013270  0.49940401  0.49638057  1
  Ru4+  Ru127  1  0.60651853  0.49235777  0.76229334  1
  Ru4+  Ru128  1  0.60887556  0.83026447  0.00129387  1
  Ru4+  Ru129  1  0.61055166  0.82694216  0.24936160  1
  Ru4+  Ru130  1  0.60705647  0.83638595  0.50036868  1
  Ru4+  Ru131  1  0.60420772  0.83327788  0.74789650  1
  Ru4+  Ru132  1  0.38505082  0.17392011  0.01679252  1
  Ru4+  Ru133  1  0.39419143  0.16651331  0.25423885  1
  Ru4+  Ru134  1  0.39017388  0.16458617  0.49932302  1
  Ru4+  Ru135  1  0.38486356  0.16728809  0.74817477  1
  Ru4+  Ru136  1  0.39538071  0.50733846  -0.00100423  1
  Ru4+  Ru137  1  0.38867612  0.49862292  0.25181891  1
  Ru4+  Ru138  1  0.38268816  0.50002873  0.50168754  1
  Ru4+  Ru139  1  0.38893818  0.49875205  0.74413711  1
  Ru4+  Ru140  1  0.38825288  0.83436387  -0.00498273  1
  Ru4+  Ru141  1  0.38532170  0.83579043  0.25355375  1
  Ru4+  Ru142  1  0.38780100  0.83134427  0.50513233  1
  Ru4+  Ru143  1  0.38725845  0.83383203  0.75111343  1
  Ru4+  Ru144  1  0.89146847  0.16484459  0.00279926  1
  Ru4+  Ru145  1  0.88299240  0.16913335  0.24261945  1
  Ru4+  Ru146  1  0.88180619  0.17740405  0.50362919  1
  Ru4+  Ru147  1  0.89077732  0.17274818  0.74773761  1
  Ru4+  Ru148  1  0.87987505  0.50574271  0.00806972  1
  Ru4+  Ru149  1  0.88514562  0.50590308  0.25519698  1
  Ru4+  Ru150  1  0.89620096  0.49638174  0.49530193  1
  Ru4+  Ru151  1  0.89004223  0.50772354  0.73507612  1
  Ru4+  Ru152  1  0.89378432  0.83068126  0.00325348  1
  Ru4+  Ru153  1  0.88488667  0.82717639  0.24664307  1
  Ru4+  Ru154  1  0.88450719  0.83978810  0.50781946  1
  Ru4+  Ru155  1  0.89819739  0.84592091  0.75041963  1
  Ru4+  Ru156  1  0.25033942  0.23965949  0.50644676  1
  Ru4+  Ru157  1  0.74893321  0.92263377  0.77609412  1
  Ru4+  Ru158  1  0.75160981  0.04384506  0.72728927  1
  Ru4+  Ru159  1  0.24902354  0.75887705  0.00188210  1
  Ru4+  Ru160  1  0.24893690  0.23836959  -0.00249539  1
  Ru4+  Ru161  1  0.74974834  0.41414696  0.24253746  1
  Ru4+  Ru162  1  0.25061569  0.09431853  -0.00443919  1
  Ru4+  Ru163  1  0.74901947  0.09252180  0.24831243  1
  Ru4+  Ru164  1  0.24873756  0.09499862  0.75761882  1
  Ru4+  Ru165  1  0.74958372  0.36718439  0.02540021  1
  Ru4+  Ru166  1  0.74771351  0.26714784  0.45558551  1
  Ru4+  Ru167  1  0.75251394  0.42752455  0.74930810  1
  Ru4+  Ru168  1  0.75059500  0.40321595  0.48429057  1
  Ru4+  Ru169  1  0.25022580  0.59857512  -0.01237174  1
  Ru4+  Ru170  1  0.74977172  0.94662014  0.49716769  1
  Ru4+  Ru171  1  0.25063206  0.90303392  -0.00142906  1
  Ru4+  Ru172  1  0.25039898  0.43289115  0.25319666  1
  Ru4+  Ru173  1  0.74951374  0.08733965  0.47509133  1
  Ru4+  Ru174  1  0.74947510  0.30414315  0.69775105  1
  Ru4+  Ru175  1  0.74747419  0.70615414  0.77554889  1
  Ru4+  Ru176  1  0.25208267  0.05758189  0.27728081  1
  Ru4+  Ru177  1  0.75043475  0.64969788  0.00210869  1
  Ru4+  Ru178  1  0.25180097  0.56865526  0.24725026  1
  Ru4+  Ru179  1  0.24976532  0.76276013  0.25457554  1
  O2-  O180  1  0.16920852  0.08406247  -0.00195849  1
  O2-  O181  1  0.17327689  0.08471763  0.26029548  1
  O2-  O182  1  0.17062152  0.08293397  0.49889769  1
  O2-  O183  1  0.16749366  0.08457389  0.73953608  1
  O2-  O184  1  0.16661328  0.40773840  0.00401200  1
  O2-  O185  1  0.16877925  0.41856863  0.25067534  1
  O2-  O186  1  0.16294841  0.41055742  0.49504621  1
  O2-  O187  1  0.17260480  0.41169058  0.74617211  1
  O2-  O188  1  0.16514417  0.74648853  0.00047169  1
  O2-  O189  1  0.16772719  0.74951340  0.24070341  1
  O2-  O190  1  0.16733644  0.74359383  0.50505191  1
  O2-  O191  1  0.16295614  0.74687993  0.75533455  1
  O2-  O192  1  0.66572852  0.08105327  0.00381387  1
  O2-  O193  1  0.66401383  0.08365025  0.24855183  1
  O2-  O194  1  0.66456075  0.07982780  0.49383968  1
  O2-  O195  1  0.66561733  0.07644702  0.74753973  1
  O2-  O196  1  0.66638982  0.41110205  0.00934396  1
  O2-  O197  1  0.66498807  0.41283126  0.24522283  1
  O2-  O198  1  0.66548744  0.41428562  0.50005909  1
  O2-  O199  1  0.66747047  0.41579243  0.74757242  1
  O2-  O200  1  0.66298771  0.74555795  -0.00403683  1
  O2-  O201  1  0.66386550  0.74724841  0.24706600  1
  O2-  O202  1  0.64963577  0.74243802  0.50241912  1
  O2-  O203  1  0.66472133  0.74454981  0.75186426  1
  O2-  O204  1  0.32922252  0.25470097  -0.00738592  1
  O2-  O205  1  0.33704734  0.25744593  0.25127065  1
  O2-  O206  1  0.33225690  0.25314180  0.49829449  1
  O2-  O207  1  0.33528607  0.25493094  0.74713404  1
  O2-  O208  1  0.33279922  0.58640226  0.00585506  1
  O2-  O209  1  0.33159227  0.58523172  0.24657409  1
  O2-  O210  1  0.33264130  0.58288329  0.50028604  1
  O2-  O211  1  0.33392143  0.58460382  0.75545912  1
  O2-  O212  1  0.33255077  0.91595222  0.00530913  1
  O2-  O213  1  0.33475921  0.91759647  0.24973112  1
  O2-  O214  1  0.33546822  0.92041906  0.49618453  1
  O2-  O215  1  0.33398824  0.91401369  0.74517338  1
  O2-  O216  1  0.84013857  0.25139876  0.00339974  1
  O2-  O217  1  0.83326591  0.25318180  0.25419091  1
  O2-  O218  1  0.83090715  0.25891957  0.49037827  1
  O2-  O219  1  0.83395253  0.25632630  0.75493199  1
  O2-  O220  1  0.82950735  0.59242046  -0.00025497  1
  O2-  O221  1  0.83213681  0.58398623  0.24329495  1
  O2-  O222  1  0.84577627  0.58809512  0.50006066  1
  O2-  O223  1  0.83743019  0.59329082  0.74856857  1
  O2-  O224  1  0.84065887  0.92032464  -0.00215484  1
  O2-  O225  1  0.83984826  0.92190250  0.24828118  1
  O2-  O226  1  0.83491842  0.92677347  0.49984390  1
  O2-  O227  1  0.83198399  0.91686308  0.75031561  1
  O2-  O228  1  0.16815301  0.25054406  0.00363854  1
  O2-  O229  1  0.16574098  0.25563646  0.25040217  1
  O2-  O230  1  0.16903235  0.25454941  0.49244333  1
  O2-  O231  1  0.16431185  0.24785860  0.74608801  1
  O2-  O232  1  0.16708710  0.58758688  0.00254722  1
  O2-  O233  1  0.17182765  0.58400014  0.24145763  1
  O2-  O234  1  0.15982487  0.58383791  0.49998025  1
  O2-  O235  1  0.16220340  0.58012330  0.75473200  1
  O2-  O236  1  0.16786994  0.91287668  -0.00266043  1
  O2-  O237  1  0.16841382  0.91304711  0.24902647  1
  O2-  O238  1  0.16926924  0.92132454  0.49994346  1
  O2-  O239  1  0.15964374  0.91673644  0.74500921  1
  O2-  O240  1  0.66490784  0.24922251  0.01284634  1
  O2-  O241  1  0.66489366  0.25642442  0.24945385  1
  O2-  O242  1  0.66743113  0.25630863  0.49386138  1
  O2-  O243  1  0.66712336  0.25779940  0.74834689  1
  O2-  O244  1  0.66965028  0.58748712  -0.00073791  1
  O2-  O245  1  0.66938522  0.58311530  0.24208322  1
  O2-  O246  1  0.65864823  0.58897267  0.50019629  1
  O2-  O247  1  0.65468447  0.58734363  0.75308338  1
  O2-  O248  1  0.66543819  0.92141369  -0.00080945  1
  O2-  O249  1  0.65908884  0.92213149  0.24807464  1
  O2-  O250  1  0.66546487  0.92577640  0.49768590  1
  O2-  O251  1  0.66561609  0.91574254  0.75002741  1
  O2-  O252  1  0.33600841  0.08279013  0.00117639  1
  O2-  O253  1  0.33322521  0.08112224  0.25411288  1
  O2-  O254  1  0.33799715  0.07983704  0.49572031  1
  O2-  O255  1  0.33085027  0.08376993  0.74313006  1
  O2-  O256  1  0.33782803  0.41456029  -0.00175447  1
  O2-  O257  1  0.33133265  0.41793399  0.25247728  1
  O2-  O258  1  0.33690018  0.40858642  0.50012596  1
  O2-  O259  1  0.33567107  0.41115644  0.75337751  1
  O2-  O260  1  0.33198250  0.75048419  0.00573869  1
  O2-  O261  1  0.33091058  0.74662233  0.24494638  1
  O2-  O262  1  0.33494636  0.75222020  0.49727343  1
  O2-  O263  1  0.33403582  0.75118358  0.74977026  1
  O2-  O264  1  0.83109115  0.08125636  -0.00071792  1
  O2-  O265  1  0.83189984  0.07941228  0.24761349  1
  O2-  O266  1  0.83419781  0.08590367  0.49128660  1
  O2-  O267  1  0.83506434  0.07793641  0.74892368  1
  O2-  O268  1  0.82908362  0.41142220  0.00503959  1
  O2-  O269  1  0.83589461  0.41350725  0.24925671  1
  O2-  O270  1  0.83544460  0.41365374  0.49480287  1
  O2-  O271  1  0.83915811  0.42033525  0.75681740  1
  O2-  O272  1  0.83558438  0.74913986  0.00076606  1
  O2-  O273  1  0.83369908  0.74367238  0.24619381  1
  O2-  O274  1  0.84252296  0.74675291  0.49681409  1
  O2-  O275  1  0.84298626  0.74852265  0.75072542  1
  O2-  O276  1  0.05202053  0.57465459  0.99096615  1
  O2-  O277  1  0.03877368  0.11219055  0.26230295  1
  O2-  O278  1  0.94617012  0.57731509  0.02001150  1
  O2-  O279  1  0.45337876  0.76158731  0.76185991  1
  O2-  O280  1  0.54308272  0.57170429  0.49365210  1
  O2-  O281  1  0.54810487  0.23250914  0.01387632  1
  O2-  O282  1  0.05053964  0.57533621  0.73489334  1
  O2-  O283  1  0.05043180  0.08726073  0.70328639  1
  O2-  O284  1  0.55192405  0.42446468  0.69667473  1
  O2-  O285  1  0.04534898  0.76485942  0.76296586  1
  O2-  O286  1  0.54297699  0.43010358  0.51020901  1
  O2-  O287  1  0.03422488  0.42922826  0.69979804  1
  O2-  O288  1  0.45100444  0.56366686  0.25875532  1
  O2-  O289  1  0.03926612  0.86284311  0.19802772  1
  O2-  O290  1  0.54231757  0.57158704  0.76184040  1
  O2-  O291  1  0.94866337  0.09265229  0.51603048  1
  O2-  O292  1  0.05313819  0.42512430  0.99055023  1
  O2-  O293  1  0.04474566  0.41928048  0.24188636  1
  O2-  O294  1  0.54462469  0.09869043  0.73369200  1
  O2-  O295  1  0.03696980  0.55365960  0.21102198  1
  O2-  O296  1  0.95279067  0.42212744  -0.00173322  1
  O2-  O297  1  0.04791087  0.89762978  0.52008458  1
  O2-  O298  1  0.05356784  0.24565703  0.50576622  1
  O2-  O299  1  0.54348619  0.23377675  0.24501600  1
  O2-  O300  1  0.95240112  0.76368206  0.02070226  1
  O2-  O301  1  0.05055191  0.57128544  0.77372873  1
  O2-  O302  1  0.54794709  0.25438528  0.98254395  1
  O2-  O303  1  0.46398643  0.55118801  0.04898656  1
  O2-  O304  1  0.55373258  0.09687708  0.22858776  1
  O2-  O305  1  0.94842829  0.09958399  0.74284005  1
  O2-  O306  1  0.94335641  0.09123920  0.47778056  1
  O2-  O307  1  0.44567120  0.42247782  0.99556372  1
  O2-  O308  1  0.54784512  0.88306434  0.68999948  1
  O2-  O309  1  0.45028602  0.90400442  0.47859117  1
  O2-  O310  1  0.45495850  0.23446927  0.75120325  1
  O2-  O311  1  0.94616805  0.91593072  0.48512248  1
  O2-  O312  1  0.94981081  0.76303817  0.50711476  1
  O2-  O313  1  0.96483797  0.86617169  0.79713797  1
  O2-  O314  1  0.05358065  0.89669408  0.48191469  1
  O2-  O315  1  0.55272856  0.08640300  0.26611383  1
  O2-  O316  1  0.44841719  0.20731134  0.95894260  1
  O2-  O317  1  0.55226892  0.42965773  0.99531511  1
  O2-  O318  1  0.46216559  0.89540036  0.74763270  1
  O2-  O319  1  0.45077677  0.75269184  0.75528482  1
  O2-  O320  1  0.54322276  0.89114798  0.25955218  1
  O2-  O321  1  0.04330409  0.42895087  0.48566409  1
  O2-  O322  1  0.94579282  0.24366548  0.45841949  1
  O2-  O323  1  0.94629453  0.90292773  0.25844631  1
  O2-  O324  1  0.93715734  0.94486968  0.67967844  1
  O2-  O325  1  0.56348562  0.25740006  0.72071707  1
  O2-  O326  1  0.06624195  0.74243903  0.27891345  1
  O2-  O327  1  0.56959255  0.39939981  0.84228622  1
  O2-  O328  1  0.43877548  0.92603160  0.28357910  1
  O2-  O329  1  0.43913291  0.08302151  0.78929940  1
  O2-  O330  1  0.06482760  0.07104224  0.52476170  1
  O2-  O331  1  0.94025521  0.92723265  0.28601140  1
  O2-  O332  1  0.08357440  0.59058475  0.32329524  1
  O2-  O333  1  0.94066626  0.74082116  0.53461776  1
  O2-  O334  1  0.56367473  0.92392527  0.46865239  1
  O2-  O335  1  0.05602086  0.07256395  0.69316323  1
  O2-  O336  1  0.07465312  0.39565867  0.82299697  1
  O2-  O337  1  0.44291920  0.74750366  0.96765726  1
  O2-  O338  1  0.05719570  0.24116470  0.81586389  1
  O2-  O339  1  0.93962854  0.25237212  0.24507559  1
  O2-  O340  1  0.56124064  0.91953654  0.02110874  1
  O2-  O341  1  0.06214402  0.26603554  0.28845257  1
  O2-  O342  1  0.06893718  0.40991689  0.23643532  1
  O2-  O343  1  0.42877238  0.59983149  0.92413964  1
  O2-  O344  1  0.56090121  0.58803049  0.26994207  1
  O2-  O345  1  0.43822656  0.92829500  0.96491739  1
  O2-  O346  1  0.06107347  0.27285624  0.67076780  1
  O2-  O347  1  0.06096208  0.08144572  0.01921407  1
  O2-  O348  1  0.44001788  0.58070330  0.47581033  1
  O2-  O349  1  0.08670216  0.09972583  0.85209265  1
  O2-  O350  1  0.94286659  0.26595352  0.72745174  1
  O2-  O351  1  0.93482902  0.29983225  0.57586292  1
  O2-  O352  1  0.56624693  0.60256451  0.02729574  1
  O2-  O353  1  0.93015593  0.41323746  0.01267467  1
  O2-  O354  1  0.56130974  0.95247335  0.82320237  1
  O2-  O355  1  0.07598988  0.93084856  0.30647312  1
  O2-  O356  1  0.42652675  0.94044872  0.80218166  1
  O2-  O357  1  0.93812679  0.07861412  0.02508097  1
  O2-  O358  1  0.06214401  0.25534472  0.97081527  1
  O2-  O359  1  0.56856124  0.73057732  0.72323490  1
  O2-  O360  1  0.43764084  0.75250781  0.22484115  1
  O2-  O361  1  0.92617049  0.57274769  0.82384141  1
  O2-  O362  1  0.93304264  0.07576285  0.28129083  1
  O2-  O363  1  0.56361652  0.25474966  0.52431039  1
  O2-  O364  1  0.93901145  0.59803459  0.28296581  1
  O2-  O365  1  0.43764280  0.59387419  0.71232215  1
  O2-  O366  1  0.93843499  0.59933327  0.67637615  1
  O2-  O367  1  0.06134076  0.59406117  0.96136107  1
  O2-  O368  1  0.55681735  0.43032969  0.69498025  1
  O2-  O369  1  0.08934766  0.06161368  0.18511085  1
  O2-  O370  1  0.44118790  0.73920736  0.53483075  1
  O2-  O371  1  0.43188778  0.28434912  0.06989368  1
  O2-  O372  1  0.75041132  0.29999962  0.93982922  1
  O2-  O373  1  0.24848879  0.66142976  0.67397425  1
  O2-  O374  1  0.74910176  -0.01134947  0.29748838  1
  O2-  O375  1  0.74909610  0.32514419  0.57824445  1
  O2-  O376  1  0.25107463  -0.00022000  0.92440286  1
  O2-  O377  1  0.74979814  0.01020583  0.12028979  1
  O2-  O378  1  0.24854730  0.68212348  0.89549607  1
  O2-  O379  1  0.25094672  0.00122942  0.06864014  1
  O2-  O380  1  0.75039821  0.66064939  0.12013714  1
  O2-  O381  1  0.75112271  0.33805148  0.82173011  1
  O2-  O382  1  0.74981415  0.67535787  0.58662573  1
  O2-  O383  1  0.75028533  0.00884083  0.39448252  1
  O2-  O384  1  0.75107529  0.01999212  0.60211443  1
  O2-  O385  1  0.24974297  -0.00524283  0.78865260  1
  O2-  O386  1  0.74980133  0.33915796  0.14901625  1
  O2-  O387  1  0.75193538  0.64989248  0.39789239  1
  O2-  O388  1  0.74890916  0.63656311  0.66989047  1
  O2-  O389  1  0.24867470  0.66777969  0.58300100  1
  O2-  O390  1  0.25048983  0.66357693  0.32077036  1
  O2-  O391  1  0.74938343  0.00493607  0.86702797  1
  O2-  O392  1  0.74896649  0.65433535  0.88285520  1
  O2-  O393  1  0.25018964  0.66376835  0.41196136  1
  O2-  O394  1  0.24991199  0.67496287  0.10062508  1
  O2-  O395  1  0.25086921  -0.01661785  0.19642812  1
  O2-  O396  1  0.74566680  0.17388682  0.93819511  1
  O2-  O397  1  0.74768361  0.77877707  0.34792095  1
  O2-  O398  1  0.75600963  0.14998069  0.86253649  1
  O2-  O399  1  0.24995674  0.83028118  0.33701289  1
  O2-  O400  1  0.74873321  0.15956423  0.61249764  1
  O2-  O401  1  0.25001280  0.49276222  0.60534346  1
  O2-  O402  1  0.24958040  0.83178785  0.58523320  1
  O2-  O403  1  0.74678378  0.80308146  0.12902757  1
  O2-  O404  1  0.25117018  0.16971820  0.10148197  1
  O2-  O405  1  0.75229162  0.18387623  0.52917225  1
  O2-  O406  1  0.74984054  0.48826148  0.91202536  1
  O2-  O407  1  0.25028349  0.17354931  0.59170327  1
  O2-  O408  1  0.74802850  0.81528290  0.81489367  1
  O2-  O409  1  0.75184981  0.87808001  0.40806276  1
  O2-  O410  1  0.74974821  0.47920238  0.39218666  1
  O2-  O411  1  0.74931820  0.15310021  0.35981326  1
  O2-  O412  1  0.74628005  0.87151171  0.57856102  1
  O2-  O413  1  0.25022842  0.16381984  0.84485560  1
  O2-  O414  1  0.74972960  0.18337899  0.19053682  1
  O2-  O415  1  0.24902014  0.83350293  0.66524360  1
  O2-  O416  1  0.75098287  0.81892076  0.90056787  1
  O2-  O417  1  0.75064103  0.50578303  0.30874554  1
  O2-  O418  1  0.24980619  0.50896076  0.89868319  1
  O2-  O419  1  0.75089006  0.48233516  0.64026094  1
  O2-  O420  1  0.54671525  0.68805473  0.38272635  1
  O2-  O421  1  0.04461444  0.32137354  0.11612927  1
  O2-  O422  1  0.02957947  0.67357947  0.62439148  1
  O2-  O423  1  0.02630205  0.67428452  0.12157983  1
  O2-  O424  1  0.95516247  0.34603898  0.13174530  1
  O2-  O425  1  0.49791201  0.32518580  0.61276774  1
  O2-  O426  1  0.02206562  -0.01700219  0.10854046  1
  O2-  O427  1  0.97555713  0.68473990  0.87630269  1
  O2-  O428  1  0.01118736  0.66968444  0.38566450  1
  O2-  O429  1  0.95241029  0.01260951  0.88081424  1
  O2-  O430  1  0.02135186  0.01332981  0.38094875  1
  O2-  O431  1  0.48199739  0.67332478  0.12939245  1
  O2-  O432  1  0.52570657  0.34479847  0.13004058  1
  O2-  O433  1  0.54671808  0.33457686  0.37078281  1
  O2-  O434  1  0.54603621  0.01234748  0.61407756  1
  O2-  O435  1  0.97024133  0.33483681  0.87806752  1
  O2-  O436  1  0.45193927  0.00969161  0.62405198  1
  O2-  O437  1  0.46980995  0.33843570  0.87298576  1
  O2-  O438  1  0.51458420  0.01655335  0.38319918  1
  O2-  O439  1  0.45224296  0.33019681  0.37479116  1
  O2-  O440  1  0.51769488  0.00159834  0.13197380  1
  O2-  O441  1  0.04201765  -0.02637361  0.88902313  1
  O2-  O442  1  0.96769716  -0.00768443  0.14162063  1
  O2-  O443  1  0.45459840  0.68178548  0.36620946  1
