# generated using pymatgen
data_La7(Ru4O11)2
_symmetry_space_group_name_H-M   'P 1'
_cell_length_a   23.98955796
_cell_length_b   16.83039528
_cell_length_c   15.42642609
_cell_angle_alpha   90.00066852
_cell_angle_beta   89.99995570
_cell_angle_gamma   89.99916211
_symmetry_Int_Tables_number   1
_chemical_formula_structural   La7(Ru4O11)2
_chemical_formula_sum   'La84 Ru96 O264'
_cell_volume   6228.47727585
_cell_formula_units_Z   12
loop_
 _symmetry_equiv_pos_site_id
 _symmetry_equiv_pos_as_xyz
  1  'x, y, z'
loop_
 _atom_type_symbol
 _atom_type_oxidation_number
  La3+  3.0
  Ru4+  4.0
  O2-  -2.0
loop_
 _atom_site_type_symbol
 _atom_site_label
 _atom_site_symmetry_multiplicity
 _atom_site_fract_x
 _atom_site_fract_y
 _atom_site_fract_z
 _atom_site_occupancy
  La3+  La0  1  0.13812927  0.00047885  0.12703451  1
  La3+  La1  1  0.13778264  0.00009330  0.37458998  1
  La3+  La2  1  0.13902361  0.00144726  0.62469264  1
  La3+  La3  1  0.13703572  0.00064033  0.87421434  1
  La3+  La4  1  0.13947832  0.33455931  0.12741813  1
  La3+  La5  1  0.14188002  0.33378608  0.37513747  1
  La3+  La6  1  0.14047167  0.33226035  0.62302127  1
  La3+  La7  1  0.13745850  0.33414295  0.87418523  1
  La3+  La8  1  0.13842891  0.66799915  0.12626083  1
  La3+  La9  1  0.13777772  0.66752053  0.37168515  1
  La3+  La10  1  0.13675221  0.66585047  0.62540958  1
  La3+  La11  1  0.13666390  0.66571655  0.87624557  1
  La3+  La12  1  0.63541639  0.00208394  0.12758028  1
  La3+  La13  1  0.63883590  0.00161653  0.37810404  1
  La3+  La14  1  0.63965287  0.00047665  0.62263166  1
  La3+  La15  1  0.63725243  0.00061281  0.87207777  1
  La3+  La16  1  0.63756959  0.33275070  0.12368938  1
  La3+  La17  1  0.63984450  0.33338360  0.37735638  1
  La3+  La18  1  0.64104886  0.33456146  0.62241701  1
  La3+  La19  1  0.63874118  0.33541917  0.87611158  1
  La3+  La20  1  0.63518297  0.66510073  0.12561784  1
  La3+  La21  1  0.63939882  0.66607015  0.37819369  1
  La3+  La22  1  0.64017003  0.66592769  0.62225670  1
  La3+  La23  1  0.63850595  0.66499440  0.87462652  1
  La3+  La24  1  0.36512062  -0.00389118  0.13135482  1
  La3+  La25  1  0.36423545  -0.00318184  0.37102654  1
  La3+  La26  1  0.36133823  0.00126904  0.62581389  1
  La3+  La27  1  0.36410614  0.00069765  0.87414983  1
  La3+  La28  1  0.36156587  0.33459293  0.12820812  1
  La3+  La29  1  0.35821904  0.33379298  0.37477062  1
  La3+  La30  1  0.35899077  0.33287811  0.62220550  1
  La3+  La31  1  0.36246607  0.33445806  0.87429626  1
  La3+  La32  1  0.36591185  0.66959538  0.12228434  1
  La3+  La33  1  0.36261387  0.66684921  0.37133445  1
  La3+  La34  1  0.36301357  0.66537854  0.62553743  1
  La3+  La35  1  0.36623977  0.66887889  0.88010824  1
  La3+  La36  1  0.86413084  0.00182519  0.12774112  1
  La3+  La37  1  0.86145044  0.00163925  0.37675548  1
  La3+  La38  1  0.86062714  0.00128699  0.62414140  1
  La3+  La39  1  0.86337114  0.00164750  0.87117958  1
  La3+  La40  1  0.86326303  0.33292752  0.12759995  1
  La3+  La41  1  0.85920027  0.33232142  0.37466689  1
  La3+  La42  1  0.85976820  0.33387233  0.62368352  1
  La3+  La43  1  0.86113230  0.33543670  0.87405261  1
  La3+  La44  1  0.86320317  0.66481360  0.12730458  1
  La3+  La45  1  0.86168050  0.66570474  0.37676161  1
  La3+  La46  1  0.86052375  0.66529623  0.62352145  1
  La3+  La47  1  0.86068838  0.66443106  0.87257831  1
  La3+  La48  1  0.49893382  0.83105092  0.88390235  1
  La3+  La49  1  0.00050815  0.49984199  0.88502428  1
  La3+  La50  1  0.50038929  0.16714275  0.88549910  1
  La3+  La51  1  -0.00053574  0.16615578  0.36471110  1
  La3+  La52  1  0.49766794  0.83736863  0.11672100  1
  La3+  La53  1  0.00026791  0.83347609  0.38051336  1
  La3+  La54  1  0.00414820  0.82710232  0.61856613  1
  La3+  La55  1  0.00036831  0.83465863  0.86783255  1
  La3+  La56  1  -0.00018468  0.49979337  0.61483690  1
  La3+  La57  1  0.50151448  0.16736155  0.11367881  1
  La3+  La58  1  0.49959838  0.83376878  0.63547325  1
  La3+  La59  1  0.50074491  0.83405634  0.36379666  1
  La3+  La60  1  0.00131208  0.49742757  0.13283008  1
  La3+  La61  1  0.00026030  0.16644502  0.12975475  1
  La3+  La62  1  0.49987985  0.50211025  0.37107123  1
  La3+  La63  1  0.49998548  0.83473058  0.61337808  1
  La3+  La64  1  0.49630220  0.82706435  0.13370749  1
  La3+  La65  1  0.50209768  0.16467306  0.36803060  1
  La3+  La66  1  0.00175069  0.49942129  0.36824373  1
  La3+  La67  1  -0.00001988  0.83357242  0.63854027  1
  La3+  La68  1  0.00121525  0.16652468  0.88174210  1
  La3+  La69  1  0.49957467  0.49743515  0.63102512  1
  La3+  La70  1  0.50229159  0.16317162  0.62025802  1
  La3+  La71  1  0.50247027  0.50014205  0.88757678  1
  La3+  La72  1  0.24972932  0.17496699  0.02820197  1
  La3+  La73  1  0.25016163  0.45694029  0.49557590  1
  La3+  La74  1  0.25004558  0.46294851  0.00385719  1
  La3+  La75  1  0.24990770  0.13463915  0.76660736  1
  La3+  La76  1  0.75022775  0.18270960  0.04836627  1
  La3+  La77  1  0.24980213  0.78171331  0.00928308  1
  La3+  La78  1  0.25005706  0.49881754  0.74445323  1
  La3+  La79  1  0.24989456  0.16895280  0.27710294  1
  La3+  La80  1  0.25031533  0.87687942  0.45360073  1
  La3+  La81  1  0.74928030  0.82178654  0.05096242  1
  La3+  La82  1  0.74993512  0.82394909  0.21169282  1
  La3+  La83  1  0.25027094  0.82887517  0.78097572  1
  Ru4+  Ru84  1  0.00033439  0.00047636  0.00004127  1
  Ru4+  Ru85  1  0.00029472  -0.00307890  0.25190965  1
  Ru4+  Ru86  1  -0.00066685  0.00438727  0.50018547  1
  Ru4+  Ru87  1  0.00103416  0.00308939  0.74929030  1
  Ru4+  Ru88  1  -0.00067819  0.33398088  0.00051400  1
  Ru4+  Ru89  1  0.00270918  0.33618917  0.24987850  1
  Ru4+  Ru90  1  -0.00043642  0.33372785  0.50064474  1
  Ru4+  Ru91  1  -0.00170627  0.33092967  0.75125045  1
  Ru4+  Ru92  1  0.00602670  0.66128429  0.00110692  1
  Ru4+  Ru93  1  0.00428304  0.66833314  0.24912638  1
  Ru4+  Ru94  1  0.00004992  0.66594431  0.50034698  1
  Ru4+  Ru95  1  -0.00048283  0.66469433  0.75092240  1
  Ru4+  Ru96  1  0.49831560  0.00025633  -0.00117193  1
  Ru4+  Ru97  1  0.50152184  -0.00189813  0.24674236  1
  Ru4+  Ru98  1  0.50023656  -0.00030630  0.50256214  1
  Ru4+  Ru99  1  0.49974263  -0.00131214  0.75068908  1
  Ru4+  Ru100  1  0.49684202  0.34035552  -0.00122874  1
  Ru4+  Ru101  1  0.49936900  0.33389051  0.25293112  1
  Ru4+  Ru102  1  0.49883060  0.33171321  0.49651595  1
  Ru4+  Ru103  1  0.50004776  0.33130512  0.75380494  1
  Ru4+  Ru104  1  0.50246397  0.66827145  0.00456885  1
  Ru4+  Ru105  1  0.50004709  0.66293487  0.24695142  1
  Ru4+  Ru106  1  0.50105390  0.66577973  0.50100237  1
  Ru4+  Ru107  1  0.49892264  0.66618865  0.74863891  1
  Ru4+  Ru108  1  0.11014230  0.16687736  -0.00040908  1
  Ru4+  Ru109  1  0.11282339  0.16581474  0.24952723  1
  Ru4+  Ru110  1  0.11329424  0.16891677  0.49977112  1
  Ru4+  Ru111  1  0.11108767  0.16769935  0.74895790  1
  Ru4+  Ru112  1  0.11163569  0.49930448  0.00035892  1
  Ru4+  Ru113  1  0.11417085  0.49772284  0.25052149  1
  Ru4+  Ru114  1  0.11131776  0.49841145  0.50102476  1
  Ru4+  Ru115  1  0.11131663  0.50139969  0.75035178  1
  Ru4+  Ru116  1  0.11015337  0.83093971  0.00119353  1
  Ru4+  Ru117  1  0.11333115  0.83165076  0.25096255  1
  Ru4+  Ru118  1  0.11167159  0.83435935  0.49950546  1
  Ru4+  Ru119  1  0.11196949  0.83482997  0.75098229  1
  Ru4+  Ru120  1  0.61379443  0.16260407  0.00019424  1
  Ru4+  Ru121  1  0.61443228  0.16713407  0.25000866  1
  Ru4+  Ru122  1  0.61433727  0.16565348  0.49989015  1
  Ru4+  Ru123  1  0.61402612  0.16537247  0.75013138  1
  Ru4+  Ru124  1  0.61336103  0.49815910  0.00046187  1
  Ru4+  Ru125  1  0.61582281  0.50588160  0.24879864  1
  Ru4+  Ru126  1  0.61595061  0.50264134  0.49990820  1
  Ru4+  Ru127  1  0.61424301  0.49958204  0.74978692  1
  Ru4+  Ru128  1  0.61125877  0.83157010  -0.00158350  1
  Ru4+  Ru129  1  0.61413307  0.83709860  0.25189374  1
  Ru4+  Ru130  1  0.61508624  0.83305521  0.50040893  1
  Ru4+  Ru131  1  0.61279929  0.83431620  0.75006315  1
  Ru4+  Ru132  1  0.38948762  0.16637357  -0.00081218  1
  Ru4+  Ru133  1  0.38405915  0.16381119  0.25028028  1
  Ru4+  Ru134  1  0.38526826  0.16743643  0.49976385  1
  Ru4+  Ru135  1  0.38935204  0.16547354  0.74885745  1
  Ru4+  Ru136  1  0.38725763  0.49606596  0.00053199  1
  Ru4+  Ru137  1  0.38485673  0.49373252  0.24921923  1
  Ru4+  Ru138  1  0.38827305  0.49825310  0.50131185  1
  Ru4+  Ru139  1  0.38750734  0.50020395  0.74946281  1
  Ru4+  Ru140  1  0.38995363  0.83257613  -0.00100511  1
  Ru4+  Ru141  1  0.38846922  0.83579406  0.25076936  1
  Ru4+  Ru142  1  0.38955714  0.83612051  0.49857098  1
  Ru4+  Ru143  1  0.38992485  0.83224621  0.75055687  1
  Ru4+  Ru144  1  0.88910835  0.16699627  -0.00057471  1
  Ru4+  Ru145  1  0.88287631  0.16431480  0.25013659  1
  Ru4+  Ru146  1  0.88517559  0.16699237  0.49967982  1
  Ru4+  Ru147  1  0.88706318  0.16487763  0.75048844  1
  Ru4+  Ru148  1  0.88707311  0.49840109  -0.00013775  1
  Ru4+  Ru149  1  0.88465224  0.49650484  0.25004693  1
  Ru4+  Ru150  1  0.88507175  0.50084160  0.50042833  1
  Ru4+  Ru151  1  0.88573970  0.50063461  0.74959682  1
  Ru4+  Ru152  1  0.88551849  0.83724464  -0.00000938  1
  Ru4+  Ru153  1  0.88830928  0.83753913  0.24984319  1
  Ru4+  Ru154  1  0.88354918  0.83236639  0.49973417  1
  Ru4+  Ru155  1  0.88680328  0.83235974  0.75066786  1
  Ru4+  Ru156  1  0.25001947  0.08727032  0.50281029  1
  Ru4+  Ru157  1  0.24980587  0.61015576  0.00271748  1
  Ru4+  Ru158  1  0.74980894  0.30367886  0.00354551  1
  Ru4+  Ru159  1  0.74995413  0.24973752  0.74750869  1
  Ru4+  Ru160  1  0.24978944  0.29506040  -0.02269565  1
  Ru4+  Ru161  1  0.75019546  0.93264564  -0.01083795  1
  Ru4+  Ru162  1  0.25023795  0.96064246  0.75251269  1
  Ru4+  Ru163  1  0.25017690  0.70166766  0.74420621  1
  Ru4+  Ru164  1  0.75002173  0.57405624  0.25973685  1
  Ru4+  Ru165  1  0.24999250  0.57635045  0.24665182  1
  Ru4+  Ru166  1  0.75003966  0.57088228  -0.00573508  1
  Ru4+  Ru167  1  0.74988682  0.70143901  0.26165990  1
  Ru4+  Ru168  1  0.24991821  0.91175551  0.24778883  1
  Ru4+  Ru169  1  0.74965750  0.75136378  0.74046464  1
  Ru4+  Ru170  1  0.24983655  0.27713762  0.74082533  1
  Ru4+  Ru171  1  0.25015902  0.73860973  0.50533394  1
  Ru4+  Ru172  1  0.74985025  0.70696360  -0.00719168  1
  Ru4+  Ru173  1  0.74995450  0.06998448  -0.00869433  1
  Ru4+  Ru174  1  0.75030364  0.94138705  0.26190182  1
  Ru4+  Ru175  1  0.24999101  0.59372696  0.50557234  1
  Ru4+  Ru176  1  0.75000054  0.41732905  0.25828555  1
  Ru4+  Ru177  1  0.24999877  0.05195558  -0.00529991  1
  Ru4+  Ru178  1  0.75023631  0.91356891  0.73740823  1
  Ru4+  Ru179  1  0.25003573  0.92228926  0.00342564  1
  O2-  O180  1  0.16539064  0.07872534  0.00004948  1
  O2-  O181  1  0.16904460  0.08042385  0.25132463  1
  O2-  O182  1  0.16867825  0.08006645  0.50018246  1
  O2-  O183  1  0.16444197  0.07913341  0.75026688  1
  O2-  O184  1  0.16486630  0.41168103  -0.00106533  1
  O2-  O185  1  0.16640721  0.41549992  0.24923454  1
  O2-  O186  1  0.16534654  0.41433654  0.49967413  1
  O2-  O187  1  0.16818979  0.41325358  0.75098487  1
  O2-  O188  1  0.16486125  0.74555348  -0.00143924  1
  O2-  O189  1  0.16682480  0.74969043  0.25022101  1
  O2-  O190  1  0.16656346  0.74619004  0.49994730  1
  O2-  O191  1  0.16611512  0.74494949  0.74935548  1
  O2-  O192  1  0.66538941  0.07849203  -0.00052543  1
  O2-  O193  1  0.66571891  0.08084468  0.24937635  1
  O2-  O194  1  0.66755584  0.08202030  0.50159162  1
  O2-  O195  1  0.66763803  0.08128633  0.74965268  1
  O2-  O196  1  0.66683914  0.41491723  0.00090017  1
  O2-  O197  1  0.66841747  0.41551588  0.24951056  1
  O2-  O198  1  0.66653233  0.41551969  0.50099187  1
  O2-  O199  1  0.66647694  0.41479540  0.75052268  1
  O2-  O200  1  0.66657158  0.74589039  0.00090737  1
  O2-  O201  1  0.66584452  0.74604602  0.24916831  1
  O2-  O202  1  0.66667019  0.74866204  0.49989932  1
  O2-  O203  1  0.66938418  0.74633498  0.74974224  1
  O2-  O204  1  0.33440257  0.25488473  -0.00033176  1
  O2-  O205  1  0.33274755  0.25175035  0.25033469  1
  O2-  O206  1  0.33311845  0.24965836  0.50010720  1
  O2-  O207  1  0.33284183  0.25382311  0.75184897  1
  O2-  O208  1  0.33264645  0.58728307  -0.00076814  1
  O2-  O209  1  0.33293244  0.58535161  0.24968479  1
  O2-  O210  1  0.33329253  0.58717583  0.49970922  1
  O2-  O211  1  0.33172377  0.58645419  0.74989844  1
  O2-  O212  1  0.33490515  0.92009288  0.00045310  1
  O2-  O213  1  0.33031530  0.91867556  0.24895047  1
  O2-  O214  1  0.33292392  0.92028202  0.50074006  1
  O2-  O215  1  0.33257676  0.92170337  0.75062362  1
  O2-  O216  1  0.83404818  0.25405759  0.00066127  1
  O2-  O217  1  0.83352331  0.25151926  0.24989793  1
  O2-  O218  1  0.83423322  0.25161125  0.49956802  1
  O2-  O219  1  0.83321497  0.25239293  0.74998435  1
  O2-  O220  1  0.83365316  0.58716212  0.00032429  1
  O2-  O221  1  0.83244529  0.58562049  0.24966496  1
  O2-  O222  1  0.83327486  0.58462846  0.50080488  1
  O2-  O223  1  0.83207369  0.58553521  0.75006603  1
  O2-  O224  1  0.83453234  0.92191029  0.00072414  1
  O2-  O225  1  0.83479766  0.91988634  0.24896074  1
  O2-  O226  1  0.83253431  0.91851857  0.50098699  1
  O2-  O227  1  0.83154371  0.91956783  0.74950781  1
  O2-  O228  1  0.16595768  0.25519159  -0.00063125  1
  O2-  O229  1  0.16678424  0.25214344  0.25110860  1
  O2-  O230  1  0.16484839  0.24985102  0.49989467  1
  O2-  O231  1  0.16836826  0.25400863  0.75136842  1
  O2-  O232  1  0.16786108  0.58727883  -0.00070675  1
  O2-  O233  1  0.16659819  0.58569024  0.24976255  1
  O2-  O234  1  0.16564682  0.58721422  0.49986850  1
  O2-  O235  1  0.16821348  0.58634627  0.74983868  1
  O2-  O236  1  0.16666067  0.91997798  -0.00075250  1
  O2-  O237  1  0.16819597  0.91917373  0.24989183  1
  O2-  O238  1  0.16757947  0.92109893  0.50060934  1
  O2-  O239  1  0.16714994  0.92117562  0.74962554  1
  O2-  O240  1  0.66671072  0.25429428  0.00008425  1
  O2-  O241  1  0.66552737  0.25200787  0.24909192  1
  O2-  O242  1  0.66624472  0.25144008  0.50023235  1
  O2-  O243  1  0.66664673  0.25219463  0.75001245  1
  O2-  O244  1  0.66721925  0.58567182  0.00047715  1
  O2-  O245  1  0.66803067  0.58672905  0.24980997  1
  O2-  O246  1  0.66695523  0.58437188  0.50175205  1
  O2-  O247  1  0.66740194  0.58569685  0.74983736  1
  O2-  O248  1  0.66514331  0.92151369  0.00086247  1
  O2-  O249  1  0.66654437  0.92106711  0.24915811  1
  O2-  O250  1  0.66546839  0.91832655  0.50005221  1
  O2-  O251  1  0.66708640  0.91893805  0.74995587  1
  O2-  O252  1  0.33376731  0.07834046  0.00072107  1
  O2-  O253  1  0.33088442  0.08015981  0.24925391  1
  O2-  O254  1  0.33166652  0.08141561  0.49995298  1
  O2-  O255  1  0.33390689  0.07927516  0.75139699  1
  O2-  O256  1  0.33595934  0.41227515  -0.00099781  1
  O2-  O257  1  0.33425324  0.41572049  0.24946188  1
  O2-  O258  1  0.33442108  0.41464991  0.49951789  1
  O2-  O259  1  0.33050590  0.41390248  0.75194128  1
  O2-  O260  1  0.33376812  0.74395428  -0.00029494  1
  O2-  O261  1  0.33469265  0.74842533  0.25023112  1
  O2-  O262  1  0.33353514  0.74553291  0.49984677  1
  O2-  O263  1  0.33373865  0.74485247  0.75070102  1
  O2-  O264  1  0.83457496  0.07876082  0.00080237  1
  O2-  O265  1  0.83437578  0.08118761  0.24932433  1
  O2-  O266  1  0.83379317  0.08150063  0.50071088  1
  O2-  O267  1  0.83256757  0.08206003  0.74923304  1
  O2-  O268  1  0.83427687  0.41403397  0.00064031  1
  O2-  O269  1  0.83290944  0.41480776  0.24927378  1
  O2-  O270  1  0.83475069  0.41488872  0.49990888  1
  O2-  O271  1  0.83409196  0.41485982  0.75050401  1
  O2-  O272  1  0.83280034  0.74502757  0.00032740  1
  O2-  O273  1  0.83400671  0.74569698  0.24922833  1
  O2-  O274  1  0.83489317  0.74840006  0.50019694  1
  O2-  O275  1  0.83223324  0.74709571  0.75022722  1
  O2-  O276  1  0.95445314  0.09656778  0.23564774  1
  O2-  O277  1  0.95318459  0.56942078  0.26874081  1
  O2-  O278  1  0.95042778  0.23664220  0.23643216  1
  O2-  O279  1  0.95439163  0.23343339  0.76398067  1
  O2-  O280  1  0.55248905  0.42424102  0.48071007  1
  O2-  O281  1  0.45801346  0.77332669  0.99373424  1
  O2-  O282  1  0.45834529  0.22341038  0.52909137  1
  O2-  O283  1  0.95501887  0.76357211  0.22997446  1
  O2-  O284  1  0.04421777  0.43323265  0.76447773  1
  O2-  O285  1  0.96022895  0.89071806  0.52816731  1
  O2-  O286  1  0.53680076  0.44470304  0.24884340  1
  O2-  O287  1  0.46399379  0.44157874  0.78498733  1
  O2-  O288  1  0.45238783  0.23241894  0.73619887  1
  O2-  O289  1  0.04719664  0.23557104  0.23676714  1
  O2-  O290  1  0.95146957  0.90341517  0.26383931  1
  O2-  O291  1  0.45201628  0.57172288  0.73439708  1
  O2-  O292  1  0.55061596  0.57357660  0.23513914  1
  O2-  O293  1  0.54797277  0.56732246  0.73566831  1
  O2-  O294  1  0.95421496  0.42963355  0.26490709  1
  O2-  O295  1  0.54966099  0.76401658  0.23602089  1
  O2-  O296  1  0.45427592  0.42982570  0.01112673  1
  O2-  O297  1  0.04577403  0.76530484  0.76340285  1
  O2-  O298  1  0.45798876  0.89407655  0.25473385  1
  O2-  O299  1  0.54628571  0.90409316  0.98405509  1
  O2-  O300  1  0.53684071  0.44469757  0.24901497  1
  O2-  O301  1  0.96633962  0.78487510  0.99105800  1
  O2-  O302  1  0.45053192  0.76297930  0.01706797  1
  O2-  O303  1  0.45282845  0.56866687  0.23031422  1
  O2-  O304  1  0.45260239  0.76156026  0.26534970  1
  O2-  O305  1  0.95398323  0.57156018  0.22937888  1
  O2-  O306  1  0.44995430  0.90539318  0.23235411  1
  O2-  O307  1  0.54742552  0.23316929  0.48546395  1
  O2-  O308  1  0.95460290  0.23655454  0.98722203  1
  O2-  O309  1  0.96634729  0.78514492  0.01059741  1
  O2-  O310  1  0.45227148  0.57089457  0.98075010  1
  O2-  O311  1  0.95485138  0.09414892  0.98634449  1
  O2-  O312  1  0.04495141  0.09938963  0.48440805  1
  O2-  O313  1  0.46370800  0.10557357  0.21509104  1
  O2-  O314  1  0.04847207  0.90168073  0.26601816  1
  O2-  O315  1  0.45182950  0.57150977  0.26919700  1
  O2-  O316  1  0.95289669  0.76460231  0.26893670  1
  O2-  O317  1  0.54665783  0.23594934  0.01224748  1
  O2-  O318  1  0.45504838  0.76657081  0.48658450  1
  O2-  O319  1  0.54628468  0.23493432  0.76630470  1
  O2-  O320  1  0.45404458  0.23842136  0.26972638  1
  O2-  O321  1  0.44873454  0.42989090  0.23762918  1
  O2-  O322  1  0.45539167  0.57068569  0.01965582  1
  O2-  O323  1  0.45407802  0.23580924  0.23050979  1
  O2-  O324  1  0.43052297  0.92920295  0.27956681  1
  O2-  O325  1  0.56373448  0.73553283  0.68814588  1
  O2-  O326  1  0.55798246  0.41533360  0.47549849  1
  O2-  O327  1  0.57720166  0.38847175  0.19087187  1
  O2-  O328  1  0.42880555  0.27464983  0.44708300  1
  O2-  O329  1  0.42590393  0.06592989  0.29723417  1
  O2-  O330  1  0.93684312  0.07036611  0.78246934  1
  O2-  O331  1  0.56186779  0.73850887  0.21561760  1
  O2-  O332  1  0.06705395  0.74079228  0.02855813  1
  O2-  O333  1  0.43533863  0.07251393  0.97293689  1
  O2-  O334  1  0.06416129  0.93041405  0.46649871  1
  O2-  O335  1  0.93708353  0.59711066  0.53255396  1
  O2-  O336  1  0.56525335  0.07251869  0.47149069  1
  O2-  O337  1  0.43605762  0.59729742  0.53320606  1
  O2-  O338  1  0.56415125  0.40327641  0.96523261  1
  O2-  O339  1  0.57558860  0.38852117  0.30915938  1
  O2-  O340  1  0.06304396  0.40211186  0.28314029  1
  O2-  O341  1  0.92459185  0.71772846  0.93585363  1
  O2-  O342  1  0.56377132  0.06921624  0.81122644  1
  O2-  O343  1  0.56440567  0.59731606  0.03249009  1
  O2-  O344  1  0.06347227  0.40307805  0.53252767  1
  O2-  O345  1  0.92619815  0.93941082  0.45297389  1
  O2-  O346  1  0.06371223  0.93201706  0.78231945  1
  O2-  O347  1  0.42528334  0.39518019  0.70371144  1
  O2-  O348  1  0.93598016  0.92779140  0.81208792  1
  O2-  O349  1  0.43690982  0.92900762  0.71692067  1
  O2-  O350  1  0.93546337  0.26243408  0.22181097  1
  O2-  O351  1  0.56429061  0.59296363  0.47116079  1
  O2-  O352  1  0.43185495  0.73460232  0.97065008  1
  O2-  O353  1  0.06527740  0.73828359  0.52690631  1
  O2-  O354  1  0.92536341  0.71728312  0.06391143  1
  O2-  O355  1  0.06362442  0.73476415  0.28341749  1
  O2-  O356  1  0.93265950  0.92646354  0.69407986  1
  O2-  O357  1  0.06282698  0.40305660  0.03220802  1
  O2-  O358  1  0.43485642  0.40742798  0.52926869  1
  O2-  O359  1  0.56381365  0.25776516  0.02838659  1
  O2-  O360  1  0.56615064  0.74235144  0.80551865  1
  O2-  O361  1  0.93720895  0.59731119  0.71810203  1
  O2-  O362  1  0.56552690  0.07395001  0.69464539  1
  O2-  O363  1  0.06563243  0.59118240  0.97037913  1
  O2-  O364  1  0.56546856  0.73977575  0.97029957  1
  O2-  O365  1  0.06328433  0.93067615  0.05996055  1
  O2-  O366  1  0.43583550  0.07140541  0.71638707  1
  O2-  O367  1  0.06349760  0.06817619  0.21683785  1
  O2-  O368  1  0.06464456  0.26453969  0.71820848  1
  O2-  O369  1  0.56600107  0.92829061  0.27815416  1
  O2-  O370  1  0.56336112  0.73701080  0.53423799  1
  O2-  O371  1  0.06336445  0.93043165  0.94003733  1
  O2-  O372  1  0.74994898  0.33717382  0.89475943  1
  O2-  O373  1  0.75002810  0.02007458  0.17690459  1
  O2-  O374  1  0.74986049  0.00171020  0.89575396  1
  O2-  O375  1  0.25016159  0.66594796  0.41301347  1
  O2-  O376  1  0.24992023  -0.00298006  0.88859169  1
  O2-  O377  1  0.25008817  0.33606578  0.60010626  1
  O2-  O378  1  0.74993828  0.33228686  0.58022884  1
  O2-  O379  1  0.75020780  0.65898663  0.88859722  1
  O2-  O380  1  0.75004471  -0.00160539  0.09060747  1
  O2-  O381  1  0.75005959  -0.00105754  0.42612432  1
  O2-  O382  1  0.74994403  0.66653799  0.39750555  1
  O2-  O383  1  0.25023557  -0.00007397  0.10775582  1
  O2-  O384  1  0.74997224  0.01903037  0.34299608  1
  O2-  O385  1  0.24974207  0.00440506  0.64536788  1
  O2-  O386  1  0.25023919  0.33447953  0.40485522  1
  O2-  O387  1  0.75014850  0.33608058  0.34093701  1
  O2-  O388  1  0.74992980  0.00256977  0.80788932  1
  O2-  O389  1  0.25001423  0.66924241  0.31795783  1
  O2-  O390  1  0.25031737  0.34270297  0.08549898  1
  O2-  O391  1  0.74977121  0.33473727  0.67121220  1
  O2-  O392  1  0.24999920  0.66397917  0.15446382  1
  O2-  O393  1  0.75031612  0.66200599  0.10492525  1
  O2-  O394  1  0.25001636  0.66565901  0.60674867  1
  O2-  O395  1  0.25020070  0.33189710  0.17601020  1
  O2-  O396  1  0.25004696  0.16486944  0.15137092  1
  O2-  O397  1  0.74996811  0.16638715  0.41479416  1
  O2-  O398  1  0.24994684  0.83395815  0.66108056  1
  O2-  O399  1  0.74991387  0.16273668  0.81522364  1
  O2-  O400  1  0.74995197  0.49725435  0.07913900  1
  O2-  O401  1  0.75001218  0.83332682  0.81740401  1
  O2-  O402  1  0.24997305  0.50372645  0.33903738  1
  O2-  O403  1  0.25008368  0.16923274  0.89308624  1
  O2-  O404  1  0.75002885  0.83377430  0.43368234  1
  O2-  O405  1  0.24985665  0.84446154  0.90142289  1
  O2-  O406  1  0.75005045  0.83392624  0.90824528  1
  O2-  O407  1  0.24994549  0.50829809  0.13080011  1
  O2-  O408  1  0.74994214  0.16650169  0.16557512  1
  O2-  O409  1  0.24986212  0.84364240  0.12879212  1
  O2-  O410  1  0.74997124  0.83337936  0.60112921  1
  O2-  O411  1  0.74998913  0.16657619  0.33514278  1
  O2-  O412  1  0.75006854  0.16524174  0.90412576  1
  O2-  O413  1  0.25000720  0.82822175  0.57852150  1
  O2-  O414  1  0.74999244  0.50355110  0.91208112  1
  O2-  O415  1  0.75001388  0.83550173  0.34984202  1
  O2-  O416  1  0.75003998  0.50005605  0.40121439  1
  O2-  O417  1  0.74998409  0.49996123  0.17095684  1
  O2-  O418  1  0.24995552  0.50693059  0.87374861  1
  O2-  O419  1  0.25004351  0.16941424  0.63332597  1
  O2-  O420  1  0.97345926  0.33690226  0.87515696  1
  O2-  O421  1  0.52880859  0.00163279  0.12461454  1
  O2-  O422  1  0.46972557  0.00029386  0.38645704  1
  O2-  O423  1  0.47214358  0.66736953  0.12617275  1
  O2-  O424  1  0.53100692  0.67108162  0.36943705  1
  O2-  O425  1  0.97308534  0.66695103  0.37706936  1
  O2-  O426  1  0.97568358  0.00608434  0.37154658  1
  O2-  O427  1  0.47343896  -0.00427950  0.87157849  1
  O2-  O428  1  0.53314434  0.33335320  0.62516188  1
  O2-  O429  1  0.47336831  0.32796676  0.62117297  1
  O2-  O430  1  0.46751002  0.66263553  0.86719891  1
  O2-  O431  1  0.02666202  0.66107496  0.12974693  1
  O2-  O432  1  0.52822109  0.33075572  0.12388281  1
  O2-  O433  1  0.02625539  0.66302940  0.62871100  1
  O2-  O434  1  0.02539995  0.66822864  0.87155361  1
  O2-  O435  1  0.52549957  -0.00574546  0.61924512  1
  O2-  O436  1  0.52857730  0.65726222  0.87964542  1
  O2-  O437  1  0.46673509  0.66527028  0.37739520  1
  O2-  O438  1  0.52300747  0.32579835  0.37359395  1
  O2-  O439  1  0.53043870  -0.00015880  0.37478703  1
  O2-  O440  1  0.97387595  0.33739716  0.11924784  1
  O2-  O441  1  0.46674352  0.33071456  0.12433010  1
  O2-  O442  1  0.97260167  0.33481414  0.62522918  1
  O2-  O443  1  0.97523911  0.00575424  0.61984080  1
