# generated using pymatgen
data_La7(Ru4O11)2
_symmetry_space_group_name_H-M   'P 1'
_cell_length_a   23.98954508
_cell_length_b   16.82978356
_cell_length_c   15.42579911
_cell_angle_alpha   90.00019261
_cell_angle_beta   90.00014600
_cell_angle_gamma   89.99970086
_symmetry_Int_Tables_number   1
_chemical_formula_structural   La7(Ru4O11)2
_chemical_formula_sum   'La84 Ru96 O264'
_cell_volume   6227.99441705
_cell_formula_units_Z   12
loop_
 _symmetry_equiv_pos_site_id
 _symmetry_equiv_pos_as_xyz
  1  'x, y, z'
loop_
 _atom_type_symbol
 _atom_type_oxidation_number
  La3+  3.0
  Ru4+  4.0
  O2-  -2.0
loop_
 _atom_site_type_symbol
 _atom_site_label
 _atom_site_symmetry_multiplicity
 _atom_site_fract_x
 _atom_site_fract_y
 _atom_site_fract_z
 _atom_site_occupancy
  La3+  La0  1  0.13777871  -0.00071889  0.12596234  1
  La3+  La1  1  0.13713330  -0.00316926  0.37670117  1
  La3+  La2  1  0.13998416  -0.00111180  0.62463071  1
  La3+  La3  1  0.13852661  -0.00007523  0.87325188  1
  La3+  La4  1  0.13780580  0.33420843  0.12665963  1
  La3+  La5  1  0.13857227  0.33496046  0.37664902  1
  La3+  La6  1  0.13987204  0.33390250  0.62368813  1
  La3+  La7  1  0.13741438  0.33298862  0.87330959  1
  La3+  La8  1  0.13866412  0.66622827  0.12716757  1
  La3+  La9  1  0.13688969  0.66424426  0.37804008  1
  La3+  La10  1  0.13646693  0.66434163  0.62187598  1
  La3+  La11  1  0.13650658  0.66636476  0.87213102  1
  La3+  La12  1  0.64072878  0.00117770  0.12439328  1
  La3+  La13  1  0.63946767  0.00054769  0.37253399  1
  La3+  La14  1  0.63978694  0.00107357  0.62599366  1
  La3+  La15  1  0.64038834  -0.00028912  0.87456777  1
  La3+  La16  1  0.63652295  0.33535375  0.12929597  1
  La3+  La17  1  0.63592520  0.33584334  0.37115391  1
  La3+  La18  1  0.64079783  0.33403864  0.62634007  1
  La3+  La19  1  0.63938269  0.33322696  0.87236165  1
  La3+  La20  1  0.63798592  0.66802115  0.12498630  1
  La3+  La21  1  0.63635244  0.66768639  0.37334477  1
  La3+  La22  1  0.63830783  0.66749770  0.62570030  1
  La3+  La23  1  0.63816579  0.66870312  0.87556213  1
  La3+  La24  1  0.36232716  -0.00016118  0.12557473  1
  La3+  La25  1  0.36112146  -0.00140180  0.37570939  1
  La3+  La26  1  0.35860117  -0.00044988  0.62614467  1
  La3+  La27  1  0.36092607  0.00116009  0.87424281  1
  La3+  La28  1  0.36210041  0.33400480  0.12661358  1
  La3+  La29  1  0.36150644  0.33471301  0.37625572  1
  La3+  La30  1  0.36065143  0.33341162  0.62407525  1
  La3+  La31  1  0.36249210  0.33284940  0.87299097  1
  La3+  La32  1  0.36062846  0.66472780  0.12885518  1
  La3+  La33  1  0.36033914  0.66684938  0.37622097  1
  La3+  La34  1  0.36067200  0.66767526  0.62454688  1
  La3+  La35  1  0.36131215  0.66686623  0.87213833  1
  La3+  La36  1  0.85990322  0.00079755  0.12459812  1
  La3+  La37  1  0.86015778  -0.00002235  0.37378436  1
  La3+  La38  1  0.86129558  -0.00102116  0.62656893  1
  La3+  La39  1  0.85954456  -0.00043591  0.87540562  1
  La3+  La40  1  0.86052517  0.33334597  0.12658743  1
  La3+  La41  1  0.86239402  0.33313436  0.37466046  1
  La3+  La42  1  0.85984476  0.33259527  0.62604979  1
  La3+  La43  1  0.86108339  0.33299891  0.87342481  1
  La3+  La44  1  0.86190655  0.66751200  0.12460141  1
  La3+  La45  1  0.86264263  0.66615150  0.37275563  1
  La3+  La46  1  0.86154300  0.66712701  0.62654253  1
  La3+  La47  1  0.86257048  0.66843761  0.87614960  1
  La3+  La48  1  0.50027758  0.49917270  0.63434633  1
  La3+  La49  1  0.50147327  0.50253772  0.86502087  1
  La3+  La50  1  0.00283417  0.83271238  0.61440090  1
  La3+  La51  1  0.00072050  0.16608456  0.38526411  1
  La3+  La52  1  0.00114771  0.83478807  0.36486833  1
  La3+  La53  1  0.00015632  0.16649369  0.13626691  1
  La3+  La54  1  0.49989496  0.16696035  0.13486100  1
  La3+  La55  1  0.00146552  0.83264763  0.63670638  1
  La3+  La56  1  0.49847966  0.82939854  0.61606538  1
  La3+  La57  1  -0.00014392  0.16707506  0.11433607  1
  La3+  La58  1  0.00013316  0.50118092  0.38484509  1
  La3+  La59  1  0.00007460  0.16728178  0.86201386  1
  La3+  La60  1  -0.00111135  0.16894616  0.88309231  1
  La3+  La61  1  0.50086392  0.16805398  0.88627192  1
  La3+  La62  1  0.50149131  0.49970320  0.11958432  1
  La3+  La63  1  -0.00001148  0.50080530  0.86584097  1
  La3+  La64  1  0.00025463  0.16678393  0.36440236  1
  La3+  La65  1  0.00172197  0.50299509  0.62893953  1
  La3+  La66  1  0.49731369  0.50121824  0.36602518  1
  La3+  La67  1  0.49983690  0.49991873  0.88673348  1
  La3+  La68  1  0.00086840  0.16513329  0.61724289  1
  La3+  La69  1  0.50546433  0.49952895  0.38418643  1
  La3+  La70  1  0.50086094  0.16658279  0.38580642  1
  La3+  La71  1  0.00191841  0.83097659  0.12869952  1
  La3+  La72  1  0.24986234  0.19750233  0.51501351  1
  La3+  La73  1  0.25007681  0.12995129  -0.01627822  1
  La3+  La74  1  0.74989949  0.19812922  0.47690768  1
  La3+  La75  1  0.24990635  0.16874785  0.24843891  1
  La3+  La76  1  0.74998247  0.16717210  0.74947920  1
  La3+  La77  1  0.25034561  0.83888986  0.04109128  1
  La3+  La78  1  0.24991928  0.16582482  0.74963312  1
  La3+  La79  1  0.25007365  0.83361256  0.76889786  1
  La3+  La80  1  0.74946555  0.50083563  -0.00028672  1
  La3+  La81  1  0.74992122  0.83474621  0.24858094  1
  La3+  La82  1  0.25020211  0.49636944  0.00028564  1
  La3+  La83  1  0.75009274  0.49843266  0.47119965  1
  Ru4+  Ru84  1  -0.00054464  -0.00310326  0.00086062  1
  Ru4+  Ru85  1  0.00140264  0.00415549  0.24839003  1
  Ru4+  Ru86  1  0.00035123  0.00876565  0.50140836  1
  Ru4+  Ru87  1  0.00012056  0.00200241  0.75053865  1
  Ru4+  Ru88  1  -0.00053819  0.33528312  0.00090126  1
  Ru4+  Ru89  1  -0.00048574  0.33160399  0.24978728  1
  Ru4+  Ru90  1  0.00365524  0.33893748  0.49651955  1
  Ru4+  Ru91  1  -0.00061179  0.33173272  0.75064106  1
  Ru4+  Ru92  1  0.00070619  0.67422190  -0.00282261  1
  Ru4+  Ru93  1  0.00016074  0.66509945  0.25120243  1
  Ru4+  Ru94  1  0.00162236  0.66300110  0.49537048  1
  Ru4+  Ru95  1  -0.00225901  0.67149565  0.75303200  1
  Ru4+  Ru96  1  0.50022494  -0.00401889  -0.00010403  1
  Ru4+  Ru97  1  0.50027136  0.00188900  0.25325806  1
  Ru4+  Ru98  1  0.50161621  0.00423983  0.49692064  1
  Ru4+  Ru99  1  0.50495855  -0.00430090  0.74985236  1
  Ru4+  Ru100  1  0.50053881  0.33239522  0.00211021  1
  Ru4+  Ru101  1  0.50051410  0.33141946  0.24902744  1
  Ru4+  Ru102  1  0.50049590  0.33204588  0.50015955  1
  Ru4+  Ru103  1  0.49867656  0.33252934  0.74991534  1
  Ru4+  Ru104  1  0.50180263  0.66655249  0.00161580  1
  Ru4+  Ru105  1  0.49768533  0.67202555  0.24959326  1
  Ru4+  Ru106  1  0.49974570  0.66837857  0.49845769  1
  Ru4+  Ru107  1  0.49969352  0.66704307  0.74770014  1
  Ru4+  Ru108  1  0.11199072  0.16743403  -0.00001179  1
  Ru4+  Ru109  1  0.10912147  0.16661035  0.24928537  1
  Ru4+  Ru110  1  0.11144946  0.16711229  0.50053712  1
  Ru4+  Ru111  1  0.11212751  0.16637719  0.75055783  1
  Ru4+  Ru112  1  0.11083074  0.49848960  0.00068985  1
  Ru4+  Ru113  1  0.11433652  0.50214940  0.25039390  1
  Ru4+  Ru114  1  0.11168604  0.50050711  0.49943125  1
  Ru4+  Ru115  1  0.11530687  0.49711365  0.74885234  1
  Ru4+  Ru116  1  0.10948840  0.83256061  0.00049633  1
  Ru4+  Ru117  1  0.11315048  0.83444400  0.25037902  1
  Ru4+  Ru118  1  0.11660379  0.83064858  0.49965220  1
  Ru4+  Ru119  1  0.11242704  0.83343820  0.74999198  1
  Ru4+  Ru120  1  0.61364720  0.16443541  0.00026128  1
  Ru4+  Ru121  1  0.61301679  0.16540225  0.25003343  1
  Ru4+  Ru122  1  0.61119888  0.16636877  0.50012394  1
  Ru4+  Ru123  1  0.61243693  0.16411484  0.74885225  1
  Ru4+  Ru124  1  0.61094121  0.49985908  0.00011914  1
  Ru4+  Ru125  1  0.61595236  0.49516522  0.24883279  1
  Ru4+  Ru126  1  0.61102263  0.49980888  0.49978371  1
  Ru4+  Ru127  1  0.61333501  0.49815420  0.74916797  1
  Ru4+  Ru128  1  0.61122222  0.83282955  0.00058849  1
  Ru4+  Ru129  1  0.61178315  0.83186923  0.25008083  1
  Ru4+  Ru130  1  0.61326002  0.83110422  0.49905360  1
  Ru4+  Ru131  1  0.61534249  0.83252827  0.75006506  1
  Ru4+  Ru132  1  0.38847013  0.16621159  0.00000834  1
  Ru4+  Ru133  1  0.38967549  0.16680706  0.24995751  1
  Ru4+  Ru134  1  0.38811016  0.16771403  0.50005323  1
  Ru4+  Ru135  1  0.38323128  0.17067024  0.75004184  1
  Ru4+  Ru136  1  0.38879866  0.50158796  0.00019565  1
  Ru4+  Ru137  1  0.38484794  0.50121832  0.24922391  1
  Ru4+  Ru138  1  0.38566809  0.49889375  0.50056623  1
  Ru4+  Ru139  1  0.38713778  0.50162969  0.74997766  1
  Ru4+  Ru140  1  0.39007497  0.83570165  0.00016524  1
  Ru4+  Ru141  1  0.38546604  0.83410176  0.25045752  1
  Ru4+  Ru142  1  0.38525651  0.83115564  0.49912965  1
  Ru4+  Ru143  1  0.38764088  0.83088855  0.75091899  1
  Ru4+  Ru144  1  0.88824251  0.16528619  0.00052907  1
  Ru4+  Ru145  1  0.88746358  0.16472068  0.24973507  1
  Ru4+  Ru146  1  0.88580196  0.16270949  0.49998961  1
  Ru4+  Ru147  1  0.88807201  0.16687659  0.74983878  1
  Ru4+  Ru148  1  0.88644899  0.49613109  -0.00104241  1
  Ru4+  Ru149  1  0.88719856  0.49928724  0.25045834  1
  Ru4+  Ru150  1  0.88886611  0.49955910  0.50059207  1
  Ru4+  Ru151  1  0.88498903  0.49964446  0.74999229  1
  Ru4+  Ru152  1  0.88720210  0.83206825  -0.00037429  1
  Ru4+  Ru153  1  0.88666042  0.83158979  0.24976039  1
  Ru4+  Ru154  1  0.88311006  0.83115502  0.49981915  1
  Ru4+  Ru155  1  0.88579029  0.83302152  0.75005603  1
  Ru4+  Ru156  1  0.24984070  0.25506661  0.01206100  1
  Ru4+  Ru157  1  0.25021124  0.42443793  0.74729537  1
  Ru4+  Ru158  1  0.24990146  0.29745628  0.25873173  1
  Ru4+  Ru159  1  0.25001526  0.05820391  0.50207674  1
  Ru4+  Ru160  1  0.25001055  0.04207541  0.26833164  1
  Ru4+  Ru161  1  0.24983640  0.72900085  -0.00931610  1
  Ru4+  Ru162  1  0.74989717  0.37326078  0.50777116  1
  Ru4+  Ru163  1  0.74969250  0.62439307  -0.00502275  1
  Ru4+  Ru164  1  0.25004402  0.38004974  0.01953407  1
  Ru4+  Ru165  1  0.75003558  0.74773541  0.50675910  1
  Ru4+  Ru166  1  0.75016788  0.24514582  0.00119144  1
  Ru4+  Ru167  1  0.75007551  0.92286330  -0.00307636  1
  Ru4+  Ru168  1  0.74992601  0.58014277  0.74925562  1
  Ru4+  Ru169  1  0.74976925  0.92033708  0.50163220  1
  Ru4+  Ru170  1  0.25026654  0.57905017  0.49941794  1
  Ru4+  Ru171  1  0.75010903  0.24838380  0.24669501  1
  Ru4+  Ru172  1  0.74986992  0.37801432  0.00771024  1
  Ru4+  Ru173  1  0.24989211  0.75253573  0.25283662  1
  Ru4+  Ru174  1  0.74974470  0.62349872  0.50431437  1
  Ru4+  Ru175  1  0.25010295  0.57846901  0.75015460  1
  Ru4+  Ru176  1  0.75020807  0.58097941  0.24887355  1
  Ru4+  Ru177  1  0.24968617  0.94951519  -0.01309542  1
  Ru4+  Ru178  1  0.74980382  0.06271964  0.48969599  1
  Ru4+  Ru179  1  0.25003885  0.61120833  0.00192770  1
  O2-  O180  1  0.16526397  0.07875520  0.00095307  1
  O2-  O181  1  0.16684484  0.07822945  0.24994203  1
  O2-  O182  1  0.16842042  0.07944659  0.49966991  1
  O2-  O183  1  0.16609977  0.08011890  0.75101917  1
  O2-  O184  1  0.16515529  0.41285971  -0.00012884  1
  O2-  O185  1  0.16749419  0.41387551  0.25023888  1
  O2-  O186  1  0.16678998  0.41569065  0.50017154  1
  O2-  O187  1  0.16704430  0.41520997  0.75002856  1
  O2-  O188  1  0.16582705  0.74707923  -0.00034495  1
  O2-  O189  1  0.16730434  0.74831358  0.24946116  1
  O2-  O190  1  0.16589904  0.74810621  0.50063088  1
  O2-  O191  1  0.16696422  0.74681273  0.75001730  1
  O2-  O192  1  0.66622231  0.08264135  -0.00072043  1
  O2-  O193  1  0.66639331  0.08215709  0.24974645  1
  O2-  O194  1  0.66778423  0.07991126  0.49910935  1
  O2-  O195  1  0.66842543  0.08243071  0.75143474  1
  O2-  O196  1  0.66553585  0.41183058  0.00044627  1
  O2-  O197  1  0.66882270  0.41473549  0.25140755  1
  O2-  O198  1  0.66659681  0.41191855  0.49904156  1
  O2-  O199  1  0.66750653  0.41515421  0.75161435  1
  O2-  O200  1  0.66724511  0.74831348  -0.00069075  1
  O2-  O201  1  0.66808913  0.74756431  0.24979789  1
  O2-  O202  1  0.66768873  0.74755963  0.50003018  1
  O2-  O203  1  0.66653054  0.74774504  0.74950272  1
  O2-  O204  1  0.33343296  0.25359898  0.00033393  1
  O2-  O205  1  0.33348546  0.25471135  0.25030461  1
  O2-  O206  1  0.33436423  0.25334903  0.49900901  1
  O2-  O207  1  0.33346191  0.25350017  0.75016121  1
  O2-  O208  1  0.33482410  0.58662714  -0.00011302  1
  O2-  O209  1  0.33396126  0.58455781  0.25006429  1
  O2-  O210  1  0.33292261  0.58523019  0.50083358  1
  O2-  O211  1  0.33226854  0.58513873  0.74972202  1
  O2-  O212  1  0.33424312  0.92048713  0.00042612  1
  O2-  O213  1  0.33219553  0.91803194  0.24987162  1
  O2-  O214  1  0.33235915  0.91895543  0.49964799  1
  O2-  O215  1  0.33187851  0.91867353  0.75051692  1
  O2-  O216  1  0.83218486  0.25357154  0.00025285  1
  O2-  O217  1  0.83148418  0.25347501  0.25072513  1
  O2-  O218  1  0.83315765  0.25432751  0.49926048  1
  O2-  O219  1  0.83136925  0.25198767  0.75146587  1
  O2-  O220  1  0.83317568  0.58725911  0.00003235  1
  O2-  O221  1  0.83015778  0.58649139  0.24986908  1
  O2-  O222  1  0.83402310  0.58750370  0.49936115  1
  O2-  O223  1  0.83161341  0.58530009  0.75014153  1
  O2-  O224  1  0.83271652  0.91843849  -0.00020105  1
  O2-  O225  1  0.83254461  0.91897898  0.24944674  1
  O2-  O226  1  0.83268558  0.91887020  0.49980064  1
  O2-  O227  1  0.83352015  0.91888880  0.74996606  1
  O2-  O228  1  0.16748058  0.25344778  0.00021437  1
  O2-  O229  1  0.16710544  0.25433070  0.25004792  1
  O2-  O230  1  0.16588804  0.25331049  0.49920552  1
  O2-  O231  1  0.16746437  0.25326800  0.74988572  1
  O2-  O232  1  0.16543126  0.58658086  -0.00041863  1
  O2-  O233  1  0.16551085  0.58471635  0.25002406  1
  O2-  O234  1  0.16766234  0.58513867  0.50093816  1
  O2-  O235  1  0.16769766  0.58516755  0.75049319  1
  O2-  O236  1  0.16549039  0.92106554  -0.00004349  1
  O2-  O237  1  0.16808164  0.91927322  0.24952690  1
  O2-  O238  1  0.16712216  0.91914012  0.49986715  1
  O2-  O239  1  0.16683466  0.91970905  0.75137128  1
  O2-  O240  1  0.66760276  0.25310147  -0.00036325  1
  O2-  O241  1  0.66754571  0.25343145  0.25120024  1
  O2-  O242  1  0.66586056  0.25377846  0.49890120  1
  O2-  O243  1  0.66820479  0.25177023  0.75193748  1
  O2-  O244  1  0.66693514  0.58817703  -0.00017642  1
  O2-  O245  1  0.66850290  0.58569360  0.25031841  1
  O2-  O246  1  0.66632329  0.58804232  0.50033483  1
  O2-  O247  1  0.66866150  0.58610209  0.74998116  1
  O2-  O248  1  0.66657342  0.91866900  -0.00036435  1
  O2-  O249  1  0.66775506  0.91853944  0.24979108  1
  O2-  O250  1  0.66785425  0.91875495  0.49962947  1
  O2-  O251  1  0.66762674  0.91779370  0.75104567  1
  O2-  O252  1  0.33437808  0.07988911  0.00051897  1
  O2-  O253  1  0.33323464  0.07905064  0.24988532  1
  O2-  O254  1  0.33234691  0.08005393  0.49995732  1
  O2-  O255  1  0.33140767  0.08095113  0.75101058  1
  O2-  O256  1  0.33460608  0.41162416  0.00002609  1
  O2-  O257  1  0.33323024  0.41317491  0.25037321  1
  O2-  O258  1  0.33317852  0.41438130  0.49897081  1
  O2-  O259  1  0.33218161  0.41385074  0.75037558  1
  O2-  O260  1  0.33367324  0.74720307  -0.00014098  1
  O2-  O261  1  0.33220684  0.74886389  0.24934510  1
  O2-  O262  1  0.33324250  0.74884138  0.50099366  1
  O2-  O263  1  0.33222910  0.74822356  0.74934948  1
  O2-  O264  1  0.83363158  0.08138798  -0.00049666  1
  O2-  O265  1  0.83359330  0.08168436  0.24974049  1
  O2-  O266  1  0.83304776  0.07963006  0.50009308  1
  O2-  O267  1  0.83273508  0.08084430  0.75070266  1
  O2-  O268  1  0.83453455  0.41245285  0.00087111  1
  O2-  O269  1  0.83363511  0.41468828  0.25054940  1
  O2-  O270  1  0.83262844  0.41234818  0.49889496  1
  O2-  O271  1  0.83244987  0.41548578  0.75107370  1
  O2-  O272  1  0.83268952  0.74821734  -0.00000115  1
  O2-  O273  1  0.83181012  0.74673949  0.25028282  1
  O2-  O274  1  0.83214716  0.74757745  0.49923788  1
  O2-  O275  1  0.83303316  0.74762215  0.74978351  1
  O2-  O276  1  0.54118382  0.89534185  0.52445530  1
  O2-  O277  1  0.94753500  0.57544620  0.27047570  1
  O2-  O278  1  0.45425681  0.43153526  0.76284506  1
  O2-  O279  1  0.45440579  0.09892678  0.48530752  1
  O2-  O280  1  0.95387194  0.23552337  0.47953433  1
  O2-  O281  1  0.46255449  0.11285461  0.74947156  1
  O2-  O282  1  0.54035848  0.88328120  0.74398393  1
  O2-  O283  1  0.96148894  0.55608101  0.98911898  1
  O2-  O284  1  0.95291369  0.90464853  0.51784850  1
  O2-  O285  1  0.95587452  0.56655399  0.02468347  1
  O2-  O286  1  0.95148060  0.42886537  0.98596928  1
  O2-  O287  1  0.04244895  0.56227650  0.48948075  1
  O2-  O288  1  0.04772239  0.57024434  0.51552516  1
  O2-  O289  1  0.45289557  0.23591558  0.01597295  1
  O2-  O290  1  0.54150925  0.43489267  0.23948552  1
  O2-  O291  1  0.54495937  0.57019449  0.22934750  1
  O2-  O292  1  0.95395603  0.90302251  0.73769998  1
  O2-  O293  1  0.46257898  0.11282321  0.74961749  1
  O2-  O294  1  0.47220694  0.78760803  0.01721428  1
  O2-  O295  1  0.95382966  0.90379102  0.47892005  1
  O2-  O296  1  0.45419220  0.42988773  0.48613569  1
  O2-  O297  1  0.04434793  0.56164515  0.97325279  1
  O2-  O298  1  0.04908417  0.56891965  0.76358757  1
  O2-  O299  1  0.53583060  0.88659484  0.24249512  1
  O2-  O300  1  0.54684723  0.23375872  0.01346017  1
  O2-  O301  1  0.45091503  0.90359575  0.01420385  1
  O2-  O302  1  0.46470120  0.77993564  0.25707026  1
  O2-  O303  1  0.54815037  0.90018022  0.01402352  1
  O2-  O304  1  0.95333954  0.56703387  0.73625279  1
  O2-  O305  1  0.45469039  0.09808185  0.98653990  1
  O2-  O306  1  0.96049995  0.89102673  0.22244698  1
  O2-  O307  1  0.95418919  0.23349329  0.51881116  1
  O2-  O308  1  0.53469407  0.22018302  0.74266841  1
  O2-  O309  1  0.54704489  0.57158645  0.26823255  1
  O2-  O310  1  0.04548330  0.43117702  0.73689627  1
  O2-  O311  1  0.45989689  0.88397616  0.75788942  1
  O2-  O312  1  0.04947586  0.90031690  0.48260547  1
  O2-  O313  1  0.04527081  0.90186722  0.99543400  1
  O2-  O314  1  0.04503848  0.09736258  0.98649013  1
  O2-  O315  1  0.54860536  0.42872289  0.26545847  1
  O2-  O316  1  0.45086878  0.42969588  0.26187462  1
  O2-  O317  1  0.96197898  0.77056268  0.46859095  1
  O2-  O318  1  0.55215475  0.75478370  0.47927379  1
  O2-  O319  1  0.04768666  0.56721703  0.26453512  1
  O2-  O320  1  0.04814170  0.43062639  0.98419875  1
  O2-  O321  1  0.45481268  0.43087228  0.01443399  1
  O2-  O322  1  0.45586248  0.56944000  0.51643189  1
  O2-  O323  1  0.04575586  0.90254255  0.00478651  1
  O2-  O324  1  0.06382297  0.93093631  0.28281914  1
  O2-  O325  1  0.06549549  0.40579465  0.20459838  1
  O2-  O326  1  0.56575142  0.73532847  0.03391098  1
  O2-  O327  1  0.42572680  0.72454710  0.28498941  1
  O2-  O328  1  0.56531924  0.73497061  0.28220060  1
  O2-  O329  1  0.43518661  0.93078812  0.29888214  1
  O2-  O330  1  0.56895701  0.39969121  0.21952728  1
  O2-  O331  1  0.93717042  0.73811325  0.96870870  1
  O2-  O332  1  0.93470874  0.40616072  0.52913167  1
  O2-  O333  1  0.43591289  0.93061024  0.45027982  1
  O2-  O334  1  0.06389627  0.59428902  0.77935728  1
  O2-  O335  1  0.06151847  0.92943468  0.46921186  1
  O2-  O336  1  0.06315672  0.73716796  0.03362309  1
  O2-  O337  1  0.56395783  0.40623933  0.71689447  1
  O2-  O338  1  0.06332377  0.06999023  0.53230009  1
  O2-  O339  1  0.06856010  0.60356657  0.04457046  1
  O2-  O340  1  0.06383059  0.26395460  0.96720939  1
  O2-  O341  1  0.06510169  0.40517232  0.47067113  1
  O2-  O342  1  0.93620768  0.26471659  0.28232769  1
  O2-  O343  1  0.06566485  0.40597020  0.29596595  1
  O2-  O344  1  0.57248038  0.27609521  0.71016606  1
  O2-  O345  1  0.43349644  0.92772858  0.20597662  1
  O2-  O346  1  0.42708044  0.06238645  0.80082085  1
  O2-  O347  1  0.06838084  0.60040538  0.46975544  1
  O2-  O348  1  0.93399666  0.40585691  0.79754668  1
  O2-  O349  1  0.42405902  0.94051411  0.78756084  1
  O2-  O350  1  0.06372664  0.26383795  0.78275343  1
  O2-  O351  1  0.42630260  0.06079306  0.69932193  1
  O2-  O352  1  0.56540480  0.07225878  0.52834609  1
  O2-  O353  1  0.56480287  0.59385378  0.97100640  1
  O2-  O354  1  0.43458211  0.73779154  0.47210352  1
  O2-  O355  1  0.43306789  0.92655234  0.54432667  1
  O2-  O356  1  0.57080134  0.93432374  0.45833386  1
  O2-  O357  1  0.56649783  0.07320399  0.72107576  1
  O2-  O358  1  0.93988832  0.58861538  0.27933315  1
  O2-  O359  1  0.93684639  0.73618716  0.21663087  1
  O2-  O360  1  0.57588226  0.94192735  0.71286609  1
  O2-  O361  1  0.57539449  0.94119778  0.21426866  1
  O2-  O362  1  0.43456351  0.73744843  0.77798365  1
  O2-  O363  1  0.93370709  0.40783625  0.70224432  1
  O2-  O364  1  0.93436637  0.92841768  0.02928678  1
  O2-  O365  1  0.42832660  0.73389375  0.94011031  1
  O2-  O366  1  0.42322277  0.72188582  0.05773585  1
  O2-  O367  1  0.92633547  0.61138788  0.95571168  1
  O2-  O368  1  0.93556924  0.25966563  0.72148991  1
  O2-  O369  1  0.92954887  0.94184434  0.29970728  1
  O2-  O370  1  0.92764822  0.72851463  0.54249532  1
  O2-  O371  1  0.55745313  0.74473847  0.47516207  1
  O2-  O372  1  0.24997700  0.33409933  0.58009661  1
  O2-  O373  1  0.24986040  0.66988081  0.15735596  1
  O2-  O374  1  0.74979832  0.32953069  0.90118619  1
  O2-  O375  1  0.75002000  -0.00333774  0.09171358  1
  O2-  O376  1  0.24992209  0.66896376  0.41974345  1
  O2-  O377  1  0.24987567  0.66729513  0.67119446  1
  O2-  O378  1  0.75002377  -0.00112648  0.90691137  1
  O2-  O379  1  0.25003947  -0.01386677  0.16716556  1
  O2-  O380  1  0.24997393  0.00202094  0.65239127  1
  O2-  O381  1  0.75005744  0.33212373  0.15705651  1
  O2-  O382  1  0.25012251  0.01476737  0.08340018  1
  O2-  O383  1  0.25023205  0.33692026  0.15057737  1
  O2-  O384  1  0.75006207  0.00070494  0.67519472  1
  O2-  O385  1  0.24992935  0.66568636  0.84209480  1
  O2-  O386  1  0.24986151  0.66708998  0.57999950  1
  O2-  O387  1  0.24991854  0.33202849  0.67098360  1
  O2-  O388  1  0.74996173  0.33265706  0.65230481  1
  O2-  O389  1  0.24993078  0.66500259  0.32957001  1
  O2-  O390  1  0.75018821  -0.00039446  0.35043740  1
  O2-  O391  1  0.75007213  0.66831716  0.09856377  1
  O2-  O392  1  0.75006504  -0.00324674  0.58599043  1
  O2-  O393  1  0.25009472  0.32923391  0.90850409  1
  O2-  O394  1  0.24997476  0.33085798  0.81889533  1
  O2-  O395  1  0.24985244  0.00779598  0.89357308  1
  O2-  O396  1  0.25010229  0.83291347  0.65047946  1
  O2-  O397  1  0.74996712  0.16743954  0.08136146  1
  O2-  O398  1  0.25004270  0.83327852  0.57045563  1
  O2-  O399  1  0.75000065  0.83372272  0.83411495  1
  O2-  O400  1  0.25000907  0.16286037  0.38747946  1
  O2-  O401  1  0.24997531  0.16966068  0.86760277  1
  O2-  O402  1  0.74990028  0.83274105  0.36192192  1
  O2-  O403  1  0.25008293  0.49869997  0.41725149  1
  O2-  O404  1  0.75004039  0.16384703  0.61018720  1
  O2-  O405  1  0.74996410  0.83212946  0.91602621  1
  O2-  O406  1  0.75003465  0.50175340  0.61126289  1
  O2-  O407  1  0.75001374  0.83268192  0.43791392  1
  O2-  O408  1  0.75013041  0.50241153  0.87532489  1
  O2-  O409  1  0.25005139  0.83198774  0.40525273  1
  O2-  O410  1  0.74995473  0.83380967  0.13506285  1
  O2-  O411  1  0.75014405  0.49903569  0.12400811  1
  O2-  O412  1  0.25002522  0.83458336  0.89647080  1
  O2-  O413  1  0.25003732  0.50052790  0.33356003  1
  O2-  O414  1  0.75011325  0.83306742  0.59026692  1
  O2-  O415  1  0.25001207  0.17134322  0.11036472  1
  O2-  O416  1  0.74994637  0.82869015  0.05686091  1
  O2-  O417  1  0.25012310  0.49972284  0.15484168  1
  O2-  O418  1  0.24997319  0.16479065  0.63240294  1
  O2-  O419  1  0.75003477  0.16527643  0.16971294  1
  O2-  O420  1  0.97356049  0.33019277  0.62124894  1
  O2-  O421  1  0.47160613  -0.00035182  0.62498887  1
  O2-  O422  1  0.52621202  0.33137789  0.12221583  1
  O2-  O423  1  0.02628730  0.67116640  0.37292812  1
  O2-  O424  1  0.47501460  0.66065882  0.13014614  1
  O2-  O425  1  0.96668266  0.66338224  0.62994601  1
  O2-  O426  1  0.47220770  0.33240694  0.87532051  1
  O2-  O427  1  0.97369210  0.00547618  0.12794978  1
  O2-  O428  1  0.52767848  -0.00047191  0.62189514  1
  O2-  O429  1  0.03314988  0.33228627  0.62457235  1
  O2-  O430  1  0.02548153  0.32752027  0.12093884  1
  O2-  O431  1  0.47547263  0.66042508  0.37530034  1
  O2-  O432  1  0.52621271  0.00526102  0.37016278  1
  O2-  O433  1  0.97412075  0.32727412  0.87750791  1
  O2-  O434  1  0.02643841  0.66990626  0.87589764  1
  O2-  O435  1  0.47171022  -0.00078065  0.88331509  1
  O2-  O436  1  0.47023075  0.65783973  0.87296360  1
  O2-  O437  1  0.02437988  0.32643778  0.37649424  1
  O2-  O438  1  0.53238266  0.66935219  0.87213978  1
  O2-  O439  1  0.47251257  0.33358478  0.62497857  1
  O2-  O440  1  0.53223208  0.00060245  0.87621986  1
  O2-  O441  1  0.47058505  0.00512747  0.12130571  1
  O2-  O442  1  0.03611851  0.66761347  0.62778397  1
  O2-  O443  1  0.52942091  0.00535845  0.12109939  1
