# generated using pymatgen
data_La7(Ru4O11)2
_symmetry_space_group_name_H-M   'P 1'
_cell_length_a   23.99557669
_cell_length_b   16.83538995
_cell_length_c   15.43129514
_cell_angle_alpha   90.00292517
_cell_angle_beta   90.00343679
_cell_angle_gamma   90.00272823
_symmetry_Int_Tables_number   1
_chemical_formula_structural   La7(Ru4O11)2
_chemical_formula_sum   'La84 Ru96 O264'
_cell_volume   6233.85573978
_cell_formula_units_Z   12
loop_
 _symmetry_equiv_pos_site_id
 _symmetry_equiv_pos_as_xyz
  1  'x, y, z'
loop_
 _atom_type_symbol
 _atom_type_oxidation_number
  La3+  3.0
  Ru4+  4.0
  O2-  -2.0
loop_
 _atom_site_type_symbol
 _atom_site_label
 _atom_site_symmetry_multiplicity
 _atom_site_fract_x
 _atom_site_fract_y
 _atom_site_fract_z
 _atom_site_occupancy
  La3+  La0  1  0.14144114  0.00491333  0.12173351  1
  La3+  La1  1  0.15037423  -0.00213854  0.37723143  1
  La3+  La2  1  0.13405480  -0.00919134  0.62351389  1
  La3+  La3  1  0.13226376  0.00055564  0.87507680  1
  La3+  La4  1  0.13488536  0.33483334  0.12820519  1
  La3+  La5  1  0.14057239  0.33790972  0.37708413  1
  La3+  La6  1  0.13902436  0.33991914  0.62200915  1
  La3+  La7  1  0.13506791  0.33330961  0.87687436  1
  La3+  La8  1  0.14639943  0.66840400  0.12527767  1
  La3+  La9  1  0.14005496  0.66869113  0.37462004  1
  La3+  La10  1  0.13460161  0.66628336  0.61855350  1
  La3+  La11  1  0.15123568  0.66866035  0.88055611  1
  La3+  La12  1  0.63920970  0.00319624  0.12682651  1
  La3+  La13  1  0.64398409  0.00052672  0.38128882  1
  La3+  La14  1  0.63504899  0.00180358  0.62131640  1
  La3+  La15  1  0.63688273  -0.00161837  0.87334270  1
  La3+  La16  1  0.65164700  0.32388446  0.13081901  1
  La3+  La17  1  0.64575413  0.32702170  0.37594208  1
  La3+  La18  1  0.64992244  0.32808421  0.61776803  1
  La3+  La19  1  0.64789117  0.33046073  0.87710781  1
  La3+  La20  1  0.64213983  0.66971189  0.12755692  1
  La3+  La21  1  0.63310037  0.66360590  0.37313832  1
  La3+  La22  1  0.64186462  0.65071998  0.62797666  1
  La3+  La23  1  0.63221350  0.66048541  0.87016378  1
  La3+  La24  1  0.35271586  0.00186720  0.12626146  1
  La3+  La25  1  0.35110809  0.00203630  0.37443218  1
  La3+  La26  1  0.36550048  -0.00306722  0.62209560  1
  La3+  La27  1  0.36157195  -0.00639504  0.87447490  1
  La3+  La28  1  0.35700244  0.33811784  0.12848131  1
  La3+  La29  1  0.35951774  0.33572261  0.38052372  1
  La3+  La30  1  0.36444634  0.34079782  0.62386141  1
  La3+  La31  1  0.36666291  0.33106691  0.87665439  1
  La3+  La32  1  0.35521215  0.67322778  0.12854037  1
  La3+  La33  1  0.36614674  0.67067022  0.37193567  1
  La3+  La34  1  0.36502915  0.66169487  0.62796183  1
  La3+  La35  1  0.35551767  0.66696119  0.87750502  1
  La3+  La36  1  0.86676859  0.00790878  0.12809521  1
  La3+  La37  1  0.85886265  0.00238297  0.37666549  1
  La3+  La38  1  0.86303386  -0.00366111  0.61969319  1
  La3+  La39  1  0.86188543  0.00567502  0.87663629  1
  La3+  La40  1  0.85431768  0.32463503  0.12337364  1
  La3+  La41  1  0.85271362  0.32986512  0.37832370  1
  La3+  La42  1  0.85435239  0.34415448  0.61998526  1
  La3+  La43  1  0.84588520  0.34497739  0.87189734  1
  La3+  La44  1  0.85188135  0.66423188  0.13012083  1
  La3+  La45  1  0.86836114  0.67146243  0.38258627  1
  La3+  La46  1  0.85520745  0.65817564  0.62397734  1
  La3+  La47  1  0.86821976  0.66334614  0.87434058  1
  La3+  La48  1  0.00154884  0.17101804  0.63776903  1
  La3+  La49  1  0.49977717  0.17237627  0.60903219  1
  La3+  La50  1  0.49956479  0.82877479  0.38170395  1
  La3+  La51  1  0.49536531  0.49766713  0.12132323  1
  La3+  La52  1  0.49987355  0.84091186  0.12621591  1
  La3+  La53  1  0.49356458  0.83894723  0.36441416  1
  La3+  La54  1  0.50423378  0.50002230  0.13900597  1
  La3+  La55  1  0.00104820  0.49754645  0.14072187  1
  La3+  La56  1  -0.00145028  0.82902379  0.12708797  1
  La3+  La57  1  0.49903790  0.49452823  0.86694839  1
  La3+  La58  1  0.49978588  0.18257420  0.12720773  1
  La3+  La59  1  0.01034116  0.16160247  0.14024672  1
  La3+  La60  1  -0.00254809  0.49875560  0.88085321  1
  La3+  La61  1  0.50367514  0.15826301  0.87207089  1
  La3+  La62  1  0.01182710  0.15451656  0.36615002  1
  La3+  La63  1  0.49854443  0.83521600  0.87203530  1
  La3+  La64  1  0.00179492  0.15070808  0.12855609  1
  La3+  La65  1  0.00455010  0.84370146  0.86824238  1
  La3+  La66  1  0.50058598  0.82587987  0.62794196  1
  La3+  La67  1  -0.00070676  0.83853197  0.84806123  1
  La3+  La68  1  -0.00213549  0.17695178  0.61697893  1
  La3+  La69  1  0.50801177  0.16115230  0.85734520  1
  La3+  La70  1  -0.00552380  0.48946296  0.63652438  1
  La3+  La71  1  -0.00000505  0.83080921  0.38202452  1
  La3+  La72  1  0.74980618  0.17368865  0.49056521  1
  La3+  La73  1  0.25067707  0.11840782  0.50625123  1
  La3+  La74  1  0.24886708  0.46623059  0.78605360  1
  La3+  La75  1  0.74814131  0.80745624  0.63812686  1
  La3+  La76  1  0.75165752  0.45356466  0.27750045  1
  La3+  La77  1  0.24797226  0.11577218  -0.03876112  1
  La3+  La78  1  0.75351230  0.18002585  0.78822366  1
  La3+  La79  1  0.25091066  0.16774795  0.74237405  1
  La3+  La80  1  0.74916824  0.49635339  0.51881710  1
  La3+  La81  1  0.74743497  0.89432971  0.01754394  1
  La3+  La82  1  0.74981298  0.44241796  0.02410068  1
  La3+  La83  1  0.25021235  0.82869783  0.73997034  1
  Ru4+  Ru84  1  -0.00389943  -0.00460711  0.00170442  1
  Ru4+  Ru85  1  0.00834253  -0.01557245  0.26404865  1
  Ru4+  Ru86  1  -0.00360686  -0.00798745  0.50674889  1
  Ru4+  Ru87  1  0.00533885  0.01047323  0.74807069  1
  Ru4+  Ru88  1  0.00384633  0.33847539  -0.00366751  1
  Ru4+  Ru89  1  0.00390089  0.33858888  0.25726571  1
  Ru4+  Ru90  1  -0.00150867  0.33787523  0.49759586  1
  Ru4+  Ru91  1  -0.00029497  0.33473837  0.76062646  1
  Ru4+  Ru92  1  -0.00445451  0.66898470  0.00730172  1
  Ru4+  Ru93  1  0.00229585  0.66386117  0.24468981  1
  Ru4+  Ru94  1  0.00631641  0.65728950  0.49997582  1
  Ru4+  Ru95  1  0.00030928  0.66642558  0.74943367  1
  Ru4+  Ru96  1  0.48999313  0.00807578  0.00103622  1
  Ru4+  Ru97  1  0.49796421  0.00589162  0.25390255  1
  Ru4+  Ru98  1  0.50295160  0.00166846  0.48220374  1
  Ru4+  Ru99  1  0.49826634  -0.00488857  0.75555910  1
  Ru4+  Ru100  1  0.50175277  0.32660126  0.01101568  1
  Ru4+  Ru101  1  0.49547947  0.33440893  0.25836645  1
  Ru4+  Ru102  1  0.49772270  0.33288239  0.49157423  1
  Ru4+  Ru103  1  0.49516559  0.34787145  0.73444044  1
  Ru4+  Ru104  1  0.50149091  0.67398214  -0.00176337  1
  Ru4+  Ru105  1  0.50669896  0.66401528  0.26012631  1
  Ru4+  Ru106  1  0.49678057  0.65037740  0.51907972  1
  Ru4+  Ru107  1  0.50446282  0.66878303  0.73675329  1
  Ru4+  Ru108  1  0.11239632  0.17372403  -0.00905899  1
  Ru4+  Ru109  1  0.11810707  0.16457242  0.25968035  1
  Ru4+  Ru110  1  0.11123143  0.17181644  0.49400911  1
  Ru4+  Ru111  1  0.10879244  0.15949930  0.76605374  1
  Ru4+  Ru112  1  0.11012607  0.50300535  -0.00061791  1
  Ru4+  Ru113  1  0.11130356  0.50576018  0.25494382  1
  Ru4+  Ru114  1  0.10669189  0.49599927  0.49501029  1
  Ru4+  Ru115  1  0.11043297  0.50661809  0.75278184  1
  Ru4+  Ru116  1  0.11432204  0.82950779  0.00186601  1
  Ru4+  Ru117  1  0.10704724  0.84078265  0.24806021  1
  Ru4+  Ru118  1  0.11027787  0.83295942  0.50122982  1
  Ru4+  Ru119  1  0.11405365  0.83484050  0.74697591  1
  Ru4+  Ru120  1  0.61613630  0.17117912  0.00419027  1
  Ru4+  Ru121  1  0.61212076  0.16373205  0.25129207  1
  Ru4+  Ru122  1  0.60637462  0.16731695  0.49461195  1
  Ru4+  Ru123  1  0.61239824  0.16771673  0.74164408  1
  Ru4+  Ru124  1  0.61043045  0.50187472  -0.00673749  1
  Ru4+  Ru125  1  0.61343241  0.49703414  0.25509585  1
  Ru4+  Ru126  1  0.60790340  0.50114406  0.50008317  1
  Ru4+  Ru127  1  0.60850341  0.48798351  0.74566123  1
  Ru4+  Ru128  1  0.60284445  0.82896126  0.00207837  1
  Ru4+  Ru129  1  0.61666013  0.82917221  0.24362075  1
  Ru4+  Ru130  1  0.61450740  0.83953362  0.51429585  1
  Ru4+  Ru131  1  0.61279823  0.83286932  0.75218262  1
  Ru4+  Ru132  1  0.38967256  0.16539417  0.00754649  1
  Ru4+  Ru133  1  0.38427223  0.16684922  0.25429697  1
  Ru4+  Ru134  1  0.39412484  0.16765387  0.50270803  1
  Ru4+  Ru135  1  0.39206710  0.16070340  0.74414111  1
  Ru4+  Ru136  1  0.38765936  0.50376130  0.00268954  1
  Ru4+  Ru137  1  0.38520812  0.50065366  0.25732774  1
  Ru4+  Ru138  1  0.39107973  0.49695028  0.49223625  1
  Ru4+  Ru139  1  0.38409352  0.49803649  0.74796017  1
  Ru4+  Ru140  1  0.38792705  0.82763255  -0.00558061  1
  Ru4+  Ru141  1  0.38127300  0.83559645  0.24619379  1
  Ru4+  Ru142  1  0.38338687  0.83363215  0.50487073  1
  Ru4+  Ru143  1  0.38997392  0.83967829  0.74923422  1
  Ru4+  Ru144  1  0.88799671  0.17685241  -0.01303679  1
  Ru4+  Ru145  1  0.88616106  0.17074897  0.25563472  1
  Ru4+  Ru146  1  0.89139957  0.16521614  0.49894263  1
  Ru4+  Ru147  1  0.88911503  0.16331616  0.75998022  1
  Ru4+  Ru148  1  0.89348532  0.50036637  0.00280441  1
  Ru4+  Ru149  1  0.89264141  0.50234616  0.25282218  1
  Ru4+  Ru150  1  0.89225686  0.50168139  0.49333565  1
  Ru4+  Ru151  1  0.88555791  0.50169300  0.75013354  1
  Ru4+  Ru152  1  0.88688312  0.83200426  0.01221321  1
  Ru4+  Ru153  1  0.88851381  0.83875836  0.24494485  1
  Ru4+  Ru154  1  0.88865248  0.83414862  0.50324564  1
  Ru4+  Ru155  1  0.89175218  0.83088163  0.74712013  1
  Ru4+  Ru156  1  0.24942155  0.31041917  0.74367778  1
  Ru4+  Ru157  1  0.74821470  0.75512740  0.48634331  1
  Ru4+  Ru158  1  0.75059192  0.71983026  0.78795343  1
  Ru4+  Ru159  1  0.24901826  0.61160774  0.75459847  1
  Ru4+  Ru160  1  0.24940828  0.41891326  0.00088428  1
  Ru4+  Ru161  1  0.74920983  0.92602115  0.26299473  1
  Ru4+  Ru162  1  0.75260531  0.92578892  0.74779218  1
  Ru4+  Ru163  1  0.25006906  0.59041427  0.24625610  1
  Ru4+  Ru164  1  0.75165474  0.60804539  0.23314013  1
  Ru4+  Ru165  1  0.75027130  0.09490288  0.01841558  1
  Ru4+  Ru166  1  0.25019623  0.27034757  0.00498686  1
  Ru4+  Ru167  1  0.25020554  0.02057816  0.74961095  1
  Ru4+  Ru168  1  0.24912362  0.42022557  0.24212131  1
  Ru4+  Ru169  1  0.25006056  0.89895885  -0.00460706  1
  Ru4+  Ru170  1  0.74847276  0.32983250  0.73318341  1
  Ru4+  Ru171  1  0.24999429  0.75116357  0.49222382  1
  Ru4+  Ru172  1  0.24810809  0.91247551  0.25054880  1
  Ru4+  Ru173  1  0.74999480  0.09095729  0.25143825  1
  Ru4+  Ru174  1  0.24982703  0.22991621  0.26495125  1
  Ru4+  Ru175  1  0.74886707  0.06040265  0.69800420  1
  Ru4+  Ru176  1  0.25034227  0.58755739  0.49622031  1
  Ru4+  Ru177  1  0.75069659  0.59481106  -0.01912900  1
  Ru4+  Ru178  1  0.25107471  0.26633906  0.51000244  1
  Ru4+  Ru179  1  0.74846516  0.73507389  0.01321701  1
  O2-  O180  1  0.15985330  0.08073176  -0.00375971  1
  O2-  O181  1  0.16236861  0.07787699  0.24957440  1
  O2-  O182  1  0.16087835  0.07551821  0.50797076  1
  O2-  O183  1  0.17223000  0.07507828  0.75133347  1
  O2-  O184  1  0.16272545  0.41250794  -0.00018384  1
  O2-  O185  1  0.16546395  0.41565042  0.24756328  1
  O2-  O186  1  0.16444448  0.41878205  0.50588022  1
  O2-  O187  1  0.16300710  0.40922772  0.74953752  1
  O2-  O188  1  0.16661692  0.74717345  0.00206027  1
  O2-  O189  1  0.15629422  0.75435553  0.24886275  1
  O2-  O190  1  0.16786444  0.74815500  0.50260164  1
  O2-  O191  1  0.16648398  0.74724929  0.74386736  1
  O2-  O192  1  0.66558454  0.07945265  0.00459087  1
  O2-  O193  1  0.66724499  0.08193392  0.25100145  1
  O2-  O194  1  0.66397638  0.08158764  0.50303450  1
  O2-  O195  1  0.66641865  0.08087861  0.74814944  1
  O2-  O196  1  0.65827958  0.41207742  0.00410876  1
  O2-  O197  1  0.66259192  0.41087233  0.25230619  1
  O2-  O198  1  0.66276259  0.41869030  0.49501767  1
  O2-  O199  1  0.67363459  0.41929070  0.75293124  1
  O2-  O200  1  0.66175902  0.74395635  0.00115694  1
  O2-  O201  1  0.66380048  0.74427848  0.25366106  1
  O2-  O202  1  0.66418439  0.74937002  0.49721262  1
  O2-  O203  1  0.66530140  0.74154792  0.75265108  1
  O2-  O204  1  0.33162920  0.25278836  -0.01048007  1
  O2-  O205  1  0.33220069  0.25069121  0.25558633  1
  O2-  O206  1  0.33457415  0.25227691  0.50619823  1
  O2-  O207  1  0.33311013  0.25489968  0.74973901  1
  O2-  O208  1  0.34028604  0.58842503  0.00359493  1
  O2-  O209  1  0.33295585  0.58786841  0.25401947  1
  O2-  O210  1  0.33629217  0.58793504  0.49827661  1
  O2-  O211  1  0.32985106  0.58734751  0.75297318  1
  O2-  O212  1  0.33571771  0.91579513  -0.00442038  1
  O2-  O213  1  0.32926421  0.91586520  0.25276024  1
  O2-  O214  1  0.33531542  0.91959121  0.50989073  1
  O2-  O215  1  0.33121785  0.92005440  0.74430913  1
  O2-  O216  1  0.82816277  0.24303825  0.01172804  1
  O2-  O217  1  0.83618629  0.25025097  0.25197055  1
  O2-  O218  1  0.83169662  0.24804880  0.49502676  1
  O2-  O219  1  0.83454359  0.25411648  0.74561471  1
  O2-  O220  1  0.83689717  0.58563184  -0.00543635  1
  O2-  O221  1  0.83359883  0.58569228  0.25818338  1
  O2-  O222  1  0.83532220  0.58602805  0.49414046  1
  O2-  O223  1  0.83956682  0.58914463  0.75392298  1
  O2-  O224  1  0.84007330  0.92202165  -0.00503883  1
  O2-  O225  1  0.83009096  0.92532000  0.24797736  1
  O2-  O226  1  0.83606182  0.91625906  0.50625090  1
  O2-  O227  1  0.83720374  0.92072848  0.75040239  1
  O2-  O228  1  0.16838433  0.25388296  -0.00317521  1
  O2-  O229  1  0.16944489  0.25482137  0.24770030  1
  O2-  O230  1  0.16765361  0.25184910  0.50437851  1
  O2-  O231  1  0.16376300  0.25010583  0.75269109  1
  O2-  O232  1  0.15924840  0.58626814  0.00247308  1
  O2-  O233  1  0.16746165  0.58630748  0.25073204  1
  O2-  O234  1  0.16617382  0.58469490  0.50111925  1
  O2-  O235  1  0.16713631  0.58735083  0.74948916  1
  O2-  O236  1  0.16644058  0.91788656  -0.00405813  1
  O2-  O237  1  0.16800689  0.91635612  0.24858167  1
  O2-  O238  1  0.16259806  0.91529849  0.50447832  1
  O2-  O239  1  0.17324319  0.92019472  0.74715747  1
  O2-  O240  1  0.67084876  0.24651701  0.00706311  1
  O2-  O241  1  0.66530950  0.24639437  0.25701839  1
  O2-  O242  1  0.66815275  0.24694788  0.49389701  1
  O2-  O243  1  0.67340584  0.25533612  0.75016364  1
  O2-  O244  1  0.66606365  0.58744036  -0.00193983  1
  O2-  O245  1  0.67096599  0.58715788  0.25198530  1
  O2-  O246  1  0.66460447  0.58569996  0.49177717  1
  O2-  O247  1  0.65802749  0.57920627  0.75541244  1
  O2-  O248  1  0.65112245  0.92441888  -0.00123042  1
  O2-  O249  1  0.66589800  0.92346070  0.25069625  1
  O2-  O250  1  0.67286384  0.91847064  0.50816721  1
  O2-  O251  1  0.66794006  0.91850080  0.74397196  1
  O2-  O252  1  0.33557468  0.07883323  -0.00504357  1
  O2-  O253  1  0.33298395  0.08459303  0.25330841  1
  O2-  O254  1  0.34146960  0.07725199  0.50826046  1
  O2-  O255  1  0.33204616  0.07798799  0.74959826  1
  O2-  O256  1  0.33532391  0.41369716  -0.00355335  1
  O2-  O257  1  0.33331796  0.41556363  0.25654614  1
  O2-  O258  1  0.33654570  0.41839581  0.50467640  1
  O2-  O259  1  0.33061084  0.40837234  0.74910968  1
  O2-  O260  1  0.33397239  0.74692441  0.00200380  1
  O2-  O261  1  0.33338110  0.74646428  0.25675394  1
  O2-  O262  1  0.33193189  0.74541477  0.50031246  1
  O2-  O263  1  0.33307159  0.74753121  0.74732681  1
  O2-  O264  1  0.83549894  0.08563488  0.00181397  1
  O2-  O265  1  0.83338396  0.08262784  0.25173539  1
  O2-  O266  1  0.83122781  0.08365623  0.50803556  1
  O2-  O267  1  0.83332289  0.08104731  0.74365755  1
  O2-  O268  1  0.84107888  0.41349053  0.00383175  1
  O2-  O269  1  0.84149530  0.41290259  0.24933928  1
  O2-  O270  1  0.83293288  0.42056011  0.49543527  1
  O2-  O271  1  0.83245763  0.41766092  0.74603276  1
  O2-  O272  1  0.83392807  0.74486496  -0.00365868  1
  O2-  O273  1  0.84263033  0.75035860  0.25607559  1
  O2-  O274  1  0.83064480  0.74911225  0.49820025  1
  O2-  O275  1  0.83512855  0.74185227  0.75420862  1
  O2-  O276  1  0.55826740  0.58473406  0.26583601  1
  O2-  O277  1  0.54943365  0.56795704  0.51183422  1
  O2-  O278  1  0.05331009  0.09493671  0.01518029  1
  O2-  O279  1  0.44527322  0.57005370  0.73931246  1
  O2-  O280  1  0.45233574  0.76382171  0.23402391  1
  O2-  O281  1  0.55185706  0.75682779  0.77323556  1
  O2-  O282  1  0.44935565  0.75561600  0.27189308  1
  O2-  O283  1  0.96790503  0.22185239  0.46365838  1
  O2-  O284  1  0.04698225  0.09535877  0.50247077  1
  O2-  O285  1  0.95192900  0.23514641  0.74930193  1
  O2-  O286  1  0.04761398  0.55346963  0.55031844  1
  O2-  O287  1  0.96339927  0.24362849  0.03949752  1
  O2-  O288  1  0.95485862  0.43438739  0.24995622  1
  O2-  O289  1  0.44577597  0.58115761  0.23427822  1
  O2-  O290  1  0.54166368  0.43701085  0.00427677  1
  O2-  O291  1  0.53816324  0.22609492  0.28158946  1
  O2-  O292  1  0.94137092  0.74850991  0.47634236  1
  O2-  O293  1  0.96562701  0.21505932  1.01580360  1
  O2-  O294  1  0.43063380  0.41599933  0.72997868  1
  O2-  O295  1  0.51903944  0.45982488  0.73238920  1
  O2-  O296  1  0.45017578  0.58620437  0.77339675  1
  O2-  O297  1  0.55703277  0.58873961  0.75049249  1
  O2-  O298  1  0.54819999  0.90100849  0.24640626  1
  O2-  O299  1  0.05036249  0.43122456  0.76838695  1
  O2-  O300  1  0.45813843  0.23233595  0.74369347  1
  O2-  O301  1  0.04742571  0.90402915  0.00660755  1
  O2-  O302  1  0.94863265  0.57792625  0.48157169  1
  O2-  O303  1  0.55922685  0.08522489  0.24404593  1
  O2-  O304  1  0.44925690  0.42785393  0.25546309  1
  O2-  O305  1  0.95860975  0.09220422  0.25500871  1
  O2-  O306  1  0.45126646  0.76485759  0.74912129  1
  O2-  O307  1  0.04637599  0.90407764  0.48973858  1
  O2-  O308  1  0.54774483  0.58183175  0.98372961  1
  O2-  O309  1  0.54445096  0.09489335  0.49623427  1
  O2-  O310  1  0.04710662  0.76542555  0.74071705  1
  O2-  O311  1  0.94512534  0.42647995  0.76542795  1
  O2-  O312  1  0.44296100  0.24156734  0.94853468  1
  O2-  O313  1  0.95250382  0.78444490  0.96386687  1
  O2-  O314  1  0.46343538  0.11827994  0.25641344  1
  O2-  O315  1  0.05298419  0.75192621  0.97972235  1
  O2-  O316  1  0.95447094  0.23898503  0.25236534  1
  O2-  O317  1  0.95484161  0.57041763  0.76036311  1
  O2-  O318  1  0.94713257  0.08302903  0.22150492  1
  O2-  O319  1  0.45681693  0.89978084  0.50429669  1
  O2-  O320  1  0.55069402  0.42441983  0.25855940  1
  O2-  O321  1  0.54539443  0.10305776  0.01064834  1
  O2-  O322  1  0.44663573  0.57323922  0.47716830  1
  O2-  O323  1  0.94278356  0.08161847  0.00694944  1
  O2-  O324  1  0.93601285  0.91977864  0.17840614  1
  O2-  O325  1  0.43716252  0.40008101  0.46650573  1
  O2-  O326  1  0.06999513  0.92166442  0.32445096  1
  O2-  O327  1  0.58514098  0.43008270  0.84694416  1
  O2-  O328  1  0.91709133  0.25620027  0.57410948  1
  O2-  O329  1  0.43479447  0.08447481  0.06748969  1
  O2-  O330  1  0.93845681  0.06641508  0.78050708  1
  O2-  O331  1  0.06503929  0.25330332  0.26710865  1
  O2-  O332  1  0.43705798  0.91893118  0.22465555  1
  O2-  O333  1  0.55724194  0.93303285  0.57987590  1
  O2-  O334  1  0.07100112  0.42759005  0.42516131  1
  O2-  O335  1  0.56233038  0.91959810  0.77104189  1
  O2-  O336  1  0.07599837  0.08662517  0.67950011  1
  O2-  O337  1  0.07023615  0.60804374  0.43285208  1
  O2-  O338  1  0.06047898  0.92926825  0.17445002  1
  O2-  O339  1  0.94658454  0.41448692  0.04027978  1
  O2-  O340  1  0.90597590  0.26778267  0.92222166  1
  O2-  O341  1  0.43948436  0.74467979  0.51333255  1
  O2-  O342  1  0.57497079  0.24358520  0.81995412  1
  O2-  O343  1  0.92433789  0.09328318  0.42377424  1
  O2-  O344  1  0.05933702  0.08224790  0.83102997  1
  O2-  O345  1  0.06370893  0.41737813  0.22371703  1
  O2-  O346  1  0.56578898  0.26519204  0.21413526  1
  O2-  O347  1  0.93806908  0.92641564  0.02171958  1
  O2-  O348  1  0.06344875  0.40588161  0.57592486  1
  O2-  O349  1  0.06009051  0.07181151  0.04356489  1
  O2-  O350  1  0.43547387  0.26035700  0.24419609  1
  O2-  O351  1  0.45070224  0.23581358  0.95477542  1
  O2-  O352  1  0.57566471  0.90112780  0.42719177  1
  O2-  O353  1  0.41130573  0.23618613  0.09494138  1
  O2-  O354  1  0.55991877  0.58694021  0.26717259  1
  O2-  O355  1  0.56394801  0.25342784  0.97294960  1
  O2-  O356  1  0.44223408  0.74165380  0.96470795  1
  O2-  O357  1  0.94623105  0.74059406  0.48103849  1
  O2-  O358  1  0.55747420  0.07710559  0.71268752  1
  O2-  O359  1  0.92529018  0.90235303  0.33000336  1
  O2-  O360  1  0.06408306  0.74231411  0.52308334  1
  O2-  O361  1  0.06461965  0.26716025  0.96370446  1
  O2-  O362  1  0.93087584  0.70953584  0.07742006  1
  O2-  O363  1  0.59053749  0.40970288  0.67059422  1
  O2-  O364  1  0.06058175  0.59288746  0.27391469  1
  O2-  O365  1  0.06618221  0.93104716  0.77877065  1
  O2-  O366  1  0.43615024  0.06723351  0.91368459  1
  O2-  O367  1  0.56255624  0.25672422  0.51593089  1
  O2-  O368  1  0.42656344  0.06044008  0.22129806  1
  O2-  O369  1  0.93793590  0.07282622  0.57755456  1
  O2-  O370  1  0.93823004  0.41610457  0.53138578  1
  O2-  O371  1  0.57041910  0.23616259  0.67264360  1
  O2-  O372  1  0.74931845  0.00746617  0.94790115  1
  O2-  O373  1  0.24949712  0.67478999  0.59516301  1
  O2-  O374  1  0.25073310  0.00107707  0.42264238  1
  O2-  O375  1  0.25001665  0.66000415  0.86992009  1
  O2-  O376  1  0.75215762  0.33783920  0.61313616  1
  O2-  O377  1  0.25068018  -0.00000788  0.04689062  1
  O2-  O378  1  0.74834647  0.00840186  0.11407144  1
  O2-  O379  1  0.25067862  0.35330668  0.44868745  1
  O2-  O380  1  0.75064767  0.66190034  0.68820394  1
  O2-  O381  1  0.24982537  0.33245928  0.31668515  1
  O2-  O382  1  0.75056713  0.32429282  0.93106454  1
  O2-  O383  1  0.24906721  -0.00154940  0.18623927  1
  O2-  O384  1  0.74813375  0.65707899  0.11008669  1
  O2-  O385  1  0.74954323  0.66408587  0.54769311  1
  O2-  O386  1  0.74991599  -0.00614362  0.36931768  1
  O2-  O387  1  0.24914792  0.00759320  0.33077037  1
  O2-  O388  1  0.74789969  0.36636497  0.85157503  1
  O2-  O389  1  0.24843160  0.34958107  0.11291186  1
  O2-  O390  1  0.25015828  0.66339206  0.15178552  1
  O2-  O391  1  0.75292793  0.35144825  0.14109837  1
  O2-  O392  1  0.75102716  0.01942752  0.81616195  1
  O2-  O393  1  0.24936822  0.33490272  0.89318799  1
  O2-  O394  1  0.75078706  0.32818251  0.33105145  1
  O2-  O395  1  0.74970052  0.34464980  0.42175322  1
  O2-  O396  1  0.74914890  0.82820969  0.79173913  1
  O2-  O397  1  0.74944648  0.79330735  0.91427882  1
  O2-  O398  1  0.24960265  0.50522660  0.32953671  1
  O2-  O399  1  0.75178982  0.49771152  0.64341317  1
  O2-  O400  1  0.75035638  0.52628616  0.89029390  1
  O2-  O401  1  0.74867802  0.15878262  0.92504588  1
  O2-  O402  1  0.24945344  0.18501958  0.37947056  1
  O2-  O403  1  0.75088805  0.80374009  0.11116092  1
  O2-  O404  1  0.74896505  0.15623794  0.63289046  1
  O2-  O405  1  0.25063147  0.85319373  0.88485125  1
  O2-  O406  1  0.24958334  0.52098413  0.65051525  1
  O2-  O407  1  0.24971703  0.49746732  0.41979250  1
  O2-  O408  1  0.25014931  0.49391806  0.56752622  1
  O2-  O409  1  0.24929444  0.50178505  0.92388217  1
  O2-  O410  1  0.75041227  0.15296322  0.34657422  1
  O2-  O411  1  0.75096257  0.52106560  0.14910987  1
  O2-  O412  1  0.25078638  0.18417433  0.07844247  1
  O2-  O413  1  0.25055476  0.50271710  0.16462957  1
  O2-  O414  1  0.24977389  0.82298586  0.40899847  1
  O2-  O415  1  0.75006552  0.15378963  0.15746756  1
  O2-  O416  1  0.74925180  0.82946557  0.22270051  1
  O2-  O417  1  0.24978558  0.51134631  0.07582931  1
  O2-  O418  1  0.24901308  0.14927917  0.19906957  1
  O2-  O419  1  0.25028617  0.84144420  0.08842403  1
  O2-  O420  1  0.03079468  0.66195870  0.12235674  1
  O2-  O421  1  0.53879413  0.00997106  0.36408819  1
  O2-  O422  1  0.98928560  0.00380880  0.38067872  1
  O2-  O423  1  0.44670164  0.00201554  0.38544342  1
  O2-  O424  1  0.01775072  0.65798232  0.63440834  1
  O2-  O425  1  0.52837669  0.68476800  0.39322200  1
  O2-  O426  1  0.01933832  -0.02157594  0.62562677  1
  O2-  O427  1  0.95493168  0.34593941  0.37718723  1
  O2-  O428  1  0.45572335  0.32462960  0.61277563  1
  O2-  O429  1  0.98605080  0.35101539  0.87965915  1
  O2-  O430  1  0.46276976  0.36019089  0.85353918  1
  O2-  O431  1  0.02702363  0.32691984  0.12249964  1
  O2-  O432  1  0.52466920  0.34521295  0.61405775  1
  O2-  O433  1  0.98827931  0.33526475  0.63674922  1
  O2-  O434  1  0.45983512  0.65167658  0.62874070  1
  O2-  O435  1  0.55319005  0.33493247  0.10019252  1
  O2-  O436  1  0.46059586  0.35902394  0.12483986  1
  O2-  O437  1  0.55075438  0.69678680  0.61229685  1
  O2-  O438  1  0.52294801  0.33386966  0.38006605  1
  O2-  O439  1  0.52787216  0.00136740  0.88491531  1
  O2-  O440  1  0.51619935  0.33405606  0.88661007  1
  O2-  O441  1  0.97463289  0.66567013  0.87854989  1
  O2-  O442  1  0.03273777  0.31440657  0.37839470  1
  O2-  O443  1  0.49673937  -0.01941493  0.11822360  1
