# generated using pymatgen
data_La7(Ru4O11)2
_symmetry_space_group_name_H-M   'P 1'
_cell_length_a   23.99056378
_cell_length_b   16.83036542
_cell_length_c   15.42674940
_cell_angle_alpha   90.00055608
_cell_angle_beta   89.99998499
_cell_angle_gamma   89.99923375
_symmetry_Int_Tables_number   1
_chemical_formula_structural   La7(Ru4O11)2
_chemical_formula_sum   'La84 Ru96 O264'
_cell_volume   6228.85791252
_cell_formula_units_Z   12
loop_
 _symmetry_equiv_pos_site_id
 _symmetry_equiv_pos_as_xyz
  1  'x, y, z'
loop_
 _atom_type_symbol
 _atom_type_oxidation_number
  La3+  3.0
  Ru4+  4.0
  O2-  -2.0
loop_
 _atom_site_type_symbol
 _atom_site_label
 _atom_site_symmetry_multiplicity
 _atom_site_fract_x
 _atom_site_fract_y
 _atom_site_fract_z
 _atom_site_occupancy
  La3+  La0  1  0.13901597  0.00050530  0.12744846  1
  La3+  La1  1  0.14240450  0.00110675  0.37496608  1
  La3+  La2  1  0.14452296  -0.00343522  0.62007244  1
  La3+  La3  1  0.14280318  -0.00375395  0.87803657  1
  La3+  La4  1  0.14207693  0.33257621  0.12644126  1
  La3+  La5  1  0.14037510  0.33221752  0.37124383  1
  La3+  La6  1  0.13532382  0.33658122  0.62815839  1
  La3+  La7  1  0.13443605  0.33735637  0.87412692  1
  La3+  La8  1  0.13873687  0.66685309  0.12726770  1
  La3+  La9  1  0.13920733  0.66672664  0.37456365  1
  La3+  La10  1  0.14025774  0.66653578  0.62328883  1
  La3+  La11  1  0.13950693  0.66563571  0.87453668  1
  La3+  La12  1  0.63660110  -0.00028834  0.12738458  1
  La3+  La13  1  0.63848747  -0.00017574  0.37502618  1
  La3+  La14  1  0.63720015  -0.00014891  0.62367918  1
  La3+  La15  1  0.63466173  0.00082754  0.87484561  1
  La3+  La16  1  0.63677085  0.33358354  0.12580569  1
  La3+  La17  1  0.64268314  0.33466887  0.37473681  1
  La3+  La18  1  0.64268896  0.33649008  0.62490512  1
  La3+  La19  1  0.63983483  0.33467016  0.86989808  1
  La3+  La20  1  0.63704387  0.66791397  0.12341862  1
  La3+  La21  1  0.64170898  0.66568784  0.37829774  1
  La3+  La22  1  0.63936556  0.66629551  0.62207832  1
  La3+  La23  1  0.63711879  0.66688537  0.87656875  1
  La3+  La24  1  0.36078734  0.00042491  0.12939785  1
  La3+  La25  1  0.35808880  0.00025382  0.37437230  1
  La3+  La26  1  0.36125958  -0.00023756  0.62216569  1
  La3+  La27  1  0.36182156  -0.00110050  0.87564935  1
  La3+  La28  1  0.35955368  0.33232192  0.12823018  1
  La3+  La29  1  0.36018222  0.33417923  0.37087311  1
  La3+  La30  1  0.36449211  0.33452287  0.62398458  1
  La3+  La31  1  0.36220778  0.33529286  0.87592002  1
  La3+  La32  1  0.36321170  0.66703266  0.12557007  1
  La3+  La33  1  0.36327217  0.66686621  0.37571499  1
  La3+  La34  1  0.36080965  0.66631960  0.62319683  1
  La3+  La35  1  0.36294323  0.66712627  0.87654784  1
  La3+  La36  1  0.86142117  -0.00342640  0.12775259  1
  La3+  La37  1  0.86170752  -0.00045970  0.37198276  1
  La3+  La38  1  0.86130899  -0.00064266  0.62466577  1
  La3+  La39  1  0.86423959  -0.00084113  0.87391950  1
  La3+  La40  1  0.86427661  0.33323987  0.12524590  1
  La3+  La41  1  0.86047680  0.33548785  0.37559050  1
  La3+  La42  1  0.86048775  0.33580474  0.62715523  1
  La3+  La43  1  0.85934786  0.33244038  0.87258349  1
  La3+  La44  1  0.86344797  0.66707801  0.12658075  1
  La3+  La45  1  0.85621692  0.66690585  0.37558873  1
  La3+  La46  1  0.85971702  0.66612351  0.62155298  1
  La3+  La47  1  0.86127846  0.66587551  0.87584661  1
  La3+  La48  1  0.00097530  0.16614210  0.62732748  1
  La3+  La49  1  -0.00136306  0.49697931  0.86553108  1
  La3+  La50  1  -0.00039033  0.82781236  0.37688445  1
  La3+  La51  1  0.00008012  0.83415503  0.88988838  1
  La3+  La52  1  0.00044781  0.83425407  0.61672376  1
  La3+  La53  1  0.00118503  0.16853455  0.88688035  1
  La3+  La54  1  0.00174153  0.50418134  0.63466349  1
  La3+  La55  1  -0.00056627  0.50121240  0.12274933  1
  La3+  La56  1  0.50657016  0.83394414  0.38067379  1
  La3+  La57  1  0.00230544  0.49484309  0.88125093  1
  La3+  La58  1  0.49926599  0.50007937  0.13702032  1
  La3+  La59  1  0.00089389  0.49719028  0.62006736  1
  La3+  La60  1  0.49734122  0.83280785  0.36355112  1
  La3+  La61  1  0.49979088  0.83310205  0.63525774  1
  La3+  La62  1  0.49955999  0.50092921  0.88448626  1
  La3+  La63  1  -0.00152062  0.83217108  0.35680844  1
  La3+  La64  1  0.49924632  0.16654787  0.36568553  1
  La3+  La65  1  0.49916235  0.17005551  0.38389696  1
  La3+  La66  1  0.49946425  0.16535470  0.11226480  1
  La3+  La67  1  0.50189950  0.83772844  0.12102935  1
  La3+  La68  1  0.50230216  0.83504741  0.86502119  1
  La3+  La69  1  0.50051089  0.50148695  0.61579112  1
  La3+  La70  1  -0.00326817  0.83199514  0.86828970  1
  La3+  La71  1  0.50014628  0.16532226  0.88349180  1
  La3+  La72  1  0.74964857  0.13129193  0.27162908  1
  La3+  La73  1  0.25039756  0.17721809  0.73031859  1
  La3+  La74  1  0.25013551  0.86471377  0.74813310  1
  La3+  La75  1  0.75024692  0.54203043  0.03306898  1
  La3+  La76  1  0.25034546  0.49629963  0.21646086  1
  La3+  La77  1  0.24984586  0.86955931  0.02364547  1
  La3+  La78  1  0.75013755  0.86482760  0.78372216  1
  La3+  La79  1  0.75017565  0.78904663  0.00443849  1
  La3+  La80  1  0.25034450  0.50152626  0.71645013  1
  La3+  La81  1  0.75044492  0.17833178  0.03021627  1
  La3+  La82  1  0.75026923  0.21050813  0.77193931  1
  La3+  La83  1  0.75019783  0.13185495  0.51965003  1
  Ru4+  Ru84  1  0.00241551  0.00160744  -0.00228166  1
  Ru4+  Ru85  1  -0.00051123  -0.00145282  0.25232918  1
  Ru4+  Ru86  1  -0.00062674  0.00542690  0.49752466  1
  Ru4+  Ru87  1  -0.00129978  0.00196818  0.75078769  1
  Ru4+  Ru88  1  0.00053467  0.33136420  0.00430877  1
  Ru4+  Ru89  1  0.00104545  0.33216371  0.24557443  1
  Ru4+  Ru90  1  0.00076757  0.33523621  0.50088837  1
  Ru4+  Ru91  1  0.00477183  0.33173294  0.74309321  1
  Ru4+  Ru92  1  -0.00113327  0.66816447  0.00083456  1
  Ru4+  Ru93  1  -0.00164317  0.66439679  0.24449342  1
  Ru4+  Ru94  1  0.00042920  0.66925749  0.50002994  1
  Ru4+  Ru95  1  -0.00313111  0.66786486  0.74896975  1
  Ru4+  Ru96  1  0.49788703  -0.00739028  0.00078134  1
  Ru4+  Ru97  1  0.49950989  0.00236060  0.24743938  1
  Ru4+  Ru98  1  0.49655799  -0.00346251  0.50147577  1
  Ru4+  Ru99  1  0.49978095  -0.00130748  0.74992770  1
  Ru4+  Ru100  1  0.49970262  0.33361456  0.00386819  1
  Ru4+  Ru101  1  0.49770780  0.33823428  0.24600305  1
  Ru4+  Ru102  1  0.50078167  0.33024364  0.50736372  1
  Ru4+  Ru103  1  0.49911616  0.33066044  0.74882556  1
  Ru4+  Ru104  1  0.49962883  0.65691410  -0.00097161  1
  Ru4+  Ru105  1  0.49875321  0.66405504  0.24927090  1
  Ru4+  Ru106  1  0.50328930  0.66033686  0.49846516  1
  Ru4+  Ru107  1  0.50048948  0.66559867  0.75023072  1
  Ru4+  Ru108  1  0.11275861  0.16754405  -0.00048321  1
  Ru4+  Ru109  1  0.11533739  0.16882043  0.24947193  1
  Ru4+  Ru110  1  0.11436650  0.16462880  0.49974365  1
  Ru4+  Ru111  1  0.11043982  0.16890663  0.75014909  1
  Ru4+  Ru112  1  0.11436860  0.49707312  -0.00133213  1
  Ru4+  Ru113  1  0.11125908  0.50006366  0.25085092  1
  Ru4+  Ru114  1  0.11359739  0.49914950  0.50004963  1
  Ru4+  Ru115  1  0.11194556  0.49833811  0.75001947  1
  Ru4+  Ru116  1  0.11065657  0.83409934  -0.00035131  1
  Ru4+  Ru117  1  0.11318466  0.83442608  0.24933389  1
  Ru4+  Ru118  1  0.11536047  0.83197768  0.50054823  1
  Ru4+  Ru119  1  0.11226161  0.83223674  0.74918256  1
  Ru4+  Ru120  1  0.61322626  0.17149509  0.00102354  1
  Ru4+  Ru121  1  0.61215607  0.16447251  0.25039168  1
  Ru4+  Ru122  1  0.61597761  0.16923249  0.50055119  1
  Ru4+  Ru123  1  0.61228441  0.16647462  0.74868424  1
  Ru4+  Ru124  1  0.61096434  0.49827772  0.00033086  1
  Ru4+  Ru125  1  0.61210219  0.50023313  0.24927394  1
  Ru4+  Ru126  1  0.61468831  0.49808553  0.49888382  1
  Ru4+  Ru127  1  0.61334653  0.49628310  0.74975135  1
  Ru4+  Ru128  1  0.61357929  0.83790644  -0.00010632  1
  Ru4+  Ru129  1  0.61458735  0.83364927  0.24978866  1
  Ru4+  Ru130  1  0.61343956  0.83105378  0.50063160  1
  Ru4+  Ru131  1  0.61011544  0.83417533  0.74967585  1
  Ru4+  Ru132  1  0.38595222  0.16785877  0.00053472  1
  Ru4+  Ru133  1  0.38252297  0.16488673  0.25128863  1
  Ru4+  Ru134  1  0.38610949  0.16446495  0.50048927  1
  Ru4+  Ru135  1  0.39002688  0.16743685  0.75033692  1
  Ru4+  Ru136  1  0.38579423  0.49866465  -0.00018410  1
  Ru4+  Ru137  1  0.38890316  0.50032758  0.25139737  1
  Ru4+  Ru138  1  0.38422581  0.50669060  0.50022633  1
  Ru4+  Ru139  1  0.38795028  0.50029026  0.75130063  1
  Ru4+  Ru140  1  0.38262011  0.83931249  -0.00212857  1
  Ru4+  Ru141  1  0.38555737  0.83544625  0.24896914  1
  Ru4+  Ru142  1  0.38280476  0.83426951  0.50130098  1
  Ru4+  Ru143  1  0.38908308  0.83562064  0.74991445  1
  Ru4+  Ru144  1  0.88899532  0.16984753  0.00124386  1
  Ru4+  Ru145  1  0.88834079  0.16706726  0.24932545  1
  Ru4+  Ru146  1  0.88853631  0.16440438  0.49912488  1
  Ru4+  Ru147  1  0.88502143  0.16203004  0.75005216  1
  Ru4+  Ru148  1  0.88858578  0.50289486  -0.00029245  1
  Ru4+  Ru149  1  0.88803715  0.50124160  0.24925513  1
  Ru4+  Ru150  1  0.88418862  0.50000985  0.49869857  1
  Ru4+  Ru151  1  0.88497415  0.49951245  0.75077318  1
  Ru4+  Ru152  1  0.88694036  0.82837198  -0.00117479  1
  Ru4+  Ru153  1  0.88682317  0.83520464  0.24879378  1
  Ru4+  Ru154  1  0.88489001  0.83044657  0.50089734  1
  Ru4+  Ru155  1  0.89042566  0.83380290  0.75035306  1
  Ru4+  Ru156  1  0.25022955  0.58650938  0.50634092  1
  Ru4+  Ru157  1  0.25003434  0.08264125  0.01508910  1
  Ru4+  Ru158  1  0.74981618  0.91345876  0.49656707  1
  Ru4+  Ru159  1  0.74981420  0.91735660  0.00311506  1
  Ru4+  Ru160  1  0.75001887  0.58794049  0.25723617  1
  Ru4+  Ru161  1  0.74967405  0.27675623  0.24882523  1
  Ru4+  Ru162  1  0.24973057  0.25373794  0.01793008  1
  Ru4+  Ru163  1  0.74982987  0.57839226  0.74137452  1
  Ru4+  Ru164  1  0.74984539  0.29272613  -0.01808565  1
  Ru4+  Ru165  1  0.75011927  0.41638975  -0.00523977  1
  Ru4+  Ru166  1  0.25021128  0.41503099  0.50704892  1
  Ru4+  Ru167  1  0.75036561  0.75102492  0.25074849  1
  Ru4+  Ru168  1  0.75002898  0.05940473  -0.00199575  1
  Ru4+  Ru169  1  0.74964574  0.41712552  0.25217900  1
  Ru4+  Ru170  1  0.25011028  0.75432717  0.24508161  1
  Ru4+  Ru171  1  0.74999851  0.07841971  0.74159176  1
  Ru4+  Ru172  1  0.74991797  0.27251757  0.49835116  1
  Ru4+  Ru173  1  0.25028000  0.30468773  0.75431815  1
  Ru4+  Ru174  1  0.24997151  0.57890397  0.00733730  1
  Ru4+  Ru175  1  0.24947204  0.73046159  0.01223543  1
  Ru4+  Ru176  1  0.75002577  0.73202669  0.74630316  1
  Ru4+  Ru177  1  0.24975655  0.04827207  0.74368681  1
  Ru4+  Ru178  1  0.25033887  0.72896620  0.73703748  1
  Ru4+  Ru179  1  0.24997501  0.24038608  0.49602365  1
  O2-  O180  1  0.16678505  0.08139464  0.00187388  1
  O2-  O181  1  0.16483422  0.08157568  0.24990671  1
  O2-  O182  1  0.16567510  0.08258633  0.49960404  1
  O2-  O183  1  0.16757391  0.08025101  0.75061981  1
  O2-  O184  1  0.16721867  0.41462619  -0.00084930  1
  O2-  O185  1  0.16540189  0.41522449  0.25030281  1
  O2-  O186  1  0.16653717  0.41447073  0.50110857  1
  O2-  O187  1  0.16958242  0.41389098  0.74887193  1
  O2-  O188  1  0.16659120  0.74530932  0.00073457  1
  O2-  O189  1  0.16852283  0.74699232  0.25093854  1
  O2-  O190  1  0.16592601  0.74876157  0.49934737  1
  O2-  O191  1  0.16756205  0.74671615  0.74887764  1
  O2-  O192  1  0.66505898  0.07827548  -0.00070214  1
  O2-  O193  1  0.66408507  0.07874905  0.25089385  1
  O2-  O194  1  0.66493223  0.07856062  0.49859767  1
  O2-  O195  1  0.66589715  0.07978177  0.75063179  1
  O2-  O196  1  0.66575702  0.41356237  0.00018380  1
  O2-  O197  1  0.66755143  0.41412401  0.24843216  1
  O2-  O198  1  0.66805288  0.41876145  0.50008394  1
  O2-  O199  1  0.66638654  0.41634039  0.75177263  1
  O2-  O200  1  0.66621714  0.74397588  -0.00007985  1
  O2-  O201  1  0.66757960  0.74697769  0.24996630  1
  O2-  O202  1  0.66560810  0.74860827  0.50065109  1
  O2-  O203  1  0.66602349  0.74569814  0.75059753  1
  O2-  O204  1  0.33176984  0.25216773  -0.00078043  1
  O2-  O205  1  0.33341816  0.25080245  0.25161511  1
  O2-  O206  1  0.33260277  0.25323373  0.50155983  1
  O2-  O207  1  0.33397906  0.25591528  0.74991413  1
  O2-  O208  1  0.33290988  0.58645779  0.00069522  1
  O2-  O209  1  0.33204362  0.58580492  0.24960858  1
  O2-  O210  1  0.33165174  0.58419217  0.49931825  1
  O2-  O211  1  0.33315310  0.58509540  0.74910240  1
  O2-  O212  1  0.33508573  0.92126736  0.00012647  1
  O2-  O213  1  0.33283873  0.91769983  0.25061964  1
  O2-  O214  1  0.33374034  0.91820020  0.50055844  1
  O2-  O215  1  0.33504120  0.92025872  0.74974754  1
  O2-  O216  1  0.83448341  0.25342082  0.00074232  1
  O2-  O217  1  0.83365716  0.25298715  0.25050278  1
  O2-  O218  1  0.83278973  0.25312822  0.50047718  1
  O2-  O219  1  0.83564553  0.25493585  0.74778513  1
  O2-  O220  1  0.83436473  0.58826336  -0.00107393  1
  O2-  O221  1  0.83118522  0.58604934  0.24904173  1
  O2-  O222  1  0.83263462  0.58282409  0.50170482  1
  O2-  O223  1  0.83412525  0.58590769  0.75128483  1
  O2-  O224  1  0.83232031  0.92118486  -0.00122202  1
  O2-  O225  1  0.83298619  0.91767563  0.25354745  1
  O2-  O226  1  0.83335589  0.91959603  0.49857122  1
  O2-  O227  1  0.83398323  0.92137123  0.74935315  1
  O2-  O228  1  0.16939438  0.25295266  0.00007644  1
  O2-  O229  1  0.16572210  0.25002122  0.25156211  1
  O2-  O230  1  0.16690543  0.25347317  0.50119093  1
  O2-  O231  1  0.16593113  0.25520933  0.74957532  1
  O2-  O232  1  0.16608632  0.58661639  0.00085163  1
  O2-  O233  1  0.16689411  0.58666508  0.25043119  1
  O2-  O234  1  0.16828798  0.58501308  0.49978749  1
  O2-  O235  1  0.16734929  0.58595546  0.74929369  1
  O2-  O236  1  0.16502896  0.92112991  0.00192613  1
  O2-  O237  1  0.16537459  0.91857673  0.24987312  1
  O2-  O238  1  0.16871434  0.91752375  0.49789603  1
  O2-  O239  1  0.16520234  0.91967099  0.75070342  1
  O2-  O240  1  0.66562506  0.25425144  0.00059083  1
  O2-  O241  1  0.66905228  0.25404903  0.24791791  1
  O2-  O242  1  0.66773731  0.25132719  0.50021807  1
  O2-  O243  1  0.66586267  0.25323393  0.75156620  1
  O2-  O244  1  0.66596999  0.58976424  -0.00013786  1
  O2-  O245  1  0.66705308  0.58693365  0.24877559  1
  O2-  O246  1  0.66557075  0.58445363  0.50075198  1
  O2-  O247  1  0.66593302  0.58663718  0.75099159  1
  O2-  O248  1  0.66591520  0.92045602  -0.00110105  1
  O2-  O249  1  0.66563362  0.91925632  0.25178377  1
  O2-  O250  1  0.66702883  0.92060539  0.49857407  1
  O2-  O251  1  0.66554953  0.92148394  0.74983213  1
  O2-  O252  1  0.33234052  0.08086825  0.00018748  1
  O2-  O253  1  0.33265798  0.08089406  0.25062072  1
  O2-  O254  1  0.33359800  0.08147775  0.50080485  1
  O2-  O255  1  0.33506698  0.07870097  0.74998299  1
  O2-  O256  1  0.33461978  0.41444085  -0.00113621  1
  O2-  O257  1  0.33294947  0.41600410  0.24960969  1
  O2-  O258  1  0.33268224  0.41386261  0.50084424  1
  O2-  O259  1  0.33055561  0.41257523  0.74919550  1
  O2-  O260  1  0.33196613  0.74564436  0.00159478  1
  O2-  O261  1  0.33187067  0.74702171  0.25094489  1
  O2-  O262  1  0.33128285  0.74955335  0.49884075  1
  O2-  O263  1  0.33299674  0.74603827  0.74947134  1
  O2-  O264  1  0.83389145  0.07829547  -0.00107914  1
  O2-  O265  1  0.83373933  0.07957968  0.25237842  1
  O2-  O266  1  0.83568344  0.07904859  0.49872659  1
  O2-  O267  1  0.83357489  0.07990297  0.75011390  1
  O2-  O268  1  0.83371409  0.41272230  0.00109131  1
  O2-  O269  1  0.83355395  0.41430207  0.24989976  1
  O2-  O270  1  0.83447554  0.41569949  0.50018532  1
  O2-  O271  1  0.83256521  0.41472851  0.74833682  1
  O2-  O272  1  0.83426147  0.74403141  -0.00085933  1
  O2-  O273  1  0.83114222  0.74749086  0.25020041  1
  O2-  O274  1  0.83262800  0.74927695  0.50120782  1
  O2-  O275  1  0.83372826  0.74551950  0.75066196  1
  O2-  O276  1  0.45113763  0.10214532  0.51261154  1
  O2-  O277  1  0.04231927  0.89221276  0.46995880  1
  O2-  O278  1  0.45541200  0.76525080  0.76429635  1
  O2-  O279  1  0.95084142  0.42636398  0.51492346  1
  O2-  O280  1  0.95425684  0.43310373  0.01207959  1
  O2-  O281  1  0.04623516  0.57335159  0.76667433  1
  O2-  O282  1  0.54509261  0.56583765  0.01670143  1
  O2-  O283  1  0.04545923  0.56724849  0.01277908  1
  O2-  O284  1  0.95298668  0.24065079  0.73161432  1
  O2-  O285  1  0.95162180  0.23369654  0.76998891  1
  O2-  O286  1  0.04522516  0.90003989  0.76297289  1
  O2-  O287  1  0.46597960  0.77808507  0.49673090  1
  O2-  O288  1  0.54218552  0.22120751  0.21534866  1
  O2-  O289  1  0.94576696  0.91494868  0.02282340  1
  O2-  O290  1  0.44624684  0.23674148  0.76839834  1
  O2-  O291  1  0.45090827  0.43246222  0.48096231  1
  O2-  O292  1  0.45392595  0.90648464  0.48883873  1
  O2-  O293  1  0.46189346  0.77577199  0.48565211  1
  O2-  O294  1  0.95103702  0.90250402  0.48692730  1
  O2-  O295  1  0.45728424  0.77161631  0.00697745  1
  O2-  O296  1  0.96573067  0.11517663  0.24388235  1
  O2-  O297  1  0.04829010  0.42505335  0.51291276  1
  O2-  O298  1  0.95480884  0.09408581  0.51127728  1
  O2-  O299  1  0.44440561  0.24675271  0.22824477  1
  O2-  O300  1  0.54954562  0.09806198  0.98602287  1
  O2-  O301  1  0.04269218  0.43753771  0.74232232  1
  O2-  O302  1  0.04546285  0.56389721  0.53229141  1
  O2-  O303  1  0.02806560  0.11618034  0.76345287  1
  O2-  O304  1  0.53470956  0.46007853  0.47568104  1
  O2-  O305  1  0.02911948  0.11630013  0.74417419  1
  O2-  O306  1  0.96128888  0.55290450  0.49004520  1
  O2-  O307  1  0.44796842  0.42595381  0.51891775  1
  O2-  O308  1  0.04562617  0.56865567  0.26373837  1
  O2-  O309  1  0.54659596  0.57330301  0.48725458  1
  O2-  O310  1  0.45724613  0.77172624  1.00724564  1
  O2-  O311  1  0.53989194  0.22250436  0.76761502  1
  O2-  O312  1  0.95975392  0.23268835  0.52585177  1
  O2-  O313  1  0.55307264  0.76476121  0.01479001  1
  O2-  O314  1  0.53726290  0.23047392  0.53063590  1
  O2-  O315  1  0.54829205  0.09553129  0.47778906  1
  O2-  O316  1  0.54534880  0.89970321  0.23703757  1
  O2-  O317  1  0.54442060  0.56670051  0.73719287  1
  O2-  O318  1  0.05131969  0.42610720  0.76390555  1
  O2-  O319  1  0.54774816  0.09655417  0.51694563  1
  O2-  O320  1  0.94783294  0.42737593  0.70710527  1
  O2-  O321  1  0.53840162  0.21657826  0.75523954  1
  O2-  O322  1  0.45571991  0.43436522  0.01209101  1
  O2-  O323  1  0.05138916  0.24481068  0.76526717  1
  O2-  O324  1  0.56900375  0.39277906  0.57102246  1
  O2-  O325  1  0.43430189  0.74197332  0.27820665  1
  O2-  O326  1  0.07467902  0.93673382  0.54401354  1
  O2-  O327  1  0.94260822  0.41382758  0.69874195  1
  O2-  O328  1  0.06362294  0.73526826  0.21912842  1
  O2-  O329  1  0.56375012  0.26436815  0.03179742  1
  O2-  O330  1  0.93453890  0.26070813  0.02793502  1
  O2-  O331  1  0.06437715  0.73566069  0.81565425  1
  O2-  O332  1  0.43751725  0.07156667  0.21744251  1
  O2-  O333  1  0.06345276  0.73674646  0.68406941  1
  O2-  O334  1  0.56179155  0.07164139  0.96695666  1
  O2-  O335  1  0.57042051  0.26339846  0.45819248  1
  O2-  O336  1  0.44285631  0.24592852  0.22725494  1
  O2-  O337  1  0.56137754  0.73534555  0.03351057  1
  O2-  O338  1  0.43460121  0.59109205  0.27647015  1
  O2-  O339  1  0.58058923  0.28735300  0.69413568  1
  O2-  O340  1  0.07081212  0.61095448  0.44765849  1
  O2-  O341  1  0.08350847  0.05432729  0.67995646  1
  O2-  O342  1  0.57954677  0.39555876  0.44111608  1
  O2-  O343  1  0.93701414  0.74133869  0.43489588  1
  O2-  O344  1  0.92612430  0.61001470  0.45885337  1
  O2-  O345  1  0.06422714  0.40837826  0.97123103  1
  O2-  O346  1  0.93564031  0.92335046  0.22399767  1
  O2-  O347  1  0.43618066  0.59278978  0.96556053  1
  O2-  O348  1  0.43280189  0.07407292  0.94832466  1
  O2-  O349  1  0.92444624  0.40180611  0.82251024  1
  O2-  O350  1  0.43784156  0.40272662  0.78396200  1
  O2-  O351  1  0.56142433  0.40881576  0.72083579  1
  O2-  O352  1  0.06324363  0.26543737  0.21885948  1
  O2-  O353  1  0.07522868  0.04580638  0.82945356  1
  O2-  O354  1  0.93212816  0.27270434  0.45411554  1
  O2-  O355  1  0.93337279  0.07575998  0.04722362  1
  O2-  O356  1  0.43506509  0.06984936  0.05704501  1
  O2-  O357  1  0.57628275  0.26989814  0.29617697  1
  O2-  O358  1  0.93327184  0.07348937  0.95339052  1
  O2-  O359  1  0.94595242  0.91330030  0.02081604  1
  O2-  O360  1  0.43463569  0.25932036  0.02531417  1
  O2-  O361  1  0.93455541  0.59192175  0.22221510  1
  O2-  O362  1  0.43296113  0.59112173  0.52969315  1
  O2-  O363  1  0.43646981  0.92636221  0.21580760  1
  O2-  O364  1  0.41466329  0.71533811  0.54825603  1
  O2-  O365  1  0.42573565  0.72354110  0.94954793  1
  O2-  O366  1  0.06791070  0.39905217  0.71406543  1
  O2-  O367  1  0.92468264  0.06190676  0.21530281  1
  O2-  O368  1  0.43500247  0.40833201  0.27702574  1
  O2-  O369  1  0.06492991  0.25744105  0.97331381  1
  O2-  O370  1  0.93550894  0.74120458  0.22333362  1
  O2-  O371  1  0.93740486  0.73565649  0.56517310  1
  O2-  O372  1  0.24991286  0.66040283  0.92010250  1
  O2-  O373  1  0.24982753  0.66713864  0.15576573  1
  O2-  O374  1  0.74997329  -0.00995836  0.90437070  1
  O2-  O375  1  0.24994516  0.33346671  0.33102056  1
  O2-  O376  1  0.24990883  0.66573199  0.59496554  1
  O2-  O377  1  0.74994989  0.66286838  0.64859225  1
  O2-  O378  1  0.25002791  0.65739033  0.82371342  1
  O2-  O379  1  0.74978432  0.66724933  0.39294529  1
  O2-  O380  1  0.24988598  0.00013478  0.41860349  1
  O2-  O381  1  0.74988396  -0.01318664  0.66677642  1
  O2-  O382  1  0.74989310  0.00194765  0.18527681  1
  O2-  O383  1  0.25013252  -0.00121316  0.93159357  1
  O2-  O384  1  0.74968855  0.33145619  0.84978631  1
  O2-  O385  1  0.75079112  0.33383171  0.59727904  1
  O2-  O386  1  0.74995155  0.00228673  0.57463111  1
  O2-  O387  1  0.74987456  -0.00668245  0.09714849  1
  O2-  O388  1  0.75004942  0.66388413  0.85017759  1
  O2-  O389  1  0.24989003  0.33343018  0.42096878  1
  O2-  O390  1  0.25053545  -0.00908007  0.64470386  1
  O2-  O391  1  0.24971354  0.33234287  0.14850201  1
  O2-  O392  1  0.75046568  0.33593992  0.39871074  1
  O2-  O393  1  0.24983069  -0.00003692  0.33167347  1
  O2-  O394  1  0.75006426  -0.01162480  0.81429166  1
  O2-  O395  1  0.25023338  -0.01585588  0.83779313  1
  O2-  O396  1  0.24981099  0.16489901  0.85721394  1
  O2-  O397  1  0.75006778  0.82910970  0.56502973  1
  O2-  O398  1  0.74999569  0.15933598  0.89409494  1
  O2-  O399  1  0.24985645  0.83097234  0.16428668  1
  O2-  O400  1  0.24994854  0.82889452  0.88754113  1
  O2-  O401  1  0.74992732  0.82835876  0.65471185  1
  O2-  O402  1  0.24996713  0.16576907  0.14709966  1
  O2-  O403  1  0.75003972  0.49955163  0.33947416  1
  O2-  O404  1  0.74992044  0.16297556  0.64606344  1
  O2-  O405  1  0.24994896  0.17090989  0.41511013  1
  O2-  O406  1  0.74999190  0.49726607  0.90379945  1
  O2-  O407  1  0.25013964  0.16845741  0.94205846  1
  O2-  O408  1  0.24997299  0.49389980  0.93282399  1
  O2-  O409  1  0.24978366  0.50044852  0.43262070  1
  O2-  O410  1  0.24993610  0.16652409  0.60512397  1
  O2-  O411  1  0.74990982  0.82783266  0.15970144  1
  O2-  O412  1  0.75012979  0.49400675  0.81801187  1
  O2-  O413  1  0.75016636  0.17136999  0.15397675  1
  O2-  O414  1  0.75002887  0.50429550  0.66265519  1
  O2-  O415  1  0.75000838  0.49833926  0.16452606  1
  O2-  O416  1  0.24992478  0.50053560  0.34653896  1
  O2-  O417  1  0.75001076  0.17523574  0.39402474  1
  O2-  O418  1  0.24991440  0.50110869  0.08445054  1
  O2-  O419  1  0.24986402  0.50154988  0.84724592  1
  O2-  O420  1  0.52822149  0.66740730  0.87564929  1
  O2-  O421  1  0.95883236  -0.00241133  0.62885942  1
  O2-  O422  1  0.53864871  0.67034653  0.62284878  1
  O2-  O423  1  0.02914729  -0.00068625  0.62631618  1
  O2-  O424  1  0.47713959  0.34150123  0.12710788  1
  O2-  O425  1  0.52864337  0.00012287  0.12159386  1
  O2-  O426  1  0.52346889  0.33651701  0.36966194  1
  O2-  O427  1  0.47091028  0.33282665  0.62463761  1
  O2-  O428  1  0.97439488  0.33695955  0.12999312  1
  O2-  O429  1  0.03004774  0.33346368  0.87226611  1
  O2-  O430  1  0.97438087  -0.00521201  0.86902966  1
  O2-  O431  1  0.46187110  -0.00197171  0.62832108  1
  O2-  O432  1  0.96941045  0.32468755  0.88804480  1
  O2-  O433  1  0.53798548  0.66995964  0.37226438  1
  O2-  O434  1  0.03404954  0.00044551  0.12410303  1
  O2-  O435  1  0.47235198  0.66496161  0.12510006  1
  O2-  O436  1  0.97652501  -0.00336065  0.12550362  1
  O2-  O437  1  0.46719672  0.66552193  0.38427281  1
  O2-  O438  1  0.46625296  0.32717694  0.37960113  1
  O2-  O439  1  0.47483878  -0.00628892  0.86823162  1
  O2-  O440  1  0.97593134  0.66575622  0.11627179  1
  O2-  O441  1  0.47252442  0.00104071  0.37421672  1
  O2-  O442  1  0.53825276  -0.00286635  0.62839560  1
  O2-  O443  1  0.46671846  0.66528409  0.63664281  1
