# generated using pymatgen
data_La7(Ru4O11)2
_symmetry_space_group_name_H-M   'P 1'
_cell_length_a   23.99049734
_cell_length_b   16.83052423
_cell_length_c   15.42652316
_cell_angle_alpha   90.00035886
_cell_angle_beta   89.99891746
_cell_angle_gamma   90.00061057
_symmetry_Int_Tables_number   1
_chemical_formula_structural   La7(Ru4O11)2
_chemical_formula_sum   'La84 Ru96 O264'
_cell_volume   6228.80808669
_cell_formula_units_Z   12
loop_
 _symmetry_equiv_pos_site_id
 _symmetry_equiv_pos_as_xyz
  1  'x, y, z'
loop_
 _atom_type_symbol
 _atom_type_oxidation_number
  La3+  3.0
  Ru4+  4.0
  O2-  -2.0
loop_
 _atom_site_type_symbol
 _atom_site_label
 _atom_site_symmetry_multiplicity
 _atom_site_fract_x
 _atom_site_fract_y
 _atom_site_fract_z
 _atom_site_occupancy
  La3+  La0  1  0.13750281  -0.00059859  0.12540324  1
  La3+  La1  1  0.13996847  0.00190309  0.37846419  1
  La3+  La2  1  0.13923750  0.00346003  0.62437457  1
  La3+  La3  1  0.13866298  0.00077065  0.87238710  1
  La3+  La4  1  0.13759103  0.33499663  0.12439332  1
  La3+  La5  1  0.14026768  0.33160432  0.37780198  1
  La3+  La6  1  0.14085840  0.33217413  0.62533141  1
  La3+  La7  1  0.13983740  0.33764872  0.87389134  1
  La3+  La8  1  0.13922458  0.66564230  0.12301371  1
  La3+  La9  1  0.13990539  0.66630247  0.37797277  1
  La3+  La10  1  0.14207975  0.66423258  0.62508899  1
  La3+  La11  1  0.14149387  0.66479925  0.87578672  1
  La3+  La12  1  0.63917106  0.00062768  0.12465217  1
  La3+  La13  1  0.63692940  0.00048444  0.37426387  1
  La3+  La14  1  0.63665897  0.00022271  0.62452830  1
  La3+  La15  1  0.63754351  -0.00056568  0.87474510  1
  La3+  La16  1  0.63634211  0.33417934  0.12801574  1
  La3+  La17  1  0.64016132  0.33533298  0.37720085  1
  La3+  La18  1  0.63998208  0.33556338  0.62406690  1
  La3+  La19  1  0.63717031  0.33341817  0.87177508  1
  La3+  La20  1  0.63942678  0.66766845  0.13012560  1
  La3+  La21  1  0.64122372  0.66536551  0.37063343  1
  La3+  La22  1  0.64055655  0.66550832  0.62988168  1
  La3+  La23  1  0.63891165  0.66614915  0.87298808  1
  La3+  La24  1  0.36289721  -0.00003276  0.12563113  1
  La3+  La25  1  0.36082881  0.00061202  0.37670998  1
  La3+  La26  1  0.36190688  0.00233171  0.62421057  1
  La3+  La27  1  0.36282127  -0.00016011  0.87440169  1
  La3+  La28  1  0.36273730  0.33364967  0.12388176  1
  La3+  La29  1  0.36090969  0.33216361  0.37727200  1
  La3+  La30  1  0.36008845  0.33362316  0.62747036  1
  La3+  La31  1  0.36240695  0.33675295  0.87217462  1
  La3+  La32  1  0.36143787  0.66695488  0.12246992  1
  La3+  La33  1  0.36033657  0.66565274  0.37765968  1
  La3+  La34  1  0.35844615  0.66562861  0.62560158  1
  La3+  La35  1  0.35783308  0.66569858  0.87494595  1
  La3+  La36  1  0.86055895  -0.00073838  0.12274621  1
  La3+  La37  1  0.86014303  0.00217252  0.37384961  1
  La3+  La38  1  0.86245303  0.00173258  0.62704397  1
  La3+  La39  1  0.86197523  0.00002158  0.87469068  1
  La3+  La40  1  0.86091918  0.33281071  0.12653273  1
  La3+  La41  1  0.86073194  0.33653720  0.37568677  1
  La3+  La42  1  0.86063539  0.33525297  0.62429016  1
  La3+  La43  1  0.86146703  0.33345886  0.87291256  1
  La3+  La44  1  0.86101338  0.66734313  0.12798429  1
  La3+  La45  1  0.85861039  0.66541724  0.37141542  1
  La3+  La46  1  0.85917854  0.66547741  0.62733972  1
  La3+  La47  1  0.85927097  0.66900520  0.87016812  1
  La3+  La48  1  -0.00116741  0.17481737  0.37223552  1
  La3+  La49  1  -0.00566420  0.83732914  0.88141891  1
  La3+  La50  1  -0.00045247  0.83218556  0.38893403  1
  La3+  La51  1  0.50093152  0.83559034  0.13334797  1
  La3+  La52  1  0.49937727  0.49907725  0.63639498  1
  La3+  La53  1  0.00169843  0.83020762  0.61797456  1
  La3+  La54  1  0.49912387  0.83536814  0.38543055  1
  La3+  La55  1  -0.00605781  0.82394441  0.11751368  1
  La3+  La56  1  0.00453839  0.16720923  0.38468063  1
  La3+  La57  1  0.00214887  0.83488788  0.36726662  1
  La3+  La58  1  0.00146210  0.83591655  0.86185262  1
  La3+  La59  1  0.49964448  0.16748267  0.13374441  1
  La3+  La60  1  0.00139182  0.82750709  0.13658753  1
  La3+  La61  1  0.49964479  0.16532563  0.88234621  1
  La3+  La62  1  0.49829673  0.83584632  0.63291532  1
  La3+  La63  1  0.49999405  0.16698141  0.38710203  1
  La3+  La64  1  -0.00229849  0.16968649  0.87823007  1
  La3+  La65  1  0.00099793  0.16577728  0.85648063  1
  La3+  La66  1  0.00060932  0.17095202  0.13699473  1
  La3+  La67  1  0.49961836  0.50491866  0.13803603  1
  La3+  La68  1  0.49934346  0.16626328  0.36525129  1
  La3+  La69  1  0.00316893  0.50458782  0.37216360  1
  La3+  La70  1  -0.00270780  0.16303565  0.11721543  1
  La3+  La71  1  0.00131815  0.82757622  0.63437741  1
  La3+  La72  1  0.25019254  0.16672642  0.74118529  1
  La3+  La73  1  0.25003916  0.49910773  0.24737165  1
  La3+  La74  1  0.75006004  0.83169523  0.73563743  1
  La3+  La75  1  0.74978148  0.50022925  0.72583674  1
  La3+  La76  1  0.24993850  0.79583175  0.51803278  1
  La3+  La77  1  0.24985907  0.16715312  0.00490665  1
  La3+  La78  1  0.25008834  0.79635616  0.77738692  1
  La3+  La79  1  0.75017300  0.50494874  0.08088220  1
  La3+  La80  1  0.74989705  0.13668712  0.25143457  1
  La3+  La81  1  0.74978042  0.12498101  -0.02540743  1
  La3+  La82  1  0.25009708  0.80508604  0.24660365  1
  La3+  La83  1  0.75028919  0.82757765  0.48770903  1
  Ru4+  Ru84  1  0.00212442  0.00568662  -0.00235174  1
  Ru4+  Ru85  1  -0.00033585  0.00035305  0.25284238  1
  Ru4+  Ru86  1  0.00655711  -0.00219594  0.49681973  1
  Ru4+  Ru87  1  0.00272655  0.00023496  0.74745644  1
  Ru4+  Ru88  1  0.00202555  0.33713804  0.00598598  1
  Ru4+  Ru89  1  -0.00009093  0.33327448  0.24933771  1
  Ru4+  Ru90  1  -0.00221441  0.33283919  0.50565335  1
  Ru4+  Ru91  1  -0.00094190  0.33333657  0.74209265  1
  Ru4+  Ru92  1  -0.00231969  0.65888926  -0.00285204  1
  Ru4+  Ru93  1  0.00028768  0.66188095  0.25122235  1
  Ru4+  Ru94  1  0.00082992  0.66419256  0.50040976  1
  Ru4+  Ru95  1  0.00222630  0.66099700  0.75273186  1
  Ru4+  Ru96  1  0.49905891  -0.00411411  -0.00080446  1
  Ru4+  Ru97  1  0.50027812  0.00196335  0.25025529  1
  Ru4+  Ru98  1  0.50034379  0.00143448  0.50115269  1
  Ru4+  Ru99  1  0.49840564  0.00233749  0.74636267  1
  Ru4+  Ru100  1  0.49917535  0.31761214  -0.00357080  1
  Ru4+  Ru101  1  0.50229633  0.33521927  0.25153548  1
  Ru4+  Ru102  1  0.49969553  0.33644888  0.50153929  1
  Ru4+  Ru103  1  0.49979157  0.33361159  0.74297311  1
  Ru4+  Ru104  1  0.49923118  0.66851828  -0.00110273  1
  Ru4+  Ru105  1  0.50110757  0.66524418  0.24909274  1
  Ru4+  Ru106  1  0.49968872  0.66567699  0.50005459  1
  Ru4+  Ru107  1  0.50015646  0.66637208  0.74945496  1
  Ru4+  Ru108  1  0.11338654  0.16660784  -0.00042868  1
  Ru4+  Ru109  1  0.11457367  0.17098376  0.25007687  1
  Ru4+  Ru110  1  0.11463777  0.16663425  0.50093186  1
  Ru4+  Ru111  1  0.11280993  0.16432321  0.74873839  1
  Ru4+  Ru112  1  0.11519063  0.49844426  0.00039925  1
  Ru4+  Ru113  1  0.10999345  0.49965894  0.24959598  1
  Ru4+  Ru114  1  0.11308506  0.50425382  0.50086398  1
  Ru4+  Ru115  1  0.11263107  0.50339087  0.75043583  1
  Ru4+  Ru116  1  0.11766360  0.83035029  0.00024042  1
  Ru4+  Ru117  1  0.11368060  0.83046297  0.24970233  1
  Ru4+  Ru118  1  0.11008067  0.83249664  0.50032347  1
  Ru4+  Ru119  1  0.11371751  0.83055392  0.74980847  1
  Ru4+  Ru120  1  0.60976364  0.16618863  -0.00013406  1
  Ru4+  Ru121  1  0.60824595  0.16604330  0.25084998  1
  Ru4+  Ru122  1  0.61097139  0.16638115  0.50005206  1
  Ru4+  Ru123  1  0.61094470  0.16966889  0.74912119  1
  Ru4+  Ru124  1  0.61789508  0.50422509  -0.00107255  1
  Ru4+  Ru125  1  0.61368327  0.49890762  0.25123644  1
  Ru4+  Ru126  1  0.61351208  0.49589331  0.49863404  1
  Ru4+  Ru127  1  0.61141886  0.49981565  0.75020163  1
  Ru4+  Ru128  1  0.61159692  0.83283395  -0.00014845  1
  Ru4+  Ru129  1  0.61331475  0.83087910  0.24988400  1
  Ru4+  Ru130  1  0.61116868  0.83243029  0.49995269  1
  Ru4+  Ru131  1  0.61144762  0.83019630  0.75183753  1
  Ru4+  Ru132  1  0.38977808  0.16732836  -0.00010669  1
  Ru4+  Ru133  1  0.38856205  0.16874552  0.25063313  1
  Ru4+  Ru134  1  0.38546278  0.16735907  0.49956236  1
  Ru4+  Ru135  1  0.39076467  0.16815990  0.74853856  1
  Ru4+  Ru136  1  0.37812956  0.50302226  -0.00065302  1
  Ru4+  Ru137  1  0.38960982  0.50188030  0.25074680  1
  Ru4+  Ru138  1  0.38620672  0.50024666  0.49916757  1
  Ru4+  Ru139  1  0.38618406  0.49895232  0.75104259  1
  Ru4+  Ru140  1  0.38803310  0.83200225  -0.00028261  1
  Ru4+  Ru141  1  0.38940509  0.83480226  0.24942669  1
  Ru4+  Ru142  1  0.38812726  0.83220597  0.50009186  1
  Ru4+  Ru143  1  0.38831240  0.83142561  0.74938592  1
  Ru4+  Ru144  1  0.88712117  0.16613788  0.00032382  1
  Ru4+  Ru145  1  0.88806739  0.16858956  0.25116962  1
  Ru4+  Ru146  1  0.88304889  0.16872829  0.50128837  1
  Ru4+  Ru147  1  0.88601508  0.16922752  0.74938644  1
  Ru4+  Ru148  1  0.88993725  0.50342561  0.00079448  1
  Ru4+  Ru149  1  0.88471429  0.50085243  0.24954056  1
  Ru4+  Ru150  1  0.88709418  0.49571213  0.49995854  1
  Ru4+  Ru151  1  0.88652274  0.49998425  0.74880458  1
  Ru4+  Ru152  1  0.88274663  0.82891359  -0.00144383  1
  Ru4+  Ru153  1  0.88323502  0.83156728  0.25102721  1
  Ru4+  Ru154  1  0.88784903  0.83039919  0.50058096  1
  Ru4+  Ru155  1  0.88489581  0.83325205  0.74935983  1
  Ru4+  Ru156  1  0.25019093  0.29768398  -0.02501246  1
  Ru4+  Ru157  1  0.74963228  0.25343917  0.01685022  1
  Ru4+  Ru158  1  0.74961543  0.24702798  0.50316367  1
  Ru4+  Ru159  1  0.75004211  0.38710787  0.00858625  1
  Ru4+  Ru160  1  0.25008036  0.36762931  0.27718832  1
  Ru4+  Ru161  1  0.74989830  0.92256494  0.00984616  1
  Ru4+  Ru162  1  0.25025722  0.90324012  0.00110178  1
  Ru4+  Ru163  1  0.74949379  0.27627481  0.25492634  1
  Ru4+  Ru164  1  0.25023149  0.03422966  0.01479228  1
  Ru4+  Ru165  1  0.24995934  0.93963080  0.75030873  1
  Ru4+  Ru166  1  0.75019074  0.61170263  -0.01676048  1
  Ru4+  Ru167  1  0.25012737  0.42401328  0.50525776  1
  Ru4+  Ru168  1  0.74934697  0.09490449  0.50082033  1
  Ru4+  Ru169  1  0.74964607  0.91068393  0.25253305  1
  Ru4+  Ru170  1  0.25019188  0.94547269  0.25028985  1
  Ru4+  Ru171  1  0.74981379  0.69612946  0.49830897  1
  Ru4+  Ru172  1  0.25008511  0.63095383  0.22807345  1
  Ru4+  Ru173  1  0.24990737  0.94113463  0.50176907  1
  Ru4+  Ru174  1  0.25032031  0.08809266  0.24883418  1
  Ru4+  Ru175  1  0.74992289  0.75309724  0.00871901  1
  Ru4+  Ru176  1  0.74950115  0.24442557  0.74248590  1
  Ru4+  Ru177  1  0.75011250  0.09025442  0.75091816  1
  Ru4+  Ru178  1  0.74992940  0.57243255  0.50334304  1
  Ru4+  Ru179  1  0.75015489  0.95991415  0.47596550  1
  O2-  O180  1  0.16539728  0.07823027  0.00022661  1
  O2-  O181  1  0.16757812  0.07887738  0.25007300  1
  O2-  O182  1  0.16712604  0.08164863  0.49911016  1
  O2-  O183  1  0.16942384  0.08178650  0.75201231  1
  O2-  O184  1  0.16705034  0.41532154  -0.00104370  1
  O2-  O185  1  0.16574085  0.41255242  0.25074032  1
  O2-  O186  1  0.16633210  0.41368576  0.49977654  1
  O2-  O187  1  0.16558864  0.41503795  0.75020420  1
  O2-  O188  1  0.16692698  0.74869941  0.00021559  1
  O2-  O189  1  0.16664768  0.74596585  0.25007185  1
  O2-  O190  1  0.16349934  0.74584116  0.49981543  1
  O2-  O191  1  0.16601565  0.74625506  0.74943850  1
  O2-  O192  1  0.66395660  0.07746557  -0.00019507  1
  O2-  O193  1  0.66621847  0.07668633  0.25020319  1
  O2-  O194  1  0.66840655  0.08029701  0.49925611  1
  O2-  O195  1  0.66600473  0.08193956  0.75107050  1
  O2-  O196  1  0.66674524  0.41330179  0.00058768  1
  O2-  O197  1  0.66819661  0.41665715  0.24833304  1
  O2-  O198  1  0.66787646  0.41592521  0.50016298  1
  O2-  O199  1  0.66578404  0.41486071  0.75144424  1
  O2-  O200  1  0.66610965  0.74882214  -0.00004878  1
  O2-  O201  1  0.66464030  0.74982928  0.25010459  1
  O2-  O202  1  0.66559447  0.74605809  0.49931980  1
  O2-  O203  1  0.66884771  0.74914114  0.74952048  1
  O2-  O204  1  0.33300643  0.25433753  -0.00054788  1
  O2-  O205  1  0.33438087  0.25258134  0.25002330  1
  O2-  O206  1  0.33611466  0.25017176  0.49976468  1
  O2-  O207  1  0.33044117  0.25111396  0.75149231  1
  O2-  O208  1  0.33482633  0.58675627  0.00151338  1
  O2-  O209  1  0.33265679  0.58833130  0.24901251  1
  O2-  O210  1  0.33620441  0.58357430  0.49975475  1
  O2-  O211  1  0.33485529  0.58391050  0.75080966  1
  O2-  O212  1  0.33324674  0.92020874  0.00054265  1
  O2-  O213  1  0.33299066  0.91998023  0.24935700  1
  O2-  O214  1  0.33246723  0.92028295  0.50108639  1
  O2-  O215  1  0.33400567  0.92074715  0.75135649  1
  O2-  O216  1  0.83290425  0.25372742  -0.00067998  1
  O2-  O217  1  0.83272553  0.25334452  0.25075271  1
  O2-  O218  1  0.83145086  0.25252845  0.50002840  1
  O2-  O219  1  0.83318871  0.25159298  0.75082550  1
  O2-  O220  1  0.83251396  0.58625259  0.00045288  1
  O2-  O221  1  0.83556156  0.58244484  0.24975015  1
  O2-  O222  1  0.83375563  0.58556626  0.50014486  1
  O2-  O223  1  0.83317070  0.58434525  0.75183863  1
  O2-  O224  1  0.83214213  0.92045096  -0.00144873  1
  O2-  O225  1  0.83155568  0.91973784  0.24879841  1
  O2-  O226  1  0.83294306  0.92254208  0.50043044  1
  O2-  O227  1  0.83317159  0.92058432  0.75140427  1
  O2-  O228  1  0.16664327  0.25452866  -0.00020832  1
  O2-  O229  1  0.16585559  0.25242670  0.25076445  1
  O2-  O230  1  0.16437486  0.25092917  0.49946366  1
  O2-  O231  1  0.16964125  0.25202082  0.75043045  1
  O2-  O232  1  0.16405508  0.58354805  0.00059620  1
  O2-  O233  1  0.16588418  0.58778004  0.25017411  1
  O2-  O234  1  0.16454812  0.58476413  0.50017696  1
  O2-  O235  1  0.16589130  0.58418078  0.75000670  1
  O2-  O236  1  0.16773038  0.91956209  0.00084238  1
  O2-  O237  1  0.16672766  0.92116583  0.25034230  1
  O2-  O238  1  0.16697168  0.92108005  0.50011892  1
  O2-  O239  1  0.16665946  0.92085879  0.75069284  1
  O2-  O240  1  0.66625255  0.25444774  0.00041535  1
  O2-  O241  1  0.66756192  0.25382525  0.24977041  1
  O2-  O242  1  0.66783186  0.25167198  0.50030825  1
  O2-  O243  1  0.66950896  0.25039723  0.75068038  1
  O2-  O244  1  0.66735854  0.58866517  0.00063923  1
  O2-  O245  1  0.66602533  0.58245279  0.24981840  1
  O2-  O246  1  0.66615900  0.58564221  0.50085683  1
  O2-  O247  1  0.66746470  0.58509605  0.75161147  1
  O2-  O248  1  0.66748103  0.92024579  -0.00062869  1
  O2-  O249  1  0.66801273  0.92092250  0.24965682  1
  O2-  O250  1  0.66685661  0.92127185  0.49963042  1
  O2-  O251  1  0.66541258  0.91942409  0.75121124  1
  O2-  O252  1  0.33449922  0.07834904  0.00006305  1
  O2-  O253  1  0.33243251  0.07926796  0.24933557  1
  O2-  O254  1  0.33280597  0.08116863  0.50140114  1
  O2-  O255  1  0.33284554  0.08103141  0.75190621  1
  O2-  O256  1  0.33246989  0.41519161  -0.00026870  1
  O2-  O257  1  0.33477056  0.41247294  0.25005094  1
  O2-  O258  1  0.33268517  0.41445102  0.49995956  1
  O2-  O259  1  0.33218196  0.41511928  0.75123667  1
  O2-  O260  1  0.33567812  0.74893437  0.00141810  1
  O2-  O261  1  0.33431030  0.74463409  0.24905810  1
  O2-  O262  1  0.33579108  0.74695807  0.49961407  1
  O2-  O263  1  0.33423808  0.74671712  0.75065969  1
  O2-  O264  1  0.83480380  0.07787770  -0.00124687  1
  O2-  O265  1  0.83349336  0.07784173  0.24894568  1
  O2-  O266  1  0.83138574  0.08240467  0.50003514  1
  O2-  O267  1  0.83139390  0.08005332  0.75131306  1
  O2-  O268  1  0.83386432  0.41321053  -0.00031024  1
  O2-  O269  1  0.83208809  0.41517481  0.25111353  1
  O2-  O270  1  0.83170459  0.41507109  0.49908792  1
  O2-  O271  1  0.83322653  0.41540466  0.75101631  1
  O2-  O272  1  0.83219920  0.74776881  -0.00043510  1
  O2-  O273  1  0.83475038  0.74983815  0.25043204  1
  O2-  O274  1  0.83434919  0.74586533  0.49924555  1
  O2-  O275  1  0.83337559  0.74779741  0.75006045  1
  O2-  O276  1  0.94707912  0.08453719  0.73285615  1
  O2-  O277  1  0.54684811  0.90437890  1.00509685  1
  O2-  O278  1  0.54570671  0.43618418  1.00222085  1
  O2-  O279  1  0.96075811  0.44097564  0.27940063  1
  O2-  O280  1  0.96168598  0.10734987  0.50112059  1
  O2-  O281  1  0.94350962  0.91614537  0.02434233  1
  O2-  O282  1  0.03986308  0.77260447  0.96953622  1
  O2-  O283  1  0.05041414  0.56531908  0.76162535  1
  O2-  O284  1  0.54945377  0.90131386  -0.00391996  1
  O2-  O285  1  0.54560870  0.76437977  0.48652181  1
  O2-  O286  1  0.45408629  0.09896434  0.73931094  1
  O2-  O287  1  0.95039440  0.90654777  0.23802000  1
  O2-  O288  1  0.04562822  0.43377131  0.49772676  1
  O2-  O289  1  0.45430320  0.76595541  0.23898051  1
  O2-  O290  1  0.54929893  0.43193325  0.73811577  1
  O2-  O291  1  0.54535551  0.43735421  0.01330821  1
  O2-  O292  1  0.04651278  0.43190278  0.50036484  1
  O2-  O293  1  0.04528338  0.56694070  0.23550014  1
  O2-  O294  1  0.95408427  0.76172273  0.76197562  1
  O2-  O295  1  0.45540303  0.57048911  0.76209972  1
  O2-  O296  1  0.54976100  0.91004626  0.51999827  1
  O2-  O297  1  0.52803026  0.45698329  0.25223611  1
  O2-  O298  1  0.04890315  0.23611664  0.51317308  1
  O2-  O299  1  0.97874015  0.54716407  0.98605009  1
  O2-  O300  1  0.95838649  0.43196230  0.97223603  1
  O2-  O301  1  0.95211538  0.90269540  0.73777019  1
  O2-  O302  1  0.04842600  0.09652127  0.26431441  1
  O2-  O303  1  0.04624877  0.23755051  0.01129769  1
  O2-  O304  1  0.04970131  0.90503964  0.24089080  1
  O2-  O305  1  0.04475418  0.56873472  0.51435479  1
  O2-  O306  1  0.04490228  0.24207834  0.70597423  1
  O2-  O307  1  0.44583942  0.42008328  0.72830490  1
  O2-  O308  1  0.52874535  0.20542320  0.75362238  1
  O2-  O309  1  0.95166957  0.90203636  0.54007761  1
  O2-  O310  1  0.95167544  0.09509080  0.26264089  1
  O2-  O311  1  0.04904540  0.90135855  0.73543133  1
  O2-  O312  1  0.04690299  0.09801295  0.98550164  1
  O2-  O313  1  0.45158960  0.44354828  0.01137781  1
  O2-  O314  1  0.45426626  0.44037504  0.99909694  1
  O2-  O315  1  0.95683453  0.56101188  0.77859784  1
  O2-  O316  1  0.96181541  0.10738591  0.50138432  1
  O2-  O317  1  0.95721910  0.22649031  0.53262131  1
  O2-  O318  1  0.04464894  0.89536518  0.02887530  1
  O2-  O319  1  0.95367093  0.76336393  0.26444371  1
  O2-  O320  1  0.44844350  0.90100561  0.98541738  1
  O2-  O321  1  0.52876727  0.79244370  0.75166539  1
  O2-  O322  1  0.46207000  0.11541918  0.53269627  1
  O2-  O323  1  0.54048624  0.56282839  0.97360776  1
  O2-  O324  1  0.07184026  0.71958332  0.05524737  1
  O2-  O325  1  0.92956594  0.39065577  0.19924759  1
  O2-  O326  1  0.43357089  0.59296558  0.27706017  1
  O2-  O327  1  0.57283803  0.38202922  0.95061442  1
  O2-  O328  1  0.92938702  0.27449342  0.44798501  1
  O2-  O329  1  0.93276980  0.40848093  0.70461054  1
  O2-  O330  1  0.93543135  0.26097206  0.03260713  1
  O2-  O331  1  0.94214208  0.91768316  0.02432811  1
  O2-  O332  1  0.43518650  0.26218402  0.71879077  1
  O2-  O333  1  0.56370766  0.40271678  0.46851458  1
  O2-  O334  1  0.58209365  0.71705021  0.78919793  1
  O2-  O335  1  0.94338690  0.91055600  0.54778857  1
  O2-  O336  1  0.43039812  0.06130473  0.44576317  1
  O2-  O337  1  0.93370555  0.40681531  0.52719177  1
  O2-  O338  1  0.06635936  0.07296655  0.72403141  1
  O2-  O339  1  0.94077814  0.09106413  0.72731823  1
  O2-  O340  1  0.43646341  0.73631283  0.53301456  1
  O2-  O341  1  0.56578920  0.59365218  0.22193030  1
  O2-  O342  1  0.92527385  0.06303512  0.55578049  1
  O2-  O343  1  0.43637601  0.92592587  0.46653095  1
  O2-  O344  1  0.92764447  0.59603454  0.06486688  1
  O2-  O345  1  0.43778307  0.06966129  0.96790723  1
  O2-  O346  1  0.06620302  0.07033315  0.52479431  1
  O2-  O347  1  0.57674478  0.37443266  0.29439044  1
  O2-  O348  1  0.92451991  0.62114589  0.93130592  1
  O2-  O349  1  0.43459870  0.40561158  0.47390129  1
  O2-  O350  1  0.92993999  0.93811008  0.41410457  1
  O2-  O351  1  0.93558249  0.06983619  0.03393358  1
  O2-  O352  1  0.93363757  0.74093632  0.02820555  1
  O2-  O353  1  0.05694388  0.24564515  0.70387731  1
  O2-  O354  1  0.07514375  0.94018436  0.95265955  1
  O2-  O355  1  0.06519747  0.73494797  0.21726259  1
  O2-  O356  1  0.06678785  0.40601100  0.02797795  1
  O2-  O357  1  0.58309899  0.28624445  0.71233205  1
  O2-  O358  1  0.44181838  0.41323012  0.72206393  1
  O2-  O359  1  0.42936248  0.38699451  0.95156939  1
  O2-  O360  1  0.92822031  0.06276221  0.43847929  1
  O2-  O361  1  0.93029195  0.60096902  0.71172188  1
  O2-  O362  1  0.56475422  0.07223070  0.53130830  1
  O2-  O363  1  0.43576311  0.25656120  0.02798337  1
  O2-  O364  1  0.93327878  0.40897949  0.79552753  1
  O2-  O365  1  0.55926346  0.92140119  0.52770587  1
  O2-  O366  1  0.56384378  0.59627291  0.71473114  1
  O2-  O367  1  0.57111998  0.60075490  0.03989844  1
  O2-  O368  1  0.93185887  0.39763204  0.04459552  1
  O2-  O369  1  0.06499556  0.73769842  0.77613469  1
  O2-  O370  1  0.07569549  0.26506643  0.81881393  1
  O2-  O371  1  0.43557452  0.73504364  0.71741066  1
  O2-  O372  1  0.25028840  0.31644222  0.16668908  1
  O2-  O373  1  0.75017391  0.32451811  0.90498004  1
  O2-  O374  1  0.25014651  0.34965818  0.08325067  1
  O2-  O375  1  0.74972647  0.66470117  0.17952092  1
  O2-  O376  1  0.24991964  0.00242223  0.40115381  1
  O2-  O377  1  0.75016693  -0.00338501  0.68136182  1
  O2-  O378  1  0.24973439  0.33670037  0.59112137  1
  O2-  O379  1  0.24981451  0.33672957  0.40381741  1
  O2-  O380  1  0.75013392  0.33735293  0.81463757  1
  O2-  O381  1  0.74981209  0.67430988  0.08947037  1
  O2-  O382  1  0.25022044  0.66736771  0.90270991  1
  O2-  O383  1  0.74999843  0.32899287  0.65474172  1
  O2-  O384  1  0.25005468  0.00281356  0.65189528  1
  O2-  O385  1  0.74989502  0.66720048  0.64770781  1
  O2-  O386  1  0.74992750  0.67969892  0.88625076  1
  O2-  O387  1  0.24983985  0.66705690  0.58033110  1
  O2-  O388  1  0.74987105  -0.00045103  0.09620023  1
  O2-  O389  1  0.74976499  0.66718191  0.35691751  1
  O2-  O390  1  0.25008999  -0.00507832  0.89359174  1
  O2-  O391  1  0.24996451  0.66625960  0.42724358  1
  O2-  O392  1  0.75034734  0.01061646  0.58728855  1
  O2-  O393  1  0.24984680  0.66815275  0.67043737  1
  O2-  O394  1  0.74990506  0.33695791  0.15274757  1
  O2-  O395  1  0.25002320  0.67922671  0.33635365  1
  O2-  O396  1  0.24997037  0.16266710  0.15840822  1
  O2-  O397  1  0.25002651  0.50293343  0.09952266  1
  O2-  O398  1  0.24993713  0.16671127  0.59700021  1
  O2-  O399  1  0.25002726  0.50037382  0.90983933  1
  O2-  O400  1  0.25002455  0.49570751  0.40892017  1
  O2-  O401  1  0.75003385  0.16840799  0.83895218  1
  O2-  O402  1  0.74996691  0.16813095  0.40665637  1
  O2-  O403  1  0.75005660  0.83516616  0.61707109  1
  O2-  O404  1  0.75000720  0.83868559  0.33742434  1
  O2-  O405  1  0.74994397  0.83782008  0.93918293  1
  O2-  O406  1  0.24996417  0.49451960  0.58483658  1
  O2-  O407  1  0.74991182  0.50027365  0.84797985  1
  O2-  O408  1  0.25005283  0.16937517  0.33279212  1
  O2-  O409  1  0.75007304  0.17305182  0.11174552  1
  O2-  O410  1  0.75008731  0.50077522  0.93258570  1
  O2-  O411  1  0.75004998  0.49661719  0.41673599  1
  O2-  O412  1  0.75004211  0.83288279  0.85665144  1
  O2-  O413  1  0.75004013  0.50185986  0.60207456  1
  O2-  O414  1  0.25002707  0.16450350  0.41649305  1
  O2-  O415  1  0.24996037  0.83632667  0.09201447  1
  O2-  O416  1  0.25003635  0.83992097  0.38428459  1
  O2-  O417  1  0.24995707  0.84281339  0.64557920  1
  O2-  O418  1  0.24997465  0.83716677  0.91276720  1
  O2-  O419  1  0.75007406  0.50171768  0.33294589  1
  O2-  O420  1  0.53196370  0.66583373  0.37244087  1
  O2-  O421  1  0.97625028  0.32830590  0.62603192  1
  O2-  O422  1  0.46262718  0.33542484  0.13568726  1
  O2-  O423  1  0.46555097  0.66507339  0.12210055  1
  O2-  O424  1  0.46765964  0.66881665  0.87986992  1
  O2-  O425  1  0.02663534  0.32981524  0.12954037  1
  O2-  O426  1  0.52341427  0.33617276  0.61518090  1
  O2-  O427  1  0.97174730  -0.00243429  0.63483672  1
  O2-  O428  1  0.97518719  0.67277483  0.61858034  1
  O2-  O429  1  0.02440510  0.00524349  0.86899477  1
  O2-  O430  1  0.95662593  0.66488618  0.37708187  1
  O2-  O431  1  0.47434033  0.32533239  0.36919052  1
  O2-  O432  1  0.02834279  0.00329651  0.12501528  1
  O2-  O433  1  0.52733471  0.66436452  0.88103144  1
  O2-  O434  1  0.52827221  0.67785223  0.12823748  1
  O2-  O435  1  0.53941532  0.33050199  0.12936388  1
  O2-  O436  1  0.02624352  0.66406243  0.87968157  1
  O2-  O437  1  0.47066150  0.67127186  0.37919095  1
  O2-  O438  1  0.97670673  0.66903281  0.13532503  1
  O2-  O439  1  0.04335319  0.66833067  0.37496890  1
  O2-  O440  1  0.03154986  -0.00735591  0.62327387  1
  O2-  O441  1  0.02937579  0.34149872  0.88244852  1
  O2-  O442  1  0.47180130  -0.00475238  0.62779664  1
  O2-  O443  1  0.96844581  0.32364979  0.88012739  1
