# generated using pymatgen
data_La7(Ru4O11)2
_symmetry_space_group_name_H-M   'P 1'
_cell_length_a   23.99122904
_cell_length_b   16.83240528
_cell_length_c   15.42764123
_cell_angle_alpha   90.00039865
_cell_angle_beta   90.00011725
_cell_angle_gamma   89.99798790
_symmetry_Int_Tables_number   1
_chemical_formula_structural   La7(Ru4O11)2
_chemical_formula_sum   'La84 Ru96 O264'
_cell_volume   6230.14575091
_cell_formula_units_Z   12
loop_
 _symmetry_equiv_pos_site_id
 _symmetry_equiv_pos_as_xyz
  1  'x, y, z'
loop_
 _atom_type_symbol
 _atom_type_oxidation_number
  La3+  3.0
  Ru4+  4.0
  O2-  -2.0
loop_
 _atom_site_type_symbol
 _atom_site_label
 _atom_site_symmetry_multiplicity
 _atom_site_fract_x
 _atom_site_fract_y
 _atom_site_fract_z
 _atom_site_occupancy
  La3+  La0  1  0.13431632  -0.00030933  0.11997795  1
  La3+  La1  1  0.13605867  -0.00068101  0.38092928  1
  La3+  La2  1  0.13365977  0.00152549  0.61955960  1
  La3+  La3  1  0.14189411  0.00205912  0.87876602  1
  La3+  La4  1  0.14106870  0.33491702  0.12125558  1
  La3+  La5  1  0.13923317  0.33213283  0.37726388  1
  La3+  La6  1  0.13882962  0.33390272  0.63024157  1
  La3+  La7  1  0.14243668  0.33077516  0.87566498  1
  La3+  La8  1  0.13875466  0.66573177  0.11998619  1
  La3+  La9  1  0.13791211  0.66926125  0.37460695  1
  La3+  La10  1  0.13986974  0.66527132  0.62739595  1
  La3+  La11  1  0.13972636  0.66411876  0.87859370  1
  La3+  La12  1  0.64035635  -0.00238922  0.12284183  1
  La3+  La13  1  0.64166457  -0.00192592  0.37155619  1
  La3+  La14  1  0.63957760  -0.00408898  0.62169112  1
  La3+  La15  1  0.63578340  0.00149831  0.87734103  1
  La3+  La16  1  0.64331003  0.33462050  0.12603610  1
  La3+  La17  1  0.64002440  0.33975158  0.37295516  1
  La3+  La18  1  0.63564785  0.34075410  0.62169440  1
  La3+  La19  1  0.63698416  0.33542916  0.87727693  1
  La3+  La20  1  0.64471152  0.66439213  0.12898986  1
  La3+  La21  1  0.63743169  0.66554294  0.37241734  1
  La3+  La22  1  0.63195742  0.66057543  0.63108525  1
  La3+  La23  1  0.62672618  0.65679680  0.86404965  1
  La3+  La24  1  0.37244502  -0.01008177  0.10932133  1
  La3+  La25  1  0.35909549  -0.00217823  0.37777867  1
  La3+  La26  1  0.36079531  0.00050787  0.62192265  1
  La3+  La27  1  0.36459155  -0.00588812  0.88550783  1
  La3+  La28  1  0.36166573  0.33332372  0.11934236  1
  La3+  La29  1  0.36229401  0.33423420  0.38007403  1
  La3+  La30  1  0.35985119  0.33338391  0.62279127  1
  La3+  La31  1  0.35802865  0.33066791  0.87369778  1
  La3+  La32  1  0.36402453  0.67069185  0.12494969  1
  La3+  La33  1  0.36404173  0.66764035  0.37561528  1
  La3+  La34  1  0.36221510  0.66296647  0.62477905  1
  La3+  La35  1  0.36086492  0.66604264  0.87668994  1
  La3+  La36  1  0.86024793  -0.00236001  0.12257603  1
  La3+  La37  1  0.85978086  -0.00327230  0.37183530  1
  La3+  La38  1  0.86395153  -0.00314126  0.62283168  1
  La3+  La39  1  0.85884535  -0.00557690  0.88293202  1
  La3+  La40  1  0.85957582  0.33113933  0.12677639  1
  La3+  La41  1  0.86040498  0.33706229  0.37394624  1
  La3+  La42  1  0.86655695  0.33894036  0.62246542  1
  La3+  La43  1  0.86504041  0.33299947  0.87545732  1
  La3+  La44  1  0.85305254  0.66623937  0.12859922  1
  La3+  La45  1  0.86265718  0.66584808  0.37267378  1
  La3+  La46  1  0.86086804  0.66481458  0.62276321  1
  La3+  La47  1  0.86316999  0.66515449  0.87871944  1
  La3+  La48  1  -0.00468454  0.50250124  0.62961849  1
  La3+  La49  1  0.49840137  0.17126304  0.88715639  1
  La3+  La50  1  0.00096618  0.49784583  0.38871507  1
  La3+  La51  1  0.50022512  0.49916463  0.63187121  1
  La3+  La52  1  -0.00102137  0.83198207  0.86883355  1
  La3+  La53  1  0.49729962  0.83684155  0.88717565  1
  La3+  La54  1  -0.00039684  0.50208458  0.61025325  1
  La3+  La55  1  0.49955586  0.83629621  0.63448200  1
  La3+  La56  1  -0.00072532  0.15658747  0.35958677  1
  La3+  La57  1  0.50671157  0.15792828  0.37039520  1
  La3+  La58  1  0.50350579  0.50292089  0.86397128  1
  La3+  La59  1  0.49884784  0.84181701  0.87133832  1
  La3+  La60  1  -0.00737344  0.49752106  0.37023379  1
  La3+  La61  1  0.50376765  0.16312566  0.63741415  1
  La3+  La62  1  0.50002180  0.83092430  0.37705002  1
  La3+  La63  1  0.00190232  0.49423363  0.12638837  1
  La3+  La64  1  -0.00504390  0.83633265  0.61040900  1
  La3+  La65  1  0.00135145  0.16248099  0.62101995  1
  La3+  La66  1  0.49954323  0.16430235  0.11951012  1
  La3+  La67  1  0.00313569  0.49321533  0.86591610  1
  La3+  La68  1  0.50182324  0.82823626  0.61408852  1
  La3+  La69  1  0.49830744  0.83053276  0.11623022  1
  La3+  La70  1  0.49919013  0.15759391  0.38884508  1
  La3+  La71  1  -0.00381450  0.16808731  0.37788980  1
  La3+  La72  1  0.75033764  0.82658821  0.83593801  1
  La3+  La73  1  0.25012899  0.79432059  0.24560454  1
  La3+  La74  1  0.25011329  0.11143921  0.21209985  1
  La3+  La75  1  0.75072589  0.55037068  0.74509398  1
  La3+  La76  1  0.25049377  0.51024497  0.26537964  1
  La3+  La77  1  0.24924616  0.83345577  -0.00564483  1
  La3+  La78  1  0.75013766  0.11502300  0.51472703  1
  La3+  La79  1  0.25008325  0.83210190  0.72653938  1
  La3+  La80  1  0.75030343  0.78603599  0.44894056  1
  La3+  La81  1  0.25007409  0.45540288  -0.00846019  1
  La3+  La82  1  0.24998116  0.16893228  0.47585188  1
  La3+  La83  1  0.74914654  0.16042669  0.73880612  1
  Ru4+  Ru84  1  -0.00273029  -0.00136626  0.01187495  1
  Ru4+  Ru85  1  0.00119315  -0.01233485  0.24799741  1
  Ru4+  Ru86  1  -0.00881968  -0.00402261  0.49762224  1
  Ru4+  Ru87  1  -0.00489302  0.00159690  0.75012774  1
  Ru4+  Ru88  1  -0.00105244  0.32177150  -0.00357530  1
  Ru4+  Ru89  1  -0.00004922  0.33863435  0.25356879  1
  Ru4+  Ru90  1  0.00359176  0.32989478  0.49574684  1
  Ru4+  Ru91  1  0.00852828  0.32585217  0.75916512  1
  Ru4+  Ru92  1  -0.00367923  0.67511453  0.00249167  1
  Ru4+  Ru93  1  0.00088311  0.67958833  0.25399960  1
  Ru4+  Ru94  1  -0.00106632  0.66727076  0.50165960  1
  Ru4+  Ru95  1  0.00178013  0.67070500  0.74257716  1
  Ru4+  Ru96  1  0.50118646  -0.00378719  0.00255443  1
  Ru4+  Ru97  1  0.49888954  -0.00023899  0.24741693  1
  Ru4+  Ru98  1  0.49847409  -0.00470514  0.50144759  1
  Ru4+  Ru99  1  0.49705736  -0.00209433  0.74767174  1
  Ru4+  Ru100  1  0.49852622  0.33730473  0.00365248  1
  Ru4+  Ru101  1  0.50026974  0.33569363  0.24108878  1
  Ru4+  Ru102  1  0.49903882  0.32643565  0.50072134  1
  Ru4+  Ru103  1  0.49613718  0.32550410  0.75410080  1
  Ru4+  Ru104  1  0.50167623  0.66409997  0.00067950  1
  Ru4+  Ru105  1  0.50430837  0.65804479  0.24263271  1
  Ru4+  Ru106  1  0.50410491  0.66987847  0.50153786  1
  Ru4+  Ru107  1  0.49713490  0.65855675  0.75210356  1
  Ru4+  Ru108  1  0.11308543  0.17389436  -0.00002215  1
  Ru4+  Ru109  1  0.11241000  0.16457859  0.24810520  1
  Ru4+  Ru110  1  0.11733088  0.17016937  0.50026408  1
  Ru4+  Ru111  1  0.11610339  0.17290242  0.75057220  1
  Ru4+  Ru112  1  0.11622536  0.50122193  0.00107641  1
  Ru4+  Ru113  1  0.11232842  0.50022456  0.25101419  1
  Ru4+  Ru114  1  0.11081856  0.50025934  0.49806656  1
  Ru4+  Ru115  1  0.11508016  0.49894065  0.75391585  1
  Ru4+  Ru116  1  0.10903892  0.83309783  0.00311722  1
  Ru4+  Ru117  1  0.10757124  0.83394240  0.24769283  1
  Ru4+  Ru118  1  0.11628211  0.83300020  0.50065931  1
  Ru4+  Ru119  1  0.10909632  0.82971527  0.75152554  1
  Ru4+  Ru120  1  0.61397444  0.16761143  0.00195989  1
  Ru4+  Ru121  1  0.61114292  0.16711326  0.24899622  1
  Ru4+  Ru122  1  0.61275356  0.16677831  0.50016794  1
  Ru4+  Ru123  1  0.61227370  0.16852395  0.74717443  1
  Ru4+  Ru124  1  0.61375521  0.50332266  -0.00321464  1
  Ru4+  Ru125  1  0.61092754  0.49950401  0.25073243  1
  Ru4+  Ru126  1  0.61675350  0.50170161  0.50351901  1
  Ru4+  Ru127  1  0.61300750  0.50448756  0.74924040  1
  Ru4+  Ru128  1  0.61494562  0.83630575  0.00061519  1
  Ru4+  Ru129  1  0.61527366  0.83063505  0.25235830  1
  Ru4+  Ru130  1  0.61032784  0.83091938  0.49720969  1
  Ru4+  Ru131  1  0.61512461  0.83897073  0.75132503  1
  Ru4+  Ru132  1  0.38457470  0.16689195  0.00050647  1
  Ru4+  Ru133  1  0.38862178  0.16719773  0.24565541  1
  Ru4+  Ru134  1  0.38766378  0.16694577  0.49987589  1
  Ru4+  Ru135  1  0.38643815  0.17065516  0.74972405  1
  Ru4+  Ru136  1  0.39148205  0.49786957  0.00144962  1
  Ru4+  Ru137  1  0.38926653  0.49900043  0.24874970  1
  Ru4+  Ru138  1  0.38381784  0.49976162  0.50063303  1
  Ru4+  Ru139  1  0.38438867  0.50043826  0.75222859  1
  Ru4+  Ru140  1  0.38927977  0.83178403  0.00155457  1
  Ru4+  Ru141  1  0.38769378  0.83980342  0.24676725  1
  Ru4+  Ru142  1  0.38642867  0.83685577  0.49777356  1
  Ru4+  Ru143  1  0.38976158  0.83819849  0.75369137  1
  Ru4+  Ru144  1  0.88704733  0.16607819  0.00071288  1
  Ru4+  Ru145  1  0.88328778  0.16168194  0.24725850  1
  Ru4+  Ru146  1  0.88683080  0.16873453  0.49945892  1
  Ru4+  Ru147  1  0.89235052  0.15756180  0.75044880  1
  Ru4+  Ru148  1  0.88569268  0.50259274  -0.00004972  1
  Ru4+  Ru149  1  0.88517635  0.50053924  0.24983206  1
  Ru4+  Ru150  1  0.87893901  0.50345586  0.49817138  1
  Ru4+  Ru151  1  0.88553604  0.50416283  0.75146304  1
  Ru4+  Ru152  1  0.88712773  0.83444321  -0.00177179  1
  Ru4+  Ru153  1  0.89032342  0.83342947  0.25182451  1
  Ru4+  Ru154  1  0.88904906  0.83209710  0.50050537  1
  Ru4+  Ru155  1  0.89156509  0.83286717  0.75074637  1
  Ru4+  Ru156  1  0.25017895  0.93802945  0.24974218  1
  Ru4+  Ru157  1  0.24997930  0.09635310  0.76443886  1
  Ru4+  Ru158  1  0.24992906  0.96624028  0.75921003  1
  Ru4+  Ru159  1  0.74958071  0.25780631  0.24397377  1
  Ru4+  Ru160  1  0.75045374  0.28504080  0.75854422  1
  Ru4+  Ru161  1  0.25004228  0.69947099  0.78150692  1
  Ru4+  Ru162  1  0.25021123  0.24919027  0.24211704  1
  Ru4+  Ru163  1  0.24913935  0.57367638  0.49718797  1
  Ru4+  Ru164  1  0.25020114  0.76482688  0.49028380  1
  Ru4+  Ru165  1  0.75029910  0.03806783  0.75579047  1
  Ru4+  Ru166  1  0.75000032  0.26767392  0.47834189  1
  Ru4+  Ru167  1  0.75008400  0.42954625  0.00711844  1
  Ru4+  Ru168  1  0.75011901  0.92836991  0.50109151  1
  Ru4+  Ru169  1  0.75002246  0.07934924  0.00875777  1
  Ru4+  Ru170  1  0.75023046  0.71026999  0.75094059  1
  Ru4+  Ru171  1  0.25076554  0.38416183  0.21689600  1
  Ru4+  Ru172  1  0.25048951  0.60543994  0.00624925  1
  Ru4+  Ru173  1  0.74968441  0.74461966  0.01351299  1
  Ru4+  Ru174  1  0.25013185  0.42024065  0.75993786  1
  Ru4+  Ru175  1  0.75077473  0.91832961  0.72029930  1
  Ru4+  Ru176  1  0.24994603  0.64606880  0.26622472  1
  Ru4+  Ru177  1  0.75032972  0.42095409  0.74326412  1
  Ru4+  Ru178  1  0.24905945  0.42063306  0.50885950  1
  Ru4+  Ru179  1  0.74971146  0.07947979  0.23839964  1
  O2-  O180  1  0.16542182  0.08451363  0.00171759  1
  O2-  O181  1  0.16153638  0.07745930  0.25091869  1
  O2-  O182  1  0.16912123  0.08031229  0.50110474  1
  O2-  O183  1  0.16638795  0.08108197  0.74962568  1
  O2-  O184  1  0.16343982  0.41284279  0.00205232  1
  O2-  O185  1  0.16607654  0.41313171  0.25130812  1
  O2-  O186  1  0.16581662  0.41379031  0.50036623  1
  O2-  O187  1  0.17041244  0.41626378  0.74526112  1
  O2-  O188  1  0.16728845  0.74815329  0.00135250  1
  O2-  O189  1  0.16351838  0.74484479  0.25444340  1
  O2-  O190  1  0.16632178  0.74870659  0.49767916  1
  O2-  O191  1  0.16935675  0.74630512  0.74858874  1
  O2-  O192  1  0.66771581  0.08066268  -0.00145845  1
  O2-  O193  1  0.66672280  0.07999516  0.24830767  1
  O2-  O194  1  0.66094062  0.07810261  0.49769838  1
  O2-  O195  1  0.66592672  0.07766535  0.75234252  1
  O2-  O196  1  0.66486644  0.41415353  -0.00069819  1
  O2-  O197  1  0.66546860  0.41653478  0.24784678  1
  O2-  O198  1  0.66419515  0.41469417  0.49818747  1
  O2-  O199  1  0.66420281  0.41449349  0.75093727  1
  O2-  O200  1  0.66827461  0.74698782  -0.00312352  1
  O2-  O201  1  0.66609079  0.74893071  0.25008126  1
  O2-  O202  1  0.66582775  0.74387370  0.50192767  1
  O2-  O203  1  0.66718441  0.74323945  0.75312885  1
  O2-  O204  1  0.33568033  0.25310422  -0.00221026  1
  O2-  O205  1  0.33119884  0.25271463  0.25161853  1
  O2-  O206  1  0.33381700  0.25238804  0.50040494  1
  O2-  O207  1  0.33608396  0.25198084  0.75033059  1
  O2-  O208  1  0.33192238  0.58592063  0.00179154  1
  O2-  O209  1  0.33555043  0.58882572  0.25197947  1
  O2-  O210  1  0.33332258  0.58520455  0.49779575  1
  O2-  O211  1  0.33456922  0.58477702  0.74946477  1
  O2-  O212  1  0.33209788  0.91905171  0.00259264  1
  O2-  O213  1  0.33410689  0.92025215  0.24835711  1
  O2-  O214  1  0.33323058  0.91972474  0.50092033  1
  O2-  O215  1  0.33386395  0.92252978  0.74903229  1
  O2-  O216  1  0.83868028  0.24968368  -0.00149780  1
  O2-  O217  1  0.83131738  0.25299549  0.24856778  1
  O2-  O218  1  0.83330358  0.25383881  0.49916628  1
  O2-  O219  1  0.83546741  0.25506280  0.75103676  1
  O2-  O220  1  0.83623267  0.58653310  -0.00046615  1
  O2-  O221  1  0.83619362  0.58601690  0.25140632  1
  O2-  O222  1  0.83087313  0.58847833  0.49799650  1
  O2-  O223  1  0.83653165  0.59120520  0.75416734  1
  O2-  O224  1  0.83140270  0.91527207  0.00305140  1
  O2-  O225  1  0.83697134  0.91809244  0.24748999  1
  O2-  O226  1  0.83474984  0.91935771  0.49841177  1
  O2-  O227  1  0.83440740  0.91921282  0.74888380  1
  O2-  O228  1  0.17056052  0.24850361  -0.00004181  1
  O2-  O229  1  0.16608357  0.25346046  0.24971011  1
  O2-  O230  1  0.16581798  0.25331166  0.50093354  1
  O2-  O231  1  0.16873258  0.25129452  0.74705175  1
  O2-  O232  1  0.16815233  0.58496393  0.00169368  1
  O2-  O233  1  0.16603049  0.58796613  0.25216004  1
  O2-  O234  1  0.16601995  0.58724832  0.49887107  1
  O2-  O235  1  0.16412998  0.58418150  0.74920449  1
  O2-  O236  1  0.16626662  0.91746831  0.00031118  1
  O2-  O237  1  0.16830525  0.91940994  0.24944221  1
  O2-  O238  1  0.16570278  0.91863853  0.50053921  1
  O2-  O239  1  0.16470889  0.92070555  0.74757373  1
  O2-  O240  1  0.66257977  0.25131780  -0.00134342  1
  O2-  O241  1  0.66691818  0.25370955  0.24824575  1
  O2-  O242  1  0.66651776  0.25377432  0.49958250  1
  O2-  O243  1  0.66375112  0.25695671  0.74934786  1
  O2-  O244  1  0.66301480  0.58714158  -0.00272086  1
  O2-  O245  1  0.66329284  0.58398847  0.25101435  1
  O2-  O246  1  0.66363196  0.58586512  0.49796960  1
  O2-  O247  1  0.66421599  0.59110267  0.75480256  1
  O2-  O248  1  0.66831957  0.91714187  -0.00208476  1
  O2-  O249  1  0.66254842  0.91882285  0.24781312  1
  O2-  O250  1  0.66496124  0.91916986  0.49769105  1
  O2-  O251  1  0.66748437  0.92193615  0.75127822  1
  O2-  O252  1  0.33612516  0.07909621  0.00280880  1
  O2-  O253  1  0.34010990  0.07816482  0.24848237  1
  O2-  O254  1  0.33391881  0.07938827  0.49999709  1
  O2-  O255  1  0.33279346  0.08044259  0.75142243  1
  O2-  O256  1  0.33916697  0.41173164  -0.00166831  1
  O2-  O257  1  0.33529441  0.41199555  0.24947058  1
  O2-  O258  1  0.33447318  0.41520699  0.49875676  1
  O2-  O259  1  0.33227263  0.41436795  0.74828344  1
  O2-  O260  1  0.33352956  0.74788581  0.00098569  1
  O2-  O261  1  0.33844809  0.74298691  0.25293053  1
  O2-  O262  1  0.33439681  0.74704434  0.49929045  1
  O2-  O263  1  0.33362255  0.74406432  0.74979174  1
  O2-  O264  1  0.83133276  0.08091667  0.00072668  1
  O2-  O265  1  0.83260289  0.08103723  0.24855713  1
  O2-  O266  1  0.83914641  0.07709915  0.49808117  1
  O2-  O267  1  0.83215964  0.07952248  0.74854797  1
  O2-  O268  1  0.83410582  0.41367199  -0.00095180  1
  O2-  O269  1  0.83595765  0.41393087  0.24856315  1
  O2-  O270  1  0.83537645  0.41448491  0.49839267  1
  O2-  O271  1  0.83510774  0.41327933  0.75160060  1
  O2-  O272  1  0.82960010  0.74847804  0.00004665  1
  O2-  O273  1  0.83651829  0.74906845  0.25084748  1
  O2-  O274  1  0.83667956  0.74483070  0.50068649  1
  O2-  O275  1  0.83262337  0.74446388  0.75237557  1
  O2-  O276  1  0.54888087  0.43473555  0.51984216  1
  O2-  O277  1  0.55169192  0.42788959  0.73552453  1
  O2-  O278  1  0.45238935  0.76541604  0.76323014  1
  O2-  O279  1  0.04919445  0.23283060  0.26116523  1
  O2-  O280  1  0.45694588  0.57597407  0.51845785  1
  O2-  O281  1  0.04341185  0.09777049  0.02874147  1
  O2-  O282  1  0.54527268  0.56455739  0.74213623  1
  O2-  O283  1  0.95320020  0.90571248  0.25996591  1
  O2-  O284  1  0.54711155  0.56848618  0.24089383  1
  O2-  O285  1  0.04738690  0.43490183  0.71313048  1
  O2-  O286  1  0.45250452  0.76448677  0.23445909  1
  O2-  O287  1  0.46377056  0.22543719  0.27896372  1
  O2-  O288  1  0.45509333  0.89665318  0.99404106  1
  O2-  O289  1  0.95283145  0.43465079  0.98372964  1
  O2-  O290  1  0.45470705  0.09973616  0.99059943  1
  O2-  O291  1  0.95169557  0.43104668  0.50951788  1
  O2-  O292  1  0.97422075  0.12560338  0.77630327  1
  O2-  O293  1  0.45237870  0.42554087  0.76480321  1
  O2-  O294  1  0.04930410  0.57066388  0.01484416  1
  O2-  O295  1  0.04815179  0.23631111  0.49371944  1
  O2-  O296  1  0.03228245  0.77837534  0.71198900  1
  O2-  O297  1  0.04358875  0.57259991  0.26025770  1
  O2-  O298  1  0.54709342  0.09237843  0.49231133  1
  O2-  O299  1  0.44738159  0.90905853  0.01592781  1
  O2-  O300  1  0.45491838  0.42826394  0.00378673  1
  O2-  O301  1  0.95462604  0.24838025  0.72996232  1
  O2-  O302  1  0.44890826  0.43328718  0.51962405  1
  O2-  O303  1  0.55247049  0.57548204  0.76569403  1
  O2-  O304  1  0.44842671  0.56986778  0.76268673  1
  O2-  O305  1  0.95044231  0.23265495  0.23435167  1
  O2-  O306  1  0.95091697  0.42845266  0.74082384  1
  O2-  O307  1  0.05629528  0.10061477  0.72857843  1
  O2-  O308  1  0.45037654  0.10370392  0.73542650  1
  O2-  O309  1  0.04496060  0.90591983  0.75948940  1
  O2-  O310  1  0.54653162  0.76409269  0.98538664  1
  O2-  O311  1  0.94563504  0.75861928  0.26174159  1
  O2-  O312  1  0.04610750  0.43147787  0.25942571  1
  O2-  O313  1  0.05226187  0.43423647  0.98546422  1
  O2-  O314  1  0.46173521  0.56426324  0.03172031  1
  O2-  O315  1  0.01346598  0.21959174  0.01926887  1
  O2-  O316  1  0.54750094  0.76465001  0.73910620  1
  O2-  O317  1  0.54401453  0.23706768  0.01112539  1
  O2-  O318  1  0.54166156  0.10428745  0.79284226  1
  O2-  O319  1  0.04831827  0.09631756  0.48711853  1
  O2-  O320  1  0.54734359  0.24035703  0.48852130  1
  O2-  O321  1  0.05202556  0.90371890  0.51308220  1
  O2-  O322  1  0.95199099  0.09873111  0.51211319  1
  O2-  O323  1  0.03490317  0.79122590  0.24956795  1
  O2-  O324  1  0.06610059  0.74636387  0.94327940  1
  O2-  O325  1  0.43887110  0.73683497  0.22067367  1
  O2-  O326  1  0.07205253  0.07030593  0.95831207  1
  O2-  O327  1  0.56150666  0.73738157  0.46706511  1
  O2-  O328  1  0.93580832  0.59229019  0.72632492  1
  O2-  O329  1  0.43008205  0.93335570  0.96763138  1
  O2-  O330  1  0.43619866  0.73715696  0.03534515  1
  O2-  O331  1  0.56033484  0.40003638  0.71420378  1
  O2-  O332  1  0.06049937  0.59985307  0.02993579  1
  O2-  O333  1  0.93384848  0.07160200  0.03210053  1
  O2-  O334  1  0.06653575  0.07410350  0.47575795  1
  O2-  O335  1  0.56265862  0.08788682  0.80461585  1
  O2-  O336  1  0.93684485  0.91954550  0.97652778  1
  O2-  O337  1  0.06430577  0.92407655  0.02378910  1
  O2-  O338  1  0.07798700  0.72751274  0.80090173  1
  O2-  O339  1  0.06198543  0.74147157  0.06251118  1
  O2-  O340  1  0.91803000  0.06098985  0.81416290  1
  O2-  O341  1  0.05348555  0.40877265  0.68811009  1
  O2-  O342  1  0.43818284  0.92939594  0.46533738  1
  O2-  O343  1  0.56268177  0.07341221  0.03553303  1
  O2-  O344  1  0.41939983  0.27462311  0.19645787  1
  O2-  O345  1  0.08027411  0.27077206  0.06296961  1
  O2-  O346  1  0.56154466  0.39917720  0.28069736  1
  O2-  O347  1  0.92577978  0.07513313  0.67369843  1
  O2-  O348  1  0.56270861  0.92498643  0.03766586  1
  O2-  O349  1  0.43658852  0.26334899  0.46633540  1
  O2-  O350  1  0.55850369  0.40385944  0.53318573  1
  O2-  O351  1  0.56800130  0.60007813  0.71197724  1
  O2-  O352  1  0.93316924  0.26121510  0.71483075  1
  O2-  O353  1  0.56193647  0.73807251  0.28527590  1
  O2-  O354  1  0.42897862  0.59621235  0.95710943  1
  O2-  O355  1  0.93366360  0.59164387  0.47296855  1
  O2-  O356  1  0.07728140  0.40815997  0.83082018  1
  O2-  O357  1  0.06308386  0.06806207  0.71567230  1
  O2-  O358  1  0.06103922  0.93323084  0.53071216  1
  O2-  O359  1  0.94068496  0.40410282  0.71703243  1
  O2-  O360  1  0.07571006  0.25628333  0.92979038  1
  O2-  O361  1  0.06069530  0.40170896  0.97642892  1
  O2-  O362  1  0.93616122  0.26185267  0.22829676  1
  O2-  O363  1  0.43402045  0.58862445  0.52788006  1
  O2-  O364  1  0.06587096  0.25589217  0.77342468  1
  O2-  O365  1  0.94073620  0.40938270  0.53574681  1
  O2-  O366  1  0.57946141  0.07815780  0.66637016  1
  O2-  O367  1  0.44183224  0.40224024  0.53598503  1
  O2-  O368  1  0.56268206  0.74692451  0.71445285  1
  O2-  O369  1  0.06928432  0.92753714  0.22322336  1
  O2-  O370  1  0.93570156  0.74071926  0.97582613  1
  O2-  O371  1  0.07498399  0.70936641  0.20645337  1
  O2-  O372  1  0.25043353  0.67026794  0.14121218  1
  O2-  O373  1  0.74957502  -0.00645184  0.86960253  1
  O2-  O374  1  0.25036022  0.32814931  0.44452336  1
  O2-  O375  1  0.25058498  0.65255129  0.67890319  1
  O2-  O376  1  0.74997254  0.34717204  0.55885638  1
  O2-  O377  1  0.74950632  0.32846373  0.34765933  1
  O2-  O378  1  0.24991626  0.00089031  0.88762162  1
  O2-  O379  1  0.74999854  0.35189366  0.85519448  1
  O2-  O380  1  0.25019012  0.66951421  0.90271428  1
  O2-  O381  1  0.25025685  0.33829083  0.59729994  1
  O2-  O382  1  0.74915272  0.66053643  0.64171280  1
  O2-  O383  1  0.74989451  0.01091137  0.42603494  1
  O2-  O384  1  0.74994887  0.00390310  0.09969410  1
  O2-  O385  1  0.25024496  0.33344475  0.32783154  1
  O2-  O386  1  0.74969134  0.34041141  0.65122584  1
  O2-  O387  1  0.75037849  0.32762808  0.94336706  1
  O2-  O388  1  0.74976562  0.33635904  0.09641577  1
  O2-  O389  1  0.75051045  0.67568734  0.13663232  1
  O2-  O390  1  0.25044498  0.00431547  0.34855022  1
  O2-  O391  1  0.25007395  0.66512248  0.40110773  1
  O2-  O392  1  0.75010906  0.00540171  0.60577711  1
  O2-  O393  1  0.24995558  0.67091780  0.55668495  1
  O2-  O394  1  0.25132983  0.33797722  0.84228637  1
  O2-  O395  1  0.74978832  -0.00188195  0.31085635  1
  O2-  O396  1  0.25031027  0.83572100  0.38023556  1
  O2-  O397  1  0.25024435  0.50361664  0.86045873  1
  O2-  O398  1  0.74991174  0.49709045  0.08963900  1
  O2-  O399  1  0.74973186  0.17902990  0.39875863  1
  O2-  O400  1  0.25024195  0.16136550  0.60513608  1
  O2-  O401  1  0.25003032  0.83029091  0.58442234  1
  O2-  O402  1  0.25010242  0.82893174  0.86360825  1
  O2-  O403  1  0.75039956  0.50104931  0.34125546  1
  O2-  O404  1  0.25011695  0.17450644  0.34281215  1
  O2-  O405  1  0.74988847  0.49468504  0.90592892  1
  O2-  O406  1  0.25017769  0.50964556  0.11959190  1
  O2-  O407  1  0.25032430  0.17673668  0.68997662  1
  O2-  O408  1  0.74966622  0.81858526  0.66855760  1
  O2-  O409  1  0.24993662  0.85078526  0.12560673  1
  O2-  O410  1  0.74935559  0.83858902  0.33848663  1
  O2-  O411  1  0.25025371  0.50094795  0.59738612  1
  O2-  O412  1  0.75016107  0.19292488  0.61503520  1
  O2-  O413  1  0.25018858  0.49629802  0.40769292  1
  O2-  O414  1  0.25047777  0.17611249  0.10067396  1
  O2-  O415  1  0.75031121  0.17112175  0.86934866  1
  O2-  O416  1  0.74988993  0.16544997  0.31083926  1
  O2-  O417  1  0.74991414  0.17480283  0.95552611  1
  O2-  O418  1  0.74996099  0.83851937  0.57943175  1
  O2-  O419  1  0.74992034  0.49561361  0.61172490  1
  O2-  O420  1  0.95500939  0.00538759  0.37985167  1
  O2-  O421  1  0.47625733  0.67761137  0.87445046  1
  O2-  O422  1  0.54136056  -0.01707650  0.88688362  1
  O2-  O423  1  0.95532480  0.33353462  0.37273406  1
  O2-  O424  1  0.95768988  0.67824136  0.61781615  1
  O2-  O425  1  0.04449965  0.33745570  0.37747238  1
  O2-  O426  1  0.03270160  -0.00508254  0.86572946  1
  O2-  O427  1  0.97646902  0.66731215  0.37481029  1
  O2-  O428  1  0.96732102  0.66107455  0.86644030  1
  O2-  O429  1  0.01995101  0.00674845  0.13098725  1
  O2-  O430  1  0.96523372  0.34028830  0.11556633  1
  O2-  O431  1  0.02504504  0.64466362  0.87425650  1
  O2-  O432  1  0.04091848  -0.00412777  0.36360131  1
  O2-  O433  1  0.48066832  0.33722294  0.12135971  1
  O2-  O434  1  0.53875432  -0.02061236  0.61232557  1
  O2-  O435  1  0.52965730  0.67101601  0.12001613  1
  O2-  O436  1  0.04622926  0.66131167  0.62004917  1
  O2-  O437  1  0.97615654  -0.00834550  0.88155086  1
  O2-  O438  1  0.45682604  0.00688272  0.85438803  1
  O2-  O439  1  0.02930363  0.34620144  0.13769031  1
  O2-  O440  1  0.00871296  0.33432454  0.87839287  1
  O2-  O441  1  0.97822165  -0.01813330  0.62026837  1
  O2-  O442  1  0.45259430  -0.00275728  0.62678212  1
  O2-  O443  1  0.47312522  0.67360127  0.62940275  1
