# generated using pymatgen
data_La7(Ru4O11)2
_symmetry_space_group_name_H-M   'P 1'
_cell_length_a   23.99493414
_cell_length_b   16.83484226
_cell_length_c   15.43076045
_cell_angle_alpha   90.00011279
_cell_angle_beta   90.00276074
_cell_angle_gamma   89.99880746
_symmetry_Int_Tables_number   1
_chemical_formula_structural   La7(Ru4O11)2
_chemical_formula_sum   'La84 Ru96 O264'
_cell_volume   6233.27004619
_cell_formula_units_Z   12
loop_
 _symmetry_equiv_pos_site_id
 _symmetry_equiv_pos_as_xyz
  1  'x, y, z'
loop_
 _atom_type_symbol
 _atom_type_oxidation_number
  La3+  3.0
  Ru4+  4.0
  O2-  -2.0
loop_
 _atom_site_type_symbol
 _atom_site_label
 _atom_site_symmetry_multiplicity
 _atom_site_fract_x
 _atom_site_fract_y
 _atom_site_fract_z
 _atom_site_occupancy
  La3+  La0  1  0.13102141  0.01111797  0.11996361  1
  La3+  La1  1  0.14494696  -0.01228572  0.38609106  1
  La3+  La2  1  0.13619661  -0.00085986  0.62302486  1
  La3+  La3  1  0.12684109  0.01403513  0.89230679  1
  La3+  La4  1  0.14227789  0.32730754  0.11573950  1
  La3+  La5  1  0.14323383  0.32609092  0.37461868  1
  La3+  La6  1  0.15092657  0.33090245  0.62973330  1
  La3+  La7  1  0.14133838  0.32869500  0.87665692  1
  La3+  La8  1  0.14307892  0.66727159  0.12103274  1
  La3+  La9  1  0.14388697  0.66536449  0.37722410  1
  La3+  La10  1  0.13835198  0.66747531  0.62277594  1
  La3+  La11  1  0.14711406  0.66357215  0.87514307  1
  La3+  La12  1  0.63863352  0.00237634  0.12803670  1
  La3+  La13  1  0.64032734  -0.00131150  0.37408263  1
  La3+  La14  1  0.64162226  0.00681113  0.62187114  1
  La3+  La15  1  0.64709623  0.00266035  0.87369664  1
  La3+  La16  1  0.63827999  0.33309430  0.12316557  1
  La3+  La17  1  0.63925392  0.32951833  0.37710926  1
  La3+  La18  1  0.63950994  0.32814395  0.62509909  1
  La3+  La19  1  0.65396589  0.33442422  0.88099452  1
  La3+  La20  1  0.64020690  0.67085866  0.13298932  1
  La3+  La21  1  0.62823459  0.66783089  0.37277565  1
  La3+  La22  1  0.64143775  0.67188542  0.62198457  1
  La3+  La23  1  0.63484321  0.67118954  0.87610378  1
  La3+  La24  1  0.36110681  0.00044963  0.12203065  1
  La3+  La25  1  0.36153195  -0.00095008  0.37460408  1
  La3+  La26  1  0.36217166  -0.00242252  0.62095653  1
  La3+  La27  1  0.36060531  -0.00039775  0.88174224  1
  La3+  La28  1  0.35874617  0.33257172  0.12045634  1
  La3+  La29  1  0.35879985  0.32761459  0.37648522  1
  La3+  La30  1  0.34781005  0.33000903  0.62821292  1
  La3+  La31  1  0.35212005  0.33123793  0.87714415  1
  La3+  La32  1  0.35947129  0.67157752  0.12155529  1
  La3+  La33  1  0.35418430  0.67457693  0.37991776  1
  La3+  La34  1  0.35990196  0.66753402  0.62431045  1
  La3+  La35  1  0.35770552  0.66256368  0.88203536  1
  La3+  La36  1  0.86160680  0.00706830  0.12499035  1
  La3+  La37  1  0.85983732  0.00221719  0.37722494  1
  La3+  La38  1  0.86329478  0.00555237  0.62734126  1
  La3+  La39  1  0.86185458  0.00360670  0.87048857  1
  La3+  La40  1  0.85575095  0.33243085  0.12263740  1
  La3+  La41  1  0.86465949  0.33016512  0.38204927  1
  La3+  La42  1  0.85584021  0.32501674  0.62520405  1
  La3+  La43  1  0.85775802  0.33042712  0.87348971  1
  La3+  La44  1  0.86399088  0.66498103  0.13369150  1
  La3+  La45  1  0.86436922  0.67251280  0.37253122  1
  La3+  La46  1  0.86344784  0.66525858  0.62370725  1
  La3+  La47  1  0.86392577  0.66730744  0.87796655  1
  La3+  La48  1  -0.00874595  0.83689631  0.63410039  1
  La3+  La49  1  0.51322898  0.51359151  0.12695837  1
  La3+  La50  1  0.50253864  0.82778382  0.63166858  1
  La3+  La51  1  0.48765590  0.16326311  0.61227362  1
  La3+  La52  1  -0.00214523  0.83482068  0.88465807  1
  La3+  La53  1  0.00192074  0.51075438  0.12002475  1
  La3+  La54  1  0.00139325  0.83082258  0.86354293  1
  La3+  La55  1  0.49809781  0.83652608  0.37991295  1
  La3+  La56  1  -0.00638191  0.51417829  0.87894995  1
  La3+  La57  1  0.00886209  0.16575754  0.86252484  1
  La3+  La58  1  0.50232258  0.49489881  0.61194146  1
  La3+  La59  1  -0.00711949  0.49898385  0.13197363  1
  La3+  La60  1  0.00428071  0.17111960  0.10329824  1
  La3+  La61  1  0.00633135  0.83129236  0.37679254  1
  La3+  La62  1  0.49852466  0.50029927  0.63260565  1
  La3+  La63  1  0.49825556  0.82861076  0.88058504  1
  La3+  La64  1  0.50097204  0.48567925  0.87198268  1
  La3+  La65  1  0.49567417  0.50108265  0.36120397  1
  La3+  La66  1  0.49911526  0.17059615  0.37642717  1
  La3+  La67  1  0.00155987  0.15606384  0.38817757  1
  La3+  La68  1  0.50147375  0.83423427  0.12200435  1
  La3+  La69  1  0.00150197  0.16741765  0.88155193  1
  La3+  La70  1  -0.00178456  0.51316990  0.37050335  1
  La3+  La71  1  -0.00282024  0.83769993  0.13114498  1
  La3+  La72  1  0.75074040  0.46957255  0.80124384  1
  La3+  La73  1  0.75120949  0.90242489  0.03026318  1
  La3+  La74  1  0.74971566  0.56682618  0.47420490  1
  La3+  La75  1  0.25160308  0.82089851  0.48570731  1
  La3+  La76  1  0.24683670  0.48935840  0.22223328  1
  La3+  La77  1  0.24871794  0.83831934  0.01608973  1
  La3+  La78  1  0.25213985  0.55546828  0.49084679  1
  La3+  La79  1  0.74976453  0.53743437  0.22024781  1
  La3+  La80  1  0.25083028  0.19779405  0.22874609  1
  La3+  La81  1  0.75038697  0.87478199  0.68768883  1
  La3+  La82  1  0.24943420  0.49332101  0.74699847  1
  La3+  La83  1  0.24955409  0.82460674  0.75110814  1
  Ru4+  Ru84  1  0.00606915  -0.00100329  0.01928815  1
  Ru4+  Ru85  1  -0.00146246  0.00396785  0.24560079  1
  Ru4+  Ru86  1  -0.00556673  0.00280588  0.48962409  1
  Ru4+  Ru87  1  0.01304372  0.00091661  0.74260977  1
  Ru4+  Ru88  1  -0.00229873  0.33942780  0.00208362  1
  Ru4+  Ru89  1  -0.00040086  0.33171735  0.23582211  1
  Ru4+  Ru90  1  -0.00042965  0.32179920  0.50642124  1
  Ru4+  Ru91  1  0.00963926  0.34208019  0.73905691  1
  Ru4+  Ru92  1  -0.00014252  0.67309902  0.01453345  1
  Ru4+  Ru93  1  0.00498381  0.67531770  0.24264968  1
  Ru4+  Ru94  1  -0.00932222  0.66576489  0.49636355  1
  Ru4+  Ru95  1  0.00788459  0.65672290  0.74907187  1
  Ru4+  Ru96  1  0.49395703  0.00054234  0.00179117  1
  Ru4+  Ru97  1  0.49623291  -0.00371706  0.22518570  1
  Ru4+  Ru98  1  0.50395592  -0.00746744  0.50103221  1
  Ru4+  Ru99  1  0.50071351  -0.00117621  0.75501309  1
  Ru4+  Ru100  1  0.50022205  0.33041711  0.00833718  1
  Ru4+  Ru101  1  0.50264962  0.33170735  0.24680065  1
  Ru4+  Ru102  1  0.50443006  0.33376674  0.49050036  1
  Ru4+  Ru103  1  0.50938605  0.31876889  0.75050475  1
  Ru4+  Ru104  1  0.49298512  0.66656377  0.00092917  1
  Ru4+  Ru105  1  0.49135982  0.66774189  0.25755829  1
  Ru4+  Ru106  1  0.50160056  0.67317902  0.49897795  1
  Ru4+  Ru107  1  0.50092273  0.66213919  0.75356017  1
  Ru4+  Ru108  1  0.12005482  0.16339133  0.00091942  1
  Ru4+  Ru109  1  0.11154252  0.15329125  0.25394049  1
  Ru4+  Ru110  1  0.11285547  0.17018036  0.50154605  1
  Ru4+  Ru111  1  0.11640477  0.16728288  0.74360706  1
  Ru4+  Ru112  1  0.11236543  0.50175572  -0.00086448  1
  Ru4+  Ru113  1  0.11309220  0.50092180  0.25214333  1
  Ru4+  Ru114  1  0.11278575  0.49932073  0.50061995  1
  Ru4+  Ru115  1  0.10340568  0.50184300  0.74670597  1
  Ru4+  Ru116  1  0.11185878  0.83316220  0.00183170  1
  Ru4+  Ru117  1  0.11268270  0.83621175  0.24727607  1
  Ru4+  Ru118  1  0.11313934  0.82498889  0.50053622  1
  Ru4+  Ru119  1  0.10909875  0.84252164  0.74872809  1
  Ru4+  Ru120  1  0.61346506  0.16305268  -0.00018257  1
  Ru4+  Ru121  1  0.61158934  0.16580697  0.25147631  1
  Ru4+  Ru122  1  0.61395524  0.16669818  0.49897470  1
  Ru4+  Ru123  1  0.61039521  0.18533521  0.75776271  1
  Ru4+  Ru124  1  0.61724771  0.49683714  -0.00363778  1
  Ru4+  Ru125  1  0.61510877  0.49518909  0.25270716  1
  Ru4+  Ru126  1  0.61330292  0.49987548  0.49723613  1
  Ru4+  Ru127  1  0.60722708  0.50558515  0.75225110  1
  Ru4+  Ru128  1  0.61127746  0.83001914  -0.00294478  1
  Ru4+  Ru129  1  0.61501965  0.83855572  0.25003919  1
  Ru4+  Ru130  1  0.60867598  0.84009063  0.50087284  1
  Ru4+  Ru131  1  0.60815872  0.83523435  0.75352282  1
  Ru4+  Ru132  1  0.39546504  0.16992523  0.00096855  1
  Ru4+  Ru133  1  0.39768099  0.15982941  0.24867042  1
  Ru4+  Ru134  1  0.38816617  0.16337159  0.50108504  1
  Ru4+  Ru135  1  0.38710353  0.16801377  0.74783723  1
  Ru4+  Ru136  1  0.38955027  0.50770561  0.00165046  1
  Ru4+  Ru137  1  0.39022469  0.49815175  0.25286873  1
  Ru4+  Ru138  1  0.39058021  0.49216169  0.50032136  1
  Ru4+  Ru139  1  0.38926757  0.49845626  0.75102412  1
  Ru4+  Ru140  1  0.38625592  0.83334048  -0.00192072  1
  Ru4+  Ru141  1  0.38904616  0.83799571  0.25307892  1
  Ru4+  Ru142  1  0.39443391  0.83574888  0.50011193  1
  Ru4+  Ru143  1  0.39164486  0.83059285  0.74757969  1
  Ru4+  Ru144  1  0.88036734  0.16783594  0.00390033  1
  Ru4+  Ru145  1  0.88947842  0.15986843  0.25535649  1
  Ru4+  Ru146  1  0.88679589  0.16505489  0.49952182  1
  Ru4+  Ru147  1  0.88802526  0.17259082  0.74527067  1
  Ru4+  Ru148  1  0.88222886  0.49919748  -0.00541689  1
  Ru4+  Ru149  1  0.88485332  0.49235669  0.25440793  1
  Ru4+  Ru150  1  0.89347945  0.50749164  0.50282327  1
  Ru4+  Ru151  1  0.89316544  0.49989109  0.75262117  1
  Ru4+  Ru152  1  0.89003211  0.83138784  -0.00321759  1
  Ru4+  Ru153  1  0.88128893  0.83351270  0.25109848  1
  Ru4+  Ru154  1  0.88753205  0.82031114  0.50024255  1
  Ru4+  Ru155  1  0.88575099  0.82567474  0.74665285  1
  Ru4+  Ru156  1  0.74853199  0.58885085  0.01290217  1
  Ru4+  Ru157  1  0.24892767  0.91748862  0.24977574  1
  Ru4+  Ru158  1  0.25357499  0.08314768  0.00152564  1
  Ru4+  Ru159  1  0.25255835  0.36322041  0.27965165  1
  Ru4+  Ru160  1  0.25039860  0.40037001  0.49297154  1
  Ru4+  Ru161  1  0.24934696  0.97319289  0.76234363  1
  Ru4+  Ru162  1  0.74862646  0.74509472  0.75427659  1
  Ru4+  Ru163  1  0.75009757  0.39296506  0.48628496  1
  Ru4+  Ru164  1  0.74952525  0.33579428  0.72593251  1
  Ru4+  Ru165  1  0.25131000  0.11037448  0.74928120  1
  Ru4+  Ru166  1  0.75032420  0.73350616  0.01916526  1
  Ru4+  Ru167  1  0.25110430  0.67559752  0.73340666  1
  Ru4+  Ru168  1  0.25010504  0.42750913  -0.01237829  1
  Ru4+  Ru169  1  0.74978293  0.39652400  0.27469053  1
  Ru4+  Ru170  1  0.74907604  0.09456475  0.75581991  1
  Ru4+  Ru171  1  0.25244486  0.62633277  0.23249964  1
  Ru4+  Ru172  1  0.74855411  0.23748157  -0.00236487  1
  Ru4+  Ru173  1  0.24996155  0.10440988  0.49067063  1
  Ru4+  Ru174  1  0.75115054  0.60786889  0.74522537  1
  Ru4+  Ru175  1  0.25160059  0.05613248  0.24880910  1
  Ru4+  Ru176  1  0.74993308  0.23188373  0.25350630  1
  Ru4+  Ru177  1  0.75184790  0.91115262  0.49126793  1
  Ru4+  Ru178  1  0.25044974  0.76605532  0.24560583  1
  Ru4+  Ru179  1  0.74883137  0.08879781  0.24371745  1
  O2-  O180  1  0.17294780  0.08033610  0.00181800  1
  O2-  O181  1  0.17494101  0.08544279  0.23948834  1
  O2-  O182  1  0.16773163  0.08152926  0.49812054  1
  O2-  O183  1  0.17139380  0.08092422  0.74812456  1
  O2-  O184  1  0.16499680  0.41576030  -0.00304955  1
  O2-  O185  1  0.16419577  0.40921759  0.24670241  1
  O2-  O186  1  0.16758690  0.41659471  0.49789161  1
  O2-  O187  1  0.16552815  0.42237701  0.75828273  1
  O2-  O188  1  0.16451519  0.74754108  0.00170554  1
  O2-  O189  1  0.16704243  0.75157588  0.24814089  1
  O2-  O190  1  0.16796721  0.74943482  0.50834689  1
  O2-  O191  1  0.16108008  0.74951949  0.74894895  1
  O2-  O192  1  0.66309959  0.08062939  0.00138757  1
  O2-  O193  1  0.66644629  0.08139709  0.25025979  1
  O2-  O194  1  0.66416114  0.08228837  0.49677451  1
  O2-  O195  1  0.65996018  0.08936588  0.75152582  1
  O2-  O196  1  0.66962135  0.42078123  0.01209820  1
  O2-  O197  1  0.66837389  0.41223179  0.24947041  1
  O2-  O198  1  0.66731926  0.41129103  0.49629183  1
  O2-  O199  1  0.66434323  0.41468546  0.74369312  1
  O2-  O200  1  0.66786759  0.74649305  0.00494657  1
  O2-  O201  1  0.65976419  0.74673372  0.25547090  1
  O2-  O202  1  0.65850682  0.75179959  0.49734341  1
  O2-  O203  1  0.66674215  0.74853059  0.74842465  1
  O2-  O204  1  0.34062486  0.24907397  0.00009724  1
  O2-  O205  1  0.34291952  0.24926911  0.24649121  1
  O2-  O206  1  0.33965655  0.24925916  0.50234980  1
  O2-  O207  1  0.33774481  0.25072726  0.75200045  1
  O2-  O208  1  0.32851866  0.57950373  -0.00516308  1
  O2-  O209  1  0.33282688  0.58814553  0.24802685  1
  O2-  O210  1  0.34578458  0.59037950  0.50216342  1
  O2-  O211  1  0.33012570  0.58857404  0.74899824  1
  O2-  O212  1  0.33188507  0.91826448  -0.00001062  1
  O2-  O213  1  0.33172124  0.91900095  0.24657615  1
  O2-  O214  1  0.33529804  0.92245624  0.50291927  1
  O2-  O215  1  0.33391938  0.92668340  0.74831926  1
  O2-  O216  1  0.83099276  0.25216670  -0.00226110  1
  O2-  O217  1  0.83763408  0.24725181  0.25249807  1
  O2-  O218  1  0.83479152  0.25220666  0.49514820  1
  O2-  O219  1  0.83376769  0.25185523  0.75123172  1
  O2-  O220  1  0.83077377  0.58842445  0.00274331  1
  O2-  O221  1  0.83306197  0.58825672  0.25488829  1
  O2-  O222  1  0.83733054  0.59139571  0.50392485  1
  O2-  O223  1  0.83631099  0.58846530  0.75570944  1
  O2-  O224  1  0.84365528  0.92402282  -0.00385137  1
  O2-  O225  1  0.83846600  0.92245676  0.25140103  1
  O2-  O226  1  0.83941434  0.91478288  0.50313940  1
  O2-  O227  1  0.83795004  0.91882009  0.74692294  1
  O2-  O228  1  0.16562461  0.25209362  -0.00342023  1
  O2-  O229  1  0.15715030  0.24884798  0.24738956  1
  O2-  O230  1  0.16481611  0.24985138  0.49703947  1
  O2-  O231  1  0.16595597  0.25196445  0.75493807  1
  O2-  O232  1  0.16204242  0.58681637  0.00005602  1
  O2-  O233  1  0.16946420  0.58935757  0.24676896  1
  O2-  O234  1  0.16074730  0.59001337  0.50577976  1
  O2-  O235  1  0.16709153  0.58349616  0.74685250  1
  O2-  O236  1  0.16420835  0.92251388  0.00156567  1
  O2-  O237  1  0.16564200  0.92055493  0.24635419  1
  O2-  O238  1  0.16804672  0.91132625  0.50738039  1
  O2-  O239  1  0.16868717  0.92874074  0.75224845  1
  O2-  O240  1  0.66459305  0.24829986  0.00533063  1
  O2-  O241  1  0.66483037  0.25044837  0.24978681  1
  O2-  O242  1  0.66347307  0.25189549  0.49872677  1
  O2-  O243  1  0.67519958  0.24714131  0.74085528  1
  O2-  O244  1  0.66465050  0.58748463  0.00410699  1
  O2-  O245  1  0.66579048  0.58747391  0.25722928  1
  O2-  O246  1  0.66190212  0.59337132  0.50223176  1
  O2-  O247  1  0.66701888  0.59077793  0.75222780  1
  O2-  O248  1  0.65890868  0.92388829  -0.00162690  1
  O2-  O249  1  0.66553345  0.92121795  0.25156076  1
  O2-  O250  1  0.66713652  0.91923344  0.49923941  1
  O2-  O251  1  0.66069129  0.91965091  0.74555400  1
  O2-  O252  1  0.33485107  0.08439632  -0.00203153  1
  O2-  O253  1  0.33294964  0.08072478  0.24964199  1
  O2-  O254  1  0.32931791  0.08007914  0.49999883  1
  O2-  O255  1  0.33395943  0.08105534  0.74513080  1
  O2-  O256  1  0.33489469  0.41942502  -0.00089605  1
  O2-  O257  1  0.33129636  0.41244485  0.24272025  1
  O2-  O258  1  0.33378593  0.41264252  0.49756859  1
  O2-  O259  1  0.33744516  0.41327372  0.75385415  1
  O2-  O260  1  0.33052564  0.74774706  -0.00225697  1
  O2-  O261  1  0.33524871  0.75336807  0.24985954  1
  O2-  O262  1  0.34132411  0.75104072  0.50511490  1
  O2-  O263  1  0.33626170  0.74596240  0.75061833  1
  O2-  O264  1  0.83343297  0.08031698  -0.00131469  1
  O2-  O265  1  0.82826399  0.07963104  0.25276772  1
  O2-  O266  1  0.83357780  0.08368498  0.50212941  1
  O2-  O267  1  0.83440326  0.08361265  0.75030669  1
  O2-  O268  1  0.83662218  0.41278930  -0.00340779  1
  O2-  O269  1  0.83168152  0.40825387  0.25452046  1
  O2-  O270  1  0.83347799  0.41603974  0.48999372  1
  O2-  O271  1  0.83599285  0.41100732  0.74885711  1
  O2-  O272  1  0.83261573  0.74339421  0.00266224  1
  O2-  O273  1  0.83480540  0.74673992  0.24953642  1
  O2-  O274  1  0.82991805  0.74693219  0.50048389  1
  O2-  O275  1  0.83139902  0.74549794  0.75253885  1
  O2-  O276  1  0.94449751  0.09149939  0.01834852  1
  O2-  O277  1  0.96381198  0.09646974  0.75049039  1
  O2-  O278  1  0.04850968  0.10186131  -0.00928720  1
  O2-  O279  1  0.45382658  0.55617897  0.22075703  1
  O2-  O280  1  0.48508901  0.55035258  -0.01462340  1
  O2-  O281  1  0.04496400  0.24234184  0.98822758  1
  O2-  O282  1  0.04861307  0.23264706  0.50390206  1
  O2-  O283  1  0.04494461  0.91057469  0.49523354  1
  O2-  O284  1  0.94666977  0.08151181  0.98066258  1
  O2-  O285  1  0.55302397  0.57171504  0.26076025  1
  O2-  O286  1  0.45479759  0.90220228  0.73457210  1
  O2-  O287  1  0.05180847  0.23541175  0.73875485  1
  O2-  O288  1  0.94950972  0.57052366  0.56214693  1
  O2-  O289  1  0.04577487  0.43019994  0.25147921  1
  O2-  O290  1  0.54644514  0.89979241  0.24707644  1
  O2-  O291  1  0.45534113  0.77154531  0.26543139  1
  O2-  O292  1  0.94667467  0.09119431  0.77889990  1
  O2-  O293  1  0.45113109  0.76364342  0.01433916  1
  O2-  O294  1  0.52657329  0.20413236  0.74556391  1
  O2-  O295  1  0.05432706  0.76145482  0.23742186  1
  O2-  O296  1  0.94938955  0.23476699  0.51080461  1
  O2-  O297  1  0.94950997  0.91050825  0.77783264  1
  O2-  O298  1  0.05794269  0.08758645  0.97222784  1
  O2-  O299  1  0.04470026  0.44019459  0.49569353  1
  O2-  O300  1  0.54521433  0.90238163  0.98744878  1
  O2-  O301  1  0.95645587  0.43680830  0.49541373  1
  O2-  O302  1  0.95162450  0.43175146  0.98894883  1
  O2-  O303  1  0.03803055  0.11665118  0.21510349  1
  O2-  O304  1  0.45430008  0.24175240  0.01312115  1
  O2-  O305  1  0.45762136  0.23607861  0.24202539  1
  O2-  O306  1  0.05018687  0.58110230  0.54046584  1
  O2-  O307  1  0.45626935  0.56616630  0.50605663  1
  O2-  O308  1  0.54436439  0.44255005  0.02784345  1
  O2-  O309  1  0.94796856  0.91172385  0.73867601  1
  O2-  O310  1  0.94572376  0.23880678  0.00865512  1
  O2-  O311  1  0.53213254  0.20038102  0.72803175  1
  O2-  O312  1  0.55287569  0.42609538  0.24697263  1
  O2-  O313  1  0.95781017  0.57491730  0.24112673  1
  O2-  O314  1  0.45636869  0.41957990  0.19166852  1
  O2-  O315  1  0.95118682  0.77295805  0.24752702  1
  O2-  O316  1  0.04174483  0.76732055  0.54718237  1
  O2-  O317  1  0.04181103  0.90152655  0.24968238  1
  O2-  O318  1  0.54667960  0.09817423  0.50896074  1
  O2-  O319  1  0.02148868  0.13376617  0.23794931  1
  O2-  O320  1  0.44377419  0.41738896  0.98836413  1
  O2-  O321  1  0.02898193  0.45207301  0.77982776  1
  O2-  O322  1  0.54258855  0.89818742  0.25571360  1
  O2-  O323  1  0.95128557  0.24481413  0.74398063  1
  O2-  O324  1  0.06491731  0.24521112  0.96434327  1
  O2-  O325  1  0.93206121  0.59638395  0.42605475  1
  O2-  O326  1  0.43561287  0.92968529  0.29134192  1
  O2-  O327  1  0.42176709  0.41069770  0.31804416  1
  O2-  O328  1  0.56292797  0.59501099  0.67037046  1
  O2-  O329  1  0.43307693  0.08580685  0.17792350  1
  O2-  O330  1  0.56073652  0.58694698  0.47669371  1
  O2-  O331  1  0.56025256  0.92810745  0.58050998  1
  O2-  O332  1  0.06294891  0.58996976  0.27196995  1
  O2-  O333  1  0.43532174  0.91971959  0.96524270  1
  O2-  O334  1  0.92465821  0.37688462  0.53983112  1
  O2-  O335  1  0.44593017  0.75859340  0.01741281  1
  O2-  O336  1  0.06693524  0.07642821  0.71586876  1
  O2-  O337  1  0.56220507  0.93274339  0.42861519  1
  O2-  O338  1  0.43821433  0.58789693  0.72198368  1
  O2-  O339  1  0.56258444  0.58650398  0.82865098  1
  O2-  O340  1  0.41671328  0.61423999  0.03126440  1
  O2-  O341  1  0.44004415  0.08336791  0.32485055  1
  O2-  O342  1  0.93465625  0.07232871  0.31823591  1
  O2-  O343  1  0.08157482  0.39310852  0.69369869  1
  O2-  O344  1  0.55829820  0.74510138  0.77524208  1
  O2-  O345  1  0.56313588  0.60370856  0.26970159  1
  O2-  O346  1  0.09167267  0.04981487  0.30125767  1
  O2-  O347  1  0.06871813  0.37493818  0.45112209  1
  O2-  O348  1  0.43686540  0.07894339  0.97764251  1
  O2-  O349  1  0.07230811  0.07145344  0.02674460  1
  O2-  O350  1  0.93782447  0.73754364  0.95734117  1
  O2-  O351  1  0.93657690  0.73501890  0.56943261  1
  O2-  O352  1  0.43956056  0.06595320  0.48394159  1
  O2-  O353  1  0.57834463  0.39313489  0.94548189  1
  O2-  O354  1  0.93693730  0.75184925  0.42415180  1
  O2-  O355  1  0.56518524  0.41036319  0.52592531  1
  O2-  O356  1  0.58865843  0.30175471  0.79159038  1
  O2-  O357  1  0.05836360  0.59522331  0.68132552  1
  O2-  O358  1  0.93550346  0.57925424  0.22338572  1
  O2-  O359  1  0.56178763  0.73679597  0.96222174  1
  O2-  O360  1  0.05877213  0.92082960  0.97463436  1
  O2-  O361  1  0.06344242  0.59097153  0.45075268  1
  O2-  O362  1  0.06711903  0.92211145  0.48103383  1
  O2-  O363  1  0.94143385  0.73152822  0.73301765  1
  O2-  O364  1  0.06369017  0.92307842  0.67216373  1
  O2-  O365  1  0.43081706  0.61544779  0.33482835  1
  O2-  O366  1  0.93722115  0.07340110  0.48292007  1
  O2-  O367  1  0.06142397  0.92986405  0.81909847  1
  O2-  O368  1  0.92803247  0.10080023  0.17165072  1
  O2-  O369  1  0.08118382  0.74838276  0.42424874  1
  O2-  O370  1  0.06204158  0.60178940  0.82970385  1
  O2-  O371  1  0.93668598  0.58715007  0.01758408  1
  O2-  O372  1  0.75025065  0.65142237  0.12655902  1
  O2-  O373  1  0.25098752  0.67944813  0.45322949  1
  O2-  O374  1  0.24971461  0.66531863  0.85405112  1
  O2-  O375  1  0.25047659  0.31902327  0.16768563  1
  O2-  O376  1  0.74772671  0.33500394  0.04105309  1
  O2-  O377  1  0.24942010  0.68618317  0.33414915  1
  O2-  O378  1  0.25084765  0.00454093  0.89912740  1
  O2-  O379  1  0.74981849  0.32361379  0.17975702  1
  O2-  O380  1  0.75074677  -0.00065297  0.55381863  1
  O2-  O381  1  0.74946428  0.67842293  0.63341901  1
  O2-  O382  1  0.25082543  0.34054122  0.90013860  1
  O2-  O383  1  0.25133090  0.66505155  0.61126767  1
  O2-  O384  1  0.25180285  0.33573600  0.04578025  1
  O2-  O385  1  0.74907398  0.00726729  0.85125966  1
  O2-  O386  1  0.74968585  0.00855618  0.15086931  1
  O2-  O387  1  0.25067186  0.00574791  0.10267963  1
  O2-  O388  1  0.74902350  0.00532717  0.69117809  1
  O2-  O389  1  0.25012602  0.68496793  0.12594125  1
  O2-  O390  1  0.75378677  0.33568164  0.85476173  1
  O2-  O391  1  0.25109316  0.33887101  0.67104650  1
  O2-  O392  1  0.25072077  -0.00925864  0.35960047  1
  O2-  O393  1  0.74983023  0.32636415  0.60046484  1
  O2-  O394  1  0.25088897  0.31981520  0.58084155  1
  O2-  O395  1  0.24905054  0.31748020  0.39173081  1
  O2-  O396  1  0.75049358  0.82399491  0.41989426  1
  O2-  O397  1  0.25101098  0.47482850  0.60260038  1
  O2-  O398  1  0.25098766  0.16164249  0.08256591  1
  O2-  O399  1  0.25086553  0.46996314  0.37560836  1
  O2-  O400  1  0.24968893  0.83510746  0.88523098  1
  O2-  O401  1  0.74914987  0.80098764  0.93221083  1
  O2-  O402  1  0.25120098  0.15876544  0.84881973  1
  O2-  O403  1  0.74874154  0.17451488  0.90677503  1
  O2-  O404  1  0.74915218  0.51415783  0.93082300  1
  O2-  O405  1  0.24983986  0.49338958  0.08319296  1
  O2-  O406  1  0.74962185  0.80586720  0.12108630  1
  O2-  O407  1  0.74938217  0.47230905  0.37126965  1
  O2-  O408  1  0.75067433  0.83746275  0.33401464  1
  O2-  O409  1  0.24996525  0.15399841  0.59163474  1
  O2-  O410  1  0.75041863  0.83746758  0.82009113  1
  O2-  O411  1  0.75066138  0.16036371  0.66859157  1
  O2-  O412  1  0.25024800  0.84091628  0.34220362  1
  O2-  O413  1  0.25176030  0.84632642  0.61766555  1
  O2-  O414  1  0.24974509  0.84306098  0.15674216  1
  O2-  O415  1  0.74977759  0.52953068  0.66623440  1
  O2-  O416  1  0.75138341  0.46623082  0.56694288  1
  O2-  O417  1  0.24975761  0.49217144  0.89355141  1
  O2-  O418  1  0.25031167  0.14556879  0.38046090  1
  O2-  O419  1  0.74952572  0.16383520  0.34752068  1
  O2-  O420  1  0.51450944  0.33220045  0.88022355  1
  O2-  O421  1  0.54836711  0.66445837  0.10984645  1
  O2-  O422  1  0.45785144  -0.03346565  0.11319404  1
  O2-  O423  1  0.45846108  0.32689978  0.85887363  1
  O2-  O424  1  0.52431258  0.68936538  0.37845173  1
  O2-  O425  1  0.45340348  0.30874013  0.40544590  1
  O2-  O426  1  0.47792452  0.68581546  0.62255085  1
  O2-  O427  1  0.95206331  -0.03342054  0.11265082  1
  O2-  O428  1  0.48293324  0.00322152  0.86951400  1
  O2-  O429  1  0.01019479  0.67104368  0.36211972  1
  O2-  O430  1  0.01897998  0.33544511  0.87339291  1
  O2-  O431  1  0.01470165  -0.00551171  0.37306910  1
  O2-  O432  1  0.04685408  0.32644242  0.12379183  1
  O2-  O433  1  0.01536670  0.32871532  0.62237119  1
  O2-  O434  1  0.95126537  0.34298230  0.13448026  1
  O2-  O435  1  0.46910037  0.67121671  0.87041801  1
  O2-  O436  1  0.54672336  0.32872297  0.37292530  1
  O2-  O437  1  0.45841776  0.67732128  0.15404888  1
  O2-  O438  1  0.51772361  0.33255827  0.62712311  1
  O2-  O439  1  0.95969500  0.68990972  0.12546970  1
  O2-  O440  1  0.52745329  0.32452985  0.12539179  1
  O2-  O441  1  0.54610638  0.01488816  0.11778089  1
  O2-  O442  1  0.04959848  0.65305768  0.11156844  1
  O2-  O443  1  0.04262964  -0.01538794  0.13526560  1
