# generated using pymatgen
data_La7(Ru4O11)2
_symmetry_space_group_name_H-M   'P 1'
_cell_length_a   23.98975694
_cell_length_b   16.82948014
_cell_length_c   15.42638943
_cell_angle_alpha   89.99883731
_cell_angle_beta   89.99989915
_cell_angle_gamma   89.99946699
_symmetry_Int_Tables_number   1
_chemical_formula_structural   La7(Ru4O11)2
_chemical_formula_sum   'La84 Ru96 O264'
_cell_volume   6228.17546219
_cell_formula_units_Z   12
loop_
 _symmetry_equiv_pos_site_id
 _symmetry_equiv_pos_as_xyz
  1  'x, y, z'
loop_
 _atom_type_symbol
 _atom_type_oxidation_number
  La3+  3.0
  Ru4+  4.0
  O2-  -2.0
loop_
 _atom_site_type_symbol
 _atom_site_label
 _atom_site_symmetry_multiplicity
 _atom_site_fract_x
 _atom_site_fract_y
 _atom_site_fract_z
 _atom_site_occupancy
  La3+  La0  1  0.13937121  -0.00100073  0.12534632  1
  La3+  La1  1  0.13918064  -0.00184426  0.37465468  1
  La3+  La2  1  0.13658365  0.00051059  0.62480508  1
  La3+  La3  1  0.13667331  0.00203988  0.87515816  1
  La3+  La4  1  0.13805617  0.33352526  0.12374219  1
  La3+  La5  1  0.13683269  0.33363553  0.37604746  1
  La3+  La6  1  0.13769121  0.33271850  0.62665631  1
  La3+  La7  1  0.13923947  0.33369961  0.87413342  1
  La3+  La8  1  0.13968463  0.66836488  0.12457673  1
  La3+  La9  1  0.13626074  0.66700162  0.37216014  1
  La3+  La10  1  0.13820192  0.66517952  0.62518428  1
  La3+  La11  1  0.13961476  0.66511584  0.87587133  1
  La3+  La12  1  0.63760848  0.00159172  0.12481671  1
  La3+  La13  1  0.63830496  0.00182629  0.37319663  1
  La3+  La14  1  0.63841316  0.00180845  0.62944777  1
  La3+  La15  1  0.64087137  0.00010655  0.87318059  1
  La3+  La16  1  0.64301187  0.33360792  0.12793682  1
  La3+  La17  1  0.64092300  0.33391932  0.37358987  1
  La3+  La18  1  0.64151488  0.33421208  0.62568136  1
  La3+  La19  1  0.63918588  0.33305331  0.87376823  1
  La3+  La20  1  0.64159774  0.66572758  0.12750225  1
  La3+  La21  1  0.63895741  0.66735012  0.37527747  1
  La3+  La22  1  0.63935632  0.66777131  0.62598596  1
  La3+  La23  1  0.63809531  0.66761289  0.87285198  1
  La3+  La24  1  0.35968171  0.00012025  0.12624207  1
  La3+  La25  1  0.36023302  -0.00109067  0.37424602  1
  La3+  La26  1  0.36044719  0.00018877  0.62319309  1
  La3+  La27  1  0.36405413  0.00033428  0.87439579  1
  La3+  La28  1  0.36134350  0.33282595  0.12334082  1
  La3+  La29  1  0.36381730  0.33408432  0.37816890  1
  La3+  La30  1  0.36363797  0.33387489  0.62435692  1
  La3+  La31  1  0.36021445  0.33398249  0.87460714  1
  La3+  La32  1  0.36300779  0.66536145  0.12395907  1
  La3+  La33  1  0.36252803  0.66670331  0.37460193  1
  La3+  La34  1  0.36178849  0.66478283  0.62596125  1
  La3+  La35  1  0.36210982  0.66419788  0.87602656  1
  La3+  La36  1  0.86193756  0.00055687  0.12534320  1
  La3+  La37  1  0.86244972  0.00247446  0.37268251  1
  La3+  La38  1  0.86019695  0.00180853  0.62703740  1
  La3+  La39  1  0.85829099  0.00121089  0.87332867  1
  La3+  La40  1  0.85725106  0.33396268  0.12645271  1
  La3+  La41  1  0.85878051  0.33372837  0.37364585  1
  La3+  La42  1  0.85790845  0.33294519  0.62495743  1
  La3+  La43  1  0.86050736  0.33267670  0.87436737  1
  La3+  La44  1  0.85948460  0.66758194  0.12892483  1
  La3+  La45  1  0.85942131  0.66658834  0.37307653  1
  La3+  La46  1  0.85970655  0.66653781  0.62669675  1
  La3+  La47  1  0.86048925  0.66664504  0.87479048  1
  La3+  La48  1  0.50474345  0.83335408  0.13009803  1
  La3+  La49  1  0.50017060  0.83457621  0.36114372  1
  La3+  La50  1  -0.00048757  0.16627943  0.13746736  1
  La3+  La51  1  0.50035443  0.16630545  0.88966309  1
  La3+  La52  1  0.00070069  0.16627893  0.11467597  1
  La3+  La53  1  0.00093410  0.50092913  0.38564609  1
  La3+  La54  1  0.49688213  0.83626992  0.62143832  1
  La3+  La55  1  0.50024416  0.16549521  0.13515429  1
  La3+  La56  1  -0.00206671  0.49105818  0.63186959  1
  La3+  La57  1  0.00073977  0.83151582  0.88681751  1
  La3+  La58  1  0.50156477  0.49771710  0.13671976  1
  La3+  La59  1  -0.00550325  0.50234804  0.61410791  1
  La3+  La60  1  0.00023047  0.16595148  0.63339525  1
  La3+  La61  1  0.50061215  0.49724041  0.36991316  1
  La3+  La62  1  -0.00360244  0.83660103  0.62232663  1
  La3+  La63  1  -0.00030923  0.50288472  0.13611490  1
  La3+  La64  1  0.49878681  0.83331830  0.10956456  1
  La3+  La65  1  0.50135036  0.49811307  0.11466480  1
  La3+  La66  1  0.49821408  0.16598914  0.37027980  1
  La3+  La67  1  0.00403658  0.50233296  0.87434572  1
  La3+  La68  1  0.49988679  0.49747770  0.61764923  1
  La3+  La69  1  0.50064805  0.49882004  0.87989835  1
  La3+  La70  1  -0.00219025  0.83299609  0.12009605  1
  La3+  La71  1  0.50022336  0.16862869  0.61964505  1
  La3+  La72  1  0.74990762  0.49990577  0.77914716  1
  La3+  La73  1  0.24982435  0.83836330  0.74853060  1
  La3+  La74  1  0.25037666  0.50240842  0.25047101  1
  La3+  La75  1  0.75074410  0.80071820  0.49974881  1
  La3+  La76  1  0.75017566  0.80314878  0.22354389  1
  La3+  La77  1  0.75002851  0.49840974  0.24940502  1
  La3+  La78  1  0.24973330  0.83515914  0.25100459  1
  La3+  La79  1  0.75014127  0.13712127  0.02292815  1
  La3+  La80  1  0.24966772  0.50082209  -0.00821764  1
  La3+  La81  1  0.24987569  0.16093080  0.48483620  1
  La3+  La82  1  0.24992129  0.16930825  0.73847504  1
  La3+  La83  1  0.74973566  0.83487864  0.75337044  1
  Ru4+  Ru84  1  0.00016122  0.00185292  -0.00226395  1
  Ru4+  Ru85  1  0.00115777  -0.00485909  0.25051654  1
  Ru4+  Ru86  1  0.00017613  0.00215501  0.50046077  1
  Ru4+  Ru87  1  0.00056614  -0.00538508  0.75255988  1
  Ru4+  Ru88  1  -0.00005054  0.33395438  0.00016243  1
  Ru4+  Ru89  1  0.00057461  0.33069040  0.25025783  1
  Ru4+  Ru90  1  -0.00137514  0.32868711  0.49878349  1
  Ru4+  Ru91  1  0.00110057  0.33149680  0.74923438  1
  Ru4+  Ru92  1  -0.00140076  0.66581214  0.00579638  1
  Ru4+  Ru93  1  0.00032894  0.66848168  0.25127487  1
  Ru4+  Ru94  1  -0.00149637  0.66731828  0.49589916  1
  Ru4+  Ru95  1  -0.00154622  0.67063422  0.74966114  1
  Ru4+  Ru96  1  0.50010568  0.00023362  -0.00362586  1
  Ru4+  Ru97  1  0.50302273  0.00209302  0.24851787  1
  Ru4+  Ru98  1  0.49913297  0.00159422  0.49940253  1
  Ru4+  Ru99  1  0.50210336  -0.00352705  0.75123473  1
  Ru4+  Ru100  1  0.49936296  0.32982850  -0.00093871  1
  Ru4+  Ru101  1  0.49825503  0.33387451  0.25163190  1
  Ru4+  Ru102  1  0.50298776  0.33926849  0.50007978  1
  Ru4+  Ru103  1  0.49986930  0.33374491  0.74869474  1
  Ru4+  Ru104  1  0.50270610  0.67245176  -0.00274241  1
  Ru4+  Ru105  1  0.50451334  0.67062374  0.25274640  1
  Ru4+  Ru106  1  0.49863525  0.65728258  0.49895296  1
  Ru4+  Ru107  1  0.49736941  0.66283188  0.74937661  1
  Ru4+  Ru108  1  0.11179702  0.16623059  0.00032517  1
  Ru4+  Ru109  1  0.11356821  0.16806601  0.24994885  1
  Ru4+  Ru110  1  0.11068076  0.16675520  0.50093599  1
  Ru4+  Ru111  1  0.11238857  0.16984995  0.74958054  1
  Ru4+  Ru112  1  0.11146263  0.49916407  -0.00096833  1
  Ru4+  Ru113  1  0.11029009  0.50119198  0.24931893  1
  Ru4+  Ru114  1  0.11526910  0.49912604  0.49940769  1
  Ru4+  Ru115  1  0.11553588  0.49935688  0.75182684  1
  Ru4+  Ru116  1  0.11303243  0.83355899  -0.00014501  1
  Ru4+  Ru117  1  0.11093814  0.83163815  0.25072749  1
  Ru4+  Ru118  1  0.11426468  0.83661535  0.49950497  1
  Ru4+  Ru119  1  0.11049941  0.83449471  0.75009450  1
  Ru4+  Ru120  1  0.61141090  0.16602289  -0.00059570  1
  Ru4+  Ru121  1  0.61496817  0.16627667  0.25023452  1
  Ru4+  Ru122  1  0.61275664  0.16737532  0.49968933  1
  Ru4+  Ru123  1  0.61486548  0.16615146  0.74914011  1
  Ru4+  Ru124  1  0.61477655  0.49890743  -0.00129443  1
  Ru4+  Ru125  1  0.61336549  0.49930005  0.25027885  1
  Ru4+  Ru126  1  0.61340527  0.49846127  0.49991973  1
  Ru4+  Ru127  1  0.61197470  0.50018276  0.75005391  1
  Ru4+  Ru128  1  0.61214995  0.83528358  -0.00137439  1
  Ru4+  Ru129  1  0.61175558  0.83248473  0.25115283  1
  Ru4+  Ru130  1  0.61730126  0.83683390  0.49878859  1
  Ru4+  Ru131  1  0.61318169  0.83848258  0.75169992  1
  Ru4+  Ru132  1  0.38904589  0.16657280  0.00045124  1
  Ru4+  Ru133  1  0.38787720  0.16648648  0.25023815  1
  Ru4+  Ru134  1  0.38642619  0.16204399  0.49961159  1
  Ru4+  Ru135  1  0.38748449  0.16888584  0.75067333  1
  Ru4+  Ru136  1  0.38450594  0.49523982  -0.00205320  1
  Ru4+  Ru137  1  0.38571798  0.49491599  0.25107217  1
  Ru4+  Ru138  1  0.38651696  0.49705712  0.49900757  1
  Ru4+  Ru139  1  0.38703633  0.50042650  0.74972744  1
  Ru4+  Ru140  1  0.38802186  0.83229893  -0.00073682  1
  Ru4+  Ru141  1  0.38630139  0.83366488  0.25058476  1
  Ru4+  Ru142  1  0.38481400  0.83595992  0.50073352  1
  Ru4+  Ru143  1  0.38949774  0.83581308  0.74916710  1
  Ru4+  Ru144  1  0.88932174  0.16646320  0.00087978  1
  Ru4+  Ru145  1  0.88495896  0.16812404  0.25082973  1
  Ru4+  Ru146  1  0.88901492  0.16604016  0.49956836  1
  Ru4+  Ru147  1  0.88448079  0.16681350  0.75034683  1
  Ru4+  Ru148  1  0.88571514  0.49752786  0.00078650  1
  Ru4+  Ru149  1  0.88648898  0.50251160  0.24997686  1
  Ru4+  Ru150  1  0.88636842  0.49839900  0.49906207  1
  Ru4+  Ru151  1  0.88623965  0.49983264  0.75044111  1
  Ru4+  Ru152  1  0.88688206  0.83304603  0.00060005  1
  Ru4+  Ru153  1  0.89022805  0.83137966  0.25032508  1
  Ru4+  Ru154  1  0.88871707  0.83157228  0.50044404  1
  Ru4+  Ru155  1  0.88746236  0.83210686  0.74908625  1
  Ru4+  Ru156  1  0.24978504  0.03379605  0.52158287  1
  Ru4+  Ru157  1  0.75018123  0.94053935  0.50597255  1
  Ru4+  Ru158  1  0.75031320  0.75155229  0.00365450  1
  Ru4+  Ru159  1  0.25013621  0.42209790  0.75858385  1
  Ru4+  Ru160  1  0.24991645  0.58167119  0.49703886  1
  Ru4+  Ru161  1  0.74981843  0.08742924  0.50131657  1
  Ru4+  Ru162  1  0.24988555  0.07231734  0.00602772  1
  Ru4+  Ru163  1  0.24992218  0.29074154  0.49340787  1
  Ru4+  Ru164  1  0.25010211  0.08634117  0.24938703  1
  Ru4+  Ru165  1  0.24978216  0.37337777  0.26106667  1
  Ru4+  Ru166  1  0.24994708  0.70634280  0.73322889  1
  Ru4+  Ru167  1  0.74992494  0.24648380  0.50069834  1
  Ru4+  Ru168  1  0.24969344  0.63077246  0.25911306  1
  Ru4+  Ru169  1  0.25001274  0.74415249  0.01160740  1
  Ru4+  Ru170  1  0.24998323  0.24311528  0.25426375  1
  Ru4+  Ru171  1  0.24991083  0.96859763  0.75073601  1
  Ru4+  Ru172  1  0.75020700  0.57813369  0.00426059  1
  Ru4+  Ru173  1  0.24987763  0.74808793  0.49070268  1
  Ru4+  Ru174  1  0.25007884  0.92705444  0.00777886  1
  Ru4+  Ru175  1  0.75011183  0.91490719  -0.00454969  1
  Ru4+  Ru176  1  0.25006238  0.25846481  0.00433895  1
  Ru4+  Ru177  1  0.75024090  0.27491452  0.00076422  1
  Ru4+  Ru178  1  0.74991679  0.94110811  0.25130447  1
  Ru4+  Ru179  1  0.75008877  0.58098389  0.49210278  1
  O2-  O180  1  0.16883832  0.07962834  -0.00040764  1
  O2-  O181  1  0.16695604  0.08097014  0.25145955  1
  O2-  O182  1  0.16628785  0.07904170  0.49980698  1
  O2-  O183  1  0.16762138  0.07887466  0.75056151  1
  O2-  O184  1  0.16911485  0.41370722  0.00054295  1
  O2-  O185  1  0.16550680  0.41101362  0.25038238  1
  O2-  O186  1  0.16641085  0.41490778  0.49960362  1
  O2-  O187  1  0.16744664  0.41513066  0.74913595  1
  O2-  O188  1  0.16704761  0.74840260  -0.00011900  1
  O2-  O189  1  0.16953336  0.74761137  0.25024826  1
  O2-  O190  1  0.16812292  0.74647850  0.50057907  1
  O2-  O191  1  0.16613871  0.74501794  0.74922193  1
  O2-  O192  1  0.66665080  0.07901090  0.00175477  1
  O2-  O193  1  0.66798322  0.08091884  0.24945644  1
  O2-  O194  1  0.66750629  0.08041847  0.50016864  1
  O2-  O195  1  0.66654904  0.08358941  0.74922886  1
  O2-  O196  1  0.66734446  0.41448964  -0.00042800  1
  O2-  O197  1  0.66630612  0.41457578  0.25085466  1
  O2-  O198  1  0.66557187  0.41501489  0.49965814  1
  O2-  O199  1  0.66696633  0.41368812  0.75131666  1
  O2-  O200  1  0.66684092  0.74754352  0.00095894  1
  O2-  O201  1  0.66638271  0.74640471  0.25019885  1
  O2-  O202  1  0.66671541  0.74695967  0.50134785  1
  O2-  O203  1  0.66770384  0.74766466  0.75011807  1
  O2-  O204  1  0.33199362  0.25387301  0.00046727  1
  O2-  O205  1  0.33336730  0.25271187  0.24971001  1
  O2-  O206  1  0.33387114  0.25391371  0.49946136  1
  O2-  O207  1  0.33467843  0.25186744  0.74979048  1
  O2-  O208  1  0.33254619  0.58653975  0.00138749  1
  O2-  O209  1  0.33424148  0.58954129  0.25084540  1
  O2-  O210  1  0.33232178  0.58587584  0.49906888  1
  O2-  O211  1  0.33409724  0.58539685  0.74984871  1
  O2-  O212  1  0.33242184  0.92085352  -0.00028145  1
  O2-  O213  1  0.33288619  0.91904544  0.24969366  1
  O2-  O214  1  0.33291288  0.91802253  0.50049828  1
  O2-  O215  1  0.33178153  0.92107232  0.75155594  1
  O2-  O216  1  0.83236674  0.25446971  -0.00071180  1
  O2-  O217  1  0.83494441  0.25048667  0.24948209  1
  O2-  O218  1  0.83347150  0.25143554  0.49988071  1
  O2-  O219  1  0.83483051  0.25077421  0.75177026  1
  O2-  O220  1  0.83094572  0.58500428  -0.00060270  1
  O2-  O221  1  0.83320765  0.58475408  0.25230678  1
  O2-  O222  1  0.83342417  0.58649366  0.49948584  1
  O2-  O223  1  0.83302077  0.58546535  0.75153634  1
  O2-  O224  1  0.83151622  0.91910459  0.00108871  1
  O2-  O225  1  0.83294932  0.92040655  0.24991388  1
  O2-  O226  1  0.83234289  0.92051511  0.49960962  1
  O2-  O227  1  0.83146154  0.91812135  0.74945375  1
  O2-  O228  1  0.16761752  0.25290464  0.00067228  1
  O2-  O229  1  0.16755873  0.25163103  0.25117683  1
  O2-  O230  1  0.16631514  0.25454868  0.49942116  1
  O2-  O231  1  0.16746037  0.25290348  0.74988797  1
  O2-  O232  1  0.16767658  0.58612382  0.00091522  1
  O2-  O233  1  0.16715513  0.58775661  0.25090341  1
  O2-  O234  1  0.16853163  0.58549697  0.49950151  1
  O2-  O235  1  0.16796414  0.58546272  0.74788192  1
  O2-  O236  1  0.16740813  0.91957610  -0.00105590  1
  O2-  O237  1  0.16643112  0.91861962  0.25020408  1
  O2-  O238  1  0.16533727  0.91822862  0.50086570  1
  O2-  O239  1  0.16601796  0.92113230  0.74970986  1
  O2-  O240  1  0.66698521  0.25336767  0.00029630  1
  O2-  O241  1  0.66504510  0.25038047  0.25023001  1
  O2-  O242  1  0.66668716  0.25179090  0.50003106  1
  O2-  O243  1  0.66714259  0.25098845  0.75167767  1
  O2-  O244  1  0.66719132  0.58606882  0.00055767  1
  O2-  O245  1  0.66505108  0.58621626  0.25027339  1
  O2-  O246  1  0.66608683  0.58639025  0.50073576  1
  O2-  O247  1  0.66641080  0.58658693  0.75073523  1
  O2-  O248  1  0.66871762  0.91866388  0.00173403  1
  O2-  O249  1  0.66718303  0.92069346  0.24923079  1
  O2-  O250  1  0.66758364  0.92102275  0.50000982  1
  O2-  O251  1  0.66846266  0.91660454  0.74803469  1
  O2-  O252  1  0.33237200  0.07943801  -0.00030683  1
  O2-  O253  1  0.33253395  0.08079747  0.24955057  1
  O2-  O254  1  0.33401552  0.08004680  0.49916576  1
  O2-  O255  1  0.33118101  0.07878669  0.75174162  1
  O2-  O256  1  0.33046175  0.41297971  0.00099127  1
  O2-  O257  1  0.33415492  0.41036277  0.25023114  1
  O2-  O258  1  0.33219453  0.41548813  0.50044535  1
  O2-  O259  1  0.33233473  0.41490095  0.74984302  1
  O2-  O260  1  0.33310589  0.74759324  0.00074505  1
  O2-  O261  1  0.33209689  0.74632204  0.25109221  1
  O2-  O262  1  0.33297108  0.74719360  0.49868558  1
  O2-  O263  1  0.33462039  0.74595833  0.75002869  1
  O2-  O264  1  0.83435233  0.07795465  0.00109749  1
  O2-  O265  1  0.83122165  0.07995658  0.24865527  1
  O2-  O266  1  0.83293017  0.08126348  0.49973661  1
  O2-  O267  1  0.83245902  0.08242377  0.74900231  1
  O2-  O268  1  0.83457426  0.41546770  -0.00151589  1
  O2-  O269  1  0.83324774  0.41478274  0.25135996  1
  O2-  O270  1  0.83415661  0.41457746  0.49974932  1
  O2-  O271  1  0.83143563  0.41443230  0.75258624  1
  O2-  O272  1  0.83155762  0.74804434  -0.00075845  1
  O2-  O273  1  0.83343276  0.74754552  0.25263099  1
  O2-  O274  1  0.83560564  0.74714124  0.49987673  1
  O2-  O275  1  0.83157813  0.74941133  0.75153374  1
  O2-  O276  1  0.96276258  0.88802248  0.77981882  1
  O2-  O277  1  0.54288247  0.76844604  0.50998731  1
  O2-  O278  1  0.04606165  0.09722666  0.75161829  1
  O2-  O279  1  0.54787128  0.09812741  0.51380261  1
  O2-  O280  1  0.95473505  0.90298410  0.26395003  1
  O2-  O281  1  0.53860287  0.89396396  0.46651528  1
  O2-  O282  1  0.96336664  0.55442996  0.00155478  1
  O2-  O283  1  0.04575366  0.57472282  0.29267761  1
  O2-  O284  1  0.95393883  0.23716208  0.51461730  1
  O2-  O285  1  0.45464846  0.77447092  0.46763968  1
  O2-  O286  1  0.45350393  0.76398497  0.23911204  1
  O2-  O287  1  0.04413114  0.09769165  0.74977526  1
  O2-  O288  1  0.45403924  0.56757648  0.98013582  1
  O2-  O289  1  0.45642141  0.56652567  0.73774347  1
  O2-  O290  1  0.95459506  0.09697493  0.48523273  1
  O2-  O291  1  0.47025836  0.87459426  0.75186693  1
  O2-  O292  1  0.45337677  0.56769993  0.27080095  1
  O2-  O293  1  0.05541577  0.24902111  0.72668821  1
  O2-  O294  1  0.54513538  0.76357477  0.72793484  1
  O2-  O295  1  0.45390597  0.90041058  0.98734609  1
  O2-  O296  1  0.53697597  0.21969814  0.78145227  1
  O2-  O297  1  0.45392039  0.90544946  0.23796921  1
  O2-  O298  1  0.04908278  0.43034176  0.23546410  1
  O2-  O299  1  0.04156077  0.77523511  0.52382718  1
  O2-  O300  1  0.04573744  0.42858714  0.51188120  1
  O2-  O301  1  0.45211413  0.09625683  0.51317599  1
  O2-  O302  1  0.54285455  0.76848439  0.50974723  1
  O2-  O303  1  0.54571164  0.76618093  0.76695269  1
  O2-  O304  1  0.95773210  0.44224688  0.27875880  1
  O2-  O305  1  0.96142236  0.89309441  0.47123850  1
  O2-  O306  1  0.04539929  0.76883636  0.76326703  1
  O2-  O307  1  0.04280127  0.55794981  0.72247781  1
  O2-  O308  1  0.04599636  0.76248867  0.01332567  1
  O2-  O309  1  0.46000642  0.10992240  0.77591789  1
  O2-  O310  1  0.94581554  0.08030710  0.27241659  1
  O2-  O311  1  0.96090908  0.43805114  0.78394872  1
  O2-  O312  1  0.04707013  0.56924338  0.51127375  1
  O2-  O313  1  0.95220711  0.57162014  0.76331774  1
  O2-  O314  1  0.04107711  0.10899265  0.28185227  1
  O2-  O315  1  0.05082321  0.56886258  0.98672962  1
  O2-  O316  1  0.95396373  0.42795512  0.01344462  1
  O2-  O317  1  0.04622817  0.90168446  0.01149995  1
  O2-  O318  1  0.54497057  0.76528312  0.98691949  1
  O2-  O319  1  0.45257237  0.57041226  0.01914443  1
  O2-  O320  1  0.45263509  0.57092701  0.23165867  1
  O2-  O321  1  0.45442143  0.56608259  0.51122289  1
  O2-  O322  1  0.45176152  0.23617405  0.51245124  1
  O2-  O323  1  0.54507646  0.23300184  0.26179786  1
  O2-  O324  1  0.56467490  0.07328845  0.22142716  1
  O2-  O325  1  0.43656163  0.93017021  0.55596455  1
  O2-  O326  1  0.05792219  0.57459042  0.29311163  1
  O2-  O327  1  0.43290063  0.06929416  0.70213882  1
  O2-  O328  1  0.56425073  0.93241932  0.78176738  1
  O2-  O329  1  0.57063737  0.94237840  0.55238311  1
  O2-  O330  1  0.42188725  0.94651732  0.70631220  1
  O2-  O331  1  0.93528782  0.74106684  0.22309011  1
  O2-  O332  1  0.56516402  0.92826070  0.96979689  1
  O2-  O333  1  0.56654849  0.40890381  0.94435886  1
  O2-  O334  1  0.93509869  0.59245167  0.22241857  1
  O2-  O335  1  0.43518893  0.40770640  0.47135004  1
  O2-  O336  1  0.93542810  0.93041720  0.03406579  1
  O2-  O337  1  0.93494269  0.74398140  0.02744224  1
  O2-  O338  1  0.43582856  0.40245943  0.96607253  1
  O2-  O339  1  0.43564842  0.25972138  0.52856147  1
  O2-  O340  1  0.43624850  0.06987137  0.28309398  1
  O2-  O341  1  0.56464525  0.73958156  0.27705511  1
  O2-  O342  1  0.07224658  0.06374004  0.20659251  1
  O2-  O343  1  0.43513351  0.40538002  0.72438577  1
  O2-  O344  1  0.93450851  0.07377342  0.69986304  1
  O2-  O345  1  0.56290701  0.07282884  0.96761361  1
  O2-  O346  1  0.43603900  0.93027360  0.44280455  1
  O2-  O347  1  0.06519550  0.40296508  0.78315294  1
  O2-  O348  1  0.06414042  0.06910340  0.96819868  1
  O2-  O349  1  0.06520266  0.26376178  0.53360925  1
  O2-  O350  1  0.93419780  0.73977651  0.72160888  1
  O2-  O351  1  0.93177364  0.93871843  0.54604369  1
  O2-  O352  1  0.57085370  0.27759755  0.69807448  1
  O2-  O353  1  0.93427292  0.07288370  0.79339743  1
  O2-  O354  1  0.56403109  0.40230397  0.21687229  1
  O2-  O355  1  0.07274874  0.73232210  0.46004144  1
  O2-  O356  1  0.92765207  0.38656607  0.69484830  1
  O2-  O357  1  0.06445386  0.40103471  0.96654524  1
  O2-  O358  1  0.42787207  0.73219382  0.54249651  1
  O2-  O359  1  0.07110766  0.60744746  0.17212999  1
  O2-  O360  1  0.92949406  0.93728103  0.69851380  1
  O2-  O361  1  0.57745119  0.72157187  0.45666984  1
  O2-  O362  1  0.06536807  0.25970832  0.22160315  1
  O2-  O363  1  0.06518737  0.74111712  0.27682575  1
  O2-  O364  1  0.06308209  0.06732974  0.53250188  1
  O2-  O365  1  0.94252381  0.08817045  0.27218434  1
  O2-  O366  1  0.92147499  0.60879132  0.03590744  1
  O2-  O367  1  0.07436463  0.60559689  0.79670175  1
  O2-  O368  1  0.56420107  0.40072726  0.06138741  1
  O2-  O369  1  0.56236763  0.07030641  0.71615312  1
  O2-  O370  1  0.92807094  0.39869671  0.20926928  1
  O2-  O371  1  0.05449428  0.25459745  0.72687923  1
  O2-  O372  1  0.75010589  0.33215120  0.33191793  1
  O2-  O373  1  0.25021411  0.67070289  0.14894521  1
  O2-  O374  1  0.75021137  -0.00560679  0.84962960  1
  O2-  O375  1  0.75007932  0.33580130  0.42036818  1
  O2-  O376  1  0.25002667  0.32928853  0.14623123  1
  O2-  O377  1  0.75011608  0.00342951  0.40103870  1
  O2-  O378  1  0.74989857  0.66582523  0.90720390  1
  O2-  O379  1  0.25020987  0.00039085  0.15440071  1
  O2-  O380  1  0.24980393  -0.01108981  0.41376604  1
  O2-  O381  1  0.25023753  0.32984418  0.67827178  1
  O2-  O382  1  0.25014387  0.65603342  0.83582916  1
  O2-  O383  1  0.74989273  0.66709426  0.66997043  1
  O2-  O384  1  0.74996200  0.33262108  0.66927740  1
  O2-  O385  1  0.75002627  0.32987172  0.14719002  1
  O2-  O386  1  0.24980811  0.66634349  0.59395972  1
  O2-  O387  1  0.24987438  0.34231971  0.38971959  1
  O2-  O388  1  0.74986630  0.33497782  0.57985298  1
  O2-  O389  1  0.75022967  0.66709657  0.40733086  1
  O2-  O390  1  0.74984343  0.66817281  0.57809600  1
  O2-  O391  1  0.25011758  0.66374732  0.92660801  1
  O2-  O392  1  0.24995734  -0.00388353  0.32214948  1
  O2-  O393  1  0.74942121  0.66930498  0.14861239  1
  O2-  O394  1  0.24998466  0.34973021  0.59146826  1
  O2-  O395  1  0.25019086  0.33441661  0.84314733  1
  O2-  O396  1  0.74995303  0.50240786  0.91612109  1
  O2-  O397  1  0.75002488  0.17486326  0.89367115  1
  O2-  O398  1  0.75000848  0.16702653  0.41736659  1
  O2-  O399  1  0.75000857  0.16583044  0.33170631  1
  O2-  O400  1  0.24995361  0.84149089  0.55145294  1
  O2-  O401  1  0.74998895  0.50320414  0.11828033  1
  O2-  O402  1  0.24996600  0.82917012  0.40748981  1
  O2-  O403  1  0.25025776  0.83016979  0.62960122  1
  O2-  O404  1  0.24980026  0.16627581  0.85902340  1
  O2-  O405  1  0.25005506  0.16587352  0.61762640  1
  O2-  O406  1  0.25000471  0.83384262  0.94656578  1
  O2-  O407  1  0.24991534  0.50301801  0.38190424  1
  O2-  O408  1  0.74990729  0.83275520  0.90777724  1
  O2-  O409  1  0.24999648  0.83335592  0.09220831  1
  O2-  O410  1  0.25010869  0.16611076  0.94095294  1
  O2-  O411  1  0.74996403  0.83679619  0.36024250  1
  O2-  O412  1  0.25003881  0.16694325  0.07787856  1
  O2-  O413  1  0.24984651  0.83232362  0.86666623  1
  O2-  O414  1  0.75004093  0.50341044  0.38029314  1
  O2-  O415  1  0.75012791  0.50074559  0.65130142  1
  O2-  O416  1  0.74993235  0.49597825  0.56576503  1
  O2-  O417  1  0.24983406  0.49921037  0.12195740  1
  O2-  O418  1  0.24996497  0.16774784  0.17076878  1
  O2-  O419  1  0.24993818  0.49759540  0.83832478  1
  O2-  O420  1  0.98216716  0.66721042  0.12562687  1
  O2-  O421  1  0.02467549  -0.00133342  0.12094667  1
  O2-  O422  1  0.97450803  -0.00337585  0.88265816  1
  O2-  O423  1  0.03709212  0.33380465  0.37376025  1
  O2-  O424  1  0.47336413  0.66953445  0.12356321  1
  O2-  O425  1  0.96332902  0.33338431  0.37526027  1
  O2-  O426  1  0.96181675  0.66323450  0.61915462  1
  O2-  O427  1  0.46187794  0.32792507  0.36702261  1
  O2-  O428  1  0.47569641  0.66578968  0.63018488  1
  O2-  O429  1  0.53697618  0.66181597  0.87479272  1
  O2-  O430  1  0.52432773  0.33046700  0.86907116  1
  O2-  O431  1  0.47067581  0.00114512  0.87560253  1
  O2-  O432  1  0.52348590  0.65740566  0.37532915  1
  O2-  O433  1  0.52531695  -0.00460423  0.12110316  1
  O2-  O434  1  0.96696729  0.66841696  0.87519686  1
  O2-  O435  1  0.46289498  0.66846257  0.87348765  1
  O2-  O436  1  0.01762823  0.66515453  0.38085597  1
  O2-  O437  1  0.03746333  0.33592782  0.11908611  1
  O2-  O438  1  0.47715829  0.33460055  0.62445297  1
  O2-  O439  1  0.04000792  0.66773467  0.62810065  1
  O2-  O440  1  0.54031436  0.33566942  0.37945130  1
  O2-  O441  1  0.52806152  0.00207140  0.37259946  1
  O2-  O442  1  0.02900785  0.67290763  0.88110095  1
  O2-  O443  1  0.96338562  0.32286076  0.12126158  1
