# generated using pymatgen
data_La7(Ru4O11)2
_symmetry_space_group_name_H-M   'P 1'
_cell_length_a   23.99033951
_cell_length_b   16.83080065
_cell_length_c   15.42625764
_cell_angle_alpha   89.99937592
_cell_angle_beta   90.00019212
_cell_angle_gamma   89.99986565
_symmetry_Int_Tables_number   1
_chemical_formula_structural   La7(Ru4O11)2
_chemical_formula_sum   'La84 Ru96 O264'
_cell_volume   6228.76219701
_cell_formula_units_Z   12
loop_
 _symmetry_equiv_pos_site_id
 _symmetry_equiv_pos_as_xyz
  1  'x, y, z'
loop_
 _atom_type_symbol
 _atom_type_oxidation_number
  La3+  3.0
  Ru4+  4.0
  O2-  -2.0
loop_
 _atom_site_type_symbol
 _atom_site_label
 _atom_site_symmetry_multiplicity
 _atom_site_fract_x
 _atom_site_fract_y
 _atom_site_fract_z
 _atom_site_occupancy
  La3+  La0  1  0.13543416  0.00030075  0.12248062  1
  La3+  La1  1  0.13899792  -0.00043244  0.37426714  1
  La3+  La2  1  0.13836937  0.00125870  0.62540164  1
  La3+  La3  1  0.13746472  0.00260615  0.87688923  1
  La3+  La4  1  0.13451092  0.32824230  0.12357311  1
  La3+  La5  1  0.13916955  0.33179858  0.37494638  1
  La3+  La6  1  0.14160369  0.33283876  0.62687740  1
  La3+  La7  1  0.13508023  0.32947275  0.87712011  1
  La3+  La8  1  0.13737561  0.66660895  0.12873769  1
  La3+  La9  1  0.13727202  0.66876647  0.37379816  1
  La3+  La10  1  0.13722116  0.66597978  0.62480671  1
  La3+  La11  1  0.13695150  0.66485726  0.87332234  1
  La3+  La12  1  0.63635160  0.00164616  0.12561496  1
  La3+  La13  1  0.63370686  0.00610918  0.37873064  1
  La3+  La14  1  0.63200352  0.00474947  0.62256947  1
  La3+  La15  1  0.63590596  0.00103323  0.87382748  1
  La3+  La16  1  0.64080089  0.33467050  0.12484410  1
  La3+  La17  1  0.64003978  0.33515986  0.37642770  1
  La3+  La18  1  0.64372083  0.33341873  0.62477763  1
  La3+  La19  1  0.64292324  0.33400495  0.87604109  1
  La3+  La20  1  0.63721037  0.66438822  0.12614734  1
  La3+  La21  1  0.63836189  0.66315599  0.37646334  1
  La3+  La22  1  0.63781413  0.66362818  0.62480606  1
  La3+  La23  1  0.63594888  0.66339531  0.87396591  1
  La3+  La24  1  0.36222015  0.00033827  0.12368506  1
  La3+  La25  1  0.35869078  -0.00158341  0.37449231  1
  La3+  La26  1  0.36422193  0.00114154  0.62483360  1
  La3+  La27  1  0.36077071  0.00326819  0.87690371  1
  La3+  La28  1  0.36078040  0.33172216  0.12795331  1
  La3+  La29  1  0.36056502  0.33145641  0.37572303  1
  La3+  La30  1  0.35893292  0.33282643  0.62539536  1
  La3+  La31  1  0.36069890  0.33343404  0.87080731  1
  La3+  La32  1  0.36336493  0.66934119  0.13180604  1
  La3+  La33  1  0.36040589  0.66826184  0.37051080  1
  La3+  La34  1  0.36224158  0.66565408  0.62627098  1
  La3+  La35  1  0.36420606  0.66431137  0.87403145  1
  La3+  La36  1  0.86225418  0.00188865  0.12467100  1
  La3+  La37  1  0.86043467  -0.00015734  0.37570045  1
  La3+  La38  1  0.85904552  -0.00157737  0.62524498  1
  La3+  La39  1  0.86202836  0.00149927  0.87602472  1
  La3+  La40  1  0.86007145  0.33538446  0.12401782  1
  La3+  La41  1  0.85965504  0.33684698  0.37647125  1
  La3+  La42  1  0.85580039  0.33508793  0.62516250  1
  La3+  La43  1  0.85741349  0.33367491  0.87508395  1
  La3+  La44  1  0.86384243  0.66366252  0.12772605  1
  La3+  La45  1  0.86217024  0.66338034  0.37461258  1
  La3+  La46  1  0.86024622  0.66360719  0.62363058  1
  La3+  La47  1  0.86128607  0.66363748  0.87488305  1
  La3+  La48  1  0.50003489  0.49855086  0.63572419  1
  La3+  La49  1  0.50250954  0.16247053  0.38951043  1
  La3+  La50  1  0.00277971  0.16774787  0.11360839  1
  La3+  La51  1  0.00137095  0.83203491  0.60769560  1
  La3+  La52  1  -0.00047045  0.83149894  0.36555035  1
  La3+  La53  1  0.00523060  0.83912832  0.62711006  1
  La3+  La54  1  0.00011609  0.50066378  0.61402024  1
  La3+  La55  1  0.50008928  0.50000289  0.11023767  1
  La3+  La56  1  0.00135248  0.50096341  0.11607753  1
  La3+  La57  1  -0.00035369  0.49833831  0.86587545  1
  La3+  La58  1  0.50193571  0.16561239  0.63184205  1
  La3+  La59  1  0.49762603  0.82829327  0.11603568  1
  La3+  La60  1  0.50234920  0.82756610  0.63015183  1
  La3+  La61  1  0.49917386  0.16183439  0.86208087  1
  La3+  La62  1  -0.00003135  0.16888730  0.64173983  1
  La3+  La63  1  0.00325717  0.17107653  0.89240113  1
  La3+  La64  1  0.49932901  0.83206240  0.38334766  1
  La3+  La65  1  0.50004437  0.83510169  0.86539356  1
  La3+  La66  1  0.50392520  0.16275561  0.37238370  1
  La3+  La67  1  0.50042143  0.49979186  0.12717644  1
  La3+  La68  1  0.49911618  0.83231734  0.36080071  1
  La3+  La69  1  0.50140445  0.50288266  0.88061282  1
  La3+  La70  1  -0.00023638  0.49980070  0.36667728  1
  La3+  La71  1  0.00335277  0.82814368  0.87889493  1
  La3+  La72  1  0.24990542  0.50027963  -0.01126344  1
  La3+  La73  1  0.24998969  0.16926926  0.72954974  1
  La3+  La74  1  0.74980504  0.16934428  0.47980553  1
  La3+  La75  1  0.25004394  0.87303779  0.00643039  1
  La3+  La76  1  0.75025061  0.17073375  -0.00817435  1
  La3+  La77  1  0.24963407  0.44833710  0.51380886  1
  La3+  La78  1  0.74996805  0.83510334  0.03276244  1
  La3+  La79  1  0.24970572  0.12535485  0.00119920  1
  La3+  La80  1  0.74994031  0.12888409  0.23368612  1
  La3+  La81  1  0.74964329  0.83721646  0.74695232  1
  La3+  La82  1  0.24976745  0.83535980  0.79897606  1
  La3+  La83  1  0.74985734  0.83172464  0.25383850  1
  Ru4+  Ru84  1  -0.00185692  -0.00570869  0.00409406  1
  Ru4+  Ru85  1  0.00361330  0.00099128  0.24961891  1
  Ru4+  Ru86  1  -0.00135787  -0.00061101  0.49650920  1
  Ru4+  Ru87  1  -0.00044166  -0.00084290  0.75065715  1
  Ru4+  Ru88  1  -0.00007248  0.33264441  0.00114104  1
  Ru4+  Ru89  1  -0.00217364  0.33447892  0.25598813  1
  Ru4+  Ru90  1  0.00066868  0.33498394  0.49653228  1
  Ru4+  Ru91  1  -0.00049535  0.33419387  0.74899004  1
  Ru4+  Ru92  1  -0.00032327  0.66848206  0.00073401  1
  Ru4+  Ru93  1  0.00293760  0.67228511  0.24787305  1
  Ru4+  Ru94  1  -0.00410001  0.66085107  0.50171701  1
  Ru4+  Ru95  1  0.00095325  0.66412612  0.75039220  1
  Ru4+  Ru96  1  0.49607331  0.00492638  -0.00295438  1
  Ru4+  Ru97  1  0.49607234  -0.00535421  0.24458525  1
  Ru4+  Ru98  1  0.50034683  0.00037237  0.50827056  1
  Ru4+  Ru99  1  0.49384571  0.00403129  0.75035787  1
  Ru4+  Ru100  1  0.49765432  0.33639513  -0.00678691  1
  Ru4+  Ru101  1  0.50163644  0.33408931  0.25361423  1
  Ru4+  Ru102  1  0.49863300  0.33235505  0.49757681  1
  Ru4+  Ru103  1  0.50008284  0.33314726  0.74945827  1
  Ru4+  Ru104  1  0.49973232  0.66715374  -0.00425022  1
  Ru4+  Ru105  1  0.50650389  0.66344758  0.24949879  1
  Ru4+  Ru106  1  0.50153971  0.66415417  0.49719120  1
  Ru4+  Ru107  1  0.49742498  0.67030508  0.75155884  1
  Ru4+  Ru108  1  0.11316913  0.17098352  0.00051471  1
  Ru4+  Ru109  1  0.11312431  0.16694298  0.24968792  1
  Ru4+  Ru110  1  0.11516402  0.17056484  0.49919411  1
  Ru4+  Ru111  1  0.11223739  0.16807460  0.75017002  1
  Ru4+  Ru112  1  0.11048625  0.49978339  0.00003924  1
  Ru4+  Ru113  1  0.11465934  0.50226537  0.24957850  1
  Ru4+  Ru114  1  0.11101873  0.50054958  0.50012971  1
  Ru4+  Ru115  1  0.11480863  0.49911507  0.75017121  1
  Ru4+  Ru116  1  0.10979083  0.83525999  0.00038763  1
  Ru4+  Ru117  1  0.11309362  0.83130837  0.24999952  1
  Ru4+  Ru118  1  0.11549793  0.83754321  0.49981136  1
  Ru4+  Ru119  1  0.10934848  0.83305538  0.75060212  1
  Ru4+  Ru120  1  0.61537405  0.16357022  0.00157006  1
  Ru4+  Ru121  1  0.61356262  0.17222635  0.24887293  1
  Ru4+  Ru122  1  0.61183984  0.16467774  0.50145457  1
  Ru4+  Ru123  1  0.61544785  0.17170963  0.74932178  1
  Ru4+  Ru124  1  0.61429272  0.49759403  -0.00004523  1
  Ru4+  Ru125  1  0.61607114  0.50070455  0.25139246  1
  Ru4+  Ru126  1  0.61479345  0.50293632  0.49966082  1
  Ru4+  Ru127  1  0.61651916  0.49723523  0.74985367  1
  Ru4+  Ru128  1  0.61444258  0.82722722  -0.00095344  1
  Ru4+  Ru129  1  0.61008437  0.83294349  0.25161755  1
  Ru4+  Ru130  1  0.61337029  0.83179018  0.50018071  1
  Ru4+  Ru131  1  0.61339457  0.82836966  0.74907020  1
  Ru4+  Ru132  1  0.39015833  0.16522935  -0.00047182  1
  Ru4+  Ru133  1  0.38556655  0.16782232  0.24975543  1
  Ru4+  Ru134  1  0.38538927  0.16810664  0.49932959  1
  Ru4+  Ru135  1  0.38773321  0.16701337  0.75019796  1
  Ru4+  Ru136  1  0.38864495  0.50193249  -0.00054296  1
  Ru4+  Ru137  1  0.38581543  0.50067175  0.25205264  1
  Ru4+  Ru138  1  0.38852727  0.50024520  0.49938430  1
  Ru4+  Ru139  1  0.38472903  0.49907811  0.75007416  1
  Ru4+  Ru140  1  0.38848399  0.83463918  -0.00040782  1
  Ru4+  Ru141  1  0.38368709  0.83543013  0.25018549  1
  Ru4+  Ru142  1  0.38928991  0.83338078  0.49857547  1
  Ru4+  Ru143  1  0.38642151  0.83061061  0.75019957  1
  Ru4+  Ru144  1  0.88720593  0.16843546  -0.00005534  1
  Ru4+  Ru145  1  0.88709407  0.16523510  0.25072278  1
  Ru4+  Ru146  1  0.88708497  0.16365763  0.49928968  1
  Ru4+  Ru147  1  0.88599147  0.16913015  0.74963364  1
  Ru4+  Ru148  1  0.88633198  0.49773371  -0.00040718  1
  Ru4+  Ru149  1  0.88273856  0.49510066  0.25025267  1
  Ru4+  Ru150  1  0.88484093  0.49970140  0.50053037  1
  Ru4+  Ru151  1  0.88563932  0.49865403  0.75006615  1
  Ru4+  Ru152  1  0.88952983  0.83353117  0.00061686  1
  Ru4+  Ru153  1  0.88983085  0.83331197  0.25062214  1
  Ru4+  Ru154  1  0.88867966  0.83298869  0.49980234  1
  Ru4+  Ru155  1  0.88949784  0.83448795  0.75121069  1
  Ru4+  Ru156  1  0.25072573  0.25333813  0.00843295  1
  Ru4+  Ru157  1  0.24967433  0.91460509  0.24717588  1
  Ru4+  Ru158  1  0.25013635  0.58981422  0.49882950  1
  Ru4+  Ru159  1  0.24986931  0.95728670  0.74464094  1
  Ru4+  Ru160  1  0.25015321  0.08747211  0.50234954  1
  Ru4+  Ru161  1  0.75005957  0.96535615  0.73387564  1
  Ru4+  Ru162  1  0.24995245  0.62369508  -0.00061635  1
  Ru4+  Ru163  1  0.74997347  0.96248007  0.25120721  1
  Ru4+  Ru164  1  0.75021655  0.70859755  0.75686138  1
  Ru4+  Ru165  1  0.24971329  0.74623459  -0.00032245  1
  Ru4+  Ru166  1  0.75042766  0.75511609  0.49683261  1
  Ru4+  Ru167  1  0.75021816  0.96354079  -0.00510577  1
  Ru4+  Ru168  1  0.24999078  0.37918446  0.02446702  1
  Ru4+  Ru169  1  0.24985317  0.41472736  0.24530076  1
  Ru4+  Ru170  1  0.74961590  0.09410061  0.76025324  1
  Ru4+  Ru171  1  0.75036702  0.91214184  0.49796713  1
  Ru4+  Ru172  1  0.24997844  0.08500487  0.24817847  1
  Ru4+  Ru173  1  0.24955304  0.70786504  0.76658951  1
  Ru4+  Ru174  1  0.74993445  0.56849892  0.00155388  1
  Ru4+  Ru175  1  0.25004804  0.75455550  0.49158783  1
  Ru4+  Ru176  1  0.75005591  0.70434131  -0.00615092  1
  Ru4+  Ru177  1  0.75014225  0.70089707  0.25098120  1
  Ru4+  Ru178  1  0.75005298  0.27385809  0.25130957  1
  Ru4+  Ru179  1  0.25032510  0.92170447  0.49566913  1
  O2-  O180  1  0.16454769  0.07842949  -0.00012756  1
  O2-  O181  1  0.16649665  0.08017811  0.24973277  1
  O2-  O182  1  0.16782985  0.07986703  0.50094488  1
  O2-  O183  1  0.16536810  0.08007517  0.75035186  1
  O2-  O184  1  0.16579998  0.41203369  0.00024557  1
  O2-  O185  1  0.16700140  0.41405953  0.24998642  1
  O2-  O186  1  0.16247885  0.41121722  0.49839150  1
  O2-  O187  1  0.16418503  0.41543508  0.74985735  1
  O2-  O188  1  0.16492102  0.74677463  -0.00034329  1
  O2-  O189  1  0.16494803  0.74912067  0.24874423  1
  O2-  O190  1  0.16702000  0.74711657  0.50065499  1
  O2-  O191  1  0.16664596  0.74435825  0.75082708  1
  O2-  O192  1  0.66719521  0.07813898  0.00015558  1
  O2-  O193  1  0.66409971  0.07877195  0.24990244  1
  O2-  O194  1  0.66914170  0.08044622  0.49956401  1
  O2-  O195  1  0.66674281  0.07991882  0.75072066  1
  O2-  O196  1  0.66672097  0.41608784  0.00093231  1
  O2-  O197  1  0.66718168  0.41649062  0.25040858  1
  O2-  O198  1  0.66693603  0.41619072  0.49839210  1
  O2-  O199  1  0.66625447  0.41521682  0.75061054  1
  O2-  O200  1  0.66785970  0.74560959  0.00058459  1
  O2-  O201  1  0.66552510  0.74520013  0.24903131  1
  O2-  O202  1  0.66801317  0.74835887  0.49838929  1
  O2-  O203  1  0.66702174  0.74566669  0.75058271  1
  O2-  O204  1  0.33404998  0.25368850  0.00048966  1
  O2-  O205  1  0.33235014  0.25188642  0.25056748  1
  O2-  O206  1  0.33323403  0.25121882  0.49965540  1
  O2-  O207  1  0.33474617  0.25251078  0.75019164  1
  O2-  O208  1  0.33383142  0.58783369  0.00122784  1
  O2-  O209  1  0.33236735  0.58441215  0.24655762  1
  O2-  O210  1  0.33463870  0.58631702  0.50035382  1
  O2-  O211  1  0.33491716  0.58633853  0.75018094  1
  O2-  O212  1  0.33352424  0.92153310  0.00149772  1
  O2-  O213  1  0.33220796  0.91991465  0.24953857  1
  O2-  O214  1  0.33265479  0.92018417  0.50098952  1
  O2-  O215  1  0.33250317  0.92104959  0.74997103  1
  O2-  O216  1  0.83274815  0.25217242  0.00176063  1
  O2-  O217  1  0.83175019  0.25305425  0.24899575  1
  O2-  O218  1  0.83304894  0.25118784  0.49843600  1
  O2-  O219  1  0.83272791  0.25078821  0.75114458  1
  O2-  O220  1  0.83288382  0.58616118  0.00127689  1
  O2-  O221  1  0.83438910  0.58565104  0.24960713  1
  O2-  O222  1  0.83490952  0.58594287  0.49987246  1
  O2-  O223  1  0.83487292  0.58498960  0.74919705  1
  O2-  O224  1  0.83185738  0.92144804  -0.00103154  1
  O2-  O225  1  0.83421198  0.92105963  0.24902089  1
  O2-  O226  1  0.83100893  0.91979763  0.49933607  1
  O2-  O227  1  0.83481457  0.92037890  0.75127193  1
  O2-  O228  1  0.16751015  0.25348202  0.00059169  1
  O2-  O229  1  0.16687100  0.25158618  0.25005162  1
  O2-  O230  1  0.16518916  0.25112829  0.49922958  1
  O2-  O231  1  0.16661485  0.25169793  0.75003136  1
  O2-  O232  1  0.16529123  0.58783014  0.00030455  1
  O2-  O233  1  0.16618128  0.58467082  0.24794444  1
  O2-  O234  1  0.16594110  0.58709962  0.50073392  1
  O2-  O235  1  0.16494570  0.58682272  0.75023053  1
  O2-  O236  1  0.16779242  0.92214228  -0.00069534  1
  O2-  O237  1  0.16794416  0.92000519  0.24981820  1
  O2-  O238  1  0.16698127  0.91981814  0.50131799  1
  O2-  O239  1  0.16659804  0.92211623  0.75051339  1
  O2-  O240  1  0.66792930  0.25170808  0.00018537  1
  O2-  O241  1  0.66799030  0.25233069  0.25008118  1
  O2-  O242  1  0.66571826  0.25124342  0.49863603  1
  O2-  O243  1  0.66586653  0.25161050  0.75065821  1
  O2-  O244  1  0.66810566  0.58665883  0.00150776  1
  O2-  O245  1  0.66673514  0.58430664  0.25051336  1
  O2-  O246  1  0.66672547  0.58402842  0.49964134  1
  O2-  O247  1  0.66674726  0.58485301  0.75019575  1
  O2-  O248  1  0.66605488  0.92198754  0.00088213  1
  O2-  O249  1  0.66721745  0.92237249  0.24922061  1
  O2-  O250  1  0.66763420  0.91992939  0.49902144  1
  O2-  O251  1  0.66494138  0.92144886  0.75098216  1
  O2-  O252  1  0.33375601  0.07854522  0.00276605  1
  O2-  O253  1  0.33365919  0.08046658  0.24893473  1
  O2-  O254  1  0.33231098  0.08046099  0.50156810  1
  O2-  O255  1  0.33419298  0.08036189  0.74934133  1
  O2-  O256  1  0.33521715  0.41189503  0.00020267  1
  O2-  O257  1  0.33336385  0.41531998  0.24918744  1
  O2-  O258  1  0.33582445  0.41177214  0.49959628  1
  O2-  O259  1  0.33562131  0.41523931  0.74999851  1
  O2-  O260  1  0.33427839  0.74653349  0.00059306  1
  O2-  O261  1  0.33333264  0.74862679  0.24900016  1
  O2-  O262  1  0.33360482  0.74688746  0.50089120  1
  O2-  O263  1  0.33255367  0.74516676  0.75144139  1
  O2-  O264  1  0.83327220  0.07871009  0.00001246  1
  O2-  O265  1  0.83656881  0.07979845  0.25018502  1
  O2-  O266  1  0.83044146  0.08169340  0.49924485  1
  O2-  O267  1  0.83418657  0.08127202  0.75110777  1
  O2-  O268  1  0.83447056  0.41592883  0.00130200  1
  O2-  O269  1  0.83271081  0.41603157  0.24927204  1
  O2-  O270  1  0.83495344  0.41629531  0.49929593  1
  O2-  O271  1  0.83217048  0.41617343  0.74983734  1
  O2-  O272  1  0.83445590  0.74615656  0.00058023  1
  O2-  O273  1  0.83431449  0.74510224  0.24954679  1
  O2-  O274  1  0.83250382  0.74691187  0.49918336  1
  O2-  O275  1  0.83256086  0.74506158  0.74894634  1
  O2-  O276  1  0.54498451  0.90012420  0.51331572  1
  O2-  O277  1  0.45444674  0.76378718  0.98866708  1
  O2-  O278  1  0.95505588  0.56927159  0.98271161  1
  O2-  O279  1  0.54837518  0.09808419  0.73607908  1
  O2-  O280  1  0.55057197  0.90085842  0.73611546  1
  O2-  O281  1  0.54634862  0.08965519  0.98300630  1
  O2-  O282  1  0.95192730  0.56680951  0.22935791  1
  O2-  O283  1  0.96152373  0.77600225  0.71954043  1
  O2-  O284  1  0.45061611  0.90393646  0.98725307  1
  O2-  O285  1  0.45364283  0.43173534  0.98662397  1
  O2-  O286  1  0.54379829  0.10570974  0.50817245  1
  O2-  O287  1  0.04506444  0.09684990  0.23590981  1
  O2-  O288  1  0.54129536  0.22831841  -0.00567251  1
  O2-  O289  1  0.96727370  0.12218862  0.51937799  1
  O2-  O290  1  0.04825589  0.23590516  0.98363070  1
  O2-  O291  1  0.96223251  0.21560781  0.25746752  1
  O2-  O292  1  0.95919576  0.23331659  0.47247257  1
  O2-  O293  1  0.45216549  0.42934351  0.26662808  1
  O2-  O294  1  0.95080689  0.56850294  0.26852964  1
  O2-  O295  1  0.54260852  0.44219928  0.22164121  1
  O2-  O296  1  0.46024062  0.55991355  0.21731260  1
  O2-  O297  1  0.04428792  0.43069163  0.48795443  1
  O2-  O298  1  0.04231399  0.22988250  0.00993369  1
  O2-  O299  1  0.96247401  0.21842180  0.78460788  1
  O2-  O300  1  0.54342131  0.44086929  0.47250771  1
  O2-  O301  1  0.54507132  0.56633188  0.76965398  1
  O2-  O302  1  0.45132023  0.09792910  0.54021161  1
  O2-  O303  1  0.04888186  0.10821856  0.52827405  1
  O2-  O304  1  0.45671610  0.44304437  0.52891984  1
  O2-  O305  1  0.54974512  0.09660652  0.48317597  1
  O2-  O306  1  0.54622860  0.09948705  0.26754502  1
  O2-  O307  1  0.04600099  0.42962768  0.26333961  1
  O2-  O308  1  0.04936619  0.57028511  0.23375931  1
  O2-  O309  1  0.44637998  0.90925479  0.70249690  1
  O2-  O310  1  0.54544203  0.23666521  0.51317486  1
  O2-  O311  1  0.05024425  0.09457429  0.98632794  1
  O2-  O312  1  0.54121786  0.22866653  0.99432141  1
  O2-  O313  1  0.95391783  0.43088602  0.01158751  1
  O2-  O314  1  0.04544225  0.22889588  0.22083707  1
  O2-  O315  1  0.04547925  0.76459370  0.48448136  1
  O2-  O316  1  0.54794788  0.90345567  0.98007869  1
  O2-  O317  1  0.95259521  0.09628699  0.01210012  1
  O2-  O318  1  0.44685263  0.23667154  0.98288093  1
  O2-  O319  1  0.54866712  0.90433180  0.01952650  1
  O2-  O320  1  0.45338533  0.76667007  0.23368043  1
  O2-  O321  1  0.54691309  0.56983696  0.73086602  1
  O2-  O322  1  0.04596205  0.89912122  0.26225569  1
  O2-  O323  1  0.96171273  0.88896464  0.96607976  1
  O2-  O324  1  0.93548386  0.40838772  0.27830295  1
  O2-  O325  1  0.93341665  0.27200475  0.54376837  1
  O2-  O326  1  0.06325848  0.26473826  0.71599907  1
  O2-  O327  1  0.56528874  0.25840481  0.22152355  1
  O2-  O328  1  0.56362950  0.73774636  0.53264632  1
  O2-  O329  1  0.93396410  0.26036858  0.97264187  1
  O2-  O330  1  0.56331421  0.40471818  0.96558133  1
  O2-  O331  1  0.44847741  0.90709892  0.70657771  1
  O2-  O332  1  0.56256030  0.07571953  0.28271688  1
  O2-  O333  1  0.06531744  0.40913289  0.97040988  1
  O2-  O334  1  0.43762112  0.25908215  0.46614164  1
  O2-  O335  1  0.43642734  0.73573677  0.71711994  1
  O2-  O336  1  0.43127293  0.39784578  0.45275572  1
  O2-  O337  1  0.42491672  0.93501336  0.82493057  1
  O2-  O338  1  0.56456619  0.73869264  0.96663453  1
  O2-  O339  1  0.43654423  0.26135080  0.30877190  1
  O2-  O340  1  0.93064557  0.05819659  0.42391185  1
  O2-  O341  1  0.56318861  0.59295002  0.96728693  1
  O2-  O342  1  0.06432985  0.59695139  0.03225494  1
  O2-  O343  1  0.92774746  0.71986835  0.80828101  1
  O2-  O344  1  0.43425188  0.07194706  0.97378512  1
  O2-  O345  1  0.92369050  0.27243453  0.28542656  1
  O2-  O346  1  0.56363255  0.73621644  0.71726435  1
  O2-  O347  1  0.56158211  0.92888119  0.71818159  1
  O2-  O348  1  0.57218132  0.39614836  0.29569321  1
  O2-  O349  1  0.42736105  0.60994190  0.30589007  1
  O2-  O350  1  0.92992162  0.27525506  0.69486783  1
  O2-  O351  1  0.06900873  0.27338564  0.29729916  1
  O2-  O352  1  0.06170116  0.06873810  0.96556836  1
  O2-  O353  1  0.07013240  0.26448434  0.03003307  1
  O2-  O354  1  0.56561457  0.59393561  0.22168297  1
  O2-  O355  1  0.57908396  0.27640507  0.04123701  1
  O2-  O356  1  0.56476091  0.92557504  0.27738579  1
  O2-  O357  1  0.56683696  0.06651022  0.53344273  1
  O2-  O358  1  0.43528446  0.59448803  0.97329694  1
  O2-  O359  1  0.06496755  0.92636903  0.02644248  1
  O2-  O360  1  0.56277800  0.07264889  0.71985050  1
  O2-  O361  1  0.92747329  0.94520784  0.05645200  1
  O2-  O362  1  0.92038041  0.06082097  0.56083036  1
  O2-  O363  1  0.44101148  0.09028900  0.54639387  1
  O2-  O364  1  0.43875303  0.74048969  0.21941220  1
  O2-  O365  1  0.43441787  0.25850747  0.20001774  1
  O2-  O366  1  0.07175216  0.06561289  0.45914229  1
  O2-  O367  1  0.93554853  0.40947341  0.77831900  1
  O2-  O368  1  0.57021047  0.40025735  0.53892084  1
  O2-  O369  1  0.06476263  0.74294538  0.47550380  1
  O2-  O370  1  0.42318447  0.06886731  0.42821853  1
  O2-  O371  1  0.56457650  0.59347997  0.47308825  1
  O2-  O372  1  0.75003353  0.65754455  0.86091620  1
  O2-  O373  1  0.74991975  0.33298205  0.59414414  1
  O2-  O374  1  0.74961982  0.00505731  0.36128742  1
  O2-  O375  1  0.75010199  0.66292916  0.36077492  1
  O2-  O376  1  0.74980107  0.00467791  0.85612988  1
  O2-  O377  1  0.25003647  0.67133860  0.41226956  1
  O2-  O378  1  0.24957447  0.00205525  0.85568661  1
  O2-  O379  1  0.24996550  0.33359712  0.81835806  1
  O2-  O380  1  0.75031157  0.33360480  0.15330858  1
  O2-  O381  1  0.25004009  0.33138163  0.58006546  1
  O2-  O382  1  0.24994600  0.00115383  0.40228816  1
  O2-  O383  1  0.24993700  0.64992861  0.66729597  1
  O2-  O384  1  0.24997191  0.66631525  0.32387411  1
  O2-  O385  1  0.75025895  0.66537827  0.56910214  1
  O2-  O386  1  0.75004682  0.33470240  0.34804367  1
  O2-  O387  1  0.25004334  0.33560009  0.15584140  1
  O2-  O388  1  0.74975954  0.33170516  0.90605657  1
  O2-  O389  1  0.75001830  0.65178213  0.65827039  1
  O2-  O390  1  0.25008656  0.33244552  0.66993161  1
  O2-  O391  1  0.74970673  0.00533196  0.13884561  1
  O2-  O392  1  0.25010698  0.67595405  0.58050987  1
  O2-  O393  1  0.24982595  0.32958242  0.90662565  1
  O2-  O394  1  0.74996990  0.66202450  0.13986992  1
  O2-  O395  1  0.24996174  0.00677073  0.63956561  1
  O2-  O396  1  0.24986008  0.83518098  0.40651806  1
  O2-  O397  1  0.24995333  0.83726274  0.15924906  1
  O2-  O398  1  0.25002460  0.16823413  0.41878622  1
  O2-  O399  1  0.75012067  0.17293107  0.68375458  1
  O2-  O400  1  0.74997673  0.83423034  0.59169341  1
  O2-  O401  1  0.25001411  0.16809310  0.33133313  1
  O2-  O402  1  0.24993437  0.16351739  0.58547000  1
  O2-  O403  1  0.25013570  0.50420687  0.30810214  1
  O2-  O404  1  0.25020383  0.16239100  0.15933435  1
  O2-  O405  1  0.75011961  0.17504822  0.35445206  1
  O2-  O406  1  0.25009039  0.50221813  0.84886579  1
  O2-  O407  1  0.25008064  0.16829838  0.86497657  1
  O2-  O408  1  0.75002642  0.50501477  0.91407682  1
  O2-  O409  1  0.75009058  0.17325757  0.11729650  1
  O2-  O410  1  0.24980400  0.83659177  0.57148514  1
  O2-  O411  1  0.75010145  0.49958200  0.41045209  1
  O2-  O412  1  0.75011153  0.16457984  0.60098739  1
  O2-  O413  1  0.25008924  0.51059376  0.39598253  1
  O2-  O414  1  0.25001938  0.51138482  0.62459500  1
  O2-  O415  1  0.75001021  0.49836643  0.58976712  1
  O2-  O416  1  0.75014251  0.83309355  0.89051179  1
  O2-  O417  1  0.25033707  0.83384348  0.65946238  1
  O2-  O418  1  0.74993560  0.50205290  0.15345057  1
  O2-  O419  1  0.75011317  0.16259965  0.86361449  1
  O2-  O420  1  0.03502707  0.34146323  0.12968403  1
  O2-  O421  1  0.46853361  0.34065937  0.11882066  1
  O2-  O422  1  0.48049777  0.00627522  0.87405313  1
  O2-  O423  1  0.97685553  0.33710277  0.38097831  1
  O2-  O424  1  0.53542762  -0.00364090  0.38664682  1
  O2-  O425  1  0.46442016  -0.01186771  0.36068567  1
  O2-  O426  1  0.52844834  0.34262355  0.12819714  1
  O2-  O427  1  0.95881749  0.66806787  0.37913277  1
  O2-  O428  1  0.03883551  0.66273046  0.36618893  1
  O2-  O429  1  0.47281463  0.66917506  0.86915439  1
  O2-  O430  1  0.47581002  -0.00214438  0.62553256  1
  O2-  O431  1  0.53576780  0.32962465  0.63772838  1
  O2-  O432  1  0.96421815  -0.01037141  0.63578783  1
  O2-  O433  1  0.02432997  -0.00564080  0.37135424  1
  O2-  O434  1  0.52542338  0.32377763  0.37925537  1
  O2-  O435  1  0.46083171  0.33146388  0.62528566  1
  O2-  O436  1  0.97210383  0.66862069  0.12538949  1
  O2-  O437  1  0.52558748  0.67318777  0.37076135  1
  O2-  O438  1  0.03302134  0.33237846  0.86786428  1
  O2-  O439  1  0.97089080  0.33545642  0.87784845  1
  O2-  O440  1  0.52607659  0.67054990  0.11976195  1
  O2-  O441  1  0.96237920  0.33150427  0.12541276  1
  O2-  O442  1  0.02560479  0.00402103  0.12915634  1
  O2-  O443  1  0.04224303  -0.00106543  0.62455472  1
