# generated using pymatgen
data_La7(Ru4O11)2
_symmetry_space_group_name_H-M   'P 1'
_cell_length_a   23.99290865
_cell_length_b   16.83351426
_cell_length_c   15.43128075
_cell_angle_alpha   90.00072354
_cell_angle_beta   90.00009762
_cell_angle_gamma   90.00061710
_symmetry_Int_Tables_number   1
_chemical_formula_structural   La7(Ru4O11)2
_chemical_formula_sum   'La84 Ru96 O264'
_cell_volume   6232.46236038
_cell_formula_units_Z   12
loop_
 _symmetry_equiv_pos_site_id
 _symmetry_equiv_pos_as_xyz
  1  'x, y, z'
loop_
 _atom_type_symbol
 _atom_type_oxidation_number
  La3+  3.0
  Ru4+  4.0
  O2-  -2.0
loop_
 _atom_site_type_symbol
 _atom_site_label
 _atom_site_symmetry_multiplicity
 _atom_site_fract_x
 _atom_site_fract_y
 _atom_site_fract_z
 _atom_site_occupancy
  La3+  La0  1  0.13496026  0.00257166  0.12691634  1
  La3+  La1  1  0.13616400  0.00665178  0.37477479  1
  La3+  La2  1  0.14072700  -0.00412280  0.62393414  1
  La3+  La3  1  0.13310934  -0.00242509  0.87541284  1
  La3+  La4  1  0.14479341  0.33808585  0.12413850  1
  La3+  La5  1  0.14838564  0.32546528  0.37118887  1
  La3+  La6  1  0.15217208  0.32629157  0.62493183  1
  La3+  La7  1  0.13624281  0.33617596  0.87877695  1
  La3+  La8  1  0.14172483  0.66087562  0.12362745  1
  La3+  La9  1  0.13838455  0.66528251  0.37320512  1
  La3+  La10  1  0.13770800  0.66598240  0.63183699  1
  La3+  La11  1  0.14180277  0.66455320  0.87176412  1
  La3+  La12  1  0.64539710  -0.00416687  0.12932537  1
  La3+  La13  1  0.63234018  -0.00227593  0.38196089  1
  La3+  La14  1  0.63454994  -0.01190118  0.60941677  1
  La3+  La15  1  0.63769673  -0.00047478  0.87586833  1
  La3+  La16  1  0.63681305  0.33182663  0.12746552  1
  La3+  La17  1  0.64018262  0.33076418  0.37460265  1
  La3+  La18  1  0.63974193  0.33499935  0.61934560  1
  La3+  La19  1  0.63900344  0.33416570  0.87282984  1
  La3+  La20  1  0.63985212  0.66892339  0.12298644  1
  La3+  La21  1  0.63888165  0.66628968  0.38031611  1
  La3+  La22  1  0.64014499  0.66823726  0.61977925  1
  La3+  La23  1  0.64047673  0.66812214  0.87679763  1
  La3+  La24  1  0.36192059  0.00498505  0.12923445  1
  La3+  La25  1  0.35865426  0.00548159  0.37298584  1
  La3+  La26  1  0.36223073  0.00348641  0.62233565  1
  La3+  La27  1  0.36448028  0.00004869  0.87657136  1
  La3+  La28  1  0.35323345  0.33912227  0.12723431  1
  La3+  La29  1  0.36117550  0.33266803  0.37881504  1
  La3+  La30  1  0.35163246  0.32481655  0.62436648  1
  La3+  La31  1  0.36553623  0.33669639  0.87836067  1
  La3+  La32  1  0.36009674  0.66402965  0.12394600  1
  La3+  La33  1  0.36558910  0.66706479  0.37219286  1
  La3+  La34  1  0.35833661  0.66180834  0.62670357  1
  La3+  La35  1  0.35490605  0.66280397  0.86931163  1
  La3+  La36  1  0.86210601  -0.00132288  0.12880817  1
  La3+  La37  1  0.85592756  0.00007881  0.37639375  1
  La3+  La38  1  0.85678801  -0.00233132  0.62334781  1
  La3+  La39  1  0.86358153  -0.00580480  0.87319928  1
  La3+  La40  1  0.86848618  0.33399455  0.12672394  1
  La3+  La41  1  0.86266197  0.33156233  0.37208577  1
  La3+  La42  1  0.86209959  0.33214696  0.62159078  1
  La3+  La43  1  0.86188043  0.33454114  0.87561549  1
  La3+  La44  1  0.86534880  0.66965141  0.12078482  1
  La3+  La45  1  0.85710987  0.66909510  0.37823321  1
  La3+  La46  1  0.85679532  0.66713540  0.62261741  1
  La3+  La47  1  0.86308022  0.66896857  0.87978159  1
  La3+  La48  1  0.00726704  0.17526549  0.11996868  1
  La3+  La49  1  0.51298317  0.83026502  0.88557617  1
  La3+  La50  1  0.50527850  0.84336463  0.13577096  1
  La3+  La51  1  -0.00697079  0.17446223  0.35914457  1
  La3+  La52  1  0.00025887  0.49780847  0.11749770  1
  La3+  La53  1  -0.00744244  0.50220264  0.37830541  1
  La3+  La54  1  0.00071166  0.49693064  0.36083236  1
  La3+  La55  1  0.00054070  0.50543605  0.86735325  1
  La3+  La56  1  0.49953898  0.16695077  0.11850920  1
  La3+  La57  1  0.48852472  0.15078125  0.86938537  1
  La3+  La58  1  -0.00462975  0.84059842  0.87526758  1
  La3+  La59  1  -0.00415978  0.50397978  0.62747926  1
  La3+  La60  1  0.50078733  0.16997951  0.63635753  1
  La3+  La61  1  0.49988665  0.51305205  0.88656400  1
  La3+  La62  1  0.51388028  0.83082754  0.86884702  1
  La3+  La63  1  -0.00480744  0.16554033  0.37213038  1
  La3+  La64  1  0.49804025  0.50369898  0.12276157  1
  La3+  La65  1  0.49825684  0.83356840  0.38024876  1
  La3+  La66  1  0.50001539  0.50244041  0.14412779  1
  La3+  La67  1  0.49709783  0.83785449  0.61316674  1
  La3+  La68  1  0.00415281  0.83354418  0.62806559  1
  La3+  La69  1  0.00291539  0.16745329  0.63136465  1
  La3+  La70  1  -0.00419504  0.15982118  0.89461559  1
  La3+  La71  1  0.50807948  0.51259033  0.87029877  1
  La3+  La72  1  0.25049409  0.77015964  0.25075897  1
  La3+  La73  1  0.75002988  0.83506949  0.00801442  1
  La3+  La74  1  0.75053171  0.15683879  -0.00048323  1
  La3+  La75  1  0.74902943  0.82239024  0.43847816  1
  La3+  La76  1  0.24970567  0.84187585  0.03202000  1
  La3+  La77  1  0.74965811  0.50308493  0.81313253  1
  La3+  La78  1  0.25047584  0.83881183  0.58429359  1
  La3+  La79  1  0.25040715  0.45350766  0.47113055  1
  La3+  La80  1  0.25182737  0.17201803  0.73025427  1
  La3+  La81  1  0.74959365  0.83914788  0.76514205  1
  La3+  La82  1  0.75066473  0.19245305  0.74300508  1
  La3+  La83  1  0.74834804  0.50297415  0.26756843  1
  Ru4+  Ru84  1  0.00116096  -0.00304007  0.01229252  1
  Ru4+  Ru85  1  -0.00195516  -0.00401543  0.24533663  1
  Ru4+  Ru86  1  -0.00033476  -0.00821227  0.50087630  1
  Ru4+  Ru87  1  0.00453820  0.00871674  0.76303763  1
  Ru4+  Ru88  1  0.00118054  0.33147460  0.00697405  1
  Ru4+  Ru89  1  0.00313487  0.32869056  0.24604365  1
  Ru4+  Ru90  1  -0.00046458  0.33798021  0.49711626  1
  Ru4+  Ru91  1  0.00373031  0.32836481  0.75325169  1
  Ru4+  Ru92  1  0.00185361  0.66817365  0.00128201  1
  Ru4+  Ru93  1  0.00051897  0.67454346  0.24015248  1
  Ru4+  Ru94  1  -0.00118249  0.67229107  0.50388063  1
  Ru4+  Ru95  1  -0.00040686  0.66384381  0.75127792  1
  Ru4+  Ru96  1  0.50566812  0.00581682  0.00641344  1
  Ru4+  Ru97  1  0.50178328  0.00298487  0.25259325  1
  Ru4+  Ru98  1  0.50016120  0.00500900  0.49996717  1
  Ru4+  Ru99  1  0.49508817  -0.01057433  0.73697217  1
  Ru4+  Ru100  1  0.49243461  0.33134155  0.00195060  1
  Ru4+  Ru101  1  0.50101046  0.32555530  0.25099143  1
  Ru4+  Ru102  1  0.49899171  0.33461708  0.50201932  1
  Ru4+  Ru103  1  0.49605544  0.33462984  0.74357678  1
  Ru4+  Ru104  1  0.49771630  0.66798709  0.00508822  1
  Ru4+  Ru105  1  0.50219028  0.66151262  0.23970773  1
  Ru4+  Ru106  1  0.50033161  0.66131269  0.50423432  1
  Ru4+  Ru107  1  0.49838444  0.66745428  0.74492786  1
  Ru4+  Ru108  1  0.11295183  0.16825440  -0.00188274  1
  Ru4+  Ru109  1  0.11606141  0.16200098  0.24739192  1
  Ru4+  Ru110  1  0.11535910  0.16050706  0.50633244  1
  Ru4+  Ru111  1  0.10837074  0.17062907  0.75100092  1
  Ru4+  Ru112  1  0.11546065  0.49807574  0.00001480  1
  Ru4+  Ru113  1  0.11515911  0.49666728  0.24742842  1
  Ru4+  Ru114  1  0.10952202  0.49319316  0.50597833  1
  Ru4+  Ru115  1  0.11207610  0.50319211  0.74962399  1
  Ru4+  Ru116  1  0.10672969  0.83138832  0.00150749  1
  Ru4+  Ru117  1  0.10638699  0.83267731  0.24776806  1
  Ru4+  Ru118  1  0.11030764  0.83056286  0.49872894  1
  Ru4+  Ru119  1  0.11366678  0.83051056  0.74814235  1
  Ru4+  Ru120  1  0.60655242  0.16141031  0.00012546  1
  Ru4+  Ru121  1  0.61189802  0.16010673  0.25284953  1
  Ru4+  Ru122  1  0.61109539  0.16169040  0.49763821  1
  Ru4+  Ru123  1  0.61042613  0.17058377  0.74778576  1
  Ru4+  Ru124  1  0.61384463  0.50279732  0.00117924  1
  Ru4+  Ru125  1  0.60640365  0.50116942  0.24777702  1
  Ru4+  Ru126  1  0.61294314  0.50555224  0.49661570  1
  Ru4+  Ru127  1  0.60966727  0.50241083  0.74842072  1
  Ru4+  Ru128  1  0.60808294  0.83422077  0.00017992  1
  Ru4+  Ru129  1  0.61330730  0.83134822  0.25378354  1
  Ru4+  Ru130  1  0.61581464  0.84183929  0.49700467  1
  Ru4+  Ru131  1  0.60814121  0.83472833  0.74806336  1
  Ru4+  Ru132  1  0.38836387  0.17209602  0.00288802  1
  Ru4+  Ru133  1  0.38792931  0.16552785  0.24975839  1
  Ru4+  Ru134  1  0.38662624  0.16585388  0.49678611  1
  Ru4+  Ru135  1  0.39004737  0.16918547  0.74988677  1
  Ru4+  Ru136  1  0.38735536  0.50011805  0.00232816  1
  Ru4+  Ru137  1  0.38772404  0.49679371  0.24409379  1
  Ru4+  Ru138  1  0.39173095  0.49389327  0.50335785  1
  Ru4+  Ru139  1  0.38760016  0.49677742  0.74624675  1
  Ru4+  Ru140  1  0.39339776  0.83465931  0.00024106  1
  Ru4+  Ru141  1  0.38910398  0.84344961  0.25420241  1
  Ru4+  Ru142  1  0.38827663  0.83684809  0.50189646  1
  Ru4+  Ru143  1  0.38699832  0.82980917  0.74780699  1
  Ru4+  Ru144  1  0.89143055  0.16516322  0.00065044  1
  Ru4+  Ru145  1  0.88457566  0.16120913  0.24915314  1
  Ru4+  Ru146  1  0.88695022  0.16420258  0.50068339  1
  Ru4+  Ru147  1  0.89045934  0.16981117  0.75035693  1
  Ru4+  Ru148  1  0.88564535  0.49893727  -0.00146895  1
  Ru4+  Ru149  1  0.88340170  0.50774398  0.24520406  1
  Ru4+  Ru150  1  0.88469689  0.50467412  0.50265149  1
  Ru4+  Ru151  1  0.89114520  0.50104566  0.74844254  1
  Ru4+  Ru152  1  0.88863214  0.83273341  -0.00173536  1
  Ru4+  Ru153  1  0.88821472  0.83503961  0.24957810  1
  Ru4+  Ru154  1  0.89005809  0.83325566  0.49933465  1
  Ru4+  Ru155  1  0.88741933  0.82758739  0.74776146  1
  Ru4+  Ru156  1  0.75000348  0.63184453  0.72842748  1
  Ru4+  Ru157  1  0.24981201  0.30634458  0.77721831  1
  Ru4+  Ru158  1  0.24927071  0.94064418  0.24887309  1
  Ru4+  Ru159  1  0.24972714  0.26237300  0.00824188  1
  Ru4+  Ru160  1  0.75030349  0.42476014  0.50008950  1
  Ru4+  Ru161  1  0.74960796  0.92243089  0.25481264  1
  Ru4+  Ru162  1  0.75038403  0.36256058  0.22305310  1
  Ru4+  Ru163  1  0.75018362  0.01621923  -0.00007897  1
  Ru4+  Ru164  1  0.24986286  0.95031774  0.46692688  1
  Ru4+  Ru165  1  0.24967499  0.96602894  -0.03401271  1
  Ru4+  Ru166  1  0.24936227  0.04138472  0.79413228  1
  Ru4+  Ru167  1  0.74947065  0.04620737  0.73627148  1
  Ru4+  Ru168  1  0.24973780  0.72255422  0.47957987  1
  Ru4+  Ru169  1  0.74998722  0.22695082  0.48449529  1
  Ru4+  Ru170  1  0.25038523  0.56918073  0.24970654  1
  Ru4+  Ru171  1  0.25012861  0.59025428  0.51801970  1
  Ru4+  Ru172  1  0.25098314  0.24764965  0.25476071  1
  Ru4+  Ru173  1  0.74983393  0.29483227  0.00563212  1
  Ru4+  Ru174  1  0.25023563  0.08453019  0.02776964  1
  Ru4+  Ru175  1  0.75032497  0.38559002  0.71831449  1
  Ru4+  Ru176  1  0.24944358  0.43908389  0.74440081  1
  Ru4+  Ru177  1  0.74963364  0.63821441  0.22458374  1
  Ru4+  Ru178  1  0.24964068  0.71459508  -0.01454476  1
  Ru4+  Ru179  1  0.25017193  0.90382753  0.74942189  1
  O2-  O180  1  0.16756755  0.08010833  0.00188807  1
  O2-  O181  1  0.16862878  0.08117785  0.24561147  1
  O2-  O182  1  0.16829265  0.08129771  0.49525779  1
  O2-  O183  1  0.16501713  0.07946922  0.75204179  1
  O2-  O184  1  0.16807757  0.41450833  -0.00350261  1
  O2-  O185  1  0.16355212  0.41455090  0.24744641  1
  O2-  O186  1  0.16739412  0.41341408  0.49656277  1
  O2-  O187  1  0.16582237  0.41624984  0.75241968  1
  O2-  O188  1  0.16701219  0.74482228  -0.00144296  1
  O2-  O189  1  0.15723625  0.74362949  0.25172658  1
  O2-  O190  1  0.16486138  0.74510077  0.49951167  1
  O2-  O191  1  0.16656801  0.74814266  0.74499324  1
  O2-  O192  1  0.66908388  0.07833581  -0.00225619  1
  O2-  O193  1  0.66764914  0.08323539  0.25014696  1
  O2-  O194  1  0.66431512  0.08230101  0.49911518  1
  O2-  O195  1  0.66641080  0.08203136  0.74982897  1
  O2-  O196  1  0.66571565  0.41243616  -0.00039459  1
  O2-  O197  1  0.66527748  0.41293247  0.24641906  1
  O2-  O198  1  0.66754166  0.41631880  0.49785837  1
  O2-  O199  1  0.66624425  0.41279608  0.75271826  1
  O2-  O200  1  0.66654644  0.74444929  -0.00039091  1
  O2-  O201  1  0.66348172  0.74853672  0.24871246  1
  O2-  O202  1  0.66445059  0.75104599  0.49913107  1
  O2-  O203  1  0.66605221  0.74514068  0.75139574  1
  O2-  O204  1  0.33090092  0.25370441  -0.00535360  1
  O2-  O205  1  0.33411382  0.25251736  0.25154611  1
  O2-  O206  1  0.33340024  0.24948721  0.49444734  1
  O2-  O207  1  0.33481652  0.25460105  0.75743192  1
  O2-  O208  1  0.33691256  0.58414087  0.00050674  1
  O2-  O209  1  0.33495481  0.58687998  0.25177932  1
  O2-  O210  1  0.33292737  0.58168686  0.49545048  1
  O2-  O211  1  0.33736906  0.58029123  0.74702800  1
  O2-  O212  1  0.33081722  0.92139336  -0.00405789  1
  O2-  O213  1  0.33133343  0.91948662  0.24810237  1
  O2-  O214  1  0.33247215  0.92086994  0.50000466  1
  O2-  O215  1  0.33437894  0.91639442  0.75128791  1
  O2-  O216  1  0.83198203  0.25789684  -0.00088781  1
  O2-  O217  1  0.83676799  0.25169756  0.24628493  1
  O2-  O218  1  0.83067165  0.25102628  0.49903849  1
  O2-  O219  1  0.83599327  0.25379387  0.75065841  1
  O2-  O220  1  0.83221423  0.58723652  -0.00100397  1
  O2-  O221  1  0.83027380  0.59136681  0.24798331  1
  O2-  O222  1  0.83542410  0.58627707  0.49919674  1
  O2-  O223  1  0.82820307  0.58868988  0.75307891  1
  O2-  O224  1  0.83308049  0.92020673  0.00070950  1
  O2-  O225  1  0.83005701  0.92008073  0.25176897  1
  O2-  O226  1  0.83353051  0.91808961  0.49824554  1
  O2-  O227  1  0.83363529  0.92041438  0.75137606  1
  O2-  O228  1  0.16644393  0.25432786  -0.00163391  1
  O2-  O229  1  0.16812141  0.25079459  0.24332229  1
  O2-  O230  1  0.16273578  0.24794517  0.49930922  1
  O2-  O231  1  0.17007778  0.25471235  0.76126593  1
  O2-  O232  1  0.16476129  0.58399695  -0.00283207  1
  O2-  O233  1  0.16670877  0.58630560  0.25346779  1
  O2-  O234  1  0.16524811  0.58512040  0.50011737  1
  O2-  O235  1  0.16347872  0.58582834  0.74718655  1
  O2-  O236  1  0.16491752  0.92114722  0.00105452  1
  O2-  O237  1  0.16458669  0.91941655  0.24986316  1
  O2-  O238  1  0.16935505  0.92129721  0.49741587  1
  O2-  O239  1  0.16627382  0.91704249  0.75363926  1
  O2-  O240  1  0.66241166  0.25270792  0.00062437  1
  O2-  O241  1  0.66253172  0.24942252  0.24434689  1
  O2-  O242  1  0.66894032  0.24802698  0.50083959  1
  O2-  O243  1  0.66947249  0.25193714  0.75510281  1
  O2-  O244  1  0.66734814  0.58562400  -0.00034905  1
  O2-  O245  1  0.66968371  0.58951719  0.24854431  1
  O2-  O246  1  0.66620638  0.58223820  0.50067014  1
  O2-  O247  1  0.67208701  0.58859226  0.75172133  1
  O2-  O248  1  0.66526088  0.92151150  -0.00281204  1
  O2-  O249  1  0.66724596  0.91992508  0.25442089  1
  O2-  O250  1  0.67366770  0.91792427  0.49564051  1
  O2-  O251  1  0.66447568  0.92097377  0.75109333  1
  O2-  O252  1  0.33476003  0.08365527  0.00024178  1
  O2-  O253  1  0.33557892  0.08439593  0.24962426  1
  O2-  O254  1  0.33522085  0.08492218  0.50048136  1
  O2-  O255  1  0.33444998  0.07678686  0.75178527  1
  O2-  O256  1  0.33546576  0.41322400  -0.00316622  1
  O2-  O257  1  0.33834183  0.41507041  0.25354733  1
  O2-  O258  1  0.33521763  0.41300177  0.49516807  1
  O2-  O259  1  0.33083906  0.41582119  0.75323651  1
  O2-  O260  1  0.33094996  0.74607577  0.00407094  1
  O2-  O261  1  0.34473322  0.74547394  0.25028509  1
  O2-  O262  1  0.33322206  0.74403099  0.49887277  1
  O2-  O263  1  0.33052223  0.75235098  0.74792556  1
  O2-  O264  1  0.83497046  0.07881974  -0.00216420  1
  O2-  O265  1  0.82887746  0.08173792  0.24457201  1
  O2-  O266  1  0.83608643  0.08161058  0.49948466  1
  O2-  O267  1  0.83093774  0.07904608  0.75093497  1
  O2-  O268  1  0.83568277  0.41449579  -0.00073076  1
  O2-  O269  1  0.83329829  0.41297888  0.24978218  1
  O2-  O270  1  0.83308504  0.41126149  0.49846972  1
  O2-  O271  1  0.83426247  0.41198782  0.75181321  1
  O2-  O272  1  0.83135527  0.74564441  0.00202232  1
  O2-  O273  1  0.83874163  0.74896125  0.24955897  1
  O2-  O274  1  0.83623254  0.74894043  0.49813314  1
  O2-  O275  1  0.83347942  0.74595686  0.75266902  1
  O2-  O276  1  0.54796026  0.75702513  0.51786143  1
  O2-  O277  1  0.94672615  0.42539820  0.26911306  1
  O2-  O278  1  0.05031141  0.57002264  0.01310324  1
  O2-  O279  1  0.95144440  0.56811085  0.00373807  1
  O2-  O280  1  0.54034311  0.90478634  0.49223572  1
  O2-  O281  1  0.96609781  0.10821508  0.21278308  1
  O2-  O282  1  0.54714859  0.90142651  0.26296909  1
  O2-  O283  1  0.95425626  0.91210668  0.77155203  1
  O2-  O284  1  0.54116008  0.22912222  0.52931784  1
  O2-  O285  1  0.53577501  0.22372455  0.78675465  1
  O2-  O286  1  0.05671045  0.09296511  0.44755133  1
  O2-  O287  1  0.46847579  0.44574317  0.49639608  1
  O2-  O288  1  0.93907575  0.42667116  0.51778388  1
  O2-  O289  1  0.95007090  0.09622103  0.74036630  1
  O2-  O290  1  0.55300001  0.90555263  0.51354751  1
  O2-  O291  1  0.05645138  0.24323493  0.27109153  1
  O2-  O292  1  0.05291779  0.57788496  0.25627306  1
  O2-  O293  1  0.94930047  0.57602475  0.23884690  1
  O2-  O294  1  0.05097988  0.09472816  0.74456797  1
  O2-  O295  1  0.45705882  0.11664463  0.53478408  1
  O2-  O296  1  0.46597043  0.22728171  0.96928415  1
  O2-  O297  1  0.55306797  0.23560619  0.23000253  1
  O2-  O298  1  0.45218615  0.09481744  0.74224152  1
  O2-  O299  1  0.46391466  0.78139215  0.77764035  1
  O2-  O300  1  0.45075269  0.76674670  0.26514907  1
  O2-  O301  1  0.46546684  0.43791872  0.45940805  1
  O2-  O302  1  0.55475658  0.76289706  0.48062515  1
  O2-  O303  1  0.04590851  0.76224432  0.23959818  1
  O2-  O304  1  0.05153812  0.58690333  0.48480359  1
  O2-  O305  1  0.44705555  0.09368478  0.01103205  1
  O2-  O306  1  0.95112401  0.90367526  0.73354233  1
  O2-  O307  1  0.44912452  0.23310961  0.23828405  1
  O2-  O308  1  0.45564433  0.57606525  0.46055968  1
  O2-  O309  1  0.05814109  0.91656977  0.52123738  1
  O2-  O310  1  0.46285573  0.44937672  0.77557608  1
  O2-  O311  1  0.46697068  0.77653404  0.03833878  1
  O2-  O312  1  0.54526098  0.42732939  0.99408948  1
  O2-  O313  1  0.56037293  0.08075326  0.94455792  1
  O2-  O314  1  0.94828455  0.23885294  0.23731867  1
  O2-  O315  1  0.55079559  0.09344138  0.48127796  1
  O2-  O316  1  0.03784648  0.77823132  0.96944636  1
  O2-  O317  1  0.03001815  0.44992295  0.49367651  1
  O2-  O318  1  0.44887603  0.76003853  0.48835256  1
  O2-  O319  1  0.46400893  0.90031834  0.96401774  1
  O2-  O320  1  0.04218160  0.43569529  0.74219691  1
  O2-  O321  1  0.03222259  0.45396404  0.51075391  1
  O2-  O322  1  0.95324550  0.43288783  0.23217482  1
  O2-  O323  1  0.02832821  0.22754896  0.79610814  1
  O2-  O324  1  0.43104685  0.90836556  0.68495702  1
  O2-  O325  1  0.07125600  0.37150635  0.40564220  1
  O2-  O326  1  0.06276166  0.92911718  0.96450393  1
  O2-  O327  1  0.06254168  0.40501628  0.03246593  1
  O2-  O328  1  0.56144559  0.59619499  0.27816516  1
  O2-  O329  1  0.42513831  0.37781771  0.69861347  1
  O2-  O330  1  0.41862282  0.27626542  0.05900939  1
  O2-  O331  1  0.08103708  0.08656098  0.59182697  1
  O2-  O332  1  0.56839349  0.41247638  0.45257693  1
  O2-  O333  1  0.93495763  0.92099640  0.22662517  1
  O2-  O334  1  0.09196454  0.40000005  0.58029794  1
  O2-  O335  1  0.41900573  0.73272524  0.94358057  1
  O2-  O336  1  0.57257762  0.26616474  0.45609420  1
  O2-  O337  1  0.06242201  0.08011902  0.02298754  1
  O2-  O338  1  0.56262673  0.59771568  0.72161159  1
  O2-  O339  1  0.41617509  0.38026617  0.55904787  1
  O2-  O340  1  0.43843688  0.93239305  0.32628724  1
  O2-  O341  1  0.41897854  0.93918364  0.05291054  1
  O2-  O342  1  0.58228416  0.27201137  0.69754956  1
  O2-  O343  1  0.05808596  0.25072833  0.27766658  1
  O2-  O344  1  0.43295569  0.04943489  0.44195572  1
  O2-  O345  1  0.41875199  0.72768220  0.69314363  1
  O2-  O346  1  0.05044494  0.90588040  0.51830643  1
  O2-  O347  1  0.93869028  0.93031601  0.96373028  1
  O2-  O348  1  0.06065613  0.25845581  0.96354214  1
  O2-  O349  1  0.43340075  0.91432345  0.19149309  1
  O2-  O350  1  0.43967201  0.25405006  0.52977993  1
  O2-  O351  1  0.05051770  0.09903593  0.45432021  1
  O2-  O352  1  0.93723380  0.25648209  0.52523813  1
  O2-  O353  1  0.55922986  0.06831647  0.32173481  1
  O2-  O354  1  0.93750039  0.59866879  0.72050531  1
  O2-  O355  1  0.93693486  0.25732543  0.01977295  1
  O2-  O356  1  0.56333076  0.59718583  0.47098659  1
  O2-  O357  1  0.06307109  0.07441777  0.27580334  1
  O2-  O358  1  0.56354193  0.07079185  0.19606435  1
  O2-  O359  1  0.08205044  0.26722278  0.69684589  1
  O2-  O360  1  0.44197583  0.93694413  0.82516682  1
  O2-  O361  1  0.42868236  0.60129412  0.53629228  1
  O2-  O362  1  0.56870629  0.06110157  0.07860825  1
  O2-  O363  1  0.56652678  0.93661340  0.46300088  1
  O2-  O364  1  0.91871539  0.06873063  0.31394017  1
  O2-  O365  1  0.93597639  0.73718298  0.96375753  1
  O2-  O366  1  0.07380521  0.71914625  0.06184757  1
  O2-  O367  1  0.44450448  0.73896383  0.28842328  1
  O2-  O368  1  0.06203052  0.92707020  0.78297365  1
  O2-  O369  1  0.06002720  0.73812759  0.71531361  1
  O2-  O370  1  0.55344793  0.08415381  0.94358032  1
  O2-  O371  1  0.56950416  0.41452885  0.54582161  1
  O2-  O372  1  0.25005251  0.33652641  0.17554091  1
  O2-  O373  1  0.75033506  0.33044415  0.44444003  1
  O2-  O374  1  0.25017656  0.01717536  0.55554679  1
  O2-  O375  1  0.25035599  -0.00694711  0.67626520  1
  O2-  O376  1  0.25309089  0.33023184  0.34645958  1
  O2-  O377  1  0.75075596  0.66675286  0.42592475  1
  O2-  O378  1  0.75063795  0.33179033  0.59704300  1
  O2-  O379  1  0.25114060  0.34010190  0.64681818  1
  O2-  O380  1  0.75023484  0.31788863  0.82690824  1
  O2-  O381  1  0.75009351  0.66462506  0.61357359  1
  O2-  O382  1  0.24925921  0.00534966  0.35319975  1
  O2-  O383  1  0.24982952  0.67010172  0.82068412  1
  O2-  O384  1  0.25009230  0.66495923  0.17184421  1
  O2-  O385  1  0.74957431  0.35122653  0.10719834  1
  O2-  O386  1  0.75000609  0.68785683  0.33677691  1
  O2-  O387  1  0.74984412  0.36345926  0.90431090  1
  O2-  O388  1  0.24977566  0.34731087  0.08406911  1
  O2-  O389  1  0.25031930  0.64238349  0.08270926  1
  O2-  O390  1  0.75109311  0.00971862  0.61824145  1
  O2-  O391  1  0.25009328  0.63255761  0.90136741  1
  O2-  O392  1  0.75020472  -0.00384252  0.87671002  1
  O2-  O393  1  0.24993304  0.66445510  0.35197261  1
  O2-  O394  1  0.75097211  -0.00625202  0.12116790  1
  O2-  O395  1  0.74940706  0.31889489  0.32405900  1
  O2-  O396  1  0.75020005  0.49632397  0.65894972  1
  O2-  O397  1  0.74991654  0.83316364  0.13267027  1
  O2-  O398  1  0.74950213  0.81934268  0.21604834  1
  O2-  O399  1  0.24979738  0.50343275  0.34048273  1
  O2-  O400  1  0.74936657  0.83006322  0.64730145  1
  O2-  O401  1  0.24942396  0.86805964  0.15929892  1
  O2-  O402  1  0.24888926  0.15787509  0.86208004  1
  O2-  O403  1  0.25000710  0.86837926  0.33587441  1
  O2-  O404  1  0.24998554  0.82514167  0.89480215  1
  O2-  O405  1  0.24997692  0.50951435  0.61444671  1
  O2-  O406  1  0.25013558  0.17320735  0.10250142  1
  O2-  O407  1  0.75031150  0.17518753  0.37286691  1
  O2-  O408  1  0.25027483  0.16794933  0.94850157  1
  O2-  O409  1  0.75160825  0.83552439  0.56534789  1
  O2-  O410  1  0.24959794  0.82846585  0.44481687  1
  O2-  O411  1  0.24988749  0.81273528  0.80854932  1
  O2-  O412  1  0.25033854  0.16981521  0.40584996  1
  O2-  O413  1  0.24917537  0.16024160  0.61284956  1
  O2-  O414  1  0.25011230  0.15935676  0.32377630  1
  O2-  O415  1  0.25003402  0.17098846  0.53441278  1
  O2-  O416  1  0.24994195  0.50555435  0.16185914  1
  O2-  O417  1  0.24979758  0.49415965  0.83751935  1
  O2-  O418  1  0.75033721  0.51109466  0.56983941  1
  O2-  O419  1  0.74976759  0.82519320  0.88516036  1
  O2-  O420  1  0.51675648  0.33735305  0.62789352  1
  O2-  O421  1  0.51848793  0.33442432  0.35991562  1
  O2-  O422  1  0.54823580  0.00313674  0.64162205  1
  O2-  O423  1  0.97689744  0.34160954  0.12618589  1
  O2-  O424  1  0.02732817  -0.02249059  0.36484536  1
  O2-  O425  1  0.48232230  0.35584470  0.13014589  1
  O2-  O426  1  0.01862443  0.32491968  0.61859308  1
  O2-  O427  1  0.54674085  0.66351783  0.12063583  1
  O2-  O428  1  0.47257161  0.33645015  0.87274539  1
  O2-  O429  1  0.48028067  0.01479712  0.13310097  1
  O2-  O430  1  0.97014011  0.32821637  0.37585527  1
  O2-  O431  1  0.96150338  0.34166181  0.64623902  1
  O2-  O432  1  0.97116209  -0.01032710  0.38481584  1
  O2-  O433  1  0.45848012  0.64306768  0.85849289  1
  O2-  O434  1  0.95772075  0.00822408  0.10782868  1
  O2-  O435  1  0.97093227  0.67087525  0.12272909  1
  O2-  O436  1  0.48722136  0.66807386  0.62637246  1
  O2-  O437  1  0.96206146  -0.00171203  0.61172791  1
  O2-  O438  1  0.54780205  0.67047829  0.87965284  1
  O2-  O439  1  0.04217235  -0.00903958  0.13937148  1
  O2-  O440  1  0.45385537  0.65486212  0.12815206  1
  O2-  O441  1  0.02747537  0.65924430  0.87116571  1
  O2-  O442  1  0.45944200  0.00317416  0.60900611  1
  O2-  O443  1  0.02020420  -0.01174890  0.64154038  1
